MODEL 1
REMARK VINA RESULT:     -11.9      0.000      0.000
REMARK SMILES CCOc1cc(N2CCOCC2)ccc1[C@H]([NH3+])C(=O)NCCCCNC(=O)c1ccc(-c2c3nc(c(-c4c(F)c(F)c(F)c(F)c4F)c4ccc([nH]4)c(-c4c(F)c(F)c(F)c(F)c4F)c4nc(c(-c5c(F)c(F)c(F)c(F)c5F)c5ccc2[nH]5)C=C4)C=C3)cc1
REMARK SMILES IDX 22 1 21 2 20 3 18 4 19 5 16 7 15 8 4 9 5 10 6 11 14 12 13 13
REMARK SMILES IDX 3 14 2 15 1 16 7 17 8 18 12 19 9 20 11 21 10 22 17 23 23 27
REMARK SMILES IDX 24 28 25 29 26 30 27 32 28 33 29 34 90 35 30 36 89 37 31 38
REMARK SMILES IDX 32 39 33 40 83 41 34 42 88 43 82 44 84 45 35 46 87 47 81 48
REMARK SMILES IDX 80 49 36 51 68 52 48 53 67 54 49 55 52 56 66 57 85 58 50 59
REMARK SMILES IDX 51 60 65 62 86 63 53 64 37 65 38 66 46 67 39 68 40 69 44 70
REMARK SMILES IDX 47 71 41 72 42 73 45 74 43 75 69 76 70 77 78 78 71 79 72 80
REMARK SMILES IDX 76 81 79 82 73 83 74 84 77 85 75 86 54 87 55 88 63 89 56 90
REMARK SMILES IDX 57 91 61 92 64 93 58 94 59 95 62 96 60 97
REMARK H PARENT 20 6 17 24 17 25 17 26 25 31 84 50 52 61
REMARK Flexibility Score: inf
ROOT
ATOM      1  C   UNL A   1      37.200  22.408  24.788  1.00  0.00     0.023 C 
ENDROOT
BRANCH   1   2
ATOM      2  C   UNL A   1      36.647  23.293  25.910  1.00  0.00     0.116 C 
BRANCH   2   3
ATOM      3  N   UNL A   1      35.902  24.410  25.376  1.00  0.00    -0.351 N 
ATOM      4  C   UNL A   1      34.579  24.701  25.301  1.00  0.00     0.283 C 
ATOM      5  O   UNL A   1      34.328  25.749  24.682  1.00  0.00    -0.268 OA
ATOM      6  H   UNL A   1      36.475  25.109  24.984  1.00  0.00     0.163 HD
BRANCH   4   7
ATOM      7  C   UNL A   1      33.391  23.832  25.800  1.00  0.00     0.306 C 
BRANCH   7   8
ATOM      8  C   UNL A   1      33.250  22.396  25.318  1.00  0.00     0.061 A 
ATOM      9  C   UNL A   1      32.755  22.018  24.057  1.00  0.00     0.131 A 
ATOM     10  C   UNL A   1      32.554  20.666  23.737  1.00  0.00     0.072 A 
ATOM     11  C   UNL A   1      32.848  19.648  24.655  1.00  0.00     0.040 A 
ATOM     12  C   UNL A   1      33.577  21.364  26.219  1.00  0.00     0.016 A 
ATOM     13  C   UNL A   1      33.376  20.017  25.894  1.00  0.00     0.027 A 
BRANCH   9  14
ATOM     14  O   UNL A   1      32.329  22.988  23.188  1.00  0.00    -0.493 OA
BRANCH  14  15
ATOM     15  C   UNL A   1      33.249  23.310  22.144  1.00  0.00     0.226 C 
ATOM     16  C   UNL A   1      32.903  24.718  21.683  1.00  0.00     0.049 C 
ENDBRANCH  14  15
ENDBRANCH   9  14
BRANCH  11  17
ATOM     17  N   UNL A   1      32.534  18.338  24.342  1.00  0.00    -0.367 N 
ATOM     18  C   UNL A   1      32.528  17.362  25.445  1.00  0.00     0.145 C 
ATOM     19  C   UNL A   1      32.827  17.778  23.017  1.00  0.00     0.145 C 
ATOM     20  C   UNL A   1      33.773  16.459  25.375  1.00  0.00     0.181 C 
ATOM     21  C   UNL A   1      34.028  16.819  23.058  1.00  0.00     0.181 C 
ATOM     22  O   UNL A   1      33.892  15.828  24.089  1.00  0.00    -0.378 OA
ENDBRANCH  11  17
ENDBRANCH   7   8
BRANCH   7  23
ATOM     23  N   UNL A   1      32.144  24.626  25.790  1.00  0.00    -0.343 N 
ATOM     24  H   UNL A   1      31.867  24.836  26.748  1.00  0.00     0.345 HD
ATOM     25  H   UNL A   1      31.406  24.092  25.331  1.00  0.00     0.345 HD
ATOM     26  H   UNL A   1      32.300  25.497  25.282  1.00  0.00     0.345 HD
ENDBRANCH   7  23
ENDBRANCH   4   7
ENDBRANCH   2   3
ENDBRANCH   1   2
BRANCH   1  27
ATOM     27  C   UNL A   1      37.733  21.052  25.236  1.00  0.00     0.023 C 
BRANCH  27  28
ATOM     28  C   UNL A   1      39.113  21.093  25.881  1.00  0.00     0.116 C 
BRANCH  28  29
ATOM     29  N   UNL A   1      39.828  19.820  25.852  1.00  0.00    -0.352 N 
ATOM     30  C   UNL A   1      41.166  19.578  26.080  1.00  0.00     0.251 C 
ATOM     31  H   UNL A   1      39.281  19.028  25.644  1.00  0.00     0.163 HD
ATOM     32  O   UNL A   1      41.631  18.449  25.964  1.00  0.00    -0.269 OA
BRANCH  30  33
ATOM     33  C   UNL A   1      42.048  20.716  26.410  1.00  0.00     0.039 A 
ATOM     34  C   UNL A   1      42.584  21.486  25.375  1.00  0.00     0.014 A 
ATOM     35  C   UNL A   1      42.231  21.090  27.741  1.00  0.00     0.014 A 
ATOM     36  C   UNL A   1      43.195  22.706  25.673  1.00  0.00     0.010 A 
ATOM     37  C   UNL A   1      42.744  22.348  28.026  1.00  0.00     0.010 A 
ATOM     38  C   UNL A   1      43.215  23.178  26.995  1.00  0.00    -0.014 A 
BRANCH  38  39
ATOM     39  C   UNL A   1      43.699  24.539  27.347  1.00  0.00     0.031 A 
ATOM     40  C   UNL A   1      42.722  25.563  27.850  1.00  0.00     0.074 A 
ATOM     41  C   UNL A   1      44.972  24.895  27.084  1.00  0.00     0.049 A 
ATOM     42  N   UNL A   1      42.874  26.853  28.003  1.00  0.00    -0.248 NA
ATOM     43  C   UNL A   1      41.372  25.074  28.172  1.00  0.00     0.031 C 
ATOM     44  C   UNL A   1      46.005  24.016  26.534  1.00  0.00     0.029 A 
ATOM     45  N   UNL A   1      45.606  26.106  27.217  1.00  0.00    -0.354 N 
ATOM     46  C   UNL A   1      41.631  27.333  28.393  1.00  0.00     0.074 A 
ATOM     47  C   UNL A   1      40.724  26.205  28.400  1.00  0.00     0.031 C 
ATOM     48  C   UNL A   1      47.145  24.711  26.389  1.00  0.00     0.029 A 
ATOM     49  C   UNL A   1      46.913  26.094  26.790  1.00  0.00     0.049 A 
ATOM     50  H   UNL A   1      45.167  26.907  27.583  1.00  0.00     0.167 HD
ATOM     51  C   UNL A   1      41.281  28.594  28.737  1.00  0.00     0.037 A 
ATOM     52  C   UNL A   1      47.817  27.091  26.716  1.00  0.00     0.037 A 
ATOM     53  C   UNL A   1      42.199  29.700  28.786  1.00  0.00     0.049 A 
ATOM     54  C   UNL A   1      47.422  28.476  27.152  1.00  0.00     0.074 A 
ATOM     55  C   UNL A   1      41.965  30.999  29.195  1.00  0.00     0.029 A 
ATOM     56  N   UNL A   1      43.537  29.627  28.421  1.00  0.00    -0.354 N 
ATOM     57  N   UNL A   1      46.257  28.908  27.570  1.00  0.00    -0.248 NA
ATOM     58  C   UNL A   1      48.466  29.511  27.110  1.00  0.00     0.031 C 
ATOM     59  C   UNL A   1      43.155  31.722  29.053  1.00  0.00     0.029 A 
ATOM     60  C   UNL A   1      44.139  30.862  28.591  1.00  0.00     0.049 A 
ATOM     61  H   UNL A   1      43.989  28.818  28.091  1.00  0.00     0.167 HD
ATOM     62  C   UNL A   1      46.433  30.253  27.864  1.00  0.00     0.074 A 
ATOM     63  C   UNL A   1      47.818  30.566  27.583  1.00  0.00     0.031 C 
ATOM     64  C   UNL A   1      45.525  31.148  28.325  1.00  0.00     0.037 A 
BRANCH  51  65
ATOM     65  C   UNL A   1      39.845  28.834  29.099  1.00  0.00     0.064 A 
ATOM     66  C   UNL A   1      38.904  29.242  28.141  1.00  0.00     0.173 A 
ATOM     67  C   UNL A   1      39.404  28.658  30.419  1.00  0.00     0.173 A 
ATOM     68  F   UNL A   1      39.278  29.439  26.869  1.00  0.00    -0.203 F 
ATOM     69  C   UNL A   1      37.585  29.508  28.501  1.00  0.00     0.198 A 
ATOM     70  C   UNL A   1      38.076  28.892  30.768  1.00  0.00     0.198 A 
ATOM     71  F   UNL A   1      40.261  28.263  31.373  1.00  0.00    -0.203 F 
ATOM     72  F   UNL A   1      36.722  29.964  27.582  1.00  0.00    -0.200 F 
ATOM     73  C   UNL A   1      37.172  29.330  29.812  1.00  0.00     0.200 A 
ATOM     74  F   UNL A   1      37.675  28.708  32.034  1.00  0.00    -0.200 F 
ATOM     75  F   UNL A   1      35.904  29.590  30.157  1.00  0.00    -0.200 F 
ENDBRANCH  51  65
BRANCH  52  76
ATOM     76  C   UNL A   1      49.190  26.805  26.227  1.00  0.00     0.064 A 
ATOM     77  C   UNL A   1      50.172  26.310  27.097  1.00  0.00     0.173 A 
ATOM     78  C   UNL A   1      49.546  27.002  24.885  1.00  0.00     0.173 A 
ATOM     79  F   UNL A   1      49.884  26.123  28.393  1.00  0.00    -0.203 F 
ATOM     80  C   UNL A   1      51.461  26.034  26.644  1.00  0.00     0.198 A 
ATOM     81  C   UNL A   1      50.829  26.704  24.429  1.00  0.00     0.198 A 
ATOM     82  F   UNL A   1      48.641  27.469  24.012  1.00  0.00    -0.203 F 
ATOM     83  F   UNL A   1      52.389  25.593  27.505  1.00  0.00    -0.200 F 
ATOM     84  C   UNL A   1      51.786  26.225  25.311  1.00  0.00     0.200 A 
ATOM     85  F   UNL A   1      51.135  26.876  23.136  1.00  0.00    -0.200 F 
ATOM     86  F   UNL A   1      53.024  25.951  24.874  1.00  0.00    -0.200 F 
ENDBRANCH  52  76
BRANCH  64  87
ATOM     87  C   UNL A   1      46.003  32.542  28.595  1.00  0.00     0.064 A 
ATOM     88  C   UNL A   1      45.924  33.547  27.621  1.00  0.00     0.173 A 
ATOM     89  C   UNL A   1      46.470  32.894  29.871  1.00  0.00     0.173 A 
ATOM     90  F   UNL A   1      45.497  33.255  26.384  1.00  0.00    -0.203 F 
ATOM     91  C   UNL A   1      46.302  34.854  27.913  1.00  0.00     0.198 A 
ATOM     92  C   UNL A   1      46.826  34.206  30.166  1.00  0.00     0.198 A 
ATOM     93  F   UNL A   1      46.558  31.967  30.836  1.00  0.00    -0.203 F 
ATOM     94  F   UNL A   1      46.243  35.795  26.960  1.00  0.00    -0.200 F 
ATOM     95  C   UNL A   1      46.744  35.185  29.186  1.00  0.00     0.200 A 
ATOM     96  F   UNL A   1      47.240  34.526  31.399  1.00  0.00    -0.200 F 
ATOM     97  F   UNL A   1      47.091  36.448  29.469  1.00  0.00    -0.200 F 
ENDBRANCH  64  87
ENDBRANCH  38  39
ENDBRANCH  30  33
ENDBRANCH  28  29
ENDBRANCH  27  28
ENDBRANCH   1  27
TORSDOF 16
ENDMDL
MODEL 2
REMARK VINA RESULT:     -11.8      6.038     11.442
REMARK SMILES CCOc1cc(N2CCOCC2)ccc1[C@H]([NH3+])C(=O)NCCCCNC(=O)c1ccc(-c2c3nc(c(-c4c(F)c(F)c(F)c(F)c4F)c4ccc([nH]4)c(-c4c(F)c(F)c(F)c(F)c4F)c4nc(c(-c5c(F)c(F)c(F)c(F)c5F)c5ccc2[nH]5)C=C4)C=C3)cc1
REMARK SMILES IDX 22 1 21 2 20 3 18 4 19 5 16 7 15 8 4 9 5 10 6 11 14 12 13 13
REMARK SMILES IDX 3 14 2 15 1 16 7 17 8 18 12 19 9 20 11 21 10 22 17 23 23 27
REMARK SMILES IDX 24 28 25 29 26 30 27 32 28 33 29 34 90 35 30 36 89 37 31 38
REMARK SMILES IDX 32 39 33 40 83 41 34 42 88 43 82 44 84 45 35 46 87 47 81 48
REMARK SMILES IDX 80 49 36 51 68 52 48 53 67 54 49 55 52 56 66 57 85 58 50 59
REMARK SMILES IDX 51 60 65 62 86 63 53 64 37 65 38 66 46 67 39 68 40 69 44 70
REMARK SMILES IDX 47 71 41 72 42 73 45 74 43 75 69 76 70 77 78 78 71 79 72 80
REMARK SMILES IDX 76 81 79 82 73 83 74 84 77 85 75 86 54 87 55 88 63 89 56 90
REMARK SMILES IDX 57 91 61 92 64 93 58 94 59 95 62 96 60 97
REMARK H PARENT 20 6 17 24 17 25 17 26 25 31 84 50 52 61
REMARK Flexibility Score: inf
ROOT
ATOM      1  C   UNL A   1      32.757  29.404  27.084  1.00  0.00     0.023 C 
ENDROOT
BRANCH   1   2
ATOM      2  C   UNL A   1      33.831  28.845  26.145  1.00  0.00     0.116 C 
BRANCH   2   3
ATOM      3  N   UNL A   1      33.933  27.408  26.262  1.00  0.00    -0.351 N 
ATOM      4  C   UNL A   1      33.675  26.380  25.416  1.00  0.00     0.283 C 
ATOM      5  O   UNL A   1      33.817  25.257  25.928  1.00  0.00    -0.268 OA
ATOM      6  H   UNL A   1      34.259  27.112  27.143  1.00  0.00     0.163 HD
BRANCH   4   7
ATOM      7  C   UNL A   1      33.139  26.468  23.960  1.00  0.00     0.306 C 
BRANCH   7   8
ATOM      8  C   UNL A   1      31.914  27.319  23.655  1.00  0.00     0.061 A 
ATOM      9  C   UNL A   1      30.584  26.923  23.886  1.00  0.00     0.131 A 
ATOM     10  C   UNL A   1      29.510  27.726  23.472  1.00  0.00     0.072 A 
ATOM     11  C   UNL A   1      29.724  28.952  22.825  1.00  0.00     0.040 A 
ATOM     12  C   UNL A   1      32.118  28.569  23.038  1.00  0.00     0.016 A 
ATOM     13  C   UNL A   1      31.042  29.367  22.628  1.00  0.00     0.027 A 
BRANCH   9  14
ATOM     14  O   UNL A   1      30.337  25.673  24.391  1.00  0.00    -0.493 OA
BRANCH  14  15
ATOM     15  C   UNL A   1      29.990  25.639  25.776  1.00  0.00     0.226 C 
ATOM     16  C   UNL A   1      30.486  24.304  26.312  1.00  0.00     0.049 C 
ENDBRANCH  14  15
ENDBRANCH   9  14
BRANCH  11  17
ATOM     17  N   UNL A   1      28.642  29.661  22.336  1.00  0.00    -0.367 N 
ATOM     18  C   UNL A   1      28.908  30.671  21.297  1.00  0.00     0.145 C 
ATOM     19  C   UNL A   1      27.460  29.920  23.167  1.00  0.00     0.145 C 
ATOM     20  C   UNL A   1      28.820  32.090  21.887  1.00  0.00     0.181 C 
ATOM     21  C   UNL A   1      27.405  31.382  23.638  1.00  0.00     0.181 C 
ATOM     22  O   UNL A   1      27.561  32.306  22.548  1.00  0.00    -0.378 OA
ENDBRANCH  11  17
ENDBRANCH   7   8
BRANCH   7  23
ATOM     23  N   UNL A   1      33.145  25.129  23.335  1.00  0.00    -0.343 N 
ATOM     24  H   UNL A   1      32.187  24.836  23.147  1.00  0.00     0.345 HD
ATOM     25  H   UNL A   1      33.588  24.461  23.968  1.00  0.00     0.345 HD
ATOM     26  H   UNL A   1      33.668  25.165  22.460  1.00  0.00     0.345 HD
ENDBRANCH   7  23
ENDBRANCH   4   7
ENDBRANCH   2   3
ENDBRANCH   1   2
BRANCH   1  27
ATOM     27  C   UNL A   1      32.363  30.854  26.828  1.00  0.00     0.023 C 
BRANCH  27  28
ATOM     28  C   UNL A   1      33.267  31.884  27.492  1.00  0.00     0.116 C 
BRANCH  28  29
ATOM     29  N   UNL A   1      32.685  33.219  27.593  1.00  0.00    -0.352 N 
ATOM     30  C   UNL A   1      33.081  34.275  28.387  1.00  0.00     0.251 C 
ATOM     31  H   UNL A   1      31.905  33.389  27.016  1.00  0.00     0.163 HD
ATOM     32  O   UNL A   1      32.449  35.326  28.400  1.00  0.00    -0.269 OA
BRANCH  30  33
ATOM     33  C   UNL A   1      34.250  34.099  29.272  1.00  0.00     0.039 A 
ATOM     34  C   UNL A   1      34.078  33.486  30.515  1.00  0.00     0.014 A 
ATOM     35  C   UNL A   1      35.526  34.421  28.810  1.00  0.00     0.014 A 
ATOM     36  C   UNL A   1      35.200  33.080  31.242  1.00  0.00     0.010 A 
ATOM     37  C   UNL A   1      36.634  33.924  29.482  1.00  0.00     0.010 A 
ATOM     38  C   UNL A   1      36.484  33.232  30.695  1.00  0.00    -0.014 A 
BRANCH  38  39
ATOM     39  C   UNL A   1      37.696  32.667  31.344  1.00  0.00     0.031 A 
ATOM     40  C   UNL A   1      38.415  31.520  30.694  1.00  0.00     0.074 A 
ATOM     41  C   UNL A   1      38.066  33.085  32.571  1.00  0.00     0.049 A 
ATOM     42  N   UNL A   1      39.344  30.737  31.180  1.00  0.00    -0.248 NA
ATOM     43  C   UNL A   1      37.989  31.172  29.329  1.00  0.00     0.031 C 
ATOM     44  C   UNL A   1      37.414  34.146  33.341  1.00  0.00     0.029 A 
ATOM     45  N   UNL A   1      39.067  32.642  33.402  1.00  0.00    -0.354 N 
ATOM     46  C   UNL A   1      39.578  29.781  30.201  1.00  0.00     0.074 A 
ATOM     47  C   UNL A   1      38.657  30.048  29.118  1.00  0.00     0.031 C 
ATOM     48  C   UNL A   1      38.038  34.282  34.522  1.00  0.00     0.029 A 
ATOM     49  C   UNL A   1      39.103  33.288  34.615  1.00  0.00     0.049 A 
ATOM     50  H   UNL A   1      39.698  31.930  33.151  1.00  0.00     0.167 HD
ATOM     51  C   UNL A   1      40.494  28.784  30.194  1.00  0.00     0.037 A 
ATOM     52  C   UNL A   1      39.894  33.089  35.687  1.00  0.00     0.037 A 
ATOM     53  C   UNL A   1      41.447  28.559  31.247  1.00  0.00     0.049 A 
ATOM     54  C   UNL A   1      40.940  32.008  35.639  1.00  0.00     0.074 A 
ATOM     55  C   UNL A   1      42.466  27.626  31.304  1.00  0.00     0.029 A 
ATOM     56  N   UNL A   1      41.501  29.288  32.427  1.00  0.00    -0.354 N 
ATOM     57  N   UNL A   1      41.189  31.143  34.686  1.00  0.00    -0.248 NA
ATOM     58  C   UNL A   1      41.818  31.878  36.811  1.00  0.00     0.031 C 
ATOM     59  C   UNL A   1      43.123  27.773  32.531  1.00  0.00     0.029 A 
ATOM     60  C   UNL A   1      42.535  28.821  33.221  1.00  0.00     0.049 A 
ATOM     61  H   UNL A   1      40.895  30.026  32.664  1.00  0.00     0.167 HD
ATOM     62  C   UNL A   1      42.262  30.385  35.129  1.00  0.00     0.074 A 
ATOM     63  C   UNL A   1      42.624  30.895  36.436  1.00  0.00     0.031 C 
ATOM     64  C   UNL A   1      42.891  29.357  34.510  1.00  0.00     0.037 A 
BRANCH  51  65
ATOM     65  C   UNL A   1      40.509  27.874  29.001  1.00  0.00     0.064 A 
ATOM     66  C   UNL A   1      41.295  28.154  27.873  1.00  0.00     0.173 A 
ATOM     67  C   UNL A   1      39.727  26.710  28.984  1.00  0.00     0.173 A 
ATOM     68  F   UNL A   1      42.049  29.263  27.834  1.00  0.00    -0.203 F 
ATOM     69  C   UNL A   1      41.262  27.326  26.754  1.00  0.00     0.198 A 
ATOM     70  C   UNL A   1      39.724  25.866  27.876  1.00  0.00     0.198 A 
ATOM     71  F   UNL A   1      38.962  26.391  30.039  1.00  0.00    -0.203 F 
ATOM     72  F   UNL A   1      41.968  27.652  25.662  1.00  0.00    -0.200 F 
ATOM     73  C   UNL A   1      40.480  26.181  26.757  1.00  0.00     0.200 A 
ATOM     74  F   UNL A   1      38.976  24.753  27.885  1.00  0.00    -0.200 F 
ATOM     75  F   UNL A   1      40.447  25.388  25.679  1.00  0.00    -0.200 F 
ENDBRANCH  51  65
BRANCH  52  76
ATOM     76  C   UNL A   1      39.738  33.949  36.888  1.00  0.00     0.064 A 
ATOM     77  C   UNL A   1      40.398  35.183  36.976  1.00  0.00     0.173 A 
ATOM     78  C   UNL A   1      38.917  33.570  37.959  1.00  0.00     0.173 A 
ATOM     79  F   UNL A   1      41.208  35.580  35.984  1.00  0.00    -0.203 F 
ATOM     80  C   UNL A   1      40.252  35.998  38.097  1.00  0.00     0.198 A 
ATOM     81  C   UNL A   1      38.753  34.397  39.069  1.00  0.00     0.198 A 
ATOM     82  F   UNL A   1      38.259  32.402  37.920  1.00  0.00    -0.203 F 
ATOM     83  F   UNL A   1      40.921  37.158  38.169  1.00  0.00    -0.200 F 
ATOM     84  C   UNL A   1      39.425  35.608  39.138  1.00  0.00     0.200 A 
ATOM     85  F   UNL A   1      37.942  34.023  40.068  1.00  0.00    -0.200 F 
ATOM     86  F   UNL A   1      39.278  36.397  40.212  1.00  0.00    -0.200 F 
ENDBRANCH  52  76
BRANCH  64  87
ATOM     87  C   UNL A   1      44.061  28.736  35.211  1.00  0.00     0.064 A 
ATOM     88  C   UNL A   1      45.364  29.222  35.036  1.00  0.00     0.173 A 
ATOM     89  C   UNL A   1      43.863  27.693  36.129  1.00  0.00     0.173 A 
ATOM     90  F   UNL A   1      45.604  30.208  34.159  1.00  0.00    -0.203 F 
ATOM     91  C   UNL A   1      46.429  28.682  35.751  1.00  0.00     0.198 A 
ATOM     92  C   UNL A   1      44.926  27.171  36.859  1.00  0.00     0.198 A 
ATOM     93  F   UNL A   1      42.633  27.198  36.333  1.00  0.00    -0.203 F 
ATOM     94  F   UNL A   1      47.671  29.145  35.551  1.00  0.00    -0.200 F 
ATOM     95  C   UNL A   1      46.209  27.664  36.668  1.00  0.00     0.200 A 
ATOM     96  F   UNL A   1      44.710  26.197  37.752  1.00  0.00    -0.200 F 
ATOM     97  F   UNL A   1      47.233  27.158  37.368  1.00  0.00    -0.200 F 
ENDBRANCH  64  87
ENDBRANCH  38  39
ENDBRANCH  30  33
ENDBRANCH  28  29
ENDBRANCH  27  28
ENDBRANCH   1  27
TORSDOF 16
ENDMDL
MODEL 3
REMARK VINA RESULT:     -11.8      4.600      9.763
REMARK SMILES CCOc1cc(N2CCOCC2)ccc1[C@H]([NH3+])C(=O)NCCCCNC(=O)c1ccc(-c2c3nc(c(-c4c(F)c(F)c(F)c(F)c4F)c4ccc([nH]4)c(-c4c(F)c(F)c(F)c(F)c4F)c4nc(c(-c5c(F)c(F)c(F)c(F)c5F)c5ccc2[nH]5)C=C4)C=C3)cc1
REMARK SMILES IDX 22 1 21 2 20 3 18 4 19 5 16 7 15 8 4 9 5 10 6 11 14 12 13 13
REMARK SMILES IDX 3 14 2 15 1 16 7 17 8 18 12 19 9 20 11 21 10 22 17 23 23 27
REMARK SMILES IDX 24 28 25 29 26 30 27 32 28 33 29 34 90 35 30 36 89 37 31 38
REMARK SMILES IDX 32 39 33 40 83 41 34 42 88 43 82 44 84 45 35 46 87 47 81 48
REMARK SMILES IDX 80 49 36 51 68 52 48 53 67 54 49 55 52 56 66 57 85 58 50 59
REMARK SMILES IDX 51 60 65 62 86 63 53 64 37 65 38 66 46 67 39 68 40 69 44 70
REMARK SMILES IDX 47 71 41 72 42 73 45 74 43 75 69 76 70 77 78 78 71 79 72 80
REMARK SMILES IDX 76 81 79 82 73 83 74 84 77 85 75 86 54 87 55 88 63 89 56 90
REMARK SMILES IDX 57 91 61 92 64 93 58 94 59 95 62 96 60 97
REMARK H PARENT 20 6 17 24 17 25 17 26 25 31 84 50 52 61
REMARK Flexibility Score: inf
ROOT
ATOM      1  C   UNL A   1      33.870  28.446  24.193  1.00  0.00     0.023 C 
ENDROOT
BRANCH   1   2
ATOM      2  C   UNL A   1      33.578  26.990  23.812  1.00  0.00     0.116 C 
BRANCH   2   3
ATOM      3  N   UNL A   1      33.479  26.151  24.985  1.00  0.00    -0.351 N 
ATOM      4  C   UNL A   1      33.769  24.849  25.230  1.00  0.00     0.283 C 
ATOM      5  O   UNL A   1      33.463  24.472  26.374  1.00  0.00    -0.268 OA
ATOM      6  H   UNL A   1      33.128  26.626  25.774  1.00  0.00     0.163 HD
BRANCH   4   7
ATOM      7  C   UNL A   1      34.324  23.800  24.227  1.00  0.00     0.306 C 
BRANCH   7   8
ATOM      8  C   UNL A   1      33.876  22.349  24.324  1.00  0.00     0.061 A 
ATOM      9  C   UNL A   1      34.618  21.320  24.931  1.00  0.00     0.131 A 
ATOM     10  C   UNL A   1      34.180  19.988  24.878  1.00  0.00     0.072 A 
ATOM     11  C   UNL A   1      32.986  19.638  24.230  1.00  0.00     0.040 A 
ATOM     12  C   UNL A   1      32.661  21.993  23.709  1.00  0.00     0.016 A 
ATOM     13  C   UNL A   1      32.227  20.662  23.660  1.00  0.00     0.027 A 
BRANCH   9  14
ATOM     14  O   UNL A   1      35.853  21.604  25.453  1.00  0.00    -0.493 OA
BRANCH  14  15
ATOM     15  C   UNL A   1      36.898  20.719  25.048  1.00  0.00     0.226 C 
ATOM     16  C   UNL A   1      38.206  21.379  25.463  1.00  0.00     0.049 C 
ENDBRANCH  14  15
ENDBRANCH   9  14
BRANCH  11  17
ATOM     17  N   UNL A   1      32.645  18.304  24.105  1.00  0.00    -0.367 N 
ATOM     18  C   UNL A   1      32.557  17.509  25.342  1.00  0.00     0.145 C 
ATOM     19  C   UNL A   1      32.982  17.540  22.897  1.00  0.00     0.145 C 
ATOM     20  C   UNL A   1      33.774  16.576  25.474  1.00  0.00     0.181 C 
ATOM     21  C   UNL A   1      34.149  16.570  23.144  1.00  0.00     0.181 C 
ATOM     22  O   UNL A   1      33.933  15.752  24.306  1.00  0.00    -0.378 OA
ENDBRANCH  11  17
ENDBRANCH   7   8
BRANCH   7  23
ATOM     23  N   UNL A   1      35.776  24.000  24.037  1.00  0.00    -0.343 N 
ATOM     24  H   UNL A   1      36.082  23.502  23.202  1.00  0.00     0.345 HD
ATOM     25  H   UNL A   1      36.277  23.641  24.850  1.00  0.00     0.345 HD
ATOM     26  H   UNL A   1      35.971  24.995  23.930  1.00  0.00     0.345 HD
ENDBRANCH   7  23
ENDBRANCH   4   7
ENDBRANCH   2   3
ENDBRANCH   1   2
BRANCH   1  27
ATOM     27  C   UNL A   1      32.677  29.224  24.737  1.00  0.00     0.023 C 
BRANCH  27  28
ATOM     28  C   UNL A   1      32.706  29.461  26.241  1.00  0.00     0.116 C 
BRANCH  28  29
ATOM     29  N   UNL A   1      32.378  30.827  26.641  1.00  0.00    -0.352 N 
ATOM     30  C   UNL A   1      33.167  31.745  27.300  1.00  0.00     0.251 C 
ATOM     31  H   UNL A   1      31.472  31.134  26.407  1.00  0.00     0.163 HD
ATOM     32  O   UNL A   1      32.725  32.845  27.618  1.00  0.00    -0.269 OA
BRANCH  30  33
ATOM     33  C   UNL A   1      34.543  31.361  27.674  1.00  0.00     0.039 A 
ATOM     34  C   UNL A   1      35.531  32.346  27.745  1.00  0.00     0.014 A 
ATOM     35  C   UNL A   1      34.815  30.054  28.076  1.00  0.00     0.014 A 
ATOM     36  C   UNL A   1      36.757  32.047  28.343  1.00  0.00     0.010 A 
ATOM     37  C   UNL A   1      35.992  29.788  28.763  1.00  0.00     0.010 A 
ATOM     38  C   UNL A   1      36.968  30.785  28.921  1.00  0.00    -0.014 A 
BRANCH  38  39
ATOM     39  C   UNL A   1      38.184  30.468  29.716  1.00  0.00     0.031 A 
ATOM     40  C   UNL A   1      39.187  29.492  29.172  1.00  0.00     0.074 A 
ATOM     41  C   UNL A   1      38.316  30.941  30.971  1.00  0.00     0.049 A 
ATOM     42  N   UNL A   1      40.189  28.905  29.775  1.00  0.00    -0.248 NA
ATOM     43  C   UNL A   1      39.003  29.077  27.772  1.00  0.00     0.031 C 
ATOM     44  C   UNL A   1      37.381  31.845  31.642  1.00  0.00     0.029 A 
ATOM     45  N   UNL A   1      39.280  30.699  31.919  1.00  0.00    -0.354 N 
ATOM     46  C   UNL A   1      40.722  28.022  28.845  1.00  0.00     0.074 A 
ATOM     47  C   UNL A   1      39.900  28.110  27.658  1.00  0.00     0.031 C 
ATOM     48  C   UNL A   1      37.822  32.093  32.886  1.00  0.00     0.029 A 
ATOM     49  C   UNL A   1      39.045  31.329  33.118  1.00  0.00     0.049 A 
ATOM     50  H   UNL A   1      40.065  30.129  31.756  1.00  0.00     0.167 HD
ATOM     51  C   UNL A   1      41.811  27.228  28.961  1.00  0.00     0.037 A 
ATOM     52  C   UNL A   1      39.728  31.283  34.278  1.00  0.00     0.037 A 
ATOM     53  C   UNL A   1      42.660  27.188  30.121  1.00  0.00     0.049 A 
ATOM     54  C   UNL A   1      40.966  30.432  34.370  1.00  0.00     0.074 A 
ATOM     55  C   UNL A   1      43.829  26.476  30.311  1.00  0.00     0.029 A 
ATOM     56  N   UNL A   1      42.429  27.903  31.288  1.00  0.00    -0.354 N 
ATOM     57  N   UNL A   1      41.491  29.641  33.466  1.00  0.00    -0.248 NA
ATOM     58  C   UNL A   1      41.708  30.469  35.639  1.00  0.00     0.031 C 
ATOM     59  C   UNL A   1      44.295  26.741  31.605  1.00  0.00     0.029 A 
ATOM     60  C   UNL A   1      43.434  27.645  32.205  1.00  0.00     0.049 A 
ATOM     61  H   UNL A   1      41.665  28.504  31.441  1.00  0.00     0.167 HD
ATOM     62  C   UNL A   1      42.634  29.108  34.044  1.00  0.00     0.074 A 
ATOM     63  C   UNL A   1      42.731  29.669  35.375  1.00  0.00     0.031 C 
ATOM     64  C   UNL A   1      43.523  28.230  33.518  1.00  0.00     0.037 A 
BRANCH  51  65
ATOM     65  C   UNL A   1      42.147  26.349  27.793  1.00  0.00     0.064 A 
ATOM     66  C   UNL A   1      41.502  25.119  27.587  1.00  0.00     0.173 A 
ATOM     67  C   UNL A   1      43.129  26.738  26.868  1.00  0.00     0.173 A 
ATOM     68  F   UNL A   1      40.567  24.696  28.450  1.00  0.00    -0.203 F 
ATOM     69  C   UNL A   1      41.858  24.292  26.526  1.00  0.00     0.198 A 
ATOM     70  C   UNL A   1      43.458  25.922  25.788  1.00  0.00     0.198 A 
ATOM     71  F   UNL A   1      43.773  27.905  27.014  1.00  0.00    -0.203 F 
ATOM     72  F   UNL A   1      41.276  23.092  26.391  1.00  0.00    -0.200 F 
ATOM     73  C   UNL A   1      42.833  24.695  25.625  1.00  0.00     0.200 A 
ATOM     74  F   UNL A   1      44.392  26.318  24.912  1.00  0.00    -0.200 F 
ATOM     75  F   UNL A   1      43.177  23.896  24.607  1.00  0.00    -0.200 F 
ENDBRANCH  51  65
BRANCH  52  76
ATOM     76  C   UNL A   1      39.264  32.085  35.439  1.00  0.00     0.064 A 
ATOM     77  C   UNL A   1      38.456  31.511  36.431  1.00  0.00     0.173 A 
ATOM     78  C   UNL A   1      39.630  33.430  35.593  1.00  0.00     0.173 A 
ATOM     79  F   UNL A   1      38.065  30.234  36.318  1.00  0.00    -0.203 F 
ATOM     80  C   UNL A   1      38.022  32.256  37.526  1.00  0.00     0.198 A 
ATOM     81  C   UNL A   1      39.215  34.168  36.700  1.00  0.00     0.198 A 
ATOM     82  F   UNL A   1      40.407  34.024  34.675  1.00  0.00    -0.203 F 
ATOM     83  F   UNL A   1      37.223  31.692  38.442  1.00  0.00    -0.200 F 
ATOM     84  C   UNL A   1      38.407  33.581  37.663  1.00  0.00     0.200 A 
ATOM     85  F   UNL A   1      39.600  35.444  36.837  1.00  0.00    -0.200 F 
ATOM     86  F   UNL A   1      37.997  34.294  38.721  1.00  0.00    -0.200 F 
ENDBRANCH  52  76
BRANCH  64  87
ATOM     87  C   UNL A   1      44.702  27.849  34.361  1.00  0.00     0.064 A 
ATOM     88  C   UNL A   1      44.677  26.719  35.190  1.00  0.00     0.173 A 
ATOM     89  C   UNL A   1      45.897  28.579  34.275  1.00  0.00     0.173 A 
ATOM     90  F   UNL A   1      43.552  25.998  35.315  1.00  0.00    -0.203 F 
ATOM     91  C   UNL A   1      45.806  26.337  35.909  1.00  0.00     0.198 A 
ATOM     92  C   UNL A   1      47.031  28.181  34.977  1.00  0.00     0.198 A 
ATOM     93  F   UNL A   1      45.970  29.665  33.491  1.00  0.00    -0.203 F 
ATOM     94  F   UNL A   1      45.754  25.267  36.715  1.00  0.00    -0.200 F 
ATOM     95  C   UNL A   1      46.984  27.062  35.795  1.00  0.00     0.200 A 
ATOM     96  F   UNL A   1      48.170  28.875  34.857  1.00  0.00    -0.200 F 
ATOM     97  F   UNL A   1      48.074  26.681  36.475  1.00  0.00    -0.200 F 
ENDBRANCH  64  87
ENDBRANCH  38  39
ENDBRANCH  30  33
ENDBRANCH  28  29
ENDBRANCH  27  28
ENDBRANCH   1  27
TORSDOF 16
ENDMDL
