MODEL 1
REMARK VINA RESULT:     -11.8      0.000      0.000
REMARK SMILES CC(C)Cc1ccc([C@H](CF)C(=O)NCCCCNC(=O)c2ccc(-c3c4nc(c(-c5c(F)c(F)c(F)c(F)c5F)c5ccc([nH]5)c(-c5c(F)c(F)c(F)c(F)c5F)c5nc(c(-c6c(F)c(F)c(F)c(F)c6F)c6ccc3[nH]6)C=C5)C=C4)cc2)cc1
REMARK SMILES IDX 16 1 15 2 14 3 12 4 13 5 9 7 8 8 5 9 6 10 86 11 7 12 85 13
REMARK SMILES IDX 4 14 2 15 1 16 3 17 10 18 11 19 17 20 18 21 19 22 20 23
REMARK SMILES IDX 21 25 22 26 23 27 84 28 24 29 83 30 25 31 26 32 27 33 77 34
REMARK SMILES IDX 28 35 82 36 76 37 78 38 29 39 81 40 75 41 74 42 30 44 62 45
REMARK SMILES IDX 42 46 61 47 43 48 46 49 60 50 79 51 44 52 45 53 59 55 80 56
REMARK SMILES IDX 47 57 31 58 32 59 40 60 33 61 34 62 38 63 41 64 35 65 36 66
REMARK SMILES IDX 39 67 37 68 63 69 64 70 72 71 65 72 66 73 70 74 73 75 67 76
REMARK SMILES IDX 68 77 71 78 69 79 48 80 49 81 57 82 50 83 51 84 55 85 58 86
REMARK SMILES IDX 52 87 53 88 56 89 54 90
REMARK H PARENT 14 6 19 24 78 43 46 54
REMARK Flexibility Score: inf
ROOT
ATOM      1  C   UNL A   1      31.780  30.413  26.822  1.00  0.00     0.023 C 
ENDROOT
BRANCH   1   2
ATOM      2  C   UNL A   1      33.211  29.931  26.604  1.00  0.00     0.116 C 
BRANCH   2   3
ATOM      3  N   UNL A   1      33.541  29.852  25.192  1.00  0.00    -0.355 N 
ATOM      4  C   UNL A   1      33.216  28.903  24.268  1.00  0.00     0.230 C 
ATOM      5  O   UNL A   1      33.589  29.090  23.106  1.00  0.00    -0.274 OA
ATOM      6  H   UNL A   1      34.082  30.600  24.849  1.00  0.00     0.163 HD
BRANCH   4   7
ATOM      7  C   UNL A   1      32.459  27.637  24.654  1.00  0.00     0.139 C 
BRANCH   7   8
ATOM      8  C   UNL A   1      33.295  26.367  24.520  1.00  0.00    -0.033 A 
ATOM      9  C   UNL A   1      34.852  24.018  24.196  1.00  0.00    -0.048 A 
ATOM     10  C   UNL A   1      34.874  24.737  25.396  1.00  0.00     0.004 A 
ATOM     11  C   UNL A   1      34.027  24.471  23.162  1.00  0.00     0.004 A 
ATOM     12  C   UNL A   1      34.130  25.909  25.547  1.00  0.00     0.005 A 
ATOM     13  C   UNL A   1      33.261  25.630  23.321  1.00  0.00     0.005 A 
BRANCH   9  14
ATOM     14  C   UNL A   1      35.717  22.794  24.016  1.00  0.00     0.038 C 
BRANCH  14  15
ATOM     15  C   UNL A   1      35.401  21.639  24.994  1.00  0.00    -0.013 C 
ATOM     16  C   UNL A   1      34.084  20.925  24.673  1.00  0.00     0.008 C 
ATOM     17  C   UNL A   1      36.541  20.616  24.968  1.00  0.00     0.008 C 
ENDBRANCH  14  15
ENDBRANCH   9  14
ENDBRANCH   7   8
BRANCH   7  18
ATOM     18  C   UNL A   1      31.109  27.684  23.936  1.00  0.00     0.232 C 
ATOM     19  F   UNL A   1      30.552  28.920  24.075  1.00  0.00    -0.250 F 
ENDBRANCH   7  18
ENDBRANCH   4   7
ENDBRANCH   2   3
ENDBRANCH   1   2
BRANCH   1  20
ATOM     20  C   UNL A   1      31.609  31.930  26.784  1.00  0.00     0.023 C 
BRANCH  20  21
ATOM     21  C   UNL A   1      32.785  32.723  27.339  1.00  0.00     0.116 C 
BRANCH  21  22
ATOM     22  N   UNL A   1      32.447  34.105  27.642  1.00  0.00    -0.352 N 
ATOM     23  C   UNL A   1      33.000  34.941  28.585  1.00  0.00     0.251 C 
ATOM     24  H   UNL A   1      31.724  34.495  27.100  1.00  0.00     0.163 HD
ATOM     25  O   UNL A   1      32.510  36.039  28.811  1.00  0.00    -0.269 OA
BRANCH  23  26
ATOM     26  C   UNL A   1      34.177  34.482  29.351  1.00  0.00     0.039 A 
ATOM     27  C   UNL A   1      33.985  33.910  30.610  1.00  0.00     0.014 A 
ATOM     28  C   UNL A   1      35.459  34.580  28.805  1.00  0.00     0.014 A 
ATOM     29  C   UNL A   1      35.075  33.368  31.293  1.00  0.00     0.010 A 
ATOM     30  C   UNL A   1      36.529  33.972  29.450  1.00  0.00     0.010 A 
ATOM     31  C   UNL A   1      36.348  33.358  30.700  1.00  0.00    -0.014 A 
BRANCH  31  32
ATOM     32  C   UNL A   1      37.509  32.718  31.367  1.00  0.00     0.031 A 
ATOM     33  C   UNL A   1      38.232  31.588  30.690  1.00  0.00     0.074 A 
ATOM     34  C   UNL A   1      37.863  33.101  32.609  1.00  0.00     0.049 A 
ATOM     35  N   UNL A   1      39.204  30.836  31.141  1.00  0.00    -0.248 NA
ATOM     36  C   UNL A   1      37.779  31.235  29.335  1.00  0.00     0.031 C 
ATOM     37  C   UNL A   1      37.213  34.156  33.388  1.00  0.00     0.029 A 
ATOM     38  N   UNL A   1      38.852  32.637  33.440  1.00  0.00    -0.354 N 
ATOM     39  C   UNL A   1      39.465  29.915  30.135  1.00  0.00     0.074 A 
ATOM     40  C   UNL A   1      38.512  30.163  29.075  1.00  0.00     0.031 C 
ATOM     41  C   UNL A   1      37.833  34.273  34.573  1.00  0.00     0.029 A 
ATOM     42  C   UNL A   1      38.897  33.277  34.655  1.00  0.00     0.049 A 
ATOM     43  H   UNL A   1      39.470  31.912  33.190  1.00  0.00     0.167 HD
ATOM     44  C   UNL A   1      40.428  28.964  30.091  1.00  0.00     0.037 A 
ATOM     45  C   UNL A   1      39.700  33.075  35.716  1.00  0.00     0.037 A 
ATOM     46  C   UNL A   1      41.389  28.738  31.136  1.00  0.00     0.049 A 
ATOM     47  C   UNL A   1      40.754  32.003  35.646  1.00  0.00     0.074 A 
ATOM     48  C   UNL A   1      42.442  27.840  31.163  1.00  0.00     0.029 A 
ATOM     49  N   UNL A   1      41.413  29.418  32.345  1.00  0.00    -0.354 N 
ATOM     50  N   UNL A   1      41.035  31.181  34.664  1.00  0.00    -0.248 NA
ATOM     51  C   UNL A   1      41.603  31.831  36.833  1.00  0.00     0.031 C 
ATOM     52  C   UNL A   1      43.075  27.944  32.405  1.00  0.00     0.029 A 
ATOM     53  C   UNL A   1      42.450  28.944  33.133  1.00  0.00     0.049 A 
ATOM     54  H   UNL A   1      40.787  30.133  32.604  1.00  0.00     0.167 HD
ATOM     55  C   UNL A   1      42.113  30.421  35.098  1.00  0.00     0.074 A 
ATOM     56  C   UNL A   1      42.441  30.886  36.430  1.00  0.00     0.031 C 
ATOM     57  C   UNL A   1      42.772  29.429  34.452  1.00  0.00     0.037 A 
BRANCH  44  58
ATOM     58  C   UNL A   1      40.488  28.099  28.864  1.00  0.00     0.064 A 
ATOM     59  C   UNL A   1      39.780  26.890  28.781  1.00  0.00     0.173 A 
ATOM     60  C   UNL A   1      41.243  28.495  27.750  1.00  0.00     0.173 A 
ATOM     61  F   UNL A   1      39.052  26.461  29.822  1.00  0.00    -0.203 F 
ATOM     62  C   UNL A   1      39.854  26.093  27.641  1.00  0.00     0.198 A 
ATOM     63  C   UNL A   1      41.290  27.710  26.600  1.00  0.00     0.198 A 
ATOM     64  F   UNL A   1      41.935  29.644  27.774  1.00  0.00    -0.203 F 
ATOM     65  F   UNL A   1      39.216  24.915  27.607  1.00  0.00    -0.200 F 
ATOM     66  C   UNL A   1      40.604  26.506  26.550  1.00  0.00     0.200 A 
ATOM     67  F   UNL A   1      42.004  28.117  25.542  1.00  0.00    -0.200 F 
ATOM     68  F   UNL A   1      40.672  25.739  25.454  1.00  0.00    -0.200 F 
ENDBRANCH  44  58
BRANCH  45  69
ATOM     69  C   UNL A   1      39.562  33.926  36.927  1.00  0.00     0.064 A 
ATOM     70  C   UNL A   1      38.803  33.493  38.024  1.00  0.00     0.173 A 
ATOM     71  C   UNL A   1      40.174  35.184  37.013  1.00  0.00     0.173 A 
ATOM     72  F   UNL A   1      38.181  32.305  37.981  1.00  0.00    -0.203 F 
ATOM     73  C   UNL A   1      38.644  34.295  39.151  1.00  0.00     0.198 A 
ATOM     74  C   UNL A   1      40.037  35.974  38.154  1.00  0.00     0.198 A 
ATOM     75  F   UNL A   1      40.914  35.643  35.994  1.00  0.00    -0.203 F 
ATOM     76  F   UNL A   1      37.875  33.876  40.166  1.00  0.00    -0.200 F 
ATOM     77  C   UNL A   1      39.266  35.533  39.218  1.00  0.00     0.200 A 
ATOM     78  F   UNL A   1      40.651  37.164  38.220  1.00  0.00    -0.200 F 
ATOM     79  F   UNL A   1      39.115  36.302  40.304  1.00  0.00    -0.200 F 
ENDBRANCH  45  69
BRANCH  57  80
ATOM     80  C   UNL A   1      43.943  28.807  35.154  1.00  0.00     0.064 A 
ATOM     81  C   UNL A   1      43.795  27.689  35.987  1.00  0.00     0.173 A 
ATOM     82  C   UNL A   1      45.238  29.310  34.951  1.00  0.00     0.173 A 
ATOM     83  F   UNL A   1      42.577  27.181  36.225  1.00  0.00    -0.203 F 
ATOM     84  C   UNL A   1      44.899  27.111  36.610  1.00  0.00     0.198 A 
ATOM     85  C   UNL A   1      46.342  28.711  35.551  1.00  0.00     0.198 A 
ATOM     86  F   UNL A   1      45.433  30.374  34.157  1.00  0.00    -0.203 F 
ATOM     87  F   UNL A   1      44.729  26.070  37.437  1.00  0.00    -0.200 F 
ATOM     88  C   UNL A   1      46.171  27.617  36.385  1.00  0.00     0.200 A 
ATOM     89  F   UNL A   1      47.572  29.192  35.320  1.00  0.00    -0.200 F 
ATOM     90  F   UNL A   1      47.232  27.051  36.977  1.00  0.00    -0.200 F 
ENDBRANCH  57  80
ENDBRANCH  31  32
ENDBRANCH  23  26
ENDBRANCH  21  22
ENDBRANCH  20  21
ENDBRANCH   1  20
TORSDOF 15
ENDMDL
MODEL 2
REMARK VINA RESULT:     -11.6      0.517      2.089
REMARK SMILES CC(C)Cc1ccc([C@H](CF)C(=O)NCCCCNC(=O)c2ccc(-c3c4nc(c(-c5c(F)c(F)c(F)c(F)c5F)c5ccc([nH]5)c(-c5c(F)c(F)c(F)c(F)c5F)c5nc(c(-c6c(F)c(F)c(F)c(F)c6F)c6ccc3[nH]6)C=C5)C=C4)cc2)cc1
REMARK SMILES IDX 16 1 15 2 14 3 12 4 13 5 9 7 8 8 5 9 6 10 86 11 7 12 85 13
REMARK SMILES IDX 4 14 2 15 1 16 3 17 10 18 11 19 17 20 18 21 19 22 20 23
REMARK SMILES IDX 21 25 22 26 23 27 84 28 24 29 83 30 25 31 26 32 27 33 77 34
REMARK SMILES IDX 28 35 82 36 76 37 78 38 29 39 81 40 75 41 74 42 30 44 62 45
REMARK SMILES IDX 42 46 61 47 43 48 46 49 60 50 79 51 44 52 45 53 59 55 80 56
REMARK SMILES IDX 47 57 31 58 32 59 40 60 33 61 34 62 38 63 41 64 35 65 36 66
REMARK SMILES IDX 39 67 37 68 63 69 64 70 72 71 65 72 66 73 70 74 73 75 67 76
REMARK SMILES IDX 68 77 71 78 69 79 48 80 49 81 57 82 50 83 51 84 55 85 58 86
REMARK SMILES IDX 52 87 53 88 56 89 54 90
REMARK H PARENT 14 6 19 24 78 43 46 54
REMARK Flexibility Score: inf
ROOT
ATOM      1  C   UNL A   1      31.928  30.386  26.627  1.00  0.00     0.023 C 
ENDROOT
BRANCH   1   2
ATOM      2  C   UNL A   1      31.417  29.781  25.324  1.00  0.00     0.116 C 
BRANCH   2   3
ATOM      3  N   UNL A   1      32.453  29.740  24.307  1.00  0.00    -0.355 N 
ATOM      4  C   UNL A   1      32.827  28.723  23.479  1.00  0.00     0.230 C 
ATOM      5  O   UNL A   1      33.724  28.956  22.663  1.00  0.00    -0.274 OA
ATOM      6  H   UNL A   1      32.964  30.575  24.200  1.00  0.00     0.163 HD
BRANCH   4   7
ATOM      7  C   UNL A   1      32.199  27.337  23.578  1.00  0.00     0.139 C 
BRANCH   7   8
ATOM      8  C   UNL A   1      33.169  26.265  24.066  1.00  0.00    -0.033 A 
ATOM      9  C   UNL A   1      35.006  24.273  24.904  1.00  0.00    -0.048 A 
ATOM     10  C   UNL A   1      34.431  25.156  25.825  1.00  0.00     0.004 A 
ATOM     11  C   UNL A   1      34.639  24.380  23.560  1.00  0.00     0.004 A 
ATOM     12  C   UNL A   1      33.549  26.155  25.410  1.00  0.00     0.005 A 
ATOM     13  C   UNL A   1      33.735  25.363  23.146  1.00  0.00     0.005 A 
BRANCH   9  14
ATOM     14  C   UNL A   1      36.017  23.244  25.352  1.00  0.00     0.038 C 
BRANCH  14  15
ATOM     15  C   UNL A   1      35.981  21.923  24.550  1.00  0.00    -0.013 C 
ATOM     16  C   UNL A   1      37.306  21.155  24.599  1.00  0.00     0.008 C 
ATOM     17  C   UNL A   1      34.865  21.024  25.090  1.00  0.00     0.008 C 
ENDBRANCH  14  15
ENDBRANCH   9  14
ENDBRANCH   7   8
BRANCH   7  18
ATOM     18  C   UNL A   1      31.456  27.086  22.266  1.00  0.00     0.232 C 
ATOM     19  F   UNL A   1      30.429  27.973  22.135  1.00  0.00    -0.250 F 
ENDBRANCH   7  18
ENDBRANCH   4   7
ENDBRANCH   2   3
ENDBRANCH   1   2
BRANCH   1  20
ATOM     20  C   UNL A   1      31.633  31.875  26.795  1.00  0.00     0.023 C 
BRANCH  20  21
ATOM     21  C   UNL A   1      32.816  32.716  27.258  1.00  0.00     0.116 C 
BRANCH  21  22
ATOM     22  N   UNL A   1      32.447  34.082  27.593  1.00  0.00    -0.352 N 
ATOM     23  C   UNL A   1      32.970  34.904  28.564  1.00  0.00     0.251 C 
ATOM     24  H   UNL A   1      31.724  34.473  27.051  1.00  0.00     0.163 HD
ATOM     25  O   UNL A   1      32.456  35.986  28.812  1.00  0.00    -0.269 OA
BRANCH  23  26
ATOM     26  C   UNL A   1      34.146  34.448  29.334  1.00  0.00     0.039 A 
ATOM     27  C   UNL A   1      33.949  33.847  30.579  1.00  0.00     0.014 A 
ATOM     28  C   UNL A   1      35.433  34.577  28.805  1.00  0.00     0.014 A 
ATOM     29  C   UNL A   1      35.040  33.308  31.263  1.00  0.00     0.010 A 
ATOM     30  C   UNL A   1      36.505  33.973  29.449  1.00  0.00     0.010 A 
ATOM     31  C   UNL A   1      36.320  33.331  30.685  1.00  0.00    -0.014 A 
BRANCH  31  32
ATOM     32  C   UNL A   1      37.484  32.696  31.352  1.00  0.00     0.031 A 
ATOM     33  C   UNL A   1      38.197  31.554  30.685  1.00  0.00     0.074 A 
ATOM     34  C   UNL A   1      37.849  33.095  32.585  1.00  0.00     0.049 A 
ATOM     35  N   UNL A   1      39.170  30.804  31.139  1.00  0.00    -0.248 NA
ATOM     36  C   UNL A   1      37.732  31.183  29.339  1.00  0.00     0.031 C 
ATOM     37  C   UNL A   1      37.209  34.163  33.354  1.00  0.00     0.029 A 
ATOM     38  N   UNL A   1      38.842  32.638  33.416  1.00  0.00    -0.354 N 
ATOM     39  C   UNL A   1      39.419  29.868  30.145  1.00  0.00     0.074 A 
ATOM     40  C   UNL A   1      38.459  30.105  29.089  1.00  0.00     0.031 C 
ATOM     41  C   UNL A   1      37.838  34.295  34.533  1.00  0.00     0.029 A 
ATOM     42  C   UNL A   1      38.898  33.296  34.621  1.00  0.00     0.049 A 
ATOM     43  H   UNL A   1      39.456  31.908  33.171  1.00  0.00     0.167 HD
ATOM     44  C   UNL A   1      40.378  28.913  30.106  1.00  0.00     0.037 A 
ATOM     45  C   UNL A   1      39.709  33.105  35.679  1.00  0.00     0.037 A 
ATOM     46  C   UNL A   1      41.346  28.697  31.147  1.00  0.00     0.049 A 
ATOM     47  C   UNL A   1      40.758  32.028  35.616  1.00  0.00     0.074 A 
ATOM     48  C   UNL A   1      42.396  27.796  31.179  1.00  0.00     0.029 A 
ATOM     49  N   UNL A   1      41.382  29.394  32.347  1.00  0.00    -0.354 N 
ATOM     50  N   UNL A   1      41.029  31.192  34.643  1.00  0.00    -0.248 NA
ATOM     51  C   UNL A   1      41.616  31.870  36.799  1.00  0.00     0.031 C 
ATOM     52  C   UNL A   1      43.038  27.915  32.415  1.00  0.00     0.029 A 
ATOM     53  C   UNL A   1      42.423  28.927  33.134  1.00  0.00     0.049 A 
ATOM     54  H   UNL A   1      40.761  30.115  32.601  1.00  0.00     0.167 HD
ATOM     55  C   UNL A   1      42.107  30.434  35.080  1.00  0.00     0.074 A 
ATOM     56  C   UNL A   1      42.447  30.915  36.402  1.00  0.00     0.031 C 
ATOM     57  C   UNL A   1      42.757  29.429  34.443  1.00  0.00     0.037 A 
BRANCH  44  58
ATOM     58  C   UNL A   1      40.425  28.030  28.892  1.00  0.00     0.064 A 
ATOM     59  C   UNL A   1      41.170  28.381  27.756  1.00  0.00     0.173 A 
ATOM     60  C   UNL A   1      39.737  26.808  28.872  1.00  0.00     0.173 A 
ATOM     61  F   UNL A   1      41.836  29.544  27.718  1.00  0.00    -0.203 F 
ATOM     62  C   UNL A   1      41.195  27.559  26.632  1.00  0.00     0.198 A 
ATOM     63  C   UNL A   1      39.790  25.973  27.759  1.00  0.00     0.198 A 
ATOM     64  F   UNL A   1      39.013  26.421  29.934  1.00  0.00    -0.203 F 
ATOM     65  F   UNL A   1      41.867  27.943  25.538  1.00  0.00    -0.200 F 
ATOM     66  C   UNL A   1      40.511  26.353  26.637  1.00  0.00     0.200 A 
ATOM     67  F   UNL A   1      39.139  24.801  27.770  1.00  0.00    -0.200 F 
ATOM     68  F   UNL A   1      40.539  25.561  25.557  1.00  0.00    -0.200 F 
ENDBRANCH  44  58
BRANCH  45  69
ATOM     69  C   UNL A   1      39.583  33.974  36.878  1.00  0.00     0.064 A 
ATOM     70  C   UNL A   1      40.261  35.200  36.951  1.00  0.00     0.173 A 
ATOM     71  C   UNL A   1      38.794  33.600  37.975  1.00  0.00     0.173 A 
ATOM     72  F   UNL A   1      41.045  35.591  35.934  1.00  0.00    -0.203 F 
ATOM     73  C   UNL A   1      40.172  36.006  38.082  1.00  0.00     0.198 A 
ATOM     74  C   UNL A   1      38.683  34.422  39.096  1.00  0.00     0.198 A 
ATOM     75  F   UNL A   1      38.122  32.440  37.955  1.00  0.00    -0.203 F 
ATOM     76  F   UNL A   1      40.867  37.151  38.142  1.00  0.00    -0.200 F 
ATOM     77  C   UNL A   1      39.378  35.620  39.152  1.00  0.00     0.200 A 
ATOM     78  F   UNL A   1      37.905  34.051  40.122  1.00  0.00    -0.200 F 
ATOM     79  F   UNL A   1      39.291  36.399  40.238  1.00  0.00    -0.200 F 
ENDBRANCH  45  69
BRANCH  57  80
ATOM     80  C   UNL A   1      43.932  28.813  35.144  1.00  0.00     0.064 A 
ATOM     81  C   UNL A   1      45.234  29.303  34.970  1.00  0.00     0.173 A 
ATOM     82  C   UNL A   1      43.743  27.748  36.038  1.00  0.00     0.173 A 
ATOM     83  F   UNL A   1      45.469  30.309  34.115  1.00  0.00    -0.203 F 
ATOM     84  C   UNL A   1      46.308  28.734  35.651  1.00  0.00     0.198 A 
ATOM     85  C   UNL A   1      44.815  27.202  36.739  1.00  0.00     0.198 A 
ATOM     86  F   UNL A   1      42.515  27.248  36.245  1.00  0.00    -0.203 F 
ATOM     87  F   UNL A   1      47.551  29.189  35.436  1.00  0.00    -0.200 F 
ATOM     88  C   UNL A   1      46.096  27.690  36.539  1.00  0.00     0.200 A 
ATOM     89  F   UNL A   1      44.605  26.203  37.609  1.00  0.00    -0.200 F 
ATOM     90  F   UNL A   1      47.130  27.152  37.201  1.00  0.00    -0.200 F 
ENDBRANCH  57  80
ENDBRANCH  31  32
ENDBRANCH  23  26
ENDBRANCH  21  22
ENDBRANCH  20  21
ENDBRANCH   1  20
TORSDOF 15
ENDMDL
MODEL 3
REMARK VINA RESULT:     -11.5      2.029      7.890
REMARK SMILES CC(C)Cc1ccc([C@H](CF)C(=O)NCCCCNC(=O)c2ccc(-c3c4nc(c(-c5c(F)c(F)c(F)c(F)c5F)c5ccc([nH]5)c(-c5c(F)c(F)c(F)c(F)c5F)c5nc(c(-c6c(F)c(F)c(F)c(F)c6F)c6ccc3[nH]6)C=C5)C=C4)cc2)cc1
REMARK SMILES IDX 16 1 15 2 14 3 12 4 13 5 9 7 8 8 5 9 6 10 86 11 7 12 85 13
REMARK SMILES IDX 4 14 2 15 1 16 3 17 10 18 11 19 17 20 18 21 19 22 20 23
REMARK SMILES IDX 21 25 22 26 23 27 84 28 24 29 83 30 25 31 26 32 27 33 77 34
REMARK SMILES IDX 28 35 82 36 76 37 78 38 29 39 81 40 75 41 74 42 30 44 62 45
REMARK SMILES IDX 42 46 61 47 43 48 46 49 60 50 79 51 44 52 45 53 59 55 80 56
REMARK SMILES IDX 47 57 31 58 32 59 40 60 33 61 34 62 38 63 41 64 35 65 36 66
REMARK SMILES IDX 39 67 37 68 63 69 64 70 72 71 65 72 66 73 70 74 73 75 67 76
REMARK SMILES IDX 68 77 71 78 69 79 48 80 49 81 57 82 50 83 51 84 55 85 58 86
REMARK SMILES IDX 52 87 53 88 56 89 54 90
REMARK H PARENT 14 6 19 24 78 43 46 54
REMARK Flexibility Score: inf
ROOT
ATOM      1  C   UNL A   1      30.977  29.766  24.490  1.00  0.00     0.023 C 
ENDROOT
BRANCH   1   2
ATOM      2  C   UNL A   1      30.962  29.158  23.092  1.00  0.00     0.116 C 
BRANCH   2   3
ATOM      3  N   UNL A   1      32.303  29.011  22.556  1.00  0.00    -0.355 N 
ATOM      4  C   UNL A   1      33.020  27.882  22.286  1.00  0.00     0.230 C 
ATOM      5  O   UNL A   1      34.140  28.026  21.789  1.00  0.00    -0.274 OA
ATOM      6  H   UNL A   1      32.766  29.856  22.355  1.00  0.00     0.163 HD
BRANCH   4   7
ATOM      7  C   UNL A   1      32.483  26.494  22.622  1.00  0.00     0.139 C 
BRANCH   7   8
ATOM      8  C   UNL A   1      33.405  25.694  23.539  1.00  0.00    -0.033 A 
ATOM      9  C   UNL A   1      35.151  24.179  25.182  1.00  0.00    -0.048 A 
ATOM     10  C   UNL A   1      34.589  25.376  25.640  1.00  0.00     0.004 A 
ATOM     11  C   UNL A   1      34.817  23.733  23.900  1.00  0.00     0.004 A 
ATOM     12  C   UNL A   1      33.752  26.137  24.822  1.00  0.00     0.005 A 
ATOM     13  C   UNL A   1      33.957  24.481  23.089  1.00  0.00     0.005 A 
BRANCH   9  14
ATOM     14  C   UNL A   1      36.115  23.402  26.046  1.00  0.00     0.038 C 
BRANCH  14  15
ATOM     15  C   UNL A   1      37.569  23.382  25.522  1.00  0.00    -0.013 C 
ATOM     16  C   UNL A   1      38.576  23.958  26.523  1.00  0.00     0.008 C 
ATOM     17  C   UNL A   1      37.973  21.944  25.181  1.00  0.00     0.008 C 
ENDBRANCH  14  15
ENDBRANCH   9  14
ENDBRANCH   7   8
BRANCH   7  18
ATOM     18  C   UNL A   1      32.049  25.850  21.305  1.00  0.00     0.232 C 
ATOM     19  F   UNL A   1      33.085  25.855  20.421  1.00  0.00    -0.250 F 
ENDBRANCH   7  18
ENDBRANCH   4   7
ENDBRANCH   2   3
ENDBRANCH   1   2
BRANCH   1  20
ATOM     20  C   UNL A   1      31.590  28.870  25.565  1.00  0.00     0.023 C 
BRANCH  20  21
ATOM     21  C   UNL A   1      32.769  29.479  26.313  1.00  0.00     0.116 C 
BRANCH  21  22
ATOM     22  N   UNL A   1      32.615  30.905  26.555  1.00  0.00    -0.352 N 
ATOM     23  C   UNL A   1      33.415  31.746  27.294  1.00  0.00     0.251 C 
ATOM     24  H   UNL A   1      31.831  31.326  26.134  1.00  0.00     0.163 HD
ATOM     25  O   UNL A   1      33.072  32.900  27.516  1.00  0.00    -0.269 OA
BRANCH  23  26
ATOM     26  C   UNL A   1      34.682  31.228  27.850  1.00  0.00     0.039 A 
ATOM     27  C   UNL A   1      35.770  32.094  27.977  1.00  0.00     0.014 A 
ATOM     28  C   UNL A   1      34.777  29.903  28.282  1.00  0.00     0.014 A 
ATOM     29  C   UNL A   1      36.933  31.649  28.607  1.00  0.00     0.010 A 
ATOM     30  C   UNL A   1      35.905  29.485  28.977  1.00  0.00     0.010 A 
ATOM     31  C   UNL A   1      36.995  30.354  29.147  1.00  0.00    -0.014 A 
BRANCH  31  32
ATOM     32  C   UNL A   1      38.188  29.881  29.892  1.00  0.00     0.031 A 
ATOM     33  C   UNL A   1      38.466  30.405  31.272  1.00  0.00     0.074 A 
ATOM     34  C   UNL A   1      39.058  29.041  29.298  1.00  0.00     0.049 A 
ATOM     35  N   UNL A   1      39.499  30.192  32.049  1.00  0.00    -0.248 NA
ATOM     36  C   UNL A   1      37.464  31.318  31.844  1.00  0.00     0.031 C 
ATOM     37  C   UNL A   1      38.922  28.495  27.946  1.00  0.00     0.029 A 
ATOM     38  N   UNL A   1      40.239  28.509  29.752  1.00  0.00    -0.354 N 
ATOM     39  C   UNL A   1      39.277  30.955  33.187  1.00  0.00     0.074 A 
ATOM     40  C   UNL A   1      38.043  31.680  32.978  1.00  0.00     0.031 C 
ATOM     41  C   UNL A   1      39.964  27.690  27.690  1.00  0.00     0.029 A 
ATOM     42  C   UNL A   1      40.863  27.692  28.841  1.00  0.00     0.049 A 
ATOM     43  H   UNL A   1      40.605  28.695  30.648  1.00  0.00     0.167 HD
ATOM     44  C   UNL A   1      40.023  31.024  34.315  1.00  0.00     0.037 A 
ATOM     45  C   UNL A   1      42.032  27.029  28.923  1.00  0.00     0.037 A 
ATOM     46  C   UNL A   1      41.235  30.281  34.529  1.00  0.00     0.049 A 
ATOM     47  C   UNL A   1      42.849  27.134  30.182  1.00  0.00     0.074 A 
ATOM     48  C   UNL A   1      42.033  30.236  35.659  1.00  0.00     0.029 A 
ATOM     49  N   UNL A   1      41.827  29.451  33.588  1.00  0.00    -0.354 N 
ATOM     50  N   UNL A   1      42.597  27.806  31.279  1.00  0.00    -0.248 NA
ATOM     51  C   UNL A   1      44.114  26.385  30.215  1.00  0.00     0.031 C 
ATOM     52  C   UNL A   1      43.132  29.415  35.386  1.00  0.00     0.029 A 
ATOM     53  C   UNL A   1      42.992  28.906  34.105  1.00  0.00     0.049 A 
ATOM     54  H   UNL A   1      41.472  29.274  32.686  1.00  0.00     0.167 HD
ATOM     55  C   UNL A   1      43.649  27.534  32.144  1.00  0.00     0.074 A 
ATOM     56  C   UNL A   1      44.538  26.630  31.447  1.00  0.00     0.031 C 
ATOM     57  C   UNL A   1      43.859  27.994  33.402  1.00  0.00     0.037 A 
BRANCH  44  58
ATOM     58  C   UNL A   1      39.541  31.937  35.407  1.00  0.00     0.064 A 
ATOM     59  C   UNL A   1      38.591  31.517  36.351  1.00  0.00     0.173 A 
ATOM     60  C   UNL A   1      40.052  33.238  35.525  1.00  0.00     0.173 A 
ATOM     61  F   UNL A   1      38.062  30.287  36.276  1.00  0.00    -0.203 F 
ATOM     62  C   UNL A   1      38.145  32.377  37.350  1.00  0.00     0.198 A 
ATOM     63  C   UNL A   1      39.627  34.085  36.545  1.00  0.00     0.198 A 
ATOM     64  F   UNL A   1      40.966  33.688  34.652  1.00  0.00    -0.203 F 
ATOM     65  F   UNL A   1      37.195  31.973  38.205  1.00  0.00    -0.200 F 
ATOM     66  C   UNL A   1      38.668  33.658  37.451  1.00  0.00     0.200 A 
ATOM     67  F   UNL A   1      40.142  35.318  36.649  1.00  0.00    -0.200 F 
ATOM     68  F   UNL A   1      38.239  34.484  38.415  1.00  0.00    -0.200 F 
ENDBRANCH  44  58
BRANCH  45  69
ATOM     69  C   UNL A   1      42.488  26.182  27.790  1.00  0.00     0.064 A 
ATOM     70  C   UNL A   1      43.365  26.692  26.821  1.00  0.00     0.173 A 
ATOM     71  C   UNL A   1      42.057  24.856  27.645  1.00  0.00     0.173 A 
ATOM     72  F   UNL A   1      43.789  27.962  26.905  1.00  0.00    -0.203 F 
ATOM     73  C   UNL A   1      43.775  25.914  25.740  1.00  0.00     0.198 A 
ATOM     74  C   UNL A   1      42.491  24.070  26.579  1.00  0.00     0.198 A 
ATOM     75  F   UNL A   1      41.223  24.319  28.546  1.00  0.00    -0.203 F 
ATOM     76  F   UNL A   1      44.577  26.442  24.805  1.00  0.00    -0.200 F 
ATOM     77  C   UNL A   1      43.343  24.602  25.623  1.00  0.00     0.200 A 
ATOM     78  F   UNL A   1      42.082  22.798  26.476  1.00  0.00    -0.200 F 
ATOM     79  F   UNL A   1      43.741  23.855  24.585  1.00  0.00    -0.200 F 
ENDBRANCH  45  69
BRANCH  57  80
ATOM     80  C   UNL A   1      45.072  27.491  34.126  1.00  0.00     0.064 A 
ATOM     81  C   UNL A   1      45.042  26.310  34.882  1.00  0.00     0.173 A 
ATOM     82  C   UNL A   1      46.293  28.175  34.023  1.00  0.00     0.173 A 
ATOM     83  F   UNL A   1      43.896  25.628  35.025  1.00  0.00    -0.203 F 
ATOM     84  C   UNL A   1      46.187  25.845  35.527  1.00  0.00     0.198 A 
ATOM     85  C   UNL A   1      47.441  27.692  34.644  1.00  0.00     0.198 A 
ATOM     86  F   UNL A   1      46.375  29.306  33.306  1.00  0.00    -0.203 F 
ATOM     87  F   UNL A   1      46.125  24.738  36.281  1.00  0.00    -0.200 F 
ATOM     88  C   UNL A   1      47.385  26.532  35.400  1.00  0.00     0.200 A 
ATOM     89  F   UNL A   1      48.602  28.349  34.508  1.00  0.00    -0.200 F 
ATOM     90  F   UNL A   1      48.487  26.076  36.013  1.00  0.00    -0.200 F 
ENDBRANCH  57  80
ENDBRANCH  31  32
ENDBRANCH  23  26
ENDBRANCH  21  22
ENDBRANCH  20  21
ENDBRANCH   1  20
TORSDOF 15
ENDMDL
