MODEL 1
REMARK VINA RESULT:     -10.3      0.000      0.000
REMARK SMILES COC(=O)NNC(=O)CCC(=O)NCCCCNC(=O)c1ccc(-c2c3nc(c(-c4c(F)c(F)c(F)c(F)c4F)c4ccc([nH]4)c(-c4c(F)c(F)c(F)c(F)c4F)c4nc(c(-c5c(F)c(F)c(F)c(F)c5F)c5ccc2[nH]5)C=C4)C=C3)cc1
REMARK SMILES IDX 14 1 13 2 11 3 12 4 10 6 9 7 7 8 6 9 8 11 5 12 3 13 4 14
REMARK SMILES IDX 2 16 1 17 15 18 16 19 17 20 18 21 19 22 20 24 21 25 22 26
REMARK SMILES IDX 83 27 23 28 82 29 24 30 25 31 26 32 76 33 27 34 81 35 75 36
REMARK SMILES IDX 77 37 28 38 80 39 74 40 73 41 29 43 61 44 41 45 60 46 42 47
REMARK SMILES IDX 45 48 59 49 78 50 43 51 44 52 58 54 79 55 46 56 30 57 31 58
REMARK SMILES IDX 39 59 32 60 33 61 37 62 40 63 34 64 35 65 38 66 36 67 62 68
REMARK SMILES IDX 63 69 71 70 64 71 65 72 69 73 72 74 66 75 67 76 70 77 68 78
REMARK SMILES IDX 47 79 48 80 56 81 49 82 50 83 54 84 57 85 51 86 52 87 55 88
REMARK SMILES IDX 53 89
REMARK H PARENT 13 5 6 10 5 15 18 23 77 42 45 53
REMARK Flexibility Score: inf
ROOT
ATOM      1  C   UNL A   1      37.379  33.148  31.079  1.00  0.00     0.116 C 
ENDROOT
BRANCH   1   2
ATOM      2  N   UNL A   1      37.894  34.001  32.140  1.00  0.00    -0.356 N 
ATOM      3  C   UNL A   1      37.502  34.137  33.435  1.00  0.00     0.220 C 
ATOM      4  O   UNL A   1      38.108  34.925  34.163  1.00  0.00    -0.275 OA
ATOM      5  H   UNL A   1      38.649  34.575  31.878  1.00  0.00     0.163 HD
BRANCH   3   6
ATOM      6  C   UNL A   1      36.295  33.401  33.955  1.00  0.00     0.110 C 
BRANCH   6   7
ATOM      7  C   UNL A   1      35.069  34.301  34.017  1.00  0.00     0.112 C 
BRANCH   7   8
ATOM      8  C   UNL A   1      33.944  33.853  33.108  1.00  0.00     0.238 C 
ATOM      9  N   UNL A   1      32.982  34.755  32.719  1.00  0.00    -0.265 N 
ATOM     10  H   UNL A   1      32.220  34.409  32.200  1.00  0.00     0.191 HD
ATOM     11  O   UNL A   1      33.898  32.690  32.702  1.00  0.00    -0.273 OA
BRANCH   9  12
ATOM     12  N   UNL A   1      33.001  36.121  33.004  1.00  0.00    -0.232 N 
ATOM     13  C   UNL A   1      32.777  37.082  32.044  1.00  0.00     0.425 C 
ATOM     14  O   UNL A   1      32.922  38.276  32.264  1.00  0.00    -0.223 OA
ATOM     15  H   UNL A   1      33.182  36.409  33.928  1.00  0.00     0.195 HD
BRANCH  13  16
ATOM     16  O   UNL A   1      32.407  36.561  30.838  1.00  0.00    -0.452 OA
ATOM     17  C   UNL A   1      33.286  36.932  29.769  1.00  0.00     0.284 C 
ENDBRANCH  13  16
ENDBRANCH   9  12
ENDBRANCH   7   8
ENDBRANCH   6   7
ENDBRANCH   3   6
ENDBRANCH   1   2
BRANCH   1  18
ATOM     18  C   UNL A   1      36.704  33.917  29.941  1.00  0.00     0.023 C 
BRANCH  18  19
ATOM     19  C   UNL A   1      35.330  33.389  29.553  1.00  0.00     0.023 C 
BRANCH  19  20
ATOM     20  C   UNL A   1      35.211  32.973  28.102  1.00  0.00     0.116 C 
BRANCH  20  21
ATOM     21  N   UNL A   1      34.332  31.827  27.940  1.00  0.00    -0.352 N 
ATOM     22  C   UNL A   1      34.644  30.494  27.848  1.00  0.00     0.251 C 
ATOM     23  H   UNL A   1      33.372  32.038  27.890  1.00  0.00     0.163 HD
ATOM     24  O   UNL A   1      33.797  29.686  27.478  1.00  0.00    -0.269 OA
BRANCH  22  25
ATOM     25  C   UNL A   1      36.011  30.032  28.177  1.00  0.00     0.039 A 
ATOM     26  C   UNL A   1      37.014  30.118  27.208  1.00  0.00     0.014 A 
ATOM     27  C   UNL A   1      36.302  29.508  29.438  1.00  0.00     0.014 A 
ATOM     28  C   UNL A   1      38.317  29.730  27.526  1.00  0.00     0.010 A 
ATOM     29  C   UNL A   1      37.617  29.241  29.790  1.00  0.00     0.010 A 
ATOM     30  C   UNL A   1      38.635  29.319  28.830  1.00  0.00    -0.014 A 
BRANCH  30  31
ATOM     31  C   UNL A   1      40.011  28.910  29.210  1.00  0.00     0.031 A 
ATOM     32  C   UNL A   1      40.857  29.839  30.040  1.00  0.00     0.074 A 
ATOM     33  C   UNL A   1      40.521  27.751  28.752  1.00  0.00     0.049 A 
ATOM     34  N   UNL A   1      42.116  29.734  30.383  1.00  0.00    -0.248 NA
ATOM     35  C   UNL A   1      40.212  31.074  30.517  1.00  0.00     0.031 C 
ATOM     36  C   UNL A   1      39.815  26.788  27.905  1.00  0.00     0.029 A 
ATOM     37  N   UNL A   1      41.762  27.191  28.926  1.00  0.00    -0.354 N 
ATOM     38  C   UNL A   1      42.413  30.894  31.086  1.00  0.00     0.074 A 
ATOM     39  C   UNL A   1      41.228  31.721  31.063  1.00  0.00     0.031 C 
ATOM     40  C   UNL A   1      40.623  25.745  27.656  1.00  0.00     0.029 A 
ATOM     41  C   UNL A   1      41.919  25.987  28.282  1.00  0.00     0.049 A 
ATOM     42  H   UNL A   1      42.473  27.612  29.461  1.00  0.00     0.167 HD
ATOM     43  C   UNL A   1      43.561  31.227  31.722  1.00  0.00     0.037 A 
ATOM     44  C   UNL A   1      42.992  25.178  28.198  1.00  0.00     0.037 A 
ATOM     45  C   UNL A   1      44.722  30.380  31.772  1.00  0.00     0.049 A 
ATOM     46  C   UNL A   1      44.262  25.577  28.904  1.00  0.00     0.074 A 
ATOM     47  C   UNL A   1      45.914  30.591  32.441  1.00  0.00     0.029 A 
ATOM     48  N   UNL A   1      44.835  29.158  31.125  1.00  0.00    -0.354 N 
ATOM     49  N   UNL A   1      44.511  26.644  29.622  1.00  0.00    -0.248 NA
ATOM     50  C   UNL A   1      45.400  24.653  28.792  1.00  0.00     0.031 C 
ATOM     51  C   UNL A   1      46.770  29.524  32.150  1.00  0.00     0.029 A 
ATOM     52  C   UNL A   1      46.087  28.616  31.356  1.00  0.00     0.049 A 
ATOM     53  H   UNL A   1      44.129  28.739  30.581  1.00  0.00     0.167 HD
ATOM     54  C   UNL A   1      45.817  26.507  30.074  1.00  0.00     0.074 A 
ATOM     55  C   UNL A   1      46.304  25.245  29.559  1.00  0.00     0.031 C 
ATOM     56  C   UNL A   1      46.547  27.349  30.846  1.00  0.00     0.037 A 
BRANCH  43  57
ATOM     57  C   UNL A   1      43.613  32.559  32.416  1.00  0.00     0.064 A 
ATOM     58  C   UNL A   1      44.029  33.724  31.752  1.00  0.00     0.173 A 
ATOM     59  C   UNL A   1      43.214  32.678  33.755  1.00  0.00     0.173 A 
ATOM     60  F   UNL A   1      44.434  33.665  30.474  1.00  0.00    -0.203 F 
ATOM     61  C   UNL A   1      44.078  34.948  32.413  1.00  0.00     0.198 A 
ATOM     62  C   UNL A   1      43.229  33.912  34.402  1.00  0.00     0.198 A 
ATOM     63  F   UNL A   1      42.802  31.600  34.438  1.00  0.00    -0.203 F 
ATOM     64  F   UNL A   1      44.538  36.034  31.774  1.00  0.00    -0.200 F 
ATOM     65  C   UNL A   1      43.671  35.043  33.734  1.00  0.00     0.200 A 
ATOM     66  F   UNL A   1      42.820  34.004  35.675  1.00  0.00    -0.200 F 
ATOM     67  F   UNL A   1      43.710  36.224  34.365  1.00  0.00    -0.200 F 
ENDBRANCH  43  57
BRANCH  44  68
ATOM     68  C   UNL A   1      42.909  23.904  27.434  1.00  0.00     0.064 A 
ATOM     69  C   UNL A   1      42.468  22.724  28.048  1.00  0.00     0.173 A 
ATOM     70  C   UNL A   1      43.274  23.837  26.081  1.00  0.00     0.173 A 
ATOM     71  F   UNL A   1      42.124  22.732  29.344  1.00  0.00    -0.203 F 
ATOM     72  C   UNL A   1      42.420  21.521  27.346  1.00  0.00     0.198 A 
ATOM     73  C   UNL A   1      43.194  22.641  25.372  1.00  0.00     0.198 A 
ATOM     74  F   UNL A   1      43.695  24.940  25.443  1.00  0.00    -0.203 F 
ATOM     75  F   UNL A   1      42.043  20.398  27.972  1.00  0.00    -0.200 F 
ATOM     76  C   UNL A   1      42.777  21.481  26.007  1.00  0.00     0.200 A 
ATOM     77  F   UNL A   1      43.524  22.611  24.074  1.00  0.00    -0.200 F 
ATOM     78  F   UNL A   1      42.726  20.325  25.332  1.00  0.00    -0.200 F 
ENDBRANCH  44  68
BRANCH  56  79
ATOM     79  C   UNL A   1      47.935  26.916  31.223  1.00  0.00     0.064 A 
ATOM     80  C   UNL A   1      48.184  26.147  32.369  1.00  0.00     0.173 A 
ATOM     81  C   UNL A   1      49.021  27.227  30.390  1.00  0.00     0.173 A 
ATOM     82  F   UNL A   1      47.182  25.837  33.205  1.00  0.00    -0.203 F 
ATOM     83  C   UNL A   1      49.474  25.725  32.678  1.00  0.00     0.198 A 
ATOM     84  C   UNL A   1      50.303  26.772  30.683  1.00  0.00     0.198 A 
ATOM     85  F   UNL A   1      48.834  27.952  29.277  1.00  0.00    -0.203 F 
ATOM     86  F   UNL A   1      49.698  25.030  33.803  1.00  0.00    -0.200 F 
ATOM     87  C   UNL A   1      50.529  26.028  31.831  1.00  0.00     0.200 A 
ATOM     88  F   UNL A   1      51.317  27.051  29.854  1.00  0.00    -0.200 F 
ATOM     89  F   UNL A   1      51.768  25.607  32.123  1.00  0.00    -0.200 F 
ENDBRANCH  56  79
ENDBRANCH  30  31
ENDBRANCH  22  25
ENDBRANCH  20  21
ENDBRANCH  19  20
ENDBRANCH  18  19
ENDBRANCH   1  18
TORSDOF 15
ENDMDL
MODEL 2
REMARK VINA RESULT:     -10.2      4.594     11.575
REMARK SMILES COC(=O)NNC(=O)CCC(=O)NCCCCNC(=O)c1ccc(-c2c3nc(c(-c4c(F)c(F)c(F)c(F)c4F)c4ccc([nH]4)c(-c4c(F)c(F)c(F)c(F)c4F)c4nc(c(-c5c(F)c(F)c(F)c(F)c5F)c5ccc2[nH]5)C=C4)C=C3)cc1
REMARK SMILES IDX 14 1 13 2 11 3 12 4 10 6 9 7 7 8 6 9 8 11 5 12 3 13 4 14
REMARK SMILES IDX 2 16 1 17 15 18 16 19 17 20 18 21 19 22 20 24 21 25 22 26
REMARK SMILES IDX 83 27 23 28 82 29 24 30 25 31 26 32 76 33 27 34 81 35 75 36
REMARK SMILES IDX 77 37 28 38 80 39 74 40 73 41 29 43 61 44 41 45 60 46 42 47
REMARK SMILES IDX 45 48 59 49 78 50 43 51 44 52 58 54 79 55 46 56 30 57 31 58
REMARK SMILES IDX 39 59 32 60 33 61 37 62 40 63 34 64 35 65 38 66 36 67 62 68
REMARK SMILES IDX 63 69 71 70 64 71 65 72 69 73 72 74 66 75 67 76 70 77 68 78
REMARK SMILES IDX 47 79 48 80 56 81 49 82 50 83 54 84 57 85 51 86 52 87 55 88
REMARK SMILES IDX 53 89
REMARK H PARENT 13 5 6 10 5 15 18 23 77 42 45 53
REMARK Flexibility Score: inf
ROOT
ATOM      1  C   UNL A   1      43.291  23.627  27.912  1.00  0.00     0.116 C 
ENDROOT
BRANCH   1   2
ATOM      2  N   UNL A   1      44.721  23.855  28.065  1.00  0.00    -0.356 N 
ATOM      3  C   UNL A   1      45.685  24.083  27.134  1.00  0.00     0.220 C 
ATOM      4  O   UNL A   1      46.845  24.267  27.507  1.00  0.00    -0.275 OA
ATOM      5  H   UNL A   1      45.043  23.840  28.994  1.00  0.00     0.163 HD
BRANCH   3   6
ATOM      6  C   UNL A   1      45.362  24.033  25.664  1.00  0.00     0.110 C 
BRANCH   6   7
ATOM      7  C   UNL A   1      45.768  22.704  25.042  1.00  0.00     0.112 C 
BRANCH   7   8
ATOM      8  C   UNL A   1      44.719  22.124  24.118  1.00  0.00     0.238 C 
ATOM      9  N   UNL A   1      44.833  20.823  23.690  1.00  0.00    -0.265 N 
ATOM     10  H   UNL A   1      44.182  20.506  23.023  1.00  0.00     0.191 HD
ATOM     11  O   UNL A   1      43.756  22.807  23.763  1.00  0.00    -0.273 OA
BRANCH   9  12
ATOM     12  N   UNL A   1      45.800  19.915  24.126  1.00  0.00    -0.232 N 
ATOM     13  C   UNL A   1      45.478  18.716  24.720  1.00  0.00     0.425 C 
ATOM     14  O   UNL A   1      46.321  17.984  25.218  1.00  0.00    -0.223 OA
ATOM     15  H   UNL A   1      46.750  20.143  24.005  1.00  0.00     0.195 HD
BRANCH  13  16
ATOM     16  O   UNL A   1      44.139  18.455  24.711  1.00  0.00    -0.452 OA
ATOM     17  C   UNL A   1      43.550  18.479  26.016  1.00  0.00     0.284 C 
ENDBRANCH  13  16
ENDBRANCH   9  12
ENDBRANCH   7   8
ENDBRANCH   6   7
ENDBRANCH   3   6
ENDBRANCH   1   2
BRANCH   1  18
ATOM     18  C   UNL A   1      42.915  22.153  27.746  1.00  0.00     0.023 C 
BRANCH  18  19
ATOM     19  C   UNL A   1      41.853  21.889  26.689  1.00  0.00     0.023 C 
BRANCH  19  20
ATOM     20  C   UNL A   1      40.482  21.572  27.251  1.00  0.00     0.116 C 
BRANCH  20  21
ATOM     21  N   UNL A   1      39.422  21.945  26.329  1.00  0.00    -0.352 N 
ATOM     22  C   UNL A   1      38.766  23.143  26.193  1.00  0.00     0.251 C 
ATOM     23  H   UNL A   1      39.134  21.236  25.711  1.00  0.00     0.163 HD
ATOM     24  O   UNL A   1      37.739  23.210  25.524  1.00  0.00    -0.269 OA
BRANCH  22  25
ATOM     25  C   UNL A   1      39.287  24.351  26.869  1.00  0.00     0.039 A 
ATOM     26  C   UNL A   1      40.100  25.236  26.157  1.00  0.00     0.014 A 
ATOM     27  C   UNL A   1      38.978  24.608  28.206  1.00  0.00     0.014 A 
ATOM     28  C   UNL A   1      40.556  26.404  26.774  1.00  0.00     0.010 A 
ATOM     29  C   UNL A   1      39.326  25.825  28.776  1.00  0.00     0.010 A 
ATOM     30  C   UNL A   1      40.145  26.723  28.077  1.00  0.00    -0.014 A 
BRANCH  30  31
ATOM     31  C   UNL A   1      40.598  27.960  28.763  1.00  0.00     0.031 A 
ATOM     32  C   UNL A   1      42.026  28.068  29.228  1.00  0.00     0.074 A 
ATOM     33  C   UNL A   1      39.718  28.944  29.032  1.00  0.00     0.049 A 
ATOM     34  N   UNL A   1      42.599  29.000  29.946  1.00  0.00    -0.248 NA
ATOM     35  C   UNL A   1      42.924  26.956  28.871  1.00  0.00     0.031 C 
ATOM     36  C   UNL A   1      38.300  28.936  28.671  1.00  0.00     0.029 A 
ATOM     37  N   UNL A   1      39.887  30.139  29.685  1.00  0.00    -0.354 N 
ATOM     38  C   UNL A   1      43.905  28.574  30.144  1.00  0.00     0.074 A 
ATOM     39  C   UNL A   1      44.025  27.269  29.535  1.00  0.00     0.031 C 
ATOM     40  C   UNL A   1      37.735  30.082  29.084  1.00  0.00     0.029 A 
ATOM     41  C   UNL A   1      38.736  30.883  29.780  1.00  0.00     0.049 A 
ATOM     42  H   UNL A   1      40.752  30.435  30.052  1.00  0.00     0.167 HD
ATOM     43  C   UNL A   1      44.924  29.224  30.754  1.00  0.00     0.037 A 
ATOM     44  C   UNL A   1      38.515  32.071  30.373  1.00  0.00     0.037 A 
ATOM     45  C   UNL A   1      44.806  30.539  31.324  1.00  0.00     0.049 A 
ATOM     46  C   UNL A   1      39.662  32.770  31.056  1.00  0.00     0.074 A 
ATOM     47  C   UNL A   1      45.789  31.317  31.909  1.00  0.00     0.029 A 
ATOM     48  N   UNL A   1      43.627  31.270  31.383  1.00  0.00    -0.354 N 
ATOM     49  N   UNL A   1      40.909  32.388  31.180  1.00  0.00    -0.248 NA
ATOM     50  C   UNL A   1      39.369  34.070  31.677  1.00  0.00     0.031 C 
ATOM     51  C   UNL A   1      45.193  32.494  32.372  1.00  0.00     0.029 A 
ATOM     52  C   UNL A   1      43.854  32.480  32.017  1.00  0.00     0.049 A 
ATOM     53  H   UNL A   1      42.759  30.973  31.026  1.00  0.00     0.167 HD
ATOM     54  C   UNL A   1      41.557  33.411  31.861  1.00  0.00     0.074 A 
ATOM     55  C   UNL A   1      40.567  34.436  32.112  1.00  0.00     0.031 C 
ATOM     56  C   UNL A   1      42.855  33.494  32.243  1.00  0.00     0.037 A 
BRANCH  43  57
ATOM     57  C   UNL A   1      46.252  28.526  30.830  1.00  0.00     0.064 A 
ATOM     58  C   UNL A   1      46.596  27.705  31.915  1.00  0.00     0.173 A 
ATOM     59  C   UNL A   1      47.183  28.656  29.788  1.00  0.00     0.173 A 
ATOM     60  F   UNL A   1      45.749  27.556  32.945  1.00  0.00    -0.203 F 
ATOM     61  C   UNL A   1      47.835  27.072  31.972  1.00  0.00     0.198 A 
ATOM     62  C   UNL A   1      48.406  27.990  29.832  1.00  0.00     0.198 A 
ATOM     63  F   UNL A   1      46.906  29.423  28.724  1.00  0.00    -0.203 F 
ATOM     64  F   UNL A   1      48.163  26.343  33.049  1.00  0.00    -0.200 F 
ATOM     65  C   UNL A   1      48.735  27.208  30.927  1.00  0.00     0.200 A 
ATOM     66  F   UNL A   1      49.269  28.111  28.813  1.00  0.00    -0.200 F 
ATOM     67  F   UNL A   1      49.923  26.591  30.980  1.00  0.00    -0.200 F 
ENDBRANCH  43  57
BRANCH  44  68
ATOM     68  C   UNL A   1      37.160  32.684  30.334  1.00  0.00     0.064 A 
ATOM     69  C   UNL A   1      36.224  32.429  31.345  1.00  0.00     0.173 A 
ATOM     70  C   UNL A   1      36.770  33.531  29.284  1.00  0.00     0.173 A 
ATOM     71  F   UNL A   1      36.542  31.612  32.360  1.00  0.00    -0.203 F 
ATOM     72  C   UNL A   1      34.942  32.974  31.296  1.00  0.00     0.198 A 
ATOM     73  C   UNL A   1      35.500  34.102  29.254  1.00  0.00     0.198 A 
ATOM     74  F   UNL A   1      37.630  33.816  28.296  1.00  0.00    -0.203 F 
ATOM     75  F   UNL A   1      34.051  32.671  32.249  1.00  0.00    -0.200 F 
ATOM     76  C   UNL A   1      34.583  33.815  30.254  1.00  0.00     0.200 A 
ATOM     77  F   UNL A   1      35.163  34.928  28.254  1.00  0.00    -0.200 F 
ATOM     78  F   UNL A   1      33.353  34.343  30.209  1.00  0.00    -0.200 F 
ENDBRANCH  44  68
BRANCH  56  79
ATOM     79  C   UNL A   1      43.296  34.754  32.932  1.00  0.00     0.064 A 
ATOM     80  C   UNL A   1      43.358  34.849  34.329  1.00  0.00     0.173 A 
ATOM     81  C   UNL A   1      43.719  35.859  32.177  1.00  0.00     0.173 A 
ATOM     82  F   UNL A   1      42.950  33.826  35.095  1.00  0.00    -0.203 F 
ATOM     83  C   UNL A   1      43.805  36.014  34.946  1.00  0.00     0.198 A 
ATOM     84  C   UNL A   1      44.200  37.009  32.796  1.00  0.00     0.198 A 
ATOM     85  F   UNL A   1      43.688  35.815  30.836  1.00  0.00    -0.203 F 
ATOM     86  F   UNL A   1      43.813  36.102  36.284  1.00  0.00    -0.200 F 
ATOM     87  C   UNL A   1      44.235  37.087  34.180  1.00  0.00     0.200 A 
ATOM     88  F   UNL A   1      44.632  38.036  32.055  1.00  0.00    -0.200 F 
ATOM     89  F   UNL A   1      44.682  38.202  34.777  1.00  0.00    -0.200 F 
ENDBRANCH  56  79
ENDBRANCH  30  31
ENDBRANCH  22  25
ENDBRANCH  20  21
ENDBRANCH  19  20
ENDBRANCH  18  19
ENDBRANCH   1  18
TORSDOF 15
ENDMDL
MODEL 3
REMARK VINA RESULT:     -10.1      0.510      7.616
REMARK SMILES COC(=O)NNC(=O)CCC(=O)NCCCCNC(=O)c1ccc(-c2c3nc(c(-c4c(F)c(F)c(F)c(F)c4F)c4ccc([nH]4)c(-c4c(F)c(F)c(F)c(F)c4F)c4nc(c(-c5c(F)c(F)c(F)c(F)c5F)c5ccc2[nH]5)C=C4)C=C3)cc1
REMARK SMILES IDX 14 1 13 2 11 3 12 4 10 6 9 7 7 8 6 9 8 11 5 12 3 13 4 14
REMARK SMILES IDX 2 16 1 17 15 18 16 19 17 20 18 21 19 22 20 24 21 25 22 26
REMARK SMILES IDX 83 27 23 28 82 29 24 30 25 31 26 32 76 33 27 34 81 35 75 36
REMARK SMILES IDX 77 37 28 38 80 39 74 40 73 41 29 43 61 44 41 45 60 46 42 47
REMARK SMILES IDX 45 48 59 49 78 50 43 51 44 52 58 54 79 55 46 56 30 57 31 58
REMARK SMILES IDX 39 59 32 60 33 61 37 62 40 63 34 64 35 65 38 66 36 67 62 68
REMARK SMILES IDX 63 69 71 70 64 71 65 72 69 73 72 74 66 75 67 76 70 77 68 78
REMARK SMILES IDX 47 79 48 80 56 81 49 82 50 83 54 84 57 85 51 86 52 87 55 88
REMARK SMILES IDX 53 89
REMARK H PARENT 13 5 6 10 5 15 18 23 77 42 45 53
REMARK Flexibility Score: inf
ROOT
ATOM      1  C   UNL A   1      36.932  32.493  31.263  1.00  0.00     0.116 C 
ENDROOT
BRANCH   1   2
ATOM      2  N   UNL A   1      37.692  33.381  32.130  1.00  0.00    -0.356 N 
ATOM      3  C   UNL A   1      37.455  33.788  33.405  1.00  0.00     0.220 C 
ATOM      4  O   UNL A   1      38.261  34.544  33.950  1.00  0.00    -0.275 OA
ATOM      5  H   UNL A   1      38.511  33.749  31.727  1.00  0.00     0.163 HD
BRANCH   3   6
ATOM      6  C   UNL A   1      36.189  33.392  34.117  1.00  0.00     0.110 C 
BRANCH   6   7
ATOM      7  C   UNL A   1      35.105  34.451  33.972  1.00  0.00     0.112 C 
BRANCH   7   8
ATOM      8  C   UNL A   1      33.878  33.963  33.232  1.00  0.00     0.238 C 
ATOM      9  N   UNL A   1      32.893  34.856  32.881  1.00  0.00    -0.265 N 
ATOM     10  H   UNL A   1      32.073  34.491  32.479  1.00  0.00     0.191 HD
ATOM     11  O   UNL A   1      33.768  32.773  32.927  1.00  0.00    -0.273 OA
BRANCH   9  12
ATOM     12  N   UNL A   1      32.966  36.240  33.053  1.00  0.00    -0.232 N 
ATOM     13  C   UNL A   1      32.768  37.127  32.020  1.00  0.00     0.425 C 
ATOM     14  O   UNL A   1      32.960  38.328  32.141  1.00  0.00    -0.223 OA
ATOM     15  H   UNL A   1      33.168  36.594  33.949  1.00  0.00     0.195 HD
BRANCH  13  16
ATOM     16  O   UNL A   1      32.366  36.524  30.864  1.00  0.00    -0.452 OA
ATOM     17  C   UNL A   1      33.262  36.747  29.769  1.00  0.00     0.284 C 
ENDBRANCH  13  16
ENDBRANCH   9  12
ENDBRANCH   7   8
ENDBRANCH   6   7
ENDBRANCH   3   6
ENDBRANCH   1   2
BRANCH   1  18
ATOM     18  C   UNL A   1      36.217  33.212  30.116  1.00  0.00     0.023 C 
BRANCH  18  19
ATOM     19  C   UNL A   1      34.844  32.651  29.780  1.00  0.00     0.023 C 
BRANCH  19  20
ATOM     20  C   UNL A   1      34.614  32.411  28.302  1.00  0.00     0.116 C 
BRANCH  20  21
ATOM     21  N   UNL A   1      34.019  31.109  28.053  1.00  0.00    -0.352 N 
ATOM     22  C   UNL A   1      34.625  29.884  27.919  1.00  0.00     0.251 C 
ATOM     23  H   UNL A   1      33.039  31.104  27.968  1.00  0.00     0.163 HD
ATOM     24  O   UNL A   1      33.993  28.929  27.478  1.00  0.00    -0.269 OA
BRANCH  22  25
ATOM     25  C   UNL A   1      36.048  29.720  28.290  1.00  0.00     0.039 A 
ATOM     26  C   UNL A   1      36.374  29.260  29.568  1.00  0.00     0.014 A 
ATOM     27  C   UNL A   1      37.061  30.025  27.378  1.00  0.00     0.014 A 
ATOM     28  C   UNL A   1      37.713  29.056  29.909  1.00  0.00     0.010 A 
ATOM     29  C   UNL A   1      38.379  29.705  27.674  1.00  0.00     0.010 A 
ATOM     30  C   UNL A   1      38.723  29.246  28.953  1.00  0.00    -0.014 A 
BRANCH  30  31
ATOM     31  C   UNL A   1      40.157  29.028  29.273  1.00  0.00     0.031 A 
ATOM     32  C   UNL A   1      40.847  27.786  28.774  1.00  0.00     0.074 A 
ATOM     33  C   UNL A   1      40.811  29.899  30.066  1.00  0.00     0.049 A 
ATOM     34  N   UNL A   1      42.050  27.342  29.034  1.00  0.00    -0.248 NA
ATOM     35  C   UNL A   1      40.062  26.901  27.895  1.00  0.00     0.031 C 
ATOM     36  C   UNL A   1      40.239  31.115  30.645  1.00  0.00     0.029 A 
ATOM     37  N   UNL A   1      42.102  29.886  30.531  1.00  0.00    -0.354 N 
ATOM     38  C   UNL A   1      42.152  26.124  28.375  1.00  0.00     0.074 A 
ATOM     39  C   UNL A   1      40.870  25.861  27.763  1.00  0.00     0.031 C 
ATOM     40  C   UNL A   1      41.181  31.744  31.366  1.00  0.00     0.029 A 
ATOM     41  C   UNL A   1      42.407  30.953  31.341  1.00  0.00     0.049 A 
ATOM     42  H   UNL A   1      42.749  29.178  30.307  1.00  0.00     0.167 HD
ATOM     43  C   UNL A   1      43.229  25.310  28.265  1.00  0.00     0.037 A 
ATOM     44  C   UNL A   1      43.544  31.251  31.997  1.00  0.00     0.037 A 
ATOM     45  C   UNL A   1      44.512  25.598  28.845  1.00  0.00     0.049 A 
ATOM     46  C   UNL A   1      44.724  30.323  31.868  1.00  0.00     0.074 A 
ATOM     47  C   UNL A   1      45.687  24.875  28.743  1.00  0.00     0.029 A 
ATOM     48  N   UNL A   1      44.787  26.700  29.642  1.00  0.00    -0.354 N 
ATOM     49  N   UNL A   1      44.831  29.208  31.189  1.00  0.00    -0.248 NA
ATOM     50  C   UNL A   1      45.945  30.700  32.594  1.00  0.00     0.031 C 
ATOM     51  C   UNL A   1      46.657  25.509  29.524  1.00  0.00     0.029 A 
ATOM     52  C   UNL A   1      46.107  26.663  30.059  1.00  0.00     0.049 A 
ATOM     53  H   UNL A   1      44.140  27.404  29.876  1.00  0.00     0.167 HD
ATOM     54  C   UNL A   1      46.135  28.767  31.377  1.00  0.00     0.074 A 
ATOM     55  C   UNL A   1      46.785  29.744  32.225  1.00  0.00     0.031 C 
ATOM     56  C   UNL A   1      46.740  27.656  30.891  1.00  0.00     0.037 A 
BRANCH  43  57
ATOM     57  C   UNL A   1      43.064  24.037  27.484  1.00  0.00     0.064 A 
ATOM     58  C   UNL A   1      43.404  23.953  26.125  1.00  0.00     0.173 A 
ATOM     59  C   UNL A   1      42.586  22.876  28.111  1.00  0.00     0.173 A 
ATOM     60  F   UNL A   1      43.853  25.036  25.472  1.00  0.00    -0.203 F 
ATOM     61  C   UNL A   1      43.238  22.767  25.415  1.00  0.00     0.198 A 
ATOM     62  C   UNL A   1      42.457  21.681  27.406  1.00  0.00     0.198 A 
ATOM     63  F   UNL A   1      42.251  22.895  29.409  1.00  0.00    -0.203 F 
ATOM     64  F   UNL A   1      43.512  22.730  24.103  1.00  0.00    -0.200 F 
ATOM     65  C   UNL A   1      42.772  21.630  26.057  1.00  0.00     0.200 A 
ATOM     66  F   UNL A   1      42.022  20.579  28.033  1.00  0.00    -0.200 F 
ATOM     67  F   UNL A   1      42.622  20.488  25.375  1.00  0.00    -0.200 F 
ENDBRANCH  43  57
BRANCH  44  68
ATOM     68  C   UNL A   1      43.630  32.488  32.819  1.00  0.00     0.064 A 
ATOM     69  C   UNL A   1      44.091  33.690  32.265  1.00  0.00     0.173 A 
ATOM     70  C   UNL A   1      43.261  32.495  34.173  1.00  0.00     0.173 A 
ATOM     71  F   UNL A   1      44.473  33.731  30.980  1.00  0.00    -0.203 F 
ATOM     72  C   UNL A   1      44.206  34.844  33.038  1.00  0.00     0.198 A 
ATOM     73  C   UNL A   1      43.344  33.657  34.936  1.00  0.00     0.198 A 
ATOM     74  F   UNL A   1      42.804  31.374  34.751  1.00  0.00    -0.203 F 
ATOM     75  F   UNL A   1      44.699  35.965  32.495  1.00  0.00    -0.200 F 
ATOM     76  C   UNL A   1      43.826  34.828  34.372  1.00  0.00     0.200 A 
ATOM     77  F   UNL A   1      42.960  33.642  36.220  1.00  0.00    -0.200 F 
ATOM     78  F   UNL A   1      43.932  35.939  35.113  1.00  0.00    -0.200 F 
ENDBRANCH  44  68
BRANCH  56  79
ATOM     79  C   UNL A   1      48.190  27.454  31.223  1.00  0.00     0.064 A 
ATOM     80  C   UNL A   1      48.598  26.674  32.314  1.00  0.00     0.173 A 
ATOM     81  C   UNL A   1      49.185  28.003  30.397  1.00  0.00     0.173 A 
ATOM     82  F   UNL A   1      47.687  26.141  33.141  1.00  0.00    -0.203 F 
ATOM     83  C   UNL A   1      49.949  26.470  32.580  1.00  0.00     0.198 A 
ATOM     84  C   UNL A   1      50.533  27.767  30.645  1.00  0.00     0.198 A 
ATOM     85  F   UNL A   1      48.847  28.750  29.335  1.00  0.00    -0.203 F 
ATOM     86  F   UNL A   1      50.319  25.760  33.655  1.00  0.00    -0.200 F 
ATOM     87  C   UNL A   1      50.914  27.007  31.741  1.00  0.00     0.200 A 
ATOM     88  F   UNL A   1      51.462  28.271  29.823  1.00  0.00    -0.200 F 
ATOM     89  F   UNL A   1      52.215  26.795  31.990  1.00  0.00    -0.200 F 
ENDBRANCH  56  79
ENDBRANCH  30  31
ENDBRANCH  22  25
ENDBRANCH  20  21
ENDBRANCH  19  20
ENDBRANCH  18  19
ENDBRANCH   1  18
TORSDOF 15
ENDMDL
