MODEL 1
REMARK VINA RESULT:     -12.6      0.000      0.000
REMARK SMILES CCN1C(=O)[C@H](CC(=O)Nc2ccc(C(=O)NCCCCNC(=O)c3ccc(-c4c5nc(c(-c6c(F)c(F)c(F)c(F)c6F)c6ccc([nH]6)c(-c6c(F)c(F)c(F)c(F)c6F)c6nc(c(-c7c(F)c(F)c(F)c(F)c7F)c7ccc4[nH]7)C=C6)C=C5)cc3)cc2)S/C1=[NH+]\c1ccc(Cl)cc1
REMARK SMILES IDX 18 1 17 2 15 3 16 4 14 6 11 7 12 8 89 9 13 10 88 11 10 12
REMARK SMILES IDX 8 13 9 14 7 16 6 17 3 18 4 19 91 20 5 21 90 22 92 23 2 25
REMARK SMILES IDX 1 26 93 27 94 28 99 29 95 30 98 31 96 32 97 33 19 34 20 35
REMARK SMILES IDX 21 36 22 37 23 38 24 40 25 41 26 42 87 43 27 44 86 45 28 46
REMARK SMILES IDX 29 47 30 48 80 49 31 50 85 51 79 52 81 53 32 54 84 55 78 56
REMARK SMILES IDX 77 57 33 59 65 60 45 61 64 62 46 63 49 64 63 65 82 66 47 67
REMARK SMILES IDX 48 68 62 70 83 71 50 72 34 73 35 74 43 75 36 76 37 77 41 78
REMARK SMILES IDX 44 79 38 80 39 81 42 82 40 83 66 84 67 85 75 86 68 87 69 88
REMARK SMILES IDX 73 89 76 90 70 91 71 92 74 93 72 94 51 95 52 96 60 97 53 98
REMARK SMILES IDX 54 99 58 100 61 101 55 102 56 103 59 104 57 105
REMARK H PARENT 17 5 10 15 92 24 22 39 81 58 49 69
REMARK Flexibility Score: inf
ROOT
ATOM      1  C   UNL A   1      39.314  21.400  26.118  1.00  0.00     0.116 C 
ENDROOT
BRANCH   1   2
ATOM      2  N   UNL A   1      39.068  22.796  26.449  1.00  0.00    -0.352 N 
ATOM      3  C   UNL A   1      38.012  23.633  26.162  1.00  0.00     0.251 C 
ATOM      4  O   UNL A   1      38.086  24.815  26.495  1.00  0.00    -0.269 OA
ATOM      5  H   UNL A   1      39.786  23.219  26.973  1.00  0.00     0.163 HD
BRANCH   3   6
ATOM      6  C   UNL A   1      36.822  23.177  25.401  1.00  0.00     0.039 A 
ATOM      7  C   UNL A   1      34.395  22.591  24.071  1.00  0.00     0.041 A 
ATOM      8  C   UNL A   1      34.506  22.461  25.464  1.00  0.00     0.027 A 
ATOM      9  C   UNL A   1      35.554  22.869  23.350  1.00  0.00     0.027 A 
ATOM     10  C   UNL A   1      35.704  22.755  26.125  1.00  0.00     0.016 A 
ATOM     11  C   UNL A   1      36.765  23.145  24.008  1.00  0.00     0.016 A 
BRANCH   7  12
ATOM     12  N   UNL A   1      33.098  22.456  23.548  1.00  0.00    -0.326 N 
ATOM     13  C   UNL A   1      32.120  23.303  23.127  1.00  0.00     0.226 C 
ATOM     14  O   UNL A   1      31.053  22.800  22.759  1.00  0.00    -0.275 OA
ATOM     15  H   UNL A   1      32.829  21.512  23.466  1.00  0.00     0.169 HD
BRANCH  13  16
ATOM     16  C   UNL A   1      32.265  24.800  23.099  1.00  0.00     0.128 C 
BRANCH  16  17
ATOM     17  C   UNL A   1      31.400  25.559  24.099  1.00  0.00     0.183 C 
ATOM     18  N   UNL A   1      32.014  27.441  25.468  1.00  0.00    -0.190 N 
ATOM     19  C   UNL A   1      32.059  26.065  25.363  1.00  0.00     0.324 C 
ATOM     20  C   UNL A   1      31.332  28.127  24.494  1.00  0.00     0.319 C 
ATOM     21  O   UNL A   1      32.519  25.316  26.220  1.00  0.00    -0.245 OA
ATOM     22  S   UNL A   1      30.655  27.022  23.321  1.00  0.00    -0.022 SA
ATOM     23  N   UNL A   1      31.216  29.417  24.491  1.00  0.00    -0.235 N 
ATOM     24  H   UNL A   1      31.724  29.958  25.138  1.00  0.00     0.313 HD
BRANCH  18  25
ATOM     25  C   UNL A   1      32.479  28.071  26.700  1.00  0.00     0.243 C 
ATOM     26  C   UNL A   1      31.403  28.203  27.766  1.00  0.00     0.054 C 
ENDBRANCH  18  25
BRANCH  23  27
ATOM     27  C   UNL A   1      30.366  30.046  23.564  1.00  0.00     0.125 A 
ATOM     28  C   UNL A   1      30.376  29.705  22.208  1.00  0.00     0.053 A 
ATOM     29  C   UNL A   1      29.528  31.083  23.996  1.00  0.00     0.053 A 
ATOM     30  C   UNL A   1      29.534  30.369  21.305  1.00  0.00     0.025 A 
ATOM     31  C   UNL A   1      28.683  31.743  23.101  1.00  0.00     0.025 A 
ATOM     32  C   UNL A   1      28.689  31.381  21.758  1.00  0.00     0.041 A 
ATOM     33  Cl  UNL A   1      27.651  32.194  20.652  1.00  0.00    -0.084 Cl
ENDBRANCH  23  27
ENDBRANCH  16  17
ENDBRANCH  13  16
ENDBRANCH   7  12
ENDBRANCH   3   6
ENDBRANCH   1   2
BRANCH   1  34
ATOM     34  C   UNL A   1      40.632  20.868  26.682  1.00  0.00     0.023 C 
BRANCH  34  35
ATOM     35  C   UNL A   1      41.209  19.633  26.004  1.00  0.00     0.023 C 
BRANCH  35  36
ATOM     36  C   UNL A   1      42.684  19.362  26.285  1.00  0.00     0.116 C 
BRANCH  36  37
ATOM     37  N   UNL A   1      43.442  18.822  25.164  1.00  0.00    -0.352 N 
ATOM     38  C   UNL A   1      44.399  19.453  24.391  1.00  0.00     0.251 C 
ATOM     39  H   UNL A   1      43.246  17.888  24.925  1.00  0.00     0.163 HD
ATOM     40  O   UNL A   1      44.900  18.885  23.433  1.00  0.00    -0.269 OA
BRANCH  38  41
ATOM     41  C   UNL A   1      44.780  20.852  24.705  1.00  0.00     0.039 A 
ATOM     42  C   UNL A   1      44.325  21.884  23.880  1.00  0.00     0.014 A 
ATOM     43  C   UNL A   1      45.542  21.151  25.836  1.00  0.00     0.014 A 
ATOM     44  C   UNL A   1      44.553  23.215  24.244  1.00  0.00     0.010 A 
ATOM     45  C   UNL A   1      45.681  22.471  26.249  1.00  0.00     0.010 A 
ATOM     46  C   UNL A   1      45.190  23.519  25.458  1.00  0.00    -0.014 A 
BRANCH  46  47
ATOM     47  C   UNL A   1      45.359  24.921  25.921  1.00  0.00     0.031 A 
ATOM     48  C   UNL A   1      46.711  25.581  25.852  1.00  0.00     0.074 A 
ATOM     49  C   UNL A   1      44.323  25.574  26.484  1.00  0.00     0.049 A 
ATOM     50  N   UNL A   1      47.081  26.762  26.277  1.00  0.00    -0.248 NA
ATOM     51  C   UNL A   1      47.802  24.790  25.260  1.00  0.00     0.031 C 
ATOM     52  C   UNL A   1      42.980  25.022  26.682  1.00  0.00     0.029 A 
ATOM     53  N   UNL A   1      44.239  26.841  27.006  1.00  0.00    -0.354 N 
ATOM     54  C   UNL A   1      48.445  26.844  26.026  1.00  0.00     0.074 A 
ATOM     55  C   UNL A   1      48.850  25.571  25.473  1.00  0.00     0.031 C 
ATOM     56  C   UNL A   1      42.200  25.956  27.250  1.00  0.00     0.029 A 
ATOM     57  C   UNL A   1      42.992  27.159  27.488  1.00  0.00     0.049 A 
ATOM     58  H   UNL A   1      45.000  27.464  27.031  1.00  0.00     0.167 HD
ATOM     59  C   UNL A   1      49.279  27.895  26.210  1.00  0.00     0.037 A 
ATOM     60  C   UNL A   1      42.539  28.294  28.053  1.00  0.00     0.037 A 
ATOM     61  C   UNL A   1      48.867  29.175  26.718  1.00  0.00     0.049 A 
ATOM     62  C   UNL A   1      43.478  29.460  28.212  1.00  0.00     0.074 A 
ATOM     63  C   UNL A   1      49.618  30.327  26.871  1.00  0.00     0.029 A 
ATOM     64  N   UNL A   1      47.583  29.473  27.153  1.00  0.00    -0.354 N 
ATOM     65  N   UNL A   1      44.745  29.551  27.896  1.00  0.00    -0.248 NA
ATOM     66  C   UNL A   1      42.916  30.686  28.799  1.00  0.00     0.031 C 
ATOM     67  C   UNL A   1      48.798  31.312  27.431  1.00  0.00     0.029 A 
ATOM     68  C   UNL A   1      47.524  30.787  27.586  1.00  0.00     0.049 A 
ATOM     69  H   UNL A   1      46.826  28.844  27.152  1.00  0.00     0.167 HD
ATOM     70  C   UNL A   1      45.126  30.848  28.216  1.00  0.00     0.074 A 
ATOM     71  C   UNL A   1      43.950  31.512  28.737  1.00  0.00     0.031 C 
ATOM     72  C   UNL A   1      46.342  31.435  28.091  1.00  0.00     0.037 A 
BRANCH  59  73
ATOM     73  C   UNL A   1      50.721  27.704  25.839  1.00  0.00     0.064 A 
ATOM     74  C   UNL A   1      51.176  27.912  24.526  1.00  0.00     0.173 A 
ATOM     75  C   UNL A   1      51.665  27.332  26.807  1.00  0.00     0.173 A 
ATOM     76  F   UNL A   1      50.311  28.256  23.560  1.00  0.00    -0.203 F 
ATOM     77  C   UNL A   1      52.513  27.719  24.191  1.00  0.00     0.198 A 
ATOM     78  C   UNL A   1      53.008  27.171  26.475  1.00  0.00     0.198 A 
ATOM     79  F   UNL A   1      51.286  27.126  28.077  1.00  0.00    -0.203 F 
ATOM     80  F   UNL A   1      52.911  27.867  22.920  1.00  0.00    -0.200 F 
ATOM     81  C   UNL A   1      53.429  27.355  25.166  1.00  0.00     0.200 A 
ATOM     82  F   UNL A   1      53.894  26.831  27.421  1.00  0.00    -0.200 F 
ATOM     83  F   UNL A   1      54.716  27.172  24.843  1.00  0.00    -0.200 F 
ENDBRANCH  59  73
BRANCH  60  84
ATOM     84  C   UNL A   1      41.116  28.403  28.469  1.00  0.00     0.064 A 
ATOM     85  C   UNL A   1      40.709  27.989  29.745  1.00  0.00     0.173 A 
ATOM     86  C   UNL A   1      40.137  28.913  27.605  1.00  0.00     0.173 A 
ATOM     87  F   UNL A   1      41.607  27.475  30.599  1.00  0.00    -0.203 F 
ATOM     88  C   UNL A   1      39.372  28.056  30.133  1.00  0.00     0.198 A 
ATOM     89  C   UNL A   1      38.804  29.006  28.004  1.00  0.00     0.198 A 
ATOM     90  F   UNL A   1      40.475  29.329  26.376  1.00  0.00    -0.203 F 
ATOM     91  F   UNL A   1      39.005  27.608  31.341  1.00  0.00    -0.200 F 
ATOM     92  C   UNL A   1      38.422  28.570  29.264  1.00  0.00     0.200 A 
ATOM     93  F   UNL A   1      37.890  29.513  27.166  1.00  0.00    -0.200 F 
ATOM     94  F   UNL A   1      37.137  28.636  29.637  1.00  0.00    -0.200 F 
ENDBRANCH  60  84
BRANCH  72  95
ATOM     95  C   UNL A   1      46.452  32.877  28.492  1.00  0.00     0.064 A 
ATOM     96  C   UNL A   1      46.876  33.254  29.774  1.00  0.00     0.173 A 
ATOM     97  C   UNL A   1      46.165  33.893  27.567  1.00  0.00     0.173 A 
ATOM     98  F   UNL A   1      47.147  32.319  30.697  1.00  0.00    -0.203 F 
ATOM     99  C   UNL A   1      46.983  34.597  30.125  1.00  0.00     0.198 A 
ATOM    100  C   UNL A   1      46.302  35.235  27.913  1.00  0.00     0.198 A 
ATOM    101  F   UNL A   1      45.763  33.585  26.326  1.00  0.00    -0.203 F 
ATOM    102  F   UNL A   1      47.344  34.935  31.371  1.00  0.00    -0.200 F 
ATOM    103  C   UNL A   1      46.703  35.585  29.193  1.00  0.00     0.200 A 
ATOM    104  F   UNL A   1      46.043  36.189  27.008  1.00  0.00    -0.200 F 
ATOM    105  F   UNL A   1      46.812  36.877  29.532  1.00  0.00    -0.200 F 
ENDBRANCH  72  95
ENDBRANCH  46  47
ENDBRANCH  38  41
ENDBRANCH  36  37
ENDBRANCH  35  36
ENDBRANCH  34  35
ENDBRANCH   1  34
TORSDOF 16
ENDMDL
MODEL 2
REMARK VINA RESULT:     -12.5      6.200     11.524
REMARK SMILES CCN1C(=O)[C@H](CC(=O)Nc2ccc(C(=O)NCCCCNC(=O)c3ccc(-c4c5nc(c(-c6c(F)c(F)c(F)c(F)c6F)c6ccc([nH]6)c(-c6c(F)c(F)c(F)c(F)c6F)c6nc(c(-c7c(F)c(F)c(F)c(F)c7F)c7ccc4[nH]7)C=C6)C=C5)cc3)cc2)S/C1=[NH+]\c1ccc(Cl)cc1
REMARK SMILES IDX 18 1 17 2 15 3 16 4 14 6 11 7 12 8 89 9 13 10 88 11 10 12
REMARK SMILES IDX 8 13 9 14 7 16 6 17 3 18 4 19 91 20 5 21 90 22 92 23 2 25
REMARK SMILES IDX 1 26 93 27 94 28 99 29 95 30 98 31 96 32 97 33 19 34 20 35
REMARK SMILES IDX 21 36 22 37 23 38 24 40 25 41 26 42 87 43 27 44 86 45 28 46
REMARK SMILES IDX 29 47 30 48 80 49 31 50 85 51 79 52 81 53 32 54 84 55 78 56
REMARK SMILES IDX 77 57 33 59 65 60 45 61 64 62 46 63 49 64 63 65 82 66 47 67
REMARK SMILES IDX 48 68 62 70 83 71 50 72 34 73 35 74 43 75 36 76 37 77 41 78
REMARK SMILES IDX 44 79 38 80 39 81 42 82 40 83 66 84 67 85 75 86 68 87 69 88
REMARK SMILES IDX 73 89 76 90 70 91 71 92 74 93 72 94 51 95 52 96 60 97 53 98
REMARK SMILES IDX 54 99 58 100 61 101 55 102 56 103 59 104 57 105
REMARK H PARENT 17 5 10 15 92 24 22 39 81 58 49 69
REMARK Flexibility Score: inf
ROOT
ATOM      1  C   UNL A   1      34.029  31.293  27.684  1.00  0.00     0.116 C 
ENDROOT
BRANCH   1   2
ATOM      2  N   UNL A   1      32.736  31.265  27.016  1.00  0.00    -0.352 N 
ATOM      3  C   UNL A   1      32.199  30.388  26.098  1.00  0.00     0.251 C 
ATOM      4  O   UNL A   1      31.094  30.638  25.618  1.00  0.00    -0.269 OA
ATOM      5  H   UNL A   1      32.138  32.005  27.264  1.00  0.00     0.163 HD
BRANCH   3   6
ATOM      6  C   UNL A   1      32.937  29.195  25.613  1.00  0.00     0.039 A 
ATOM      7  C   UNL A   1      34.049  26.745  24.743  1.00  0.00     0.041 A 
ATOM      8  C   UNL A   1      33.771  26.971  26.099  1.00  0.00     0.027 A 
ATOM      9  C   UNL A   1      33.904  27.814  23.862  1.00  0.00     0.027 A 
ATOM     10  C   UNL A   1      33.216  28.180  26.532  1.00  0.00     0.016 A 
ATOM     11  C   UNL A   1      33.366  29.038  24.296  1.00  0.00     0.016 A 
BRANCH   7  12
ATOM     12  N   UNL A   1      34.421  25.431  24.407  1.00  0.00    -0.326 N 
ATOM     13  C   UNL A   1      34.180  24.581  23.373  1.00  0.00     0.226 C 
ATOM     14  O   UNL A   1      34.659  23.444  23.451  1.00  0.00    -0.275 OA
ATOM     15  H   UNL A   1      34.999  25.025  25.093  1.00  0.00     0.169 HD
BRANCH  13  16
ATOM     16  C   UNL A   1      33.362  24.945  22.164  1.00  0.00     0.128 C 
BRANCH  16  17
ATOM     17  C   UNL A   1      31.852  24.867  22.350  1.00  0.00     0.183 C 
ATOM     18  N   UNL A   1      30.560  25.470  24.290  1.00  0.00    -0.190 N 
ATOM     19  C   UNL A   1      31.327  24.476  23.714  1.00  0.00     0.324 C 
ATOM     20  C   UNL A   1      30.319  26.596  23.541  1.00  0.00     0.319 C 
ATOM     21  O   UNL A   1      31.518  23.370  24.209  1.00  0.00    -0.245 OA
ATOM     22  S   UNL A   1      31.075  26.465  21.971  1.00  0.00    -0.022 SA
ATOM     23  N   UNL A   1      29.609  27.589  23.972  1.00  0.00    -0.235 N 
ATOM     24  H   UNL A   1      29.314  27.613  24.911  1.00  0.00     0.313 HD
BRANCH  18  25
ATOM     25  C   UNL A   1      29.863  25.189  25.541  1.00  0.00     0.243 C 
ATOM     26  C   UNL A   1      30.582  25.710  26.775  1.00  0.00     0.054 C 
ENDBRANCH  18  25
BRANCH  23  27
ATOM     27  C   UNL A   1      29.257  28.635  23.099  1.00  0.00     0.125 A 
ATOM     28  C   UNL A   1      30.226  29.397  22.439  1.00  0.00     0.053 A 
ATOM     29  C   UNL A   1      27.905  28.963  22.931  1.00  0.00     0.053 A 
ATOM     30  C   UNL A   1      29.843  30.450  21.595  1.00  0.00     0.025 A 
ATOM     31  C   UNL A   1      27.519  30.006  22.086  1.00  0.00     0.025 A 
ATOM     32  C   UNL A   1      28.491  30.745  21.420  1.00  0.00     0.041 A 
ATOM     33  Cl  UNL A   1      28.020  32.033  20.381  1.00  0.00    -0.084 Cl
ENDBRANCH  23  27
ENDBRANCH  16  17
ENDBRANCH  13  16
ENDBRANCH   7  12
ENDBRANCH   3   6
ENDBRANCH   1   2
BRANCH   1  34
ATOM     34  C   UNL A   1      34.436  32.690  28.152  1.00  0.00     0.023 C 
BRANCH  34  35
ATOM     35  C   UNL A   1      33.346  33.753  28.144  1.00  0.00     0.023 C 
BRANCH  35  36
ATOM     36  C   UNL A   1      33.766  35.125  28.663  1.00  0.00     0.116 C 
BRANCH  36  37
ATOM     37  N   UNL A   1      32.871  35.717  29.649  1.00  0.00    -0.352 N 
ATOM     38  C   UNL A   1      32.937  35.636  31.027  1.00  0.00     0.251 C 
ATOM     39  H   UNL A   1      32.122  36.243  29.286  1.00  0.00     0.163 HD
ATOM     40  O   UNL A   1      32.066  36.133  31.723  1.00  0.00    -0.269 OA
BRANCH  38  41
ATOM     41  C   UNL A   1      34.055  34.892  31.658  1.00  0.00     0.039 A 
ATOM     42  C   UNL A   1      33.964  33.503  31.785  1.00  0.00     0.014 A 
ATOM     43  C   UNL A   1      35.209  35.554  32.080  1.00  0.00     0.014 A 
ATOM     44  C   UNL A   1      35.066  32.775  32.243  1.00  0.00     0.010 A 
ATOM     45  C   UNL A   1      36.336  34.823  32.438  1.00  0.00     0.010 A 
ATOM     46  C   UNL A   1      36.279  33.425  32.526  1.00  0.00    -0.014 A 
BRANCH  46  47
ATOM     47  C   UNL A   1      37.497  32.670  32.919  1.00  0.00     0.031 A 
ATOM     48  C   UNL A   1      38.179  32.966  34.228  1.00  0.00     0.074 A 
ATOM     49  C   UNL A   1      38.043  31.781  32.064  1.00  0.00     0.049 A 
ATOM     50  N   UNL A   1      39.291  32.476  34.714  1.00  0.00    -0.248 NA
ATOM     51  C   UNL A   1      37.545  33.977  35.089  1.00  0.00     0.031 C 
ATOM     52  C   UNL A   1      37.525  31.458  30.733  1.00  0.00     0.029 A 
ATOM     53  N   UNL A   1      39.162  30.995  32.183  1.00  0.00    -0.354 N 
ATOM     54  C   UNL A   1      39.499  33.135  35.919  1.00  0.00     0.074 A 
ATOM     55  C   UNL A   1      38.435  34.104  36.060  1.00  0.00     0.031 C 
ATOM     56  C   UNL A   1      38.305  30.519  30.173  1.00  0.00     0.029 A 
ATOM     57  C   UNL A   1      39.395  30.197  31.090  1.00  0.00     0.049 A 
ATOM     58  H   UNL A   1      39.742  31.002  32.978  1.00  0.00     0.167 HD
ATOM     59  C   UNL A   1      40.470  32.929  36.841  1.00  0.00     0.037 A 
ATOM     60  C   UNL A   1      40.375  29.303  30.855  1.00  0.00     0.037 A 
ATOM     61  C   UNL A   1      41.501  31.935  36.721  1.00  0.00     0.049 A 
ATOM     62  C   UNL A   1      41.421  29.068  31.912  1.00  0.00     0.074 A 
ATOM     63  C   UNL A   1      42.485  31.596  37.633  1.00  0.00     0.029 A 
ATOM     64  N   UNL A   1      41.677  31.112  35.618  1.00  0.00    -0.354 N 
ATOM     65  N   UNL A   1      41.559  29.639  33.082  1.00  0.00    -0.248 NA
ATOM     66  C   UNL A   1      42.442  28.052  31.617  1.00  0.00     0.031 C 
ATOM     67  C   UNL A   1      43.279  30.593  37.066  1.00  0.00     0.029 A 
ATOM     68  C   UNL A   1      42.762  30.275  35.820  1.00  0.00     0.049 A 
ATOM     69  H   UNL A   1      41.113  31.121  34.811  1.00  0.00     0.167 HD
ATOM     70  C   UNL A   1      42.661  29.036  33.675  1.00  0.00     0.074 A 
ATOM     71  C   UNL A   1      43.145  28.041  32.740  1.00  0.00     0.031 C 
ATOM     72  C   UNL A   1      43.222  29.284  34.884  1.00  0.00     0.037 A 
BRANCH  59  73
ATOM     73  C   UNL A   1      40.446  33.790  38.071  1.00  0.00     0.064 A 
ATOM     74  C   UNL A   1      41.219  34.959  38.165  1.00  0.00     0.173 A 
ATOM     75  C   UNL A   1      39.627  33.457  39.160  1.00  0.00     0.173 A 
ATOM     76  F   UNL A   1      42.029  35.313  37.156  1.00  0.00    -0.203 F 
ATOM     77  C   UNL A   1      41.200  35.741  39.316  1.00  0.00     0.198 A 
ATOM     78  C   UNL A   1      39.586  34.261  40.297  1.00  0.00     0.198 A 
ATOM     79  F   UNL A   1      38.864  32.355  39.121  1.00  0.00    -0.203 F 
ATOM     80  F   UNL A   1      41.989  36.820  39.403  1.00  0.00    -0.200 F 
ATOM     81  C   UNL A   1      40.379  35.396  40.378  1.00  0.00     0.200 A 
ATOM     82  F   UNL A   1      38.782  33.932  41.318  1.00  0.00    -0.200 F 
ATOM     83  F   UNL A   1      40.358  36.151  41.484  1.00  0.00    -0.200 F 
ENDBRANCH  59  73
BRANCH  60  84
ATOM     84  C   UNL A   1      40.391  28.529  29.587  1.00  0.00     0.064 A 
ATOM     85  C   UNL A   1      41.123  28.982  28.480  1.00  0.00     0.173 A 
ATOM     86  C   UNL A   1      39.673  27.332  29.449  1.00  0.00     0.173 A 
ATOM     87  F   UNL A   1      41.808  30.132  28.557  1.00  0.00    -0.203 F 
ATOM     88  C   UNL A   1      41.117  28.281  27.276  1.00  0.00     0.198 A 
ATOM     89  C   UNL A   1      39.691  26.618  28.253  1.00  0.00     0.198 A 
ATOM     90  F   UNL A   1      38.962  26.853  30.480  1.00  0.00    -0.203 F 
ATOM     91  F   UNL A   1      41.788  28.762  26.220  1.00  0.00    -0.200 F 
ATOM     92  C   UNL A   1      40.405  27.096  27.165  1.00  0.00     0.200 A 
ATOM     93  F   UNL A   1      39.011  25.467  28.152  1.00  0.00    -0.200 F 
ATOM     94  F   UNL A   1      40.401  26.421  26.008  1.00  0.00    -0.200 F 
ENDBRANCH  60  84
BRANCH  72  95
ATOM     95  C   UNL A   1      44.400  28.443  35.279  1.00  0.00     0.064 A 
ATOM     96  C   UNL A   1      45.715  28.838  34.995  1.00  0.00     0.173 A 
ATOM     97  C   UNL A   1      44.211  27.244  35.984  1.00  0.00     0.173 A 
ATOM     98  F   UNL A   1      45.947  29.969  34.310  1.00  0.00    -0.203 F 
ATOM     99  C   UNL A   1      46.797  28.051  35.379  1.00  0.00     0.198 A 
ATOM    100  C   UNL A   1      45.296  26.475  36.392  1.00  0.00     0.198 A 
ATOM    101  F   UNL A   1      42.973  26.825  36.286  1.00  0.00    -0.203 F 
ATOM    102  F   UNL A   1      48.043  28.424  35.055  1.00  0.00    -0.200 F 
ATOM    103  C   UNL A   1      46.588  26.874  36.083  1.00  0.00     0.200 A 
ATOM    104  F   UNL A   1      45.093  25.344  37.083  1.00  0.00    -0.200 F 
ATOM    105  F   UNL A   1      47.631  26.121  36.457  1.00  0.00    -0.200 F 
ENDBRANCH  72  95
ENDBRANCH  46  47
ENDBRANCH  38  41
ENDBRANCH  36  37
ENDBRANCH  35  36
ENDBRANCH  34  35
ENDBRANCH   1  34
TORSDOF 16
ENDMDL
MODEL 3
REMARK VINA RESULT:     -12.4      5.697      9.784
REMARK SMILES CCN1C(=O)[C@H](CC(=O)Nc2ccc(C(=O)NCCCCNC(=O)c3ccc(-c4c5nc(c(-c6c(F)c(F)c(F)c(F)c6F)c6ccc([nH]6)c(-c6c(F)c(F)c(F)c(F)c6F)c6nc(c(-c7c(F)c(F)c(F)c(F)c7F)c7ccc4[nH]7)C=C6)C=C5)cc3)cc2)S/C1=[NH+]\c1ccc(Cl)cc1
REMARK SMILES IDX 18 1 17 2 15 3 16 4 14 6 11 7 12 8 89 9 13 10 88 11 10 12
REMARK SMILES IDX 8 13 9 14 7 16 6 17 3 18 4 19 91 20 5 21 90 22 92 23 2 25
REMARK SMILES IDX 1 26 93 27 94 28 99 29 95 30 98 31 96 32 97 33 19 34 20 35
REMARK SMILES IDX 21 36 22 37 23 38 24 40 25 41 26 42 87 43 27 44 86 45 28 46
REMARK SMILES IDX 29 47 30 48 80 49 31 50 85 51 79 52 81 53 32 54 84 55 78 56
REMARK SMILES IDX 77 57 33 59 65 60 45 61 64 62 46 63 49 64 63 65 82 66 47 67
REMARK SMILES IDX 48 68 62 70 83 71 50 72 34 73 35 74 43 75 36 76 37 77 41 78
REMARK SMILES IDX 44 79 38 80 39 81 42 82 40 83 66 84 67 85 75 86 68 87 69 88
REMARK SMILES IDX 73 89 76 90 70 91 71 92 74 93 72 94 51 95 52 96 60 97 53 98
REMARK SMILES IDX 54 99 58 100 61 101 55 102 56 103 59 104 57 105
REMARK H PARENT 17 5 10 15 92 24 22 39 81 58 49 69
REMARK Flexibility Score: inf
ROOT
ATOM      1  C   UNL A   1      45.003  24.313  27.812  1.00  0.00     0.116 C 
ENDROOT
BRANCH   1   2
ATOM      2  N   UNL A   1      45.557  24.578  26.493  1.00  0.00    -0.352 N 
ATOM      3  C   UNL A   1      45.690  25.746  25.774  1.00  0.00     0.251 C 
ATOM      4  O   UNL A   1      46.128  25.688  24.626  1.00  0.00    -0.269 OA
ATOM      5  H   UNL A   1      45.897  23.779  26.030  1.00  0.00     0.163 HD
BRANCH   3   6
ATOM      6  C   UNL A   1      45.257  27.061  26.309  1.00  0.00     0.039 A 
ATOM      7  C   UNL A   1      44.193  29.392  27.507  1.00  0.00     0.041 A 
ATOM      8  C   UNL A   1      43.484  28.701  26.514  1.00  0.00     0.027 A 
ATOM      9  C   UNL A   1      45.498  28.985  27.776  1.00  0.00     0.027 A 
ATOM     10  C   UNL A   1      44.005  27.545  25.923  1.00  0.00     0.016 A 
ATOM     11  C   UNL A   1      46.034  27.836  27.170  1.00  0.00     0.016 A 
BRANCH   7  12
ATOM     12  N   UNL A   1      43.488  30.419  28.158  1.00  0.00    -0.326 N 
ATOM     13  C   UNL A   1      43.807  31.598  28.756  1.00  0.00     0.226 C 
ATOM     14  O   UNL A   1      42.887  32.236  29.280  1.00  0.00    -0.275 OA
ATOM     15  H   UNL A   1      42.520  30.239  28.190  1.00  0.00     0.169 HD
BRANCH  13  16
ATOM     16  C   UNL A   1      45.205  32.150  28.823  1.00  0.00     0.128 C 
BRANCH  16  17
ATOM     17  C   UNL A   1      45.578  33.122  27.711  1.00  0.00     0.183 C 
ATOM     18  N   UNL A   1      44.234  33.826  25.841  1.00  0.00    -0.190 N 
ATOM     19  C   UNL A   1      45.065  32.831  26.317  1.00  0.00     0.324 C 
ATOM     20  C   UNL A   1      44.062  34.936  26.630  1.00  0.00     0.319 C 
ATOM     21  O   UNL A   1      45.413  31.847  25.672  1.00  0.00    -0.245 OA
ATOM     22  S   UNL A   1      44.995  34.798  28.101  1.00  0.00    -0.022 SA
ATOM     23  N   UNL A   1      43.313  35.935  26.286  1.00  0.00    -0.235 N 
ATOM     24  H   UNL A   1      42.745  35.871  25.484  1.00  0.00     0.313 HD
BRANCH  18  25
ATOM     25  C   UNL A   1      43.776  33.761  24.456  1.00  0.00     0.243 C 
ATOM     26  C   UNL A   1      44.818  34.204  23.443  1.00  0.00     0.054 C 
ENDBRANCH  18  25
BRANCH  23  27
ATOM     27  C   UNL A   1      43.311  37.113  27.055  1.00  0.00     0.125 A 
ATOM     28  C   UNL A   1      42.278  37.401  27.953  1.00  0.00     0.053 A 
ATOM     29  C   UNL A   1      44.336  38.051  26.877  1.00  0.00     0.053 A 
ATOM     30  C   UNL A   1      42.292  38.596  28.687  1.00  0.00     0.025 A 
ATOM     31  C   UNL A   1      44.358  39.239  27.610  1.00  0.00     0.025 A 
ATOM     32  C   UNL A   1      43.335  39.506  28.514  1.00  0.00     0.041 A 
ATOM     33  Cl  UNL A   1      43.356  40.970  29.417  1.00  0.00    -0.084 Cl
ENDBRANCH  23  27
ENDBRANCH  16  17
ENDBRANCH  13  16
ENDBRANCH   7  12
ENDBRANCH   3   6
ENDBRANCH   1   2
BRANCH   1  34
ATOM     34  C   UNL A   1      43.479  24.193  27.815  1.00  0.00     0.023 C 
BRANCH  34  35
ATOM     35  C   UNL A   1      42.898  22.916  27.222  1.00  0.00     0.023 C 
BRANCH  35  36
ATOM     36  C   UNL A   1      42.243  23.070  25.853  1.00  0.00     0.116 C 
BRANCH  36  37
ATOM     37  N   UNL A   1      40.875  22.576  25.760  1.00  0.00    -0.352 N 
ATOM     38  C   UNL A   1      39.721  23.142  26.269  1.00  0.00     0.251 C 
ATOM     39  H   UNL A   1      40.758  21.730  25.271  1.00  0.00     0.163 HD
ATOM     40  O   UNL A   1      38.649  22.568  26.167  1.00  0.00    -0.269 OA
BRANCH  38  41
ATOM     41  C   UNL A   1      39.804  24.437  26.988  1.00  0.00     0.039 A 
ATOM     42  C   UNL A   1      39.397  24.502  28.324  1.00  0.00     0.014 A 
ATOM     43  C   UNL A   1      40.325  25.572  26.364  1.00  0.00     0.014 A 
ATOM     44  C   UNL A   1      39.604  25.675  29.056  1.00  0.00     0.010 A 
ATOM     45  C   UNL A   1      40.622  26.702  27.118  1.00  0.00     0.010 A 
ATOM     46  C   UNL A   1      40.264  26.769  28.472  1.00  0.00    -0.014 A 
BRANCH  46  47
ATOM     47  C   UNL A   1      40.588  27.992  29.251  1.00  0.00     0.031 A 
ATOM     48  C   UNL A   1      41.915  28.110  29.953  1.00  0.00     0.074 A 
ATOM     49  C   UNL A   1      39.661  28.958  29.403  1.00  0.00     0.049 A 
ATOM     50  N   UNL A   1      42.354  29.056  30.744  1.00  0.00    -0.248 NA
ATOM     51  C   UNL A   1      42.859  26.996  29.773  1.00  0.00     0.031 C 
ATOM     52  C   UNL A   1      38.309  28.932  28.838  1.00  0.00     0.029 A 
ATOM     53  N   UNL A   1      39.710  30.148  30.087  1.00  0.00    -0.354 N 
ATOM     54  C   UNL A   1      43.609  28.640  31.171  1.00  0.00     0.074 A 
ATOM     55  C   UNL A   1      43.834  27.329  30.604  1.00  0.00     0.031 C 
ATOM     56  C   UNL A   1      37.671  30.066  29.173  1.00  0.00     0.029 A 
ATOM     57  C   UNL A   1      38.553  30.884  30.000  1.00  0.00     0.049 A 
ATOM     58  H   UNL A   1      40.500  30.445  30.592  1.00  0.00     0.167 HD
ATOM     59  C   UNL A   1      44.507  29.302  31.938  1.00  0.00     0.037 A 
ATOM     60  C   UNL A   1      38.241  32.084  30.525  1.00  0.00     0.037 A 
ATOM     61  C   UNL A   1      44.300  30.624  32.463  1.00  0.00     0.049 A 
ATOM     62  C   UNL A   1      39.270  32.816  31.344  1.00  0.00     0.074 A 
ATOM     63  C   UNL A   1      45.177  31.414  33.188  1.00  0.00     0.029 A 
ATOM     64  N   UNL A   1      43.132  31.358  32.315  1.00  0.00    -0.354 N 
ATOM     65  N   UNL A   1      40.483  32.447  31.672  1.00  0.00    -0.248 NA
ATOM     66  C   UNL A   1      38.887  34.140  31.856  1.00  0.00     0.031 C 
ATOM     67  C   UNL A   1      44.525  32.610  33.508  1.00  0.00     0.029 A 
ATOM     68  C   UNL A   1      43.260  32.585  32.945  1.00  0.00     0.049 A 
ATOM     69  H   UNL A   1      42.330  31.051  31.831  1.00  0.00     0.167 HD
ATOM     70  C   UNL A   1      41.019  33.499  32.402  1.00  0.00     0.074 A 
ATOM     71  C   UNL A   1      40.003  34.530  32.455  1.00  0.00     0.031 C 
ATOM     72  C   UNL A   1      42.242  33.602  32.978  1.00  0.00     0.037 A 
BRANCH  59  73
ATOM     73  C   UNL A   1      45.804  28.609  32.238  1.00  0.00     0.064 A 
ATOM     74  C   UNL A   1      45.912  27.669  33.277  1.00  0.00     0.173 A 
ATOM     75  C   UNL A   1      46.947  28.867  31.467  1.00  0.00     0.173 A 
ATOM     76  F   UNL A   1      44.851  27.397  34.052  1.00  0.00    -0.203 F 
ATOM     77  C   UNL A   1      47.123  27.042  33.554  1.00  0.00     0.198 A 
ATOM     78  C   UNL A   1      48.149  28.213  31.727  1.00  0.00     0.198 A 
ATOM     79  F   UNL A   1      46.897  29.750  30.459  1.00  0.00    -0.203 F 
ATOM     80  F   UNL A   1      47.214  26.193  34.586  1.00  0.00    -0.200 F 
ATOM     81  C   UNL A   1      48.238  27.309  32.776  1.00  0.00     0.200 A 
ATOM     82  F   UNL A   1      49.223  28.464  30.966  1.00  0.00    -0.200 F 
ATOM     83  F   UNL A   1      49.403  26.703  33.041  1.00  0.00    -0.200 F 
ENDBRANCH  59  73
BRANCH  60  84
ATOM     84  C   UNL A   1      36.913  32.693  30.255  1.00  0.00     0.064 A 
ATOM     85  C   UNL A   1      35.888  32.628  31.209  1.00  0.00     0.173 A 
ATOM     86  C   UNL A   1      36.637  33.343  29.044  1.00  0.00     0.173 A 
ATOM     87  F   UNL A   1      36.098  31.998  32.374  1.00  0.00    -0.203 F 
ATOM     88  C   UNL A   1      34.628  33.167  30.953  1.00  0.00     0.198 A 
ATOM     89  C   UNL A   1      35.385  33.907  28.800  1.00  0.00     0.198 A 
ATOM     90  F   UNL A   1      37.585  33.439  28.101  1.00  0.00    -0.203 F 
ATOM     91  F   UNL A   1      33.653  33.048  31.864  1.00  0.00    -0.200 F 
ATOM     92  C   UNL A   1      34.380  33.811  29.750  1.00  0.00     0.200 A 
ATOM     93  F   UNL A   1      35.152  34.538  27.641  1.00  0.00    -0.200 F 
ATOM     94  F   UNL A   1      33.170  34.331  29.504  1.00  0.00    -0.200 F 
ENDBRANCH  60  84
BRANCH  72  95
ATOM     95  C   UNL A   1      42.561  34.887  33.685  1.00  0.00     0.064 A 
ATOM     96  C   UNL A   1      42.358  35.038  35.064  1.00  0.00     0.173 A 
ATOM     97  C   UNL A   1      43.113  35.967  32.979  1.00  0.00     0.173 A 
ATOM     98  F   UNL A   1      41.818  34.040  35.780  1.00  0.00    -0.203 F 
ATOM     99  C   UNL A   1      42.670  36.233  35.706  1.00  0.00     0.198 A 
ATOM    100  C   UNL A   1      43.452  37.150  33.629  1.00  0.00     0.198 A 
ATOM    101  F   UNL A   1      43.334  35.870  31.659  1.00  0.00    -0.203 F 
ATOM    102  F   UNL A   1      42.422  36.373  37.016  1.00  0.00    -0.200 F 
ATOM    103  C   UNL A   1      43.223  37.285  34.990  1.00  0.00     0.200 A 
ATOM    104  F   UNL A   1      43.998  38.160  32.939  1.00  0.00    -0.200 F 
ATOM    105  F   UNL A   1      43.528  38.432  35.611  1.00  0.00    -0.200 F 
ENDBRANCH  72  95
ENDBRANCH  46  47
ENDBRANCH  38  41
ENDBRANCH  36  37
ENDBRANCH  35  36
ENDBRANCH  34  35
ENDBRANCH   1  34
TORSDOF 16
ENDMDL
