MODEL 1
REMARK VINA RESULT:     -12.7      0.000      0.000
REMARK SMILES COc1ccc(-c2ccc(C#N)c(S[C@@H](C)C(=O)NCCCCNC(=O)c3ccc(-c4c5nc(c(-c6c(F)c(F)c(F)c(F)c6F)c6ccc([nH]6)c(-c6c(F)c(F)c(F)c(F)c6F)c6nc(c(-c7c(F)c(F)c(F)c(F)c7F)c7ccc4[nH]7)C=C6)C=C5)cc3)n2)cc1
REMARK SMILES IDX 20 1 19 2 17 3 18 4 15 6 16 7 14 8 13 9 7 10 8 11 90 12 9 13
REMARK SMILES IDX 10 14 6 15 3 16 4 17 92 18 5 19 91 20 2 21 1 22 11 23 12 24
REMARK SMILES IDX 21 25 22 26 23 27 24 28 25 29 26 31 27 32 28 33 89 34 29 35
REMARK SMILES IDX 88 36 30 37 31 38 32 39 82 40 33 41 87 42 81 43 83 44 34 45
REMARK SMILES IDX 86 46 80 47 79 48 35 50 67 51 47 52 66 53 48 54 51 55 65 56
REMARK SMILES IDX 84 57 49 58 50 59 64 61 85 62 52 63 36 64 37 65 45 66 38 67
REMARK SMILES IDX 39 68 43 69 46 70 40 71 41 72 44 73 42 74 68 75 69 76 77 77
REMARK SMILES IDX 70 78 71 79 75 80 78 81 72 82 73 83 76 84 74 85 53 86 54 87
REMARK SMILES IDX 62 88 55 89 56 90 60 91 63 92 57 93 58 94 61 95 59 96
REMARK H PARENT 19 5 24 30 83 49 51 60
REMARK Flexibility Score: inf
ROOT
ATOM      1  C   UNL A   1      33.568  27.469  24.632  1.00  0.00     0.116 C 
ENDROOT
BRANCH   1   2
ATOM      2  N   UNL A   1      33.812  26.626  23.493  1.00  0.00    -0.355 N 
ATOM      3  C   UNL A   1      33.017  26.161  22.505  1.00  0.00     0.233 C 
ATOM      4  O   UNL A   1      33.634  25.771  21.500  1.00  0.00    -0.274 OA
ATOM      5  H   UNL A   1      34.747  26.327  23.418  1.00  0.00     0.163 HD
BRANCH   3   6
ATOM      6  C   UNL A   1      31.489  26.127  22.486  1.00  0.00     0.139 C 
ATOM      7  C   UNL A   1      30.793  27.477  22.406  1.00  0.00     0.030 C 
BRANCH   6   8
ATOM      8  S   UNL A   1      30.592  24.718  23.221  1.00  0.00    -0.092 SA
BRANCH   8   9
ATOM      9  C   UNL A   1      31.373  23.990  24.636  1.00  0.00     0.115 A 
ATOM     10  C   UNL A   1      32.324  21.896  25.225  1.00  0.00     0.072 A 
ATOM     11  C   UNL A   1      32.694  22.377  26.469  1.00  0.00     0.030 A 
ATOM     12  N   UNL A   1      31.717  22.703  24.319  1.00  0.00    -0.240 NA
ATOM     13  C   UNL A   1      32.328  23.668  26.817  1.00  0.00     0.024 A 
ATOM     14  C   UNL A   1      31.621  24.479  25.916  1.00  0.00     0.084 A 
BRANCH  10  15
ATOM     15  C   UNL A   1      32.497  20.479  24.861  1.00  0.00     0.000 A 
ATOM     16  C   UNL A   1      32.864  17.784  24.067  1.00  0.00     0.118 A 
ATOM     17  C   UNL A   1      33.026  18.157  25.401  1.00  0.00     0.047 A 
ATOM     18  C   UNL A   1      32.487  18.740  23.132  1.00  0.00     0.047 A 
ATOM     19  C   UNL A   1      32.860  19.494  25.793  1.00  0.00     0.014 A 
ATOM     20  C   UNL A   1      32.316  20.069  23.525  1.00  0.00     0.014 A 
BRANCH  16  21
ATOM     21  O   UNL A   1      33.061  16.462  23.772  1.00  0.00    -0.497 OA
ATOM     22  C   UNL A   1      33.358  15.645  24.903  1.00  0.00     0.278 C 
ENDBRANCH  16  21
ENDBRANCH  10  15
BRANCH  14  23
ATOM     23  C   UNL A   1      31.281  25.770  26.406  1.00  0.00     0.102 C 
ATOM     24  N   UNL A   1      30.880  26.771  26.846  1.00  0.00    -0.192 NA
ENDBRANCH  14  23
ENDBRANCH   8   9
ENDBRANCH   6   8
ENDBRANCH   3   6
ENDBRANCH   1   2
BRANCH   1  25
ATOM     25  C   UNL A   1      33.451  28.949  24.265  1.00  0.00     0.023 C 
BRANCH  25  26
ATOM     26  C   UNL A   1      32.339  29.685  25.012  1.00  0.00     0.023 C 
BRANCH  26  27
ATOM     27  C   UNL A   1      32.592  29.949  26.491  1.00  0.00     0.116 C 
BRANCH  27  28
ATOM     28  N   UNL A   1      32.386  31.328  26.905  1.00  0.00    -0.352 N 
ATOM     29  C   UNL A   1      33.301  32.201  27.460  1.00  0.00     0.251 C 
ATOM     30  H   UNL A   1      31.479  31.685  26.773  1.00  0.00     0.163 HD
ATOM     31  O   UNL A   1      32.974  33.344  27.759  1.00  0.00    -0.269 OA
BRANCH  29  32
ATOM     32  C   UNL A   1      34.661  31.699  27.759  1.00  0.00     0.039 A 
ATOM     33  C   UNL A   1      35.697  32.623  27.912  1.00  0.00     0.014 A 
ATOM     34  C   UNL A   1      34.861  30.350  28.062  1.00  0.00     0.014 A 
ATOM     35  C   UNL A   1      36.897  32.216  28.501  1.00  0.00     0.010 A 
ATOM     36  C   UNL A   1      36.018  29.972  28.736  1.00  0.00     0.010 A 
ATOM     37  C   UNL A   1      37.037  30.906  28.988  1.00  0.00    -0.014 A 
BRANCH  37  38
ATOM     38  C   UNL A   1      38.211  30.498  29.806  1.00  0.00     0.031 A 
ATOM     39  C   UNL A   1      39.192  29.501  29.262  1.00  0.00     0.074 A 
ATOM     40  C   UNL A   1      38.337  30.947  31.072  1.00  0.00     0.049 A 
ATOM     41  N   UNL A   1      40.207  28.925  29.857  1.00  0.00    -0.248 NA
ATOM     42  C   UNL A   1      38.986  29.063  27.872  1.00  0.00     0.031 C 
ATOM     43  C   UNL A   1      37.421  31.876  31.738  1.00  0.00     0.029 A 
ATOM     44  N   UNL A   1      39.278  30.670  32.035  1.00  0.00    -0.354 N 
ATOM     45  C   UNL A   1      40.744  28.050  28.923  1.00  0.00     0.074 A 
ATOM     46  C   UNL A   1      39.908  28.123  27.744  1.00  0.00     0.031 C 
ATOM     47  C   UNL A   1      37.855  32.109  32.987  1.00  0.00     0.029 A 
ATOM     48  C   UNL A   1      39.053  31.311  33.231  1.00  0.00     0.049 A 
ATOM     49  H   UNL A   1      40.042  30.068  31.883  1.00  0.00     0.167 HD
ATOM     50  C   UNL A   1      41.849  27.275  29.029  1.00  0.00     0.037 A 
ATOM     51  C   UNL A   1      39.726  31.251  34.397  1.00  0.00     0.037 A 
ATOM     52  C   UNL A   1      42.692  27.226  30.194  1.00  0.00     0.049 A 
ATOM     53  C   UNL A   1      40.940  30.365  34.496  1.00  0.00     0.074 A 
ATOM     54  C   UNL A   1      43.872  26.529  30.375  1.00  0.00     0.029 A 
ATOM     55  N   UNL A   1      42.438  27.901  31.379  1.00  0.00    -0.354 N 
ATOM     56  N   UNL A   1      41.483  29.601  33.578  1.00  0.00    -0.248 NA
ATOM     57  C   UNL A   1      41.633  30.329  35.791  1.00  0.00     0.031 C 
ATOM     58  C   UNL A   1      44.306  26.737  31.688  1.00  0.00     0.029 A 
ATOM     59  C   UNL A   1      43.424  27.609  32.308  1.00  0.00     0.049 A 
ATOM     60  H   UNL A   1      41.672  28.498  31.538  1.00  0.00     0.167 HD
ATOM     61  C   UNL A   1      42.590  29.014  34.175  1.00  0.00     0.074 A 
ATOM     62  C   UNL A   1      42.653  29.523  35.530  1.00  0.00     0.031 C 
ATOM     63  C   UNL A   1      43.474  28.131  33.650  1.00  0.00     0.037 A 
BRANCH  50  64
ATOM     64  C   UNL A   1      42.211  26.419  27.850  1.00  0.00     0.064 A 
ATOM     65  C   UNL A   1      41.614  25.167  27.637  1.00  0.00     0.173 A 
ATOM     66  C   UNL A   1      43.146  26.867  26.904  1.00  0.00     0.173 A 
ATOM     67  F   UNL A   1      40.723  24.685  28.518  1.00  0.00    -0.203 F 
ATOM     68  C   UNL A   1      41.963  24.380  26.542  1.00  0.00     0.198 A 
ATOM     69  C   UNL A   1      43.468  26.093  25.791  1.00  0.00     0.198 A 
ATOM     70  F   UNL A   1      43.743  28.059  27.055  1.00  0.00    -0.203 F 
ATOM     71  F   UNL A   1      41.421  23.164  26.393  1.00  0.00    -0.200 F 
ATOM     72  C   UNL A   1      42.884  24.848  25.617  1.00  0.00     0.200 A 
ATOM     73  F   UNL A   1      44.348  26.552  24.891  1.00  0.00    -0.200 F 
ATOM     74  F   UNL A   1      43.215  24.093  24.560  1.00  0.00    -0.200 F 
ENDBRANCH  50  64
BRANCH  51  75
ATOM     75  C   UNL A   1      39.278  32.058  35.564  1.00  0.00     0.064 A 
ATOM     76  C   UNL A   1      38.429  31.507  36.536  1.00  0.00     0.173 A 
ATOM     77  C   UNL A   1      39.676  33.393  35.730  1.00  0.00     0.173 A 
ATOM     78  F   UNL A   1      38.001  30.243  36.412  1.00  0.00    -0.203 F 
ATOM     79  C   UNL A   1      37.980  32.267  37.615  1.00  0.00     0.198 A 
ATOM     80  C   UNL A   1      39.249  34.142  36.825  1.00  0.00     0.198 A 
ATOM     81  F   UNL A   1      40.489  33.968  34.832  1.00  0.00    -0.203 F 
ATOM     82  F   UNL A   1      37.130  31.729  38.501  1.00  0.00    -0.200 F 
ATOM     83  C   UNL A   1      38.395  33.581  37.762  1.00  0.00     0.200 A 
ATOM     84  F   UNL A   1      39.665  35.407  36.972  1.00  0.00    -0.200 F 
ATOM     85  F   UNL A   1      37.966  34.309  38.803  1.00  0.00    -0.200 F 
ENDBRANCH  51  75
BRANCH  63  86
ATOM     86  C   UNL A   1      44.600  27.671  34.530  1.00  0.00     0.064 A 
ATOM     87  C   UNL A   1      45.800  28.391  34.623  1.00  0.00     0.173 A 
ATOM     88  C   UNL A   1      44.451  26.534  35.339  1.00  0.00     0.173 A 
ATOM     89  F   UNL A   1      45.997  29.476  33.858  1.00  0.00    -0.203 F 
ATOM     90  C   UNL A   1      46.815  27.981  35.483  1.00  0.00     0.198 A 
ATOM     91  C   UNL A   1      45.455  26.144  36.219  1.00  0.00     0.198 A 
ATOM     92  F   UNL A   1      43.319  25.814  35.291  1.00  0.00    -0.203 F 
ATOM     93  F   UNL A   1      47.968  28.663  35.528  1.00  0.00    -0.200 F 
ATOM     94  C   UNL A   1      46.638  26.865  36.287  1.00  0.00     0.200 A 
ATOM     95  F   UNL A   1      45.275  25.076  37.008  1.00  0.00    -0.200 F 
ATOM     96  F   UNL A   1      47.610  26.482  37.127  1.00  0.00    -0.200 F 
ENDBRANCH  63  86
ENDBRANCH  37  38
ENDBRANCH  29  32
ENDBRANCH  27  28
ENDBRANCH  26  27
ENDBRANCH  25  26
ENDBRANCH   1  25
TORSDOF 16
ENDMDL
MODEL 2
REMARK VINA RESULT:     -12.5      0.571      7.232
REMARK SMILES COc1ccc(-c2ccc(C#N)c(S[C@@H](C)C(=O)NCCCCNC(=O)c3ccc(-c4c5nc(c(-c6c(F)c(F)c(F)c(F)c6F)c6ccc([nH]6)c(-c6c(F)c(F)c(F)c(F)c6F)c6nc(c(-c7c(F)c(F)c(F)c(F)c7F)c7ccc4[nH]7)C=C6)C=C5)cc3)n2)cc1
REMARK SMILES IDX 20 1 19 2 17 3 18 4 15 6 16 7 14 8 13 9 7 10 8 11 90 12 9 13
REMARK SMILES IDX 10 14 6 15 3 16 4 17 92 18 5 19 91 20 2 21 1 22 11 23 12 24
REMARK SMILES IDX 21 25 22 26 23 27 24 28 25 29 26 31 27 32 28 33 89 34 29 35
REMARK SMILES IDX 88 36 30 37 31 38 32 39 82 40 33 41 87 42 81 43 83 44 34 45
REMARK SMILES IDX 86 46 80 47 79 48 35 50 67 51 47 52 66 53 48 54 51 55 65 56
REMARK SMILES IDX 84 57 49 58 50 59 64 61 85 62 52 63 36 64 37 65 45 66 38 67
REMARK SMILES IDX 39 68 43 69 46 70 40 71 41 72 44 73 42 74 68 75 69 76 77 77
REMARK SMILES IDX 70 78 71 79 75 80 78 81 72 82 73 83 76 84 74 85 53 86 54 87
REMARK SMILES IDX 62 88 55 89 56 90 60 91 63 92 57 93 58 94 61 95 59 96
REMARK H PARENT 19 5 24 30 83 49 51 60
REMARK Flexibility Score: inf
ROOT
ATOM      1  C   UNL A   1      33.636  27.404  24.467  1.00  0.00     0.116 C 
ENDROOT
BRANCH   1   2
ATOM      2  N   UNL A   1      33.772  26.635  23.260  1.00  0.00    -0.355 N 
ATOM      3  C   UNL A   1      32.883  26.204  22.338  1.00  0.00     0.233 C 
ATOM      4  O   UNL A   1      33.393  25.890  21.250  1.00  0.00    -0.274 OA
ATOM      5  H   UNL A   1      34.699  26.369  23.065  1.00  0.00     0.163 HD
BRANCH   3   6
ATOM      6  C   UNL A   1      31.363  26.125  22.484  1.00  0.00     0.139 C 
ATOM      7  C   UNL A   1      30.641  27.453  22.652  1.00  0.00     0.030 C 
BRANCH   6   8
ATOM      8  S   UNL A   1      30.580  24.610  23.132  1.00  0.00    -0.092 SA
BRANCH   8   9
ATOM      9  C   UNL A   1      31.352  23.925  24.573  1.00  0.00     0.115 A 
ATOM     10  C   UNL A   1      32.317  21.855  25.223  1.00  0.00     0.072 A 
ATOM     11  C   UNL A   1      32.670  22.370  26.458  1.00  0.00     0.030 A 
ATOM     12  N   UNL A   1      31.712  22.633  24.291  1.00  0.00    -0.240 NA
ATOM     13  C   UNL A   1      32.288  23.666  26.771  1.00  0.00     0.024 A 
ATOM     14  C   UNL A   1      31.583  24.447  25.843  1.00  0.00     0.084 A 
BRANCH  10  15
ATOM     15  C   UNL A   1      32.508  20.431  24.895  1.00  0.00     0.000 A 
ATOM     16  C   UNL A   1      32.834  17.669  24.356  1.00  0.00     0.118 A 
ATOM     17  C   UNL A   1      32.575  18.567  23.320  1.00  0.00     0.047 A 
ATOM     18  C   UNL A   1      32.964  18.146  25.655  1.00  0.00     0.047 A 
ATOM     19  C   UNL A   1      32.398  19.933  23.587  1.00  0.00     0.014 A 
ATOM     20  C   UNL A   1      32.794  19.506  25.918  1.00  0.00     0.014 A 
BRANCH  16  21
ATOM     21  O   UNL A   1      32.977  16.354  24.006  1.00  0.00    -0.497 OA
ATOM     22  C   UNL A   1      33.067  15.457  25.110  1.00  0.00     0.278 C 
ENDBRANCH  16  21
ENDBRANCH  10  15
BRANCH  14  23
ATOM     23  C   UNL A   1      31.224  25.747  26.297  1.00  0.00     0.102 C 
ATOM     24  N   UNL A   1      30.899  26.750  26.791  1.00  0.00    -0.192 NA
ENDBRANCH  14  23
ENDBRANCH   8   9
ENDBRANCH   6   8
ENDBRANCH   3   6
ENDBRANCH   1   2
BRANCH   1  25
ATOM     25  C   UNL A   1      33.605  28.912  24.214  1.00  0.00     0.023 C 
BRANCH  25  26
ATOM     26  C   UNL A   1      32.513  29.647  24.990  1.00  0.00     0.023 C 
BRANCH  26  27
ATOM     27  C   UNL A   1      32.757  29.816  26.485  1.00  0.00     0.116 C 
BRANCH  27  28
ATOM     28  N   UNL A   1      32.641  31.183  26.968  1.00  0.00    -0.352 N 
ATOM     29  C   UNL A   1      33.609  31.963  27.569  1.00  0.00     0.251 C 
ATOM     30  H   UNL A   1      31.761  31.606  26.852  1.00  0.00     0.163 HD
ATOM     31  O   UNL A   1      33.358  33.109  27.925  1.00  0.00    -0.269 OA
BRANCH  29  32
ATOM     32  C   UNL A   1      34.930  31.356  27.847  1.00  0.00     0.039 A 
ATOM     33  C   UNL A   1      36.033  32.198  28.013  1.00  0.00     0.014 A 
ATOM     34  C   UNL A   1      35.033  29.990  28.118  1.00  0.00     0.014 A 
ATOM     35  C   UNL A   1      37.203  31.691  28.583  1.00  0.00     0.010 A 
ATOM     36  C   UNL A   1      36.163  29.513  28.774  1.00  0.00     0.010 A 
ATOM     37  C   UNL A   1      37.249  30.364  29.040  1.00  0.00    -0.014 A 
BRANCH  37  38
ATOM     38  C   UNL A   1      38.395  29.853  29.840  1.00  0.00     0.031 A 
ATOM     39  C   UNL A   1      38.625  30.366  31.232  1.00  0.00     0.074 A 
ATOM     40  C   UNL A   1      39.283  29.006  29.278  1.00  0.00     0.049 A 
ATOM     41  N   UNL A   1      39.627  30.143  32.045  1.00  0.00    -0.248 NA
ATOM     42  C   UNL A   1      37.609  31.284  31.772  1.00  0.00     0.031 C 
ATOM     43  C   UNL A   1      39.204  28.476  27.915  1.00  0.00     0.029 A 
ATOM     44  N   UNL A   1      40.439  28.454  29.777  1.00  0.00    -0.354 N 
ATOM     45  C   UNL A   1      39.370  30.903  33.178  1.00  0.00     0.074 A 
ATOM     46  C   UNL A   1      38.152  31.641  32.925  1.00  0.00     0.031 C 
ATOM     47  C   UNL A   1      40.248  27.660  27.695  1.00  0.00     0.029 A 
ATOM     48  C   UNL A   1      41.098  27.646  28.881  1.00  0.00     0.049 A 
ATOM     49  H   UNL A   1      40.764  28.623  30.690  1.00  0.00     0.167 HD
ATOM     50  C   UNL A   1      40.072  30.960  34.333  1.00  0.00     0.037 A 
ATOM     51  C   UNL A   1      42.265  26.980  28.996  1.00  0.00     0.037 A 
ATOM     52  C   UNL A   1      41.269  30.204  34.589  1.00  0.00     0.049 A 
ATOM     53  C   UNL A   1      43.037  27.077  30.285  1.00  0.00     0.074 A 
ATOM     54  C   UNL A   1      42.014  30.136  35.752  1.00  0.00     0.029 A 
ATOM     55  N   UNL A   1      41.897  29.385  33.662  1.00  0.00    -0.354 N 
ATOM     56  N   UNL A   1      42.742  27.739  31.378  1.00  0.00    -0.248 NA
ATOM     57  C   UNL A   1      44.306  26.339  30.357  1.00  0.00     0.031 C 
ATOM     58  C   UNL A   1      43.123  29.320  35.513  1.00  0.00     0.029 A 
ATOM     59  C   UNL A   1      43.040  28.834  34.218  1.00  0.00     0.049 A 
ATOM     60  H   UNL A   1      41.579  29.220  32.745  1.00  0.00     0.167 HD
ATOM     61  C   UNL A   1      43.772  27.479  32.273  1.00  0.00     0.074 A 
ATOM     62  C   UNL A   1      44.693  26.584  31.601  1.00  0.00     0.031 C 
ATOM     63  C   UNL A   1      43.942  27.941  33.535  1.00  0.00     0.037 A 
BRANCH  50  64
ATOM     64  C   UNL A   1      39.560  31.871  35.411  1.00  0.00     0.064 A 
ATOM     65  C   UNL A   1      38.629  31.432  36.365  1.00  0.00     0.173 A 
ATOM     66  C   UNL A   1      40.026  33.191  35.512  1.00  0.00     0.173 A 
ATOM     67  F   UNL A   1      38.140  30.183  36.307  1.00  0.00    -0.203 F 
ATOM     68  C   UNL A   1      38.157  32.288  37.357  1.00  0.00     0.198 A 
ATOM     69  C   UNL A   1      39.579  34.034  36.526  1.00  0.00     0.198 A 
ATOM     70  F   UNL A   1      40.922  33.660  34.630  1.00  0.00    -0.203 F 
ATOM     71  F   UNL A   1      37.225  31.862  38.220  1.00  0.00    -0.200 F 
ATOM     72  C   UNL A   1      38.639  33.586  37.441  1.00  0.00     0.200 A 
ATOM     73  F   UNL A   1      40.055  35.284  36.613  1.00  0.00    -0.200 F 
ATOM     74  F   UNL A   1      38.189  34.408  38.399  1.00  0.00    -0.200 F 
ENDBRANCH  50  64
BRANCH  51  75
ATOM     75  C   UNL A   1      42.772  26.155  27.867  1.00  0.00     0.064 A 
ATOM     76  C   UNL A   1      42.421  24.803  27.749  1.00  0.00     0.173 A 
ATOM     77  C   UNL A   1      43.623  26.692  26.889  1.00  0.00     0.173 A 
ATOM     78  F   UNL A   1      41.628  24.235  28.670  1.00  0.00    -0.203 F 
ATOM     79  C   UNL A   1      42.917  24.015  26.712  1.00  0.00     0.198 A 
ATOM     80  C   UNL A   1      44.096  25.911  25.836  1.00  0.00     0.198 A 
ATOM     81  F   UNL A   1      43.989  27.981  26.952  1.00  0.00    -0.203 F 
ATOM     82  F   UNL A   1      42.604  22.713  26.653  1.00  0.00    -0.200 F 
ATOM     83  C   UNL A   1      43.749  24.571  25.753  1.00  0.00     0.200 A 
ATOM     84  F   UNL A   1      44.887  26.457  24.902  1.00  0.00    -0.200 F 
ATOM     85  F   UNL A   1      44.223  23.815  24.752  1.00  0.00    -0.200 F 
ENDBRANCH  51  75
BRANCH  63  86
ATOM     86  C   UNL A   1      45.155  27.474  34.286  1.00  0.00     0.064 A 
ATOM     87  C   UNL A   1      45.140  26.296  35.046  1.00  0.00     0.173 A 
ATOM     88  C   UNL A   1      46.364  28.180  34.191  1.00  0.00     0.173 A 
ATOM     89  F   UNL A   1      44.004  25.594  35.180  1.00  0.00    -0.203 F 
ATOM     90  C   UNL A   1      46.288  25.848  35.695  1.00  0.00     0.198 A 
ATOM     91  C   UNL A   1      47.517  27.715  34.817  1.00  0.00     0.198 A 
ATOM     92  F   UNL A   1      46.431  29.311  33.473  1.00  0.00    -0.203 F 
ATOM     93  F   UNL A   1      46.241  24.740  36.446  1.00  0.00    -0.200 F 
ATOM     94  C   UNL A   1      47.476  26.552  35.571  1.00  0.00     0.200 A 
ATOM     95  F   UNL A   1      48.668  28.387  34.682  1.00  0.00    -0.200 F 
ATOM     96  F   UNL A   1      48.584  26.110  36.182  1.00  0.00    -0.200 F 
ENDBRANCH  63  86
ENDBRANCH  37  38
ENDBRANCH  29  32
ENDBRANCH  27  28
ENDBRANCH  26  27
ENDBRANCH  25  26
ENDBRANCH   1  25
TORSDOF 16
ENDMDL
MODEL 3
REMARK VINA RESULT:     -12.4      1.125      2.086
REMARK SMILES COc1ccc(-c2ccc(C#N)c(S[C@@H](C)C(=O)NCCCCNC(=O)c3ccc(-c4c5nc(c(-c6c(F)c(F)c(F)c(F)c6F)c6ccc([nH]6)c(-c6c(F)c(F)c(F)c(F)c6F)c6nc(c(-c7c(F)c(F)c(F)c(F)c7F)c7ccc4[nH]7)C=C6)C=C5)cc3)n2)cc1
REMARK SMILES IDX 20 1 19 2 17 3 18 4 15 6 16 7 14 8 13 9 7 10 8 11 90 12 9 13
REMARK SMILES IDX 10 14 6 15 3 16 4 17 92 18 5 19 91 20 2 21 1 22 11 23 12 24
REMARK SMILES IDX 21 25 22 26 23 27 24 28 25 29 26 31 27 32 28 33 89 34 29 35
REMARK SMILES IDX 88 36 30 37 31 38 32 39 82 40 33 41 87 42 81 43 83 44 34 45
REMARK SMILES IDX 86 46 80 47 79 48 35 50 67 51 47 52 66 53 48 54 51 55 65 56
REMARK SMILES IDX 84 57 49 58 50 59 64 61 85 62 52 63 36 64 37 65 45 66 38 67
REMARK SMILES IDX 39 68 43 69 46 70 40 71 41 72 44 73 42 74 68 75 69 76 77 77
REMARK SMILES IDX 70 78 71 79 75 80 78 81 72 82 73 83 76 84 74 85 53 86 54 87
REMARK SMILES IDX 62 88 55 89 56 90 60 91 63 92 57 93 58 94 61 95 59 96
REMARK H PARENT 19 5 24 30 83 49 51 60
REMARK Flexibility Score: inf
ROOT
ATOM      1  C   UNL A   1      31.334  28.191  23.813  1.00  0.00     0.116 C 
ENDROOT
BRANCH   1   2
ATOM      2  N   UNL A   1      30.111  27.488  23.533  1.00  0.00    -0.355 N 
ATOM      3  C   UNL A   1      29.626  26.291  23.930  1.00  0.00     0.233 C 
ATOM      4  O   UNL A   1      28.397  26.173  23.795  1.00  0.00    -0.274 OA
ATOM      5  H   UNL A   1      29.504  27.978  22.933  1.00  0.00     0.163 HD
BRANCH   3   6
ATOM      6  C   UNL A   1      30.409  25.138  24.558  1.00  0.00     0.139 C 
ATOM      7  C   UNL A   1      30.600  25.206  26.065  1.00  0.00     0.030 C 
BRANCH   6   8
ATOM      8  S   UNL A   1      31.609  24.193  23.561  1.00  0.00    -0.092 SA
BRANCH   8   9
ATOM      9  C   UNL A   1      33.009  23.579  24.458  1.00  0.00     0.115 A 
ATOM     10  C   UNL A   1      34.023  21.477  24.894  1.00  0.00     0.072 A 
ATOM     11  C   UNL A   1      35.048  22.081  25.602  1.00  0.00     0.030 A 
ATOM     12  N   UNL A   1      33.054  22.219  24.302  1.00  0.00    -0.240 NA
ATOM     13  C   UNL A   1      35.003  23.453  25.794  1.00  0.00     0.024 A 
ATOM     14  C   UNL A   1      33.954  24.216  25.258  1.00  0.00     0.084 A 
BRANCH  10  15
ATOM     15  C   UNL A   1      33.893  20.011  24.820  1.00  0.00     0.000 A 
ATOM     16  C   UNL A   1      33.738  17.183  24.717  1.00  0.00     0.118 A 
ATOM     17  C   UNL A   1      32.590  17.949  24.927  1.00  0.00     0.047 A 
ATOM     18  C   UNL A   1      34.957  17.822  24.525  1.00  0.00     0.047 A 
ATOM     19  C   UNL A   1      32.667  19.348  24.995  1.00  0.00     0.014 A 
ATOM     20  C   UNL A   1      35.031  19.214  24.586  1.00  0.00     0.014 A 
BRANCH  16  21
ATOM     21  O   UNL A   1      33.571  15.826  24.683  1.00  0.00    -0.497 OA
ATOM     22  C   UNL A   1      32.455  15.350  25.432  1.00  0.00     0.278 C 
ENDBRANCH  16  21
ENDBRANCH  10  15
BRANCH  14  23
ATOM     23  C   UNL A   1      34.009  25.607  25.552  1.00  0.00     0.102 C 
ATOM     24  N   UNL A   1      33.963  26.719  25.895  1.00  0.00    -0.192 NA
ENDBRANCH  14  23
ENDBRANCH   8   9
ENDBRANCH   6   8
ENDBRANCH   3   6
ENDBRANCH   1   2
BRANCH   1  25
ATOM     25  C   UNL A   1      31.157  29.316  24.832  1.00  0.00     0.023 C 
BRANCH  25  26
ATOM     26  C   UNL A   1      32.473  29.870  25.376  1.00  0.00     0.023 C 
BRANCH  26  27
ATOM     27  C   UNL A   1      32.486  30.217  26.860  1.00  0.00     0.116 C 
BRANCH  27  28
ATOM     28  N   UNL A   1      32.392  31.638  27.153  1.00  0.00    -0.352 N 
ATOM     29  C   UNL A   1      33.387  32.491  27.588  1.00  0.00     0.251 C 
ATOM     30  H   UNL A   1      31.505  32.045  27.024  1.00  0.00     0.163 HD
ATOM     31  O   UNL A   1      33.152  33.676  27.792  1.00  0.00    -0.269 OA
BRANCH  29  32
ATOM     32  C   UNL A   1      34.723  31.922  27.879  1.00  0.00     0.039 A 
ATOM     33  C   UNL A   1      35.816  32.788  27.961  1.00  0.00     0.014 A 
ATOM     34  C   UNL A   1      34.851  30.580  28.244  1.00  0.00     0.014 A 
ATOM     35  C   UNL A   1      37.005  32.338  28.540  1.00  0.00     0.010 A 
ATOM     36  C   UNL A   1      36.002  30.166  28.908  1.00  0.00     0.010 A 
ATOM     37  C   UNL A   1      37.080  31.048  29.089  1.00  0.00    -0.014 A 
BRANCH  37  38
ATOM     38  C   UNL A   1      38.249  30.610  29.898  1.00  0.00     0.031 A 
ATOM     39  C   UNL A   1      39.212  29.602  29.338  1.00  0.00     0.074 A 
ATOM     40  C   UNL A   1      38.387  31.042  31.169  1.00  0.00     0.049 A 
ATOM     41  N   UNL A   1      40.219  29.002  29.922  1.00  0.00    -0.248 NA
ATOM     42  C   UNL A   1      38.993  29.185  27.944  1.00  0.00     0.031 C 
ATOM     43  C   UNL A   1      37.490  31.978  31.849  1.00  0.00     0.029 A 
ATOM     44  N   UNL A   1      39.327  30.736  32.125  1.00  0.00    -0.354 N 
ATOM     45  C   UNL A   1      40.737  28.129  28.976  1.00  0.00     0.074 A 
ATOM     46  C   UNL A   1      39.899  28.230  27.801  1.00  0.00     0.031 C 
ATOM     47  C   UNL A   1      37.932  32.188  33.099  1.00  0.00     0.029 A 
ATOM     48  C   UNL A   1      39.117  31.367  33.329  1.00  0.00     0.049 A 
ATOM     49  H   UNL A   1      40.079  30.123  31.962  1.00  0.00     0.167 HD
ATOM     50  C   UNL A   1      41.828  27.334  29.069  1.00  0.00     0.037 A 
ATOM     51  C   UNL A   1      39.793  31.280  34.492  1.00  0.00     0.037 A 
ATOM     52  C   UNL A   1      42.674  27.256  30.230  1.00  0.00     0.049 A 
ATOM     53  C   UNL A   1      40.991  30.373  34.575  1.00  0.00     0.074 A 
ATOM     54  C   UNL A   1      43.843  26.537  30.399  1.00  0.00     0.029 A 
ATOM     55  N   UNL A   1      42.437  27.921  31.424  1.00  0.00    -0.354 N 
ATOM     56  N   UNL A   1      41.518  29.611  33.647  1.00  0.00    -0.248 NA
ATOM     57  C   UNL A   1      41.688  30.309  35.868  1.00  0.00     0.031 C 
ATOM     58  C   UNL A   1      44.284  26.722  31.712  1.00  0.00     0.029 A 
ATOM     59  C   UNL A   1      43.420  27.601  32.346  1.00  0.00     0.049 A 
ATOM     60  H   UNL A   1      41.681  28.529  31.593  1.00  0.00     0.167 HD
ATOM     61  C   UNL A   1      42.617  28.998  34.233  1.00  0.00     0.074 A 
ATOM     62  C   UNL A   1      42.693  29.489  35.593  1.00  0.00     0.031 C 
ATOM     63  C   UNL A   1      43.484  28.105  33.695  1.00  0.00     0.037 A 
BRANCH  50  64
ATOM     64  C   UNL A   1      42.172  26.486  27.878  1.00  0.00     0.064 A 
ATOM     65  C   UNL A   1      43.119  26.899  26.929  1.00  0.00     0.173 A 
ATOM     66  C   UNL A   1      41.570  25.231  27.698  1.00  0.00     0.173 A 
ATOM     67  F   UNL A   1      43.715  28.095  27.046  1.00  0.00    -0.203 F 
ATOM     68  C   UNL A   1      43.425  26.105  25.826  1.00  0.00     0.198 A 
ATOM     69  C   UNL A   1      41.902  24.424  26.613  1.00  0.00     0.198 A 
ATOM     70  F   UNL A   1      40.662  24.784  28.580  1.00  0.00    -0.203 F 
ATOM     71  F   UNL A   1      44.289  26.548  24.903  1.00  0.00    -0.200 F 
ATOM     72  C   UNL A   1      42.821  24.866  25.673  1.00  0.00     0.200 A 
ATOM     73  F   UNL A   1      41.329  23.221  26.474  1.00  0.00    -0.200 F 
ATOM     74  F   UNL A   1      43.120  24.100  24.615  1.00  0.00    -0.200 F 
ENDBRANCH  50  64
BRANCH  51  75
ATOM     75  C   UNL A   1      39.362  32.081  35.670  1.00  0.00     0.064 A 
ATOM     76  C   UNL A   1      38.481  31.545  36.620  1.00  0.00     0.173 A 
ATOM     77  C   UNL A   1      39.810  33.396  35.868  1.00  0.00     0.173 A 
ATOM     78  F   UNL A   1      38.005  30.301  36.466  1.00  0.00    -0.203 F 
ATOM     79  C   UNL A   1      38.049  32.300  37.710  1.00  0.00     0.198 A 
ATOM     80  C   UNL A   1      39.400  34.139  36.973  1.00  0.00     0.198 A 
ATOM     81  F   UNL A   1      40.656  33.956  34.991  1.00  0.00    -0.203 F 
ATOM     82  F   UNL A   1      37.168  31.779  38.575  1.00  0.00    -0.200 F 
ATOM     83  C   UNL A   1      38.513  33.594  37.889  1.00  0.00     0.200 A 
ATOM     84  F   UNL A   1      39.864  35.384  37.151  1.00  0.00    -0.200 F 
ATOM     85  F   UNL A   1      38.100  34.317  38.939  1.00  0.00    -0.200 F 
ENDBRANCH  51  75
BRANCH  63  86
ATOM     86  C   UNL A   1      44.604  27.616  34.565  1.00  0.00     0.064 A 
ATOM     87  C   UNL A   1      44.486  26.443  35.323  1.00  0.00     0.173 A 
ATOM     88  C   UNL A   1      45.833  28.294  34.588  1.00  0.00     0.173 A 
ATOM     89  F   UNL A   1      43.326  25.767  35.346  1.00  0.00    -0.203 F 
ATOM     90  C   UNL A   1      45.552  25.973  36.085  1.00  0.00     0.198 A 
ATOM     91  C   UNL A   1      46.906  27.806  35.327  1.00  0.00     0.198 A 
ATOM     92  F   UNL A   1      45.998  29.419  33.876  1.00  0.00    -0.203 F 
ATOM     93  F   UNL A   1      45.405  24.870  36.831  1.00  0.00    -0.200 F 
ATOM     94  C   UNL A   1      46.764  26.649  36.078  1.00  0.00     0.200 A 
ATOM     95  F   UNL A   1      48.081  28.451  35.306  1.00  0.00    -0.200 F 
ATOM     96  F   UNL A   1      47.795  26.185  36.798  1.00  0.00    -0.200 F 
ENDBRANCH  63  86
ENDBRANCH  37  38
ENDBRANCH  29  32
ENDBRANCH  27  28
ENDBRANCH  26  27
ENDBRANCH  25  26
ENDBRANCH   1  25
TORSDOF 16
ENDMDL
