MODEL 1
REMARK VINA RESULT:     -12.6      0.000      0.000
REMARK SMILES O=C(NCCCCNC(=O)c1ccc(NC(=O)[C@@H]2COCCO2)cc1O)c1ccc(-c2c3nc(c(-c4c(F)c(F)c(F)c(F)c4F)c4ccc([nH]4)c(-c4c(F)c(F)c(F)c(F)c4F)c4nc(c(-c5c(F)c(F)c(F)c(F)c5F)c5ccc2[nH]5)C=C4)C=C3)cc1
REMARK SMILES IDX 5 1 4 2 3 3 1 4 2 5 27 7 28 8 89 9 29 10 88 11 30 12 31 13
REMARK SMILES IDX 32 14 82 15 33 16 87 17 81 18 83 19 34 20 86 21 80 22 79 23
REMARK SMILES IDX 35 25 67 26 47 27 66 28 48 29 51 30 65 31 84 32 49 33 50 34
REMARK SMILES IDX 64 36 85 37 52 38 36 39 37 40 45 41 38 42 39 43 43 44 46 45
REMARK SMILES IDX 40 46 41 47 44 48 42 49 68 50 69 51 77 52 70 53 71 54 75 55
REMARK SMILES IDX 78 56 72 57 73 58 76 59 74 60 53 61 54 62 62 63 55 64 56 65
REMARK SMILES IDX 60 66 63 67 57 68 58 69 61 70 59 71 6 72 7 73 8 74 9 75
REMARK SMILES IDX 10 77 11 78 12 79 25 80 13 81 24 82 14 83 26 84 15 86 16 87
REMARK SMILES IDX 17 89 18 90 19 91 23 92 20 93 22 94 21 95
REMARK H PARENT 3 6 83 24 51 35 8 76 26 85 15 88
REMARK Flexibility Score: inf
ROOT
ATOM      1  C   UNL A   1      31.666  28.932  25.609  1.00  0.00     0.023 C 
ENDROOT
BRANCH   1   2
ATOM      2  C   UNL A   1      32.899  29.746  25.977  1.00  0.00     0.116 C 
BRANCH   2   3
ATOM      3  N   UNL A   1      32.589  31.094  26.428  1.00  0.00    -0.352 N 
ATOM      4  O   UNL A   1      32.856  32.995  27.621  1.00  0.00    -0.269 OA
ATOM      5  C   UNL A   1      33.302  31.907  27.274  1.00  0.00     0.251 C 
ATOM      6  H   UNL A   1      31.751  31.476  26.079  1.00  0.00     0.163 HD
BRANCH   5   7
ATOM      7  C   UNL A   1      34.595  31.432  27.802  1.00  0.00     0.039 A 
ATOM      8  C   UNL A   1      34.750  30.107  28.214  1.00  0.00     0.014 A 
ATOM      9  C   UNL A   1      35.644  32.346  27.937  1.00  0.00     0.014 A 
ATOM     10  C   UNL A   1      35.896  29.737  28.908  1.00  0.00     0.010 A 
ATOM     11  C   UNL A   1      36.826  31.950  28.564  1.00  0.00     0.010 A 
ATOM     12  C   UNL A   1      36.942  30.657  29.096  1.00  0.00    -0.014 A 
BRANCH  12  13
ATOM     13  C   UNL A   1      38.151  30.236  29.844  1.00  0.00     0.031 A 
ATOM     14  C   UNL A   1      38.371  30.674  31.265  1.00  0.00     0.074 A 
ATOM     15  C   UNL A   1      39.032  29.415  29.243  1.00  0.00     0.049 A 
ATOM     16  N   UNL A   1      39.351  30.369  32.079  1.00  0.00    -0.248 NA
ATOM     17  C   UNL A   1      37.367  31.577  31.848  1.00  0.00     0.031 C 
ATOM     18  C   UNL A   1      38.925  28.932  27.865  1.00  0.00     0.029 A 
ATOM     19  N   UNL A   1      40.173  28.824  29.717  1.00  0.00    -0.354 N 
ATOM     20  C   UNL A   1      39.100  31.064  33.255  1.00  0.00     0.074 A 
ATOM     21  C   UNL A   1      37.882  31.819  33.046  1.00  0.00     0.031 C 
ATOM     22  C   UNL A   1      39.925  28.073  27.623  1.00  0.00     0.029 A 
ATOM     23  C   UNL A   1      40.769  27.984  28.810  1.00  0.00     0.049 A 
ATOM     24  H   UNL A   1      40.529  28.984  30.621  1.00  0.00     0.167 HD
ATOM     25  C   UNL A   1      39.818  31.066  34.403  1.00  0.00     0.037 A 
ATOM     26  C   UNL A   1      41.873  27.225  28.922  1.00  0.00     0.037 A 
ATOM     27  C   UNL A   1      41.008  30.285  34.620  1.00  0.00     0.049 A 
ATOM     28  C   UNL A   1      42.641  27.234  30.211  1.00  0.00     0.074 A 
ATOM     29  C   UNL A   1      41.780  30.184  35.764  1.00  0.00     0.029 A 
ATOM     30  N   UNL A   1      41.594  29.461  33.669  1.00  0.00    -0.354 N 
ATOM     31  N   UNL A   1      42.379  27.877  31.323  1.00  0.00    -0.248 NA
ATOM     32  C   UNL A   1      43.858  26.415  30.261  1.00  0.00     0.031 C 
ATOM     33  C   UNL A   1      42.853  29.326  35.495  1.00  0.00     0.029 A 
ATOM     34  C   UNL A   1      42.728  28.863  34.196  1.00  0.00     0.049 A 
ATOM     35  H   UNL A   1      41.255  29.323  32.755  1.00  0.00     0.167 HD
ATOM     36  C   UNL A   1      43.389  27.531  32.209  1.00  0.00     0.074 A 
ATOM     37  C   UNL A   1      44.259  26.608  31.509  1.00  0.00     0.031 C 
ATOM     38  C   UNL A   1      43.578  27.944  33.485  1.00  0.00     0.037 A 
BRANCH  25  39
ATOM     39  C   UNL A   1      39.349  31.960  35.513  1.00  0.00     0.064 A 
ATOM     40  C   UNL A   1      38.463  31.507  36.501  1.00  0.00     0.173 A 
ATOM     41  C   UNL A   1      39.823  33.277  35.609  1.00  0.00     0.173 A 
ATOM     42  F   UNL A   1      37.971  30.260  36.447  1.00  0.00    -0.203 F 
ATOM     43  C   UNL A   1      38.053  32.347  37.534  1.00  0.00     0.198 A 
ATOM     44  C   UNL A   1      39.428  34.107  36.654  1.00  0.00     0.198 A 
ATOM     45  F   UNL A   1      40.675  33.757  34.691  1.00  0.00    -0.203 F 
ATOM     46  F   UNL A   1      37.175  31.907  38.446  1.00  0.00    -0.200 F 
ATOM     47  C   UNL A   1      38.539  33.644  37.612  1.00  0.00     0.200 A 
ATOM     48  F   UNL A   1      39.905  35.357  36.733  1.00  0.00    -0.200 F 
ATOM     49  F   UNL A   1      38.145  34.449  38.608  1.00  0.00    -0.200 F 
ENDBRANCH  25  39
BRANCH  26  50
ATOM     50  C   UNL A   1      42.293  26.374  27.783  1.00  0.00     0.064 A 
ATOM     51  C   UNL A   1      41.718  25.113  27.581  1.00  0.00     0.173 A 
ATOM     52  C   UNL A   1      43.246  26.818  26.855  1.00  0.00     0.173 A 
ATOM     53  F   UNL A   1      40.815  24.643  28.455  1.00  0.00    -0.203 F 
ATOM     54  C   UNL A   1      42.084  24.322  26.495  1.00  0.00     0.198 A 
ATOM     55  C   UNL A   1      43.593  26.037  25.755  1.00  0.00     0.198 A 
ATOM     56  F   UNL A   1      43.819  28.021  27.002  1.00  0.00    -0.203 F 
ATOM     57  F   UNL A   1      41.538  23.110  26.338  1.00  0.00    -0.200 F 
ATOM     58  C   UNL A   1      43.015  24.789  25.578  1.00  0.00     0.200 A 
ATOM     59  F   UNL A   1      44.482  26.496  24.863  1.00  0.00    -0.200 F 
ATOM     60  F   UNL A   1      43.357  24.033  24.526  1.00  0.00    -0.200 F 
ENDBRANCH  26  50
BRANCH  38  61
ATOM     61  C   UNL A   1      44.758  27.375  34.212  1.00  0.00     0.064 A 
ATOM     62  C   UNL A   1      44.666  26.170  34.924  1.00  0.00     0.173 A 
ATOM     63  C   UNL A   1      45.997  28.031  34.179  1.00  0.00     0.173 A 
ATOM     64  F   UNL A   1      43.497  25.518  34.998  1.00  0.00    -0.203 F 
ATOM     65  C   UNL A   1      45.770  25.655  35.598  1.00  0.00     0.198 A 
ATOM     66  C   UNL A   1      47.104  27.501  34.835  1.00  0.00     0.198 A 
ATOM     67  F   UNL A   1      46.133  29.184  33.507  1.00  0.00    -0.203 F 
ATOM     68  F   UNL A   1      45.651  24.525  36.309  1.00  0.00    -0.200 F 
ATOM     69  C   UNL A   1      46.988  26.317  35.549  1.00  0.00     0.200 A 
ATOM     70  F   UNL A   1      48.282  28.137  34.782  1.00  0.00    -0.200 F 
ATOM     71  F   UNL A   1      48.049  25.820  36.199  1.00  0.00    -0.200 F 
ENDBRANCH  38  61
ENDBRANCH  12  13
ENDBRANCH   5   7
ENDBRANCH   2   3
ENDBRANCH   1   2
BRANCH   1  72
ATOM     72  C   UNL A   1      30.958  29.365  24.328  1.00  0.00     0.023 C 
BRANCH  72  73
ATOM     73  C   UNL A   1      31.209  28.464  23.124  1.00  0.00     0.116 C 
BRANCH  73  74
ATOM     74  N   UNL A   1      32.482  28.748  22.490  1.00  0.00    -0.352 N 
ATOM     75  C   UNL A   1      33.529  27.885  22.304  1.00  0.00     0.255 C 
ATOM     76  H   UNL A   1      32.606  29.664  22.153  1.00  0.00     0.163 HD
ATOM     77  O   UNL A   1      34.582  28.255  21.795  1.00  0.00    -0.269 OA
BRANCH  75  78
ATOM     78  C   UNL A   1      33.396  26.515  22.815  1.00  0.00     0.081 A 
ATOM     79  C   UNL A   1      33.432  26.340  24.195  1.00  0.00     0.020 A 
ATOM     80  C   UNL A   1      33.170  25.429  21.968  1.00  0.00     0.130 A 
ATOM     81  C   UNL A   1      33.272  25.062  24.728  1.00  0.00     0.027 A 
ATOM     82  C   UNL A   1      33.028  24.149  22.506  1.00  0.00     0.073 A 
ATOM     83  C   UNL A   1      33.139  23.952  23.890  1.00  0.00     0.044 A 
BRANCH  80  84
ATOM     84  O   UNL A   1      33.071  25.624  20.620  1.00  0.00    -0.507 OA
ATOM     85  H   UNL A   1      33.824  25.516  20.074  1.00  0.00     0.293 HD
ENDBRANCH  80  84
BRANCH  83  86
ATOM     86  N   UNL A   1      33.126  22.622  24.341  1.00  0.00    -0.324 N 
ATOM     87  C   UNL A   1      34.116  21.805  24.829  1.00  0.00     0.255 C 
ATOM     88  H   UNL A   1      32.240  22.195  24.300  1.00  0.00     0.170 HD
ATOM     89  O   UNL A   1      33.767  20.677  25.194  1.00  0.00    -0.272 OA
BRANCH  87  90
ATOM     90  C   UNL A   1      35.588  22.252  24.864  1.00  0.00     0.233 C 
ATOM     91  C   UNL A   1      36.531  21.058  25.054  1.00  0.00     0.202 C 
ATOM     92  O   UNL A   1      35.880  23.200  25.910  1.00  0.00    -0.364 OA
ATOM     93  O   UNL A   1      37.888  21.488  24.854  1.00  0.00    -0.376 OA
ATOM     94  C   UNL A   1      37.238  23.655  25.787  1.00  0.00     0.189 C 
ATOM     95  C   UNL A   1      38.227  22.486  25.826  1.00  0.00     0.188 C 
ENDBRANCH  87  90
ENDBRANCH  83  86
ENDBRANCH  75  78
ENDBRANCH  73  74
ENDBRANCH  72  73
ENDBRANCH   1  72
TORSDOF 14
ENDMDL
MODEL 2
REMARK VINA RESULT:     -12.5      2.123      3.319
REMARK SMILES O=C(NCCCCNC(=O)c1ccc(NC(=O)[C@@H]2COCCO2)cc1O)c1ccc(-c2c3nc(c(-c4c(F)c(F)c(F)c(F)c4F)c4ccc([nH]4)c(-c4c(F)c(F)c(F)c(F)c4F)c4nc(c(-c5c(F)c(F)c(F)c(F)c5F)c5ccc2[nH]5)C=C4)C=C3)cc1
REMARK SMILES IDX 5 1 4 2 3 3 1 4 2 5 27 7 28 8 89 9 29 10 88 11 30 12 31 13
REMARK SMILES IDX 32 14 82 15 33 16 87 17 81 18 83 19 34 20 86 21 80 22 79 23
REMARK SMILES IDX 35 25 67 26 47 27 66 28 48 29 51 30 65 31 84 32 49 33 50 34
REMARK SMILES IDX 64 36 85 37 52 38 36 39 37 40 45 41 38 42 39 43 43 44 46 45
REMARK SMILES IDX 40 46 41 47 44 48 42 49 68 50 69 51 77 52 70 53 71 54 75 55
REMARK SMILES IDX 78 56 72 57 73 58 76 59 74 60 53 61 54 62 62 63 55 64 56 65
REMARK SMILES IDX 60 66 63 67 57 68 58 69 61 70 59 71 6 72 7 73 8 74 9 75
REMARK SMILES IDX 10 77 11 78 12 79 25 80 13 81 24 82 14 83 26 84 15 86 16 87
REMARK SMILES IDX 17 89 18 90 19 91 23 92 20 93 22 94 21 95
REMARK H PARENT 3 6 83 24 51 35 8 76 26 85 15 88
REMARK Flexibility Score: inf
ROOT
ATOM      1  C   UNL A   1      31.537  32.063  26.624  1.00  0.00     0.023 C 
ENDROOT
BRANCH   1   2
ATOM      2  C   UNL A   1      32.665  32.790  27.343  1.00  0.00     0.116 C 
BRANCH   2   3
ATOM      3  N   UNL A   1      32.334  34.162  27.700  1.00  0.00    -0.352 N 
ATOM      4  O   UNL A   1      32.491  36.100  28.852  1.00  0.00    -0.269 OA
ATOM      5  C   UNL A   1      32.949  34.989  28.607  1.00  0.00     0.251 C 
ATOM      6  H   UNL A   1      31.563  34.549  27.226  1.00  0.00     0.163 HD
BRANCH   5   7
ATOM      7  C   UNL A   1      34.145  34.505  29.322  1.00  0.00     0.039 A 
ATOM      8  C   UNL A   1      35.413  34.626  28.748  1.00  0.00     0.014 A 
ATOM      9  C   UNL A   1      33.982  33.872  30.557  1.00  0.00     0.014 A 
ATOM     10  C   UNL A   1      36.492  33.974  29.331  1.00  0.00     0.010 A 
ATOM     11  C   UNL A   1      35.083  33.284  31.181  1.00  0.00     0.010 A 
ATOM     12  C   UNL A   1      36.336  33.290  30.549  1.00  0.00    -0.014 A 
BRANCH  12  13
ATOM     13  C   UNL A   1      37.504  32.597  31.145  1.00  0.00     0.031 A 
ATOM     14  C   UNL A   1      37.962  32.918  32.541  1.00  0.00     0.074 A 
ATOM     15  C   UNL A   1      38.125  31.642  30.430  1.00  0.00     0.049 A 
ATOM     16  N   UNL A   1      38.938  32.383  33.231  1.00  0.00    -0.248 NA
ATOM     17  C   UNL A   1      37.237  33.980  33.254  1.00  0.00     0.031 C 
ATOM     18  C   UNL A   1      37.772  31.253  29.064  1.00  0.00     0.029 A 
ATOM     19  N   UNL A   1      39.162  30.809  30.758  1.00  0.00    -0.354 N 
ATOM     20  C   UNL A   1      38.965  33.061  34.442  1.00  0.00     0.074 A 
ATOM     21  C   UNL A   1      37.917  34.059  34.390  1.00  0.00     0.031 C 
ATOM     22  C   UNL A   1      38.539  30.219  28.691  1.00  0.00     0.029 A 
ATOM     23  C   UNL A   1      39.469  29.906  29.771  1.00  0.00     0.049 A 
ATOM     24  H   UNL A   1      39.639  30.852  31.618  1.00  0.00     0.167 HD
ATOM     25  C   UNL A   1      39.787  32.866  35.501  1.00  0.00     0.037 A 
ATOM     26  C   UNL A   1      40.397  28.933  29.740  1.00  0.00     0.037 A 
ATOM     27  C   UNL A   1      40.804  31.848  35.563  1.00  0.00     0.049 A 
ATOM     28  C   UNL A   1      41.283  28.728  30.933  1.00  0.00     0.074 A 
ATOM     29  C   UNL A   1      41.658  31.542  36.609  1.00  0.00     0.029 A 
ATOM     30  N   UNL A   1      41.101  30.966  34.534  1.00  0.00    -0.354 N 
ATOM     31  N   UNL A   1      41.282  29.361  32.081  1.00  0.00    -0.248 NA
ATOM     32  C   UNL A   1      42.301  27.676  30.825  1.00  0.00     0.031 C 
ATOM     33  C   UNL A   1      42.493  30.495  36.201  1.00  0.00     0.029 A 
ATOM     34  C   UNL A   1      42.135  30.125  34.915  1.00  0.00     0.049 A 
ATOM     35  H   UNL A   1      40.645  30.940  33.662  1.00  0.00     0.167 HD
ATOM     36  C   UNL A   1      42.287  28.776  32.838  1.00  0.00     0.074 A 
ATOM     37  C   UNL A   1      42.865  27.726  32.024  1.00  0.00     0.031 C 
ATOM     38  C   UNL A   1      42.694  29.084  34.092  1.00  0.00     0.037 A 
BRANCH  25  39
ATOM     39  C   UNL A   1      39.637  33.786  36.675  1.00  0.00     0.064 A 
ATOM     40  C   UNL A   1      40.256  35.044  36.712  1.00  0.00     0.173 A 
ATOM     41  C   UNL A   1      38.830  33.418  37.763  1.00  0.00     0.173 A 
ATOM     42  F   UNL A   1      41.048  35.436  35.704  1.00  0.00    -0.203 F 
ATOM     43  C   UNL A   1      40.089  35.891  37.806  1.00  0.00     0.198 A 
ATOM     44  C   UNL A   1      38.647  34.276  38.843  1.00  0.00     0.198 A 
ATOM     45  F   UNL A   1      38.212  32.227  37.774  1.00  0.00    -0.203 F 
ATOM     46  F   UNL A   1      40.721  37.072  37.839  1.00  0.00    -0.200 F 
ATOM     47  C   UNL A   1      39.281  35.509  38.867  1.00  0.00     0.200 A 
ATOM     48  F   UNL A   1      37.860  33.910  39.864  1.00  0.00    -0.200 F 
ATOM     49  F   UNL A   1      39.120  36.328  39.916  1.00  0.00    -0.200 F 
ENDBRANCH  25  39
BRANCH  26  50
ATOM     50  C   UNL A   1      40.505  28.066  28.542  1.00  0.00     0.064 A 
ATOM     51  C   UNL A   1      41.290  28.451  27.449  1.00  0.00     0.173 A 
ATOM     52  C   UNL A   1      39.859  26.823  28.482  1.00  0.00     0.173 A 
ATOM     53  F   UNL A   1      41.911  29.640  27.457  1.00  0.00    -0.203 F 
ATOM     54  C   UNL A   1      41.422  27.628  26.333  1.00  0.00     0.198 A 
ATOM     55  C   UNL A   1      40.011  25.989  27.377  1.00  0.00     0.198 A 
ATOM     56  F   UNL A   1      39.102  26.408  29.508  1.00  0.00    -0.203 F 
ATOM     57  F   UNL A   1      42.159  28.030  25.290  1.00  0.00    -0.200 F 
ATOM     58  C   UNL A   1      40.789  26.393  26.302  1.00  0.00     0.200 A 
ATOM     59  F   UNL A   1      39.410  24.791  27.356  1.00  0.00    -0.200 F 
ATOM     60  F   UNL A   1      40.927  25.595  25.236  1.00  0.00    -0.200 F 
ENDBRANCH  26  50
BRANCH  38  61
ATOM     61  C   UNL A   1      43.801  28.255  34.667  1.00  0.00     0.064 A 
ATOM     62  C   UNL A   1      43.537  27.061  35.356  1.00  0.00     0.173 A 
ATOM     63  C   UNL A   1      45.138  28.646  34.510  1.00  0.00     0.173 A 
ATOM     64  F   UNL A   1      42.273  26.657  35.545  1.00  0.00    -0.203 F 
ATOM     65  C   UNL A   1      44.575  26.301  35.888  1.00  0.00     0.198 A 
ATOM     66  C   UNL A   1      46.174  27.872  35.025  1.00  0.00     0.198 A 
ATOM     67  F   UNL A   1      45.438  29.778  33.856  1.00  0.00    -0.203 F 
ATOM     68  F   UNL A   1      44.301  25.187  36.580  1.00  0.00    -0.200 F 
ATOM     69  C   UNL A   1      45.892  26.704  35.717  1.00  0.00     0.200 A 
ATOM     70  F   UNL A   1      47.446  28.259  34.854  1.00  0.00    -0.200 F 
ATOM     71  F   UNL A   1      46.889  25.972  36.231  1.00  0.00    -0.200 F 
ENDBRANCH  38  61
ENDBRANCH  12  13
ENDBRANCH   5   7
ENDBRANCH   2   3
ENDBRANCH   1   2
BRANCH   1  72
ATOM     72  C   UNL A   1      31.671  30.542  26.574  1.00  0.00     0.023 C 
BRANCH  72  73
ATOM     73  C   UNL A   1      33.067  30.036  26.228  1.00  0.00     0.116 C 
BRANCH  73  74
ATOM     74  N   UNL A   1      33.255  29.898  24.797  1.00  0.00    -0.352 N 
ATOM     75  C   UNL A   1      32.808  28.883  23.993  1.00  0.00     0.255 C 
ATOM     76  H   UNL A   1      33.761  30.615  24.352  1.00  0.00     0.163 HD
ATOM     77  O   UNL A   1      33.072  28.849  22.796  1.00  0.00    -0.269 OA
BRANCH  75  78
ATOM     78  C   UNL A   1      32.071  27.779  24.620  1.00  0.00     0.081 A 
ATOM     79  C   UNL A   1      30.713  27.670  24.333  1.00  0.00     0.020 A 
ATOM     80  C   UNL A   1      32.706  26.824  25.416  1.00  0.00     0.130 A 
ATOM     81  C   UNL A   1      29.981  26.616  24.875  1.00  0.00     0.027 A 
ATOM     82  C   UNL A   1      31.964  25.780  25.970  1.00  0.00     0.073 A 
ATOM     83  C   UNL A   1      30.581  25.706  25.749  1.00  0.00     0.044 A 
BRANCH  80  84
ATOM     84  O   UNL A   1      34.052  26.904  25.636  1.00  0.00    -0.507 OA
ATOM     85  H   UNL A   1      34.646  26.899  24.912  1.00  0.00     0.293 HD
ENDBRANCH  80  84
BRANCH  83  86
ATOM     86  N   UNL A   1      29.882  24.712  26.453  1.00  0.00    -0.324 N 
ATOM     87  C   UNL A   1      30.271  23.500  26.968  1.00  0.00     0.255 C 
ATOM     88  H   UNL A   1      28.933  24.924  26.606  1.00  0.00     0.170 HD
ATOM     89  O   UNL A   1      29.412  22.865  27.590  1.00  0.00    -0.272 OA
BRANCH  87  90
ATOM     90  C   UNL A   1      31.685  22.940  26.732  1.00  0.00     0.233 C 
ATOM     91  C   UNL A   1      31.666  21.775  25.735  1.00  0.00     0.202 C 
ATOM     92  O   UNL A   1      32.327  22.466  27.933  1.00  0.00    -0.364 OA
ATOM     93  O   UNL A   1      33.016  21.436  25.375  1.00  0.00    -0.376 OA
ATOM     94  C   UNL A   1      33.681  22.082  27.640  1.00  0.00     0.189 C 
ATOM     95  C   UNL A   1      33.737  21.017  26.542  1.00  0.00     0.188 C 
ENDBRANCH  87  90
ENDBRANCH  83  86
ENDBRANCH  75  78
ENDBRANCH  73  74
ENDBRANCH  72  73
ENDBRANCH   1  72
TORSDOF 14
ENDMDL
MODEL 3
REMARK VINA RESULT:     -12.5      2.113      3.307
REMARK SMILES O=C(NCCCCNC(=O)c1ccc(NC(=O)[C@@H]2COCCO2)cc1O)c1ccc(-c2c3nc(c(-c4c(F)c(F)c(F)c(F)c4F)c4ccc([nH]4)c(-c4c(F)c(F)c(F)c(F)c4F)c4nc(c(-c5c(F)c(F)c(F)c(F)c5F)c5ccc2[nH]5)C=C4)C=C3)cc1
REMARK SMILES IDX 5 1 4 2 3 3 1 4 2 5 27 7 28 8 89 9 29 10 88 11 30 12 31 13
REMARK SMILES IDX 32 14 82 15 33 16 87 17 81 18 83 19 34 20 86 21 80 22 79 23
REMARK SMILES IDX 35 25 67 26 47 27 66 28 48 29 51 30 65 31 84 32 49 33 50 34
REMARK SMILES IDX 64 36 85 37 52 38 36 39 37 40 45 41 38 42 39 43 43 44 46 45
REMARK SMILES IDX 40 46 41 47 44 48 42 49 68 50 69 51 77 52 70 53 71 54 75 55
REMARK SMILES IDX 78 56 72 57 73 58 76 59 74 60 53 61 54 62 62 63 55 64 56 65
REMARK SMILES IDX 60 66 63 67 57 68 58 69 61 70 59 71 6 72 7 73 8 74 9 75
REMARK SMILES IDX 10 77 11 78 12 79 25 80 13 81 24 82 14 83 26 84 15 86 16 87
REMARK SMILES IDX 17 89 18 90 19 91 23 92 20 93 22 94 21 95
REMARK H PARENT 3 6 83 24 51 35 8 76 26 85 15 88
REMARK Flexibility Score: inf
ROOT
ATOM      1  C   UNL A   1      31.620  31.997  26.617  1.00  0.00     0.023 C 
ENDROOT
BRANCH   1   2
ATOM      2  C   UNL A   1      32.732  32.722  27.363  1.00  0.00     0.116 C 
BRANCH   2   3
ATOM      3  N   UNL A   1      32.402  34.099  27.697  1.00  0.00    -0.352 N 
ATOM      4  O   UNL A   1      32.550  36.052  28.826  1.00  0.00    -0.269 OA
ATOM      5  C   UNL A   1      33.007  34.935  28.603  1.00  0.00     0.251 C 
ATOM      6  H   UNL A   1      31.640  34.484  27.206  1.00  0.00     0.163 HD
BRANCH   5   7
ATOM      7  C   UNL A   1      34.189  34.455  29.343  1.00  0.00     0.039 A 
ATOM      8  C   UNL A   1      35.475  34.674  28.846  1.00  0.00     0.014 A 
ATOM      9  C   UNL A   1      33.997  33.727  30.521  1.00  0.00     0.014 A 
ATOM     10  C   UNL A   1      36.555  34.029  29.436  1.00  0.00     0.010 A 
ATOM     11  C   UNL A   1      35.094  33.145  31.158  1.00  0.00     0.010 A 
ATOM     12  C   UNL A   1      36.374  33.253  30.594  1.00  0.00    -0.014 A 
BRANCH  12  13
ATOM     13  C   UNL A   1      37.543  32.572  31.200  1.00  0.00     0.031 A 
ATOM     14  C   UNL A   1      37.992  32.903  32.595  1.00  0.00     0.074 A 
ATOM     15  C   UNL A   1      38.175  31.617  30.492  1.00  0.00     0.049 A 
ATOM     16  N   UNL A   1      38.968  32.378  33.294  1.00  0.00    -0.248 NA
ATOM     17  C   UNL A   1      37.256  33.964  33.299  1.00  0.00     0.031 C 
ATOM     18  C   UNL A   1      37.832  31.218  29.126  1.00  0.00     0.029 A 
ATOM     19  N   UNL A   1      39.216  30.794  30.830  1.00  0.00    -0.354 N 
ATOM     20  C   UNL A   1      38.985  33.063  34.501  1.00  0.00     0.074 A 
ATOM     21  C   UNL A   1      37.929  34.053  34.438  1.00  0.00     0.031 C 
ATOM     22  C   UNL A   1      38.608  30.188  28.763  1.00  0.00     0.029 A 
ATOM     23  C   UNL A   1      39.535  29.888  29.849  1.00  0.00     0.049 A 
ATOM     24  H   UNL A   1      39.688  30.845  31.692  1.00  0.00     0.167 HD
ATOM     25  C   UNL A   1      39.803  32.879  35.565  1.00  0.00     0.037 A 
ATOM     26  C   UNL A   1      40.469  28.921  29.828  1.00  0.00     0.037 A 
ATOM     27  C   UNL A   1      40.827  31.870  35.637  1.00  0.00     0.049 A 
ATOM     28  C   UNL A   1      41.351  28.728  31.026  1.00  0.00     0.074 A 
ATOM     29  C   UNL A   1      41.677  31.574  36.690  1.00  0.00     0.029 A 
ATOM     30  N   UNL A   1      41.135  30.984  34.615  1.00  0.00    -0.354 N 
ATOM     31  N   UNL A   1      41.340  29.367  32.171  1.00  0.00    -0.248 NA
ATOM     32  C   UNL A   1      42.377  27.683  30.929  1.00  0.00     0.031 C 
ATOM     33  C   UNL A   1      42.521  30.531  36.291  1.00  0.00     0.029 A 
ATOM     34  C   UNL A   1      42.173  30.153  35.005  1.00  0.00     0.049 A 
ATOM     35  H   UNL A   1      40.683  30.951  33.741  1.00  0.00     0.167 HD
ATOM     36  C   UNL A   1      42.345  28.794  32.936  1.00  0.00     0.074 A 
ATOM     37  C   UNL A   1      42.935  27.744  32.130  1.00  0.00     0.031 C 
ATOM     38  C   UNL A   1      42.743  29.112  34.191  1.00  0.00     0.037 A 
BRANCH  25  39
ATOM     39  C   UNL A   1      39.639  33.804  36.734  1.00  0.00     0.064 A 
ATOM     40  C   UNL A   1      40.246  35.069  36.766  1.00  0.00     0.173 A 
ATOM     41  C   UNL A   1      38.833  33.435  37.821  1.00  0.00     0.173 A 
ATOM     42  F   UNL A   1      41.037  35.463  35.757  1.00  0.00    -0.203 F 
ATOM     43  C   UNL A   1      40.067  35.920  37.854  1.00  0.00     0.198 A 
ATOM     44  C   UNL A   1      38.639  34.297  38.896  1.00  0.00     0.198 A 
ATOM     45  F   UNL A   1      38.227  32.237  37.838  1.00  0.00    -0.203 F 
ATOM     46  F   UNL A   1      40.688  37.108  37.882  1.00  0.00    -0.200 F 
ATOM     47  C   UNL A   1      39.261  35.536  38.915  1.00  0.00     0.200 A 
ATOM     48  F   UNL A   1      37.853  33.928  39.917  1.00  0.00    -0.200 F 
ATOM     49  F   UNL A   1      39.088  36.359  39.959  1.00  0.00    -0.200 F 
ENDBRANCH  25  39
BRANCH  26  50
ATOM     50  C   UNL A   1      40.590  28.049  28.635  1.00  0.00     0.064 A 
ATOM     51  C   UNL A   1      39.897  26.834  28.564  1.00  0.00     0.173 A 
ATOM     52  C   UNL A   1      41.367  28.427  27.532  1.00  0.00     0.173 A 
ATOM     53  F   UNL A   1      39.156  26.425  29.605  1.00  0.00    -0.203 F 
ATOM     54  C   UNL A   1      39.980  26.025  27.434  1.00  0.00     0.198 A 
ATOM     55  C   UNL A   1      41.430  27.630  26.391  1.00  0.00     0.198 A 
ATOM     56  F   UNL A   1      42.043  29.585  27.551  1.00  0.00    -0.203 F 
ATOM     57  F   UNL A   1      39.328  24.856  27.401  1.00  0.00    -0.200 F 
ATOM     58  C   UNL A   1      40.740  26.428  26.345  1.00  0.00     0.200 A 
ATOM     59  F   UNL A   1      42.153  28.028  25.336  1.00  0.00    -0.200 F 
ATOM     60  F   UNL A   1      40.809  25.655  25.253  1.00  0.00    -0.200 F 
ENDBRANCH  26  50
BRANCH  38  61
ATOM     61  C   UNL A   1      43.853  28.293  34.776  1.00  0.00     0.064 A 
ATOM     62  C   UNL A   1      45.194  28.685  34.652  1.00  0.00     0.173 A 
ATOM     63  C   UNL A   1      43.571  27.117  35.485  1.00  0.00     0.173 A 
ATOM     64  F   UNL A   1      45.512  29.793  33.967  1.00  0.00    -0.203 F 
ATOM     65  C   UNL A   1      46.216  27.914  35.198  1.00  0.00     0.198 A 
ATOM     66  C   UNL A   1      44.594  26.359  36.049  1.00  0.00     0.198 A 
ATOM     67  F   UNL A   1      42.303  26.704  35.633  1.00  0.00    -0.203 F 
ATOM     68  F   UNL A   1      47.494  28.281  35.031  1.00  0.00    -0.200 F 
ATOM     69  C   UNL A   1      45.915  26.755  35.899  1.00  0.00     0.200 A 
ATOM     70  F   UNL A   1      44.303  25.244  36.732  1.00  0.00    -0.200 F 
ATOM     71  F   UNL A   1      46.900  26.013  36.423  1.00  0.00    -0.200 F 
ENDBRANCH  38  61
ENDBRANCH  12  13
ENDBRANCH   5   7
ENDBRANCH   2   3
ENDBRANCH   1   2
BRANCH   1  72
ATOM     72  C   UNL A   1      31.745  30.475  26.580  1.00  0.00     0.023 C 
BRANCH  72  73
ATOM     73  C   UNL A   1      33.108  29.958  26.136  1.00  0.00     0.116 C 
BRANCH  73  74
ATOM     74  N   UNL A   1      33.209  29.864  24.692  1.00  0.00    -0.352 N 
ATOM     75  C   UNL A   1      32.699  28.882  23.885  1.00  0.00     0.255 C 
ATOM     76  H   UNL A   1      33.699  30.589  24.241  1.00  0.00     0.163 HD
ATOM     77  O   UNL A   1      32.891  28.883  22.674  1.00  0.00    -0.269 OA
BRANCH  75  78
ATOM     78  C   UNL A   1      31.983  27.768  24.519  1.00  0.00     0.081 A 
ATOM     79  C   UNL A   1      30.613  27.675  24.292  1.00  0.00     0.020 A 
ATOM     80  C   UNL A   1      32.647  26.791  25.263  1.00  0.00     0.130 A 
ATOM     81  C   UNL A   1      29.898  26.614  24.843  1.00  0.00     0.027 A 
ATOM     82  C   UNL A   1      31.922  25.740  25.826  1.00  0.00     0.073 A 
ATOM     83  C   UNL A   1      30.530  25.679  25.668  1.00  0.00     0.044 A 
BRANCH  80  84
ATOM     84  O   UNL A   1      34.001  26.857  25.423  1.00  0.00    -0.507 OA
ATOM     85  H   UNL A   1      34.508  26.070  25.455  1.00  0.00     0.293 HD
ENDBRANCH  80  84
BRANCH  83  86
ATOM     86  N   UNL A   1      29.856  24.674  26.379  1.00  0.00    -0.324 N 
ATOM     87  C   UNL A   1      30.289  23.505  26.955  1.00  0.00     0.255 C 
ATOM     88  H   UNL A   1      28.892  24.838  26.485  1.00  0.00     0.170 HD
ATOM     89  O   UNL A   1      29.439  22.846  27.565  1.00  0.00    -0.272 OA
BRANCH  87  90
ATOM     90  C   UNL A   1      31.740  23.016  26.799  1.00  0.00     0.233 C 
ATOM     91  C   UNL A   1      31.838  21.871  25.785  1.00  0.00     0.202 C 
ATOM     92  O   UNL A   1      32.329  22.550  28.030  1.00  0.00    -0.364 OA
ATOM     93  O   UNL A   1      33.223  21.603  25.504  1.00  0.00    -0.376 OA
ATOM     94  C   UNL A   1      33.716  22.237  27.816  1.00  0.00     0.189 C 
ATOM     95  C   UNL A   1      33.889  21.196  26.707  1.00  0.00     0.188 C 
ENDBRANCH  87  90
ENDBRANCH  83  86
ENDBRANCH  75  78
ENDBRANCH  73  74
ENDBRANCH  72  73
ENDBRANCH   1  72
TORSDOF 14
ENDMDL
