MODEL 1
REMARK VINA RESULT:     -12.9      0.000      0.000
REMARK SMILES O=C(NCCCCNC(=O)[C@@H]1CN(c2ncccn2)CCN1C(=O)C1CCOCC1)c1ccc(-c2c3nc(c(-c4c(F)c(F)c(F)c(F)c4F)c4ccc([nH]4)c(-c4c(F)c(F)c(F)c(F)c4F)c4nc(c(-c5c(F)c(F)c(F)c(F)c5F)c5ccc2[nH]5)C=C4)C=C3)cc1
REMARK SMILES IDX 5 1 4 2 3 3 1 4 2 5 31 7 32 8 93 9 33 10 92 11 34 12 35 13
REMARK SMILES IDX 36 14 86 15 37 16 91 17 85 18 87 19 38 20 90 21 84 22 83 23
REMARK SMILES IDX 39 25 71 26 51 27 70 28 52 29 55 30 69 31 88 32 53 33 54 34
REMARK SMILES IDX 68 36 89 37 56 38 40 39 41 40 49 41 42 42 43 43 47 44 50 45
REMARK SMILES IDX 44 46 45 47 48 48 46 49 72 50 73 51 81 52 74 53 75 54 79 55
REMARK SMILES IDX 82 56 76 57 77 58 80 59 78 60 57 61 58 62 66 63 59 64 60 65
REMARK SMILES IDX 64 66 67 67 61 68 62 69 65 70 63 71 6 72 7 73 8 74 9 75
REMARK SMILES IDX 10 77 11 78 12 79 22 80 13 81 21 82 20 83 23 84 24 85 25 86
REMARK SMILES IDX 26 87 30 88 27 89 29 90 28 91 14 92 15 93 19 94 16 95 18 96
REMARK SMILES IDX 17 97
REMARK H PARENT 3 6 87 24 55 35 8 76
REMARK Flexibility Score: inf
ROOT
ATOM      1  C   UNL A   1      31.123  31.861  26.287  1.00  0.00     0.023 C 
ENDROOT
BRANCH   1   2
ATOM      2  C   UNL A   1      32.421  32.479  26.818  1.00  0.00     0.116 C 
BRANCH   2   3
ATOM      3  N   UNL A   1      32.242  33.788  27.415  1.00  0.00    -0.352 N 
ATOM      4  O   UNL A   1      32.565  35.547  28.770  1.00  0.00    -0.269 OA
ATOM      5  C   UNL A   1      32.966  34.448  28.372  1.00  0.00     0.251 C 
ATOM      6  H   UNL A   1      31.468  34.289  27.071  1.00  0.00     0.163 HD
BRANCH   5   7
ATOM      7  C   UNL A   1      34.191  33.878  28.982  1.00  0.00     0.039 A 
ATOM      8  C   UNL A   1      35.467  34.406  28.758  1.00  0.00     0.014 A 
ATOM      9  C   UNL A   1      34.033  32.833  29.901  1.00  0.00     0.014 A 
ATOM     10  C   UNL A   1      36.584  33.833  29.385  1.00  0.00     0.010 A 
ATOM     11  C   UNL A   1      35.143  32.290  30.556  1.00  0.00     0.010 A 
ATOM     12  C   UNL A   1      36.435  32.768  30.288  1.00  0.00    -0.014 A 
BRANCH  12  13
ATOM     13  C   UNL A   1      37.608  32.152  30.973  1.00  0.00     0.031 A 
ATOM     14  C   UNL A   1      38.401  31.063  30.301  1.00  0.00     0.074 A 
ATOM     15  C   UNL A   1      37.935  32.525  32.225  1.00  0.00     0.049 A 
ATOM     16  N   UNL A   1      39.402  30.354  30.765  1.00  0.00    -0.248 NA
ATOM     17  C   UNL A   1      38.008  30.716  28.928  1.00  0.00     0.031 C 
ATOM     18  C   UNL A   1      37.245  33.549  33.007  1.00  0.00     0.029 A 
ATOM     19  N   UNL A   1      38.922  32.070  33.067  1.00  0.00    -0.354 N 
ATOM     20  C   UNL A   1      39.750  29.473  29.749  1.00  0.00     0.074 A 
ATOM     21  C   UNL A   1      38.831  29.713  28.655  1.00  0.00     0.031 C 
ATOM     22  C   UNL A   1      37.829  33.648  34.212  1.00  0.00     0.029 A 
ATOM     23  C   UNL A   1      38.908  32.667  34.305  1.00  0.00     0.049 A 
ATOM     24  H   UNL A   1      39.575  31.380  32.809  1.00  0.00     0.167 HD
ATOM     25  C   UNL A   1      40.748  28.554  29.724  1.00  0.00     0.037 A 
ATOM     26  C   UNL A   1      39.663  32.439  35.397  1.00  0.00     0.037 A 
ATOM     27  C   UNL A   1      41.668  28.314  30.806  1.00  0.00     0.049 A 
ATOM     28  C   UNL A   1      40.741  31.390  35.360  1.00  0.00     0.074 A 
ATOM     29  C   UNL A   1      42.739  27.436  30.847  1.00  0.00     0.029 A 
ATOM     30  N   UNL A   1      41.622  28.942  32.041  1.00  0.00    -0.354 N 
ATOM     31  N   UNL A   1      41.095  30.602  34.375  1.00  0.00    -0.248 NA
ATOM     32  C   UNL A   1      41.528  31.202  36.588  1.00  0.00     0.031 C 
ATOM     33  C   UNL A   1      43.309  27.497  32.124  1.00  0.00     0.029 A 
ATOM     34  C   UNL A   1      42.629  28.453  32.860  1.00  0.00     0.049 A 
ATOM     35  H   UNL A   1      40.971  29.634  32.298  1.00  0.00     0.167 HD
ATOM     36  C   UNL A   1      42.159  29.848  34.850  1.00  0.00     0.074 A 
ATOM     37  C   UNL A   1      42.401  30.278  36.212  1.00  0.00     0.031 C 
ATOM     38  C   UNL A   1      42.873  28.889  34.212  1.00  0.00     0.037 A 
BRANCH  25  39
ATOM     39  C   UNL A   1      40.891  27.722  28.481  1.00  0.00     0.064 A 
ATOM     40  C   UNL A   1      40.184  26.521  28.313  1.00  0.00     0.173 A 
ATOM     41  C   UNL A   1      41.713  28.151  27.427  1.00  0.00     0.173 A 
ATOM     42  F   UNL A   1      39.391  26.062  29.294  1.00  0.00    -0.203 F 
ATOM     43  C   UNL A   1      40.321  25.765  27.151  1.00  0.00     0.198 A 
ATOM     44  C   UNL A   1      41.823  27.408  26.255  1.00  0.00     0.198 A 
ATOM     45  F   UNL A   1      42.402  29.297  27.531  1.00  0.00    -0.203 F 
ATOM     46  F   UNL A   1      39.675  24.597  27.034  1.00  0.00    -0.200 F 
ATOM     47  C   UNL A   1      41.135  26.212  26.121  1.00  0.00     0.200 A 
ATOM     48  F   UNL A   1      42.599  27.849  25.255  1.00  0.00    -0.200 F 
ATOM     49  F   UNL A   1      41.261  25.486  25.002  1.00  0.00    -0.200 F 
ENDBRANCH  25  39
BRANCH  26  50
ATOM     50  C   UNL A   1      39.424  33.234  36.631  1.00  0.00     0.064 A 
ATOM     51  C   UNL A   1      40.106  34.438  36.854  1.00  0.00     0.173 A 
ATOM     52  C   UNL A   1      38.509  32.811  37.605  1.00  0.00     0.173 A 
ATOM     53  F   UNL A   1      41.011  34.869  35.963  1.00  0.00    -0.203 F 
ATOM     54  C   UNL A   1      39.887  35.185  38.009  1.00  0.00     0.198 A 
ATOM     55  C   UNL A   1      38.271  33.571  38.747  1.00  0.00     0.198 A 
ATOM     56  F   UNL A   1      37.834  31.664  37.439  1.00  0.00    -0.203 F 
ATOM     57  F   UNL A   1      40.579  36.313  38.216  1.00  0.00    -0.200 F 
ATOM     58  C   UNL A   1      38.964  34.755  38.951  1.00  0.00     0.200 A 
ATOM     59  F   UNL A   1      37.370  33.159  39.649  1.00  0.00    -0.200 F 
ATOM     60  F   UNL A   1      38.746  35.479  40.057  1.00  0.00    -0.200 F 
ENDBRANCH  26  50
BRANCH  38  61
ATOM     61  C   UNL A   1      44.016  28.261  34.957  1.00  0.00     0.064 A 
ATOM     62  C   UNL A   1      45.306  28.811  34.933  1.00  0.00     0.173 A 
ATOM     63  C   UNL A   1      43.806  27.116  35.742  1.00  0.00     0.173 A 
ATOM     64  F   UNL A   1      45.564  29.896  34.187  1.00  0.00    -0.203 F 
ATOM     65  C   UNL A   1      46.347  28.226  35.651  1.00  0.00     0.198 A 
ATOM     66  C   UNL A   1      44.843  26.551  36.479  1.00  0.00     0.198 A 
ATOM     67  F   UNL A   1      42.590  26.552  35.804  1.00  0.00    -0.203 F 
ATOM     68  F   UNL A   1      47.581  28.745  35.581  1.00  0.00    -0.200 F 
ATOM     69  C   UNL A   1      46.114  27.102  36.430  1.00  0.00     0.200 A 
ATOM     70  F   UNL A   1      44.611  25.472  37.241  1.00  0.00    -0.200 F 
ATOM     71  F   UNL A   1      47.115  26.547  37.125  1.00  0.00    -0.200 F 
ENDBRANCH  38  61
ENDBRANCH  12  13
ENDBRANCH   5   7
ENDBRANCH   2   3
ENDBRANCH   1   2
BRANCH   1  72
ATOM     72  C   UNL A   1      31.217  30.427  25.736  1.00  0.00     0.023 C 
BRANCH  72  73
ATOM     73  C   UNL A   1      32.613  29.796  25.752  1.00  0.00     0.116 C 
BRANCH  73  74
ATOM     74  N   UNL A   1      33.247  29.777  24.445  1.00  0.00    -0.354 N 
ATOM     75  C   UNL A   1      33.391  28.719  23.580  1.00  0.00     0.244 C 
ATOM     76  H   UNL A   1      33.622  30.634  24.138  1.00  0.00     0.163 HD
ATOM     77  O   UNL A   1      34.014  28.917  22.536  1.00  0.00    -0.273 OA
BRANCH  75  78
ATOM     78  C   UNL A   1      32.950  27.316  24.019  1.00  0.00     0.193 C 
ATOM     79  C   UNL A   1      33.483  26.135  23.191  1.00  0.00     0.155 C 
ATOM     80  N   UNL A   1      31.584  26.968  24.477  1.00  0.00    -0.327 N 
ATOM     81  N   UNL A   1      33.523  24.951  24.073  1.00  0.00    -0.336 N 
ATOM     82  C   UNL A   1      31.673  25.878  25.483  1.00  0.00     0.142 C 
ATOM     83  C   UNL A   1      32.337  24.604  24.872  1.00  0.00     0.141 C 
BRANCH  80  84
ATOM     84  C   UNL A   1      30.382  27.063  23.803  1.00  0.00     0.226 C 
ATOM     85  O   UNL A   1      29.731  26.023  23.606  1.00  0.00    -0.275 OA
BRANCH  84  86
ATOM     86  C   UNL A   1      29.722  28.342  23.253  1.00  0.00     0.083 C 
ATOM     87  C   UNL A   1      28.205  28.157  23.117  1.00  0.00     0.042 C 
ATOM     88  C   UNL A   1      30.205  29.127  22.048  1.00  0.00     0.042 C 
ATOM     89  C   UNL A   1      27.530  29.518  22.946  1.00  0.00     0.161 C 
ATOM     90  C   UNL A   1      29.465  30.457  21.949  1.00  0.00     0.161 C 
ATOM     91  O   UNL A   1      28.066  30.228  21.830  1.00  0.00    -0.381 OA
ENDBRANCH  84  86
ENDBRANCH  80  84
BRANCH  81  92
ATOM     92  C   UNL A   1      34.685  24.235  24.191  1.00  0.00     0.225 A 
ATOM     93  N   UNL A   1      35.158  23.561  23.131  1.00  0.00    -0.221 NA
ATOM     94  N   UNL A   1      35.305  24.234  25.383  1.00  0.00    -0.221 NA
ATOM     95  C   UNL A   1      36.332  22.914  23.281  1.00  0.00     0.117 A 
ATOM     96  C   UNL A   1      36.453  23.543  25.500  1.00  0.00     0.117 A 
ATOM     97  C   UNL A   1      37.032  22.867  24.459  1.00  0.00     0.040 A 
ENDBRANCH  81  92
ENDBRANCH  75  78
ENDBRANCH  73  74
ENDBRANCH  72  73
ENDBRANCH   1  72
TORSDOF 14
ENDMDL
MODEL 2
REMARK VINA RESULT:     -12.8      0.098      1.910
REMARK SMILES O=C(NCCCCNC(=O)[C@@H]1CN(c2ncccn2)CCN1C(=O)C1CCOCC1)c1ccc(-c2c3nc(c(-c4c(F)c(F)c(F)c(F)c4F)c4ccc([nH]4)c(-c4c(F)c(F)c(F)c(F)c4F)c4nc(c(-c5c(F)c(F)c(F)c(F)c5F)c5ccc2[nH]5)C=C4)C=C3)cc1
REMARK SMILES IDX 5 1 4 2 3 3 1 4 2 5 31 7 32 8 93 9 33 10 92 11 34 12 35 13
REMARK SMILES IDX 36 14 86 15 37 16 91 17 85 18 87 19 38 20 90 21 84 22 83 23
REMARK SMILES IDX 39 25 71 26 51 27 70 28 52 29 55 30 69 31 88 32 53 33 54 34
REMARK SMILES IDX 68 36 89 37 56 38 40 39 41 40 49 41 42 42 43 43 47 44 50 45
REMARK SMILES IDX 44 46 45 47 48 48 46 49 72 50 73 51 81 52 74 53 75 54 79 55
REMARK SMILES IDX 82 56 76 57 77 58 80 59 78 60 57 61 58 62 66 63 59 64 60 65
REMARK SMILES IDX 64 66 67 67 61 68 62 69 65 70 63 71 6 72 7 73 8 74 9 75
REMARK SMILES IDX 10 77 11 78 12 79 22 80 13 81 21 82 20 83 23 84 24 85 25 86
REMARK SMILES IDX 26 87 30 88 27 89 29 90 28 91 14 92 15 93 19 94 16 95 18 96
REMARK SMILES IDX 17 97
REMARK H PARENT 3 6 87 24 55 35 8 76
REMARK Flexibility Score: inf
ROOT
ATOM      1  C   UNL A   1      31.048  31.855  26.462  1.00  0.00     0.023 C 
ENDROOT
BRANCH   1   2
ATOM      2  C   UNL A   1      32.376  32.505  26.865  1.00  0.00     0.116 C 
BRANCH   2   3
ATOM      3  N   UNL A   1      32.226  33.828  27.439  1.00  0.00    -0.352 N 
ATOM      4  O   UNL A   1      32.597  35.606  28.757  1.00  0.00    -0.269 OA
ATOM      5  C   UNL A   1      32.973  34.492  28.376  1.00  0.00     0.251 C 
ATOM      6  H   UNL A   1      31.457  34.336  27.096  1.00  0.00     0.163 HD
BRANCH   5   7
ATOM      7  C   UNL A   1      34.196  33.913  28.981  1.00  0.00     0.039 A 
ATOM      8  C   UNL A   1      35.476  34.428  28.750  1.00  0.00     0.014 A 
ATOM      9  C   UNL A   1      34.032  32.873  29.905  1.00  0.00     0.014 A 
ATOM     10  C   UNL A   1      36.590  33.846  29.372  1.00  0.00     0.010 A 
ATOM     11  C   UNL A   1      35.139  32.321  30.556  1.00  0.00     0.010 A 
ATOM     12  C   UNL A   1      36.435  32.785  30.280  1.00  0.00    -0.014 A 
BRANCH  12  13
ATOM     13  C   UNL A   1      37.605  32.161  30.962  1.00  0.00     0.031 A 
ATOM     14  C   UNL A   1      38.403  31.082  30.278  1.00  0.00     0.074 A 
ATOM     15  C   UNL A   1      37.926  32.515  32.221  1.00  0.00     0.049 A 
ATOM     16  N   UNL A   1      39.402  30.368  30.736  1.00  0.00    -0.248 NA
ATOM     17  C   UNL A   1      38.017  30.757  28.897  1.00  0.00     0.031 C 
ATOM     18  C   UNL A   1      37.231  33.527  33.015  1.00  0.00     0.029 A 
ATOM     19  N   UNL A   1      38.908  32.048  33.062  1.00  0.00    -0.354 N 
ATOM     20  C   UNL A   1      39.756  29.502  29.709  1.00  0.00     0.074 A 
ATOM     21  C   UNL A   1      38.843  29.758  28.614  1.00  0.00     0.031 C 
ATOM     22  C   UNL A   1      37.809  33.608  34.224  1.00  0.00     0.029 A 
ATOM     23  C   UNL A   1      38.888  32.627  34.308  1.00  0.00     0.049 A 
ATOM     24  H   UNL A   1      39.564  31.363  32.796  1.00  0.00     0.167 HD
ATOM     25  C   UNL A   1      40.755  28.586  29.675  1.00  0.00     0.037 A 
ATOM     26  C   UNL A   1      39.638  32.384  35.401  1.00  0.00     0.037 A 
ATOM     27  C   UNL A   1      41.671  28.330  30.757  1.00  0.00     0.049 A 
ATOM     28  C   UNL A   1      40.718  31.337  35.352  1.00  0.00     0.074 A 
ATOM     29  C   UNL A   1      42.742  27.453  30.791  1.00  0.00     0.029 A 
ATOM     30  N   UNL A   1      41.618  28.940  32.002  1.00  0.00    -0.354 N 
ATOM     31  N   UNL A   1      41.077  30.563  34.358  1.00  0.00    -0.248 NA
ATOM     32  C   UNL A   1      41.498  31.130  36.581  1.00  0.00     0.031 C 
ATOM     33  C   UNL A   1      43.306  27.495  32.072  1.00  0.00     0.029 A 
ATOM     34  C   UNL A   1      42.621  28.440  32.819  1.00  0.00     0.049 A 
ATOM     35  H   UNL A   1      40.964  29.627  32.266  1.00  0.00     0.167 HD
ATOM     36  C   UNL A   1      42.139  29.803  34.827  1.00  0.00     0.074 A 
ATOM     37  C   UNL A   1      42.374  30.213  36.196  1.00  0.00     0.031 C 
ATOM     38  C   UNL A   1      42.857  28.855  34.178  1.00  0.00     0.037 A 
BRANCH  25  39
ATOM     39  C   UNL A   1      40.906  27.772  28.421  1.00  0.00     0.064 A 
ATOM     40  C   UNL A   1      41.754  28.175  27.378  1.00  0.00     0.173 A 
ATOM     41  C   UNL A   1      40.226  26.552  28.277  1.00  0.00     0.173 A 
ATOM     42  F   UNL A   1      42.421  29.336  27.461  1.00  0.00    -0.203 F 
ATOM     43  C   UNL A   1      41.890  27.404  26.226  1.00  0.00     0.198 A 
ATOM     44  C   UNL A   1      40.388  25.770  27.137  1.00  0.00     0.198 A 
ATOM     45  F   UNL A   1      39.411  26.114  29.248  1.00  0.00    -0.203 F 
ATOM     46  F   UNL A   1      42.667  27.834  25.222  1.00  0.00    -0.200 F 
ATOM     47  C   UNL A   1      41.212  26.200  26.109  1.00  0.00     0.200 A 
ATOM     48  F   UNL A   1      39.743  24.599  27.033  1.00  0.00    -0.200 F 
ATOM     49  F   UNL A   1      41.348  25.458  25.002  1.00  0.00    -0.200 F 
ENDBRANCH  25  39
BRANCH  26  50
ATOM     50  C   UNL A   1      39.392  33.160  36.644  1.00  0.00     0.064 A 
ATOM     51  C   UNL A   1      38.475  32.711  37.604  1.00  0.00     0.173 A 
ATOM     52  C   UNL A   1      40.073  34.359  36.901  1.00  0.00     0.173 A 
ATOM     53  F   UNL A   1      37.781  31.583  37.389  1.00  0.00    -0.203 F 
ATOM     54  C   UNL A   1      38.241  33.436  38.770  1.00  0.00     0.198 A 
ATOM     55  C   UNL A   1      39.858  35.070  38.079  1.00  0.00     0.198 A 
ATOM     56  F   UNL A   1      40.959  34.832  36.012  1.00  0.00    -0.203 F 
ATOM     57  F   UNL A   1      37.331  33.004  39.653  1.00  0.00    -0.200 F 
ATOM     58  C   UNL A   1      38.938  34.610  39.010  1.00  0.00     0.200 A 
ATOM     59  F   UNL A   1      40.542  36.198  38.314  1.00  0.00    -0.200 F 
ATOM     60  F   UNL A   1      38.720  35.303  40.136  1.00  0.00    -0.200 F 
ENDBRANCH  26  50
BRANCH  38  61
ATOM     61  C   UNL A   1      43.998  28.217  34.919  1.00  0.00     0.064 A 
ATOM     62  C   UNL A   1      43.839  27.019  35.632  1.00  0.00     0.173 A 
ATOM     63  C   UNL A   1      45.279  28.790  34.877  1.00  0.00     0.173 A 
ATOM     64  F   UNL A   1      42.633  26.438  35.715  1.00  0.00    -0.203 F 
ATOM     65  C   UNL A   1      44.916  26.431  36.292  1.00  0.00     0.198 A 
ATOM     66  C   UNL A   1      46.358  28.184  35.516  1.00  0.00     0.198 A 
ATOM     67  F   UNL A   1      45.487  29.933  34.206  1.00  0.00    -0.203 F 
ATOM     68  F   UNL A   1      44.732  25.309  37.002  1.00  0.00    -0.200 F 
ATOM     69  C   UNL A   1      46.175  27.009  36.227  1.00  0.00     0.200 A 
ATOM     70  F   UNL A   1      47.576  28.739  35.440  1.00  0.00    -0.200 F 
ATOM     71  F   UNL A   1      47.210  26.436  36.857  1.00  0.00    -0.200 F 
ENDBRANCH  38  61
ENDBRANCH  12  13
ENDBRANCH   5   7
ENDBRANCH   2   3
ENDBRANCH   1   2
BRANCH   1  72
ATOM     72  C   UNL A   1      31.138  30.548  25.654  1.00  0.00     0.023 C 
BRANCH  72  73
ATOM     73  C   UNL A   1      32.482  29.817  25.715  1.00  0.00     0.116 C 
BRANCH  73  74
ATOM     74  N   UNL A   1      33.172  29.781  24.437  1.00  0.00    -0.354 N 
ATOM     75  C   UNL A   1      33.372  28.707  23.603  1.00  0.00     0.244 C 
ATOM     76  H   UNL A   1      33.544  30.638  24.127  1.00  0.00     0.163 HD
ATOM     77  O   UNL A   1      34.036  28.894  22.582  1.00  0.00    -0.273 OA
BRANCH  75  78
ATOM     78  C   UNL A   1      32.939  27.306  24.055  1.00  0.00     0.193 C 
ATOM     79  C   UNL A   1      33.458  26.122  23.223  1.00  0.00     0.155 C 
ATOM     80  N   UNL A   1      31.581  26.959  24.538  1.00  0.00    -0.327 N 
ATOM     81  N   UNL A   1      33.512  24.941  24.109  1.00  0.00    -0.336 N 
ATOM     82  C   UNL A   1      31.686  25.874  25.545  1.00  0.00     0.142 C 
ATOM     83  C   UNL A   1      32.340  24.597  24.928  1.00  0.00     0.141 C 
BRANCH  80  84
ATOM     84  C   UNL A   1      30.368  27.052  23.884  1.00  0.00     0.226 C 
ATOM     85  O   UNL A   1      29.700  26.015  23.726  1.00  0.00    -0.275 OA
BRANCH  84  86
ATOM     86  C   UNL A   1      29.713  28.325  23.312  1.00  0.00     0.083 C 
ATOM     87  C   UNL A   1      28.204  28.124  23.126  1.00  0.00     0.042 C 
ATOM     88  C   UNL A   1      30.228  29.114  22.122  1.00  0.00     0.042 C 
ATOM     89  C   UNL A   1      27.522  29.479  22.932  1.00  0.00     0.161 C 
ATOM     90  C   UNL A   1      29.479  30.437  21.998  1.00  0.00     0.161 C 
ATOM     91  O   UNL A   1      28.087  30.194  21.834  1.00  0.00    -0.381 OA
ENDBRANCH  84  86
ENDBRANCH  80  84
BRANCH  81  92
ATOM     92  C   UNL A   1      34.677  24.225  24.209  1.00  0.00     0.225 A 
ATOM     93  N   UNL A   1      35.165  23.600  23.127  1.00  0.00    -0.221 NA
ATOM     94  N   UNL A   1      35.282  24.174  25.408  1.00  0.00    -0.221 NA
ATOM     95  C   UNL A   1      36.341  22.952  23.263  1.00  0.00     0.117 A 
ATOM     96  C   UNL A   1      36.432  23.484  25.509  1.00  0.00     0.117 A 
ATOM     97  C   UNL A   1      37.026  22.856  24.447  1.00  0.00     0.040 A 
ENDBRANCH  81  92
ENDBRANCH  75  78
ENDBRANCH  73  74
ENDBRANCH  72  73
ENDBRANCH   1  72
TORSDOF 14
ENDMDL
MODEL 3
REMARK VINA RESULT:     -12.6      5.514     11.136
REMARK SMILES O=C(NCCCCNC(=O)[C@@H]1CN(c2ncccn2)CCN1C(=O)C1CCOCC1)c1ccc(-c2c3nc(c(-c4c(F)c(F)c(F)c(F)c4F)c4ccc([nH]4)c(-c4c(F)c(F)c(F)c(F)c4F)c4nc(c(-c5c(F)c(F)c(F)c(F)c5F)c5ccc2[nH]5)C=C4)C=C3)cc1
REMARK SMILES IDX 5 1 4 2 3 3 1 4 2 5 31 7 32 8 93 9 33 10 92 11 34 12 35 13
REMARK SMILES IDX 36 14 86 15 37 16 91 17 85 18 87 19 38 20 90 21 84 22 83 23
REMARK SMILES IDX 39 25 71 26 51 27 70 28 52 29 55 30 69 31 88 32 53 33 54 34
REMARK SMILES IDX 68 36 89 37 56 38 40 39 41 40 49 41 42 42 43 43 47 44 50 45
REMARK SMILES IDX 44 46 45 47 48 48 46 49 72 50 73 51 81 52 74 53 75 54 79 55
REMARK SMILES IDX 82 56 76 57 77 58 80 59 78 60 57 61 58 62 66 63 59 64 60 65
REMARK SMILES IDX 64 66 67 67 61 68 62 69 65 70 63 71 6 72 7 73 8 74 9 75
REMARK SMILES IDX 10 77 11 78 12 79 22 80 13 81 21 82 20 83 23 84 24 85 25 86
REMARK SMILES IDX 26 87 30 88 27 89 29 90 28 91 14 92 15 93 19 94 16 95 18 96
REMARK SMILES IDX 17 97
REMARK H PARENT 3 6 87 24 55 35 8 76
REMARK Flexibility Score: inf
ROOT
ATOM      1  C   UNL A   1      37.778  19.243  25.000  1.00  0.00     0.023 C 
ENDROOT
BRANCH   1   2
ATOM      2  C   UNL A   1      38.967  19.838  25.764  1.00  0.00     0.116 C 
BRANCH   2   3
ATOM      3  N   UNL A   1      40.147  18.996  25.752  1.00  0.00    -0.352 N 
ATOM      4  O   UNL A   1      42.307  18.394  25.858  1.00  0.00    -0.269 OA
ATOM      5  C   UNL A   1      41.463  19.286  26.000  1.00  0.00     0.251 C 
ATOM      6  H   UNL A   1      39.973  18.053  25.529  1.00  0.00     0.163 HD
BRANCH   5   7
ATOM      7  C   UNL A   1      41.922  20.639  26.395  1.00  0.00     0.039 A 
ATOM      8  C   UNL A   1      42.219  20.985  27.717  1.00  0.00     0.014 A 
ATOM      9  C   UNL A   1      42.166  21.565  25.372  1.00  0.00     0.014 A 
ATOM     10  C   UNL A   1      42.672  22.278  28.020  1.00  0.00     0.010 A 
ATOM     11  C   UNL A   1      42.657  22.840  25.672  1.00  0.00     0.010 A 
ATOM     12  C   UNL A   1      42.893  23.220  27.002  1.00  0.00    -0.014 A 
BRANCH  12  13
ATOM     13  C   UNL A   1      43.386  24.595  27.302  1.00  0.00     0.031 A 
ATOM     14  C   UNL A   1      42.450  25.640  27.850  1.00  0.00     0.074 A 
ATOM     15  C   UNL A   1      44.661  24.934  27.031  1.00  0.00     0.049 A 
ATOM     16  N   UNL A   1      42.672  26.908  28.101  1.00  0.00    -0.248 NA
ATOM     17  C   UNL A   1      41.078  25.202  28.146  1.00  0.00     0.031 C 
ATOM     18  C   UNL A   1      45.672  24.035  26.478  1.00  0.00     0.029 A 
ATOM     19  N   UNL A   1      45.318  26.134  27.165  1.00  0.00    -0.354 N 
ATOM     20  C   UNL A   1      41.470  27.421  28.570  1.00  0.00     0.074 A 
ATOM     21  C   UNL A   1      40.511  26.335  28.539  1.00  0.00     0.031 C 
ATOM     22  C   UNL A   1      46.822  24.711  26.324  1.00  0.00     0.029 A 
ATOM     23  C   UNL A   1      46.620  26.101  26.727  1.00  0.00     0.049 A 
ATOM     24  H   UNL A   1      44.896  26.941  27.540  1.00  0.00     0.167 HD
ATOM     25  C   UNL A   1      41.190  28.677  28.997  1.00  0.00     0.037 A 
ATOM     26  C   UNL A   1      47.541  27.080  26.639  1.00  0.00     0.037 A 
ATOM     27  C   UNL A   1      42.139  29.761  29.037  1.00  0.00     0.049 A 
ATOM     28  C   UNL A   1      47.198  28.476  27.085  1.00  0.00     0.074 A 
ATOM     29  C   UNL A   1      41.953  31.053  29.500  1.00  0.00     0.029 A 
ATOM     30  N   UNL A   1      43.448  29.685  28.586  1.00  0.00    -0.354 N 
ATOM     31  N   UNL A   1      46.075  28.935  27.577  1.00  0.00    -0.248 NA
ATOM     32  C   UNL A   1      48.256  29.490  26.965  1.00  0.00     0.031 C 
ATOM     33  C   UNL A   1      43.134  31.773  29.283  1.00  0.00     0.029 A 
ATOM     34  C   UNL A   1      44.074  30.914  28.736  1.00  0.00     0.049 A 
ATOM     35  H   UNL A   1      43.871  28.877  28.215  1.00  0.00     0.167 HD
ATOM     36  C   UNL A   1      46.296  30.277  27.853  1.00  0.00     0.074 A 
ATOM     37  C   UNL A   1      47.667  30.560  27.480  1.00  0.00     0.031 C 
ATOM     38  C   UNL A   1      45.440  31.190  28.372  1.00  0.00     0.037 A 
BRANCH  25  39
ATOM     39  C   UNL A   1      39.784  28.958  29.449  1.00  0.00     0.064 A 
ATOM     40  C   UNL A   1      38.802  29.416  28.558  1.00  0.00     0.173 A 
ATOM     41  C   UNL A   1      39.404  28.725  30.780  1.00  0.00     0.173 A 
ATOM     42  F   UNL A   1      39.114  29.663  27.276  1.00  0.00    -0.203 F 
ATOM     43  C   UNL A   1      37.501  29.663  28.990  1.00  0.00     0.198 A 
ATOM     44  C   UNL A   1      38.095  28.944  31.201  1.00  0.00     0.198 A 
ATOM     45  F   UNL A   1      40.301  28.276  31.671  1.00  0.00    -0.203 F 
ATOM     46  F   UNL A   1      36.592  30.149  28.133  1.00  0.00    -0.200 F 
ATOM     47  C   UNL A   1      37.147  29.421  30.309  1.00  0.00     0.200 A 
ATOM     48  F   UNL A   1      37.752  28.695  32.473  1.00  0.00    -0.200 F 
ATOM     49  F   UNL A   1      35.894  29.654  30.722  1.00  0.00    -0.200 F 
ENDBRANCH  25  39
BRANCH  26  50
ATOM     50  C   UNL A   1      48.893  26.767  26.106  1.00  0.00     0.064 A 
ATOM     51  C   UNL A   1      49.205  26.993  24.759  1.00  0.00     0.173 A 
ATOM     52  C   UNL A   1      49.899  26.245  26.932  1.00  0.00     0.173 A 
ATOM     53  F   UNL A   1      48.267  27.466  23.925  1.00  0.00    -0.203 F 
ATOM     54  C   UNL A   1      50.470  26.700  24.254  1.00  0.00     0.198 A 
ATOM     55  C   UNL A   1      51.172  25.977  26.433  1.00  0.00     0.198 A 
ATOM     56  F   UNL A   1      49.649  26.009  28.228  1.00  0.00    -0.203 F 
ATOM     57  F   UNL A   1      50.731  26.889  22.954  1.00  0.00    -0.200 F 
ATOM     58  C   UNL A   1      51.455  26.199  25.094  1.00  0.00     0.200 A 
ATOM     59  F   UNL A   1      52.124  25.505  27.249  1.00  0.00    -0.200 F 
ATOM     60  F   UNL A   1      52.674  25.926  24.611  1.00  0.00    -0.200 F 
ENDBRANCH  26  50
BRANCH  38  61
ATOM     61  C   UNL A   1      45.964  32.577  28.613  1.00  0.00     0.064 A 
ATOM     62  C   UNL A   1      45.843  33.592  27.652  1.00  0.00     0.173 A 
ATOM     63  C   UNL A   1      46.557  32.907  29.842  1.00  0.00     0.173 A 
ATOM     64  F   UNL A   1      45.297  33.326  26.455  1.00  0.00    -0.203 F 
ATOM     65  C   UNL A   1      46.314  34.878  27.905  1.00  0.00     0.198 A 
ATOM     66  C   UNL A   1      47.002  34.201  30.101  1.00  0.00     0.198 A 
ATOM     67  F   UNL A   1      46.694  31.976  30.799  1.00  0.00    -0.203 F 
ATOM     68  F   UNL A   1      46.225  35.821  26.956  1.00  0.00    -0.200 F 
ATOM     69  C   UNL A   1      46.885  35.184  29.131  1.00  0.00     0.200 A 
ATOM     70  F   UNL A   1      47.542  34.496  31.292  1.00  0.00    -0.200 F 
ATOM     71  F   UNL A   1      47.330  36.424  29.374  1.00  0.00    -0.200 F 
ENDBRANCH  38  61
ENDBRANCH  12  13
ENDBRANCH   5   7
ENDBRANCH   2   3
ENDBRANCH   1   2
BRANCH   1  72
ATOM     72  C   UNL A   1      36.543  20.147  24.837  1.00  0.00     0.023 C 
BRANCH  72  73
ATOM     73  C   UNL A   1      36.736  21.617  25.220  1.00  0.00     0.116 C 
BRANCH  73  74
ATOM     74  N   UNL A   1      36.098  21.969  26.477  1.00  0.00    -0.354 N 
ATOM     75  C   UNL A   1      34.809  22.395  26.692  1.00  0.00     0.244 C 
ATOM     76  H   UNL A   1      36.661  21.891  27.281  1.00  0.00     0.163 HD
ATOM     77  O   UNL A   1      34.490  22.690  27.845  1.00  0.00    -0.273 OA
BRANCH  75  78
ATOM     78  C   UNL A   1      33.891  22.667  25.492  1.00  0.00     0.193 C 
ATOM     79  C   UNL A   1      32.782  23.712  25.695  1.00  0.00     0.155 C 
ATOM     80  N   UNL A   1      33.368  21.622  24.579  1.00  0.00    -0.327 N 
ATOM     81  N   UNL A   1      32.468  24.294  24.374  1.00  0.00    -0.336 N 
ATOM     82  C   UNL A   1      33.212  22.200  23.220  1.00  0.00     0.142 C 
ATOM     83  C   UNL A   1      32.214  23.401  23.232  1.00  0.00     0.141 C 
BRANCH  80  84
ATOM     84  C   UNL A   1      32.568  20.532  24.861  1.00  0.00     0.226 C 
ATOM     85  O   UNL A   1      31.403  20.737  25.245  1.00  0.00    -0.275 OA
BRANCH  84  86
ATOM     86  C   UNL A   1      32.949  19.043  24.748  1.00  0.00     0.083 C 
ATOM     87  C   UNL A   1      32.682  18.519  23.332  1.00  0.00     0.042 C 
ATOM     88  C   UNL A   1      32.544  17.960  25.730  1.00  0.00     0.042 C 
ATOM     89  C   UNL A   1      33.405  17.188  23.127  1.00  0.00     0.161 C 
ATOM     90  C   UNL A   1      33.301  16.669  25.438  1.00  0.00     0.161 C 
ATOM     91  O   UNL A   1      33.022  16.230  24.114  1.00  0.00    -0.381 OA
ENDBRANCH  84  86
ENDBRANCH  80  84
BRANCH  81  92
ATOM     92  C   UNL A   1      32.488  25.655  24.214  1.00  0.00     0.225 A 
ATOM     93  N   UNL A   1      31.388  26.371  24.495  1.00  0.00    -0.221 NA
ATOM     94  N   UNL A   1      33.623  26.218  23.766  1.00  0.00    -0.221 NA
ATOM     95  C   UNL A   1      31.474  27.712  24.371  1.00  0.00     0.117 A 
ATOM     96  C   UNL A   1      33.652  27.555  23.619  1.00  0.00     0.117 A 
ATOM     97  C   UNL A   1      32.593  28.368  23.928  1.00  0.00     0.040 A 
ENDBRANCH  81  92
ENDBRANCH  75  78
ENDBRANCH  73  74
ENDBRANCH  72  73
ENDBRANCH   1  72
TORSDOF 14
ENDMDL
