MODEL 1
REMARK VINA RESULT:     -13.0      0.000      0.000
REMARK SMILES CC(C)N1C[C@@H](C(=O)N2CCC(C(=O)NCCCCNC(=O)c3ccc(-c4c5nc(c(-c6c(F)c(F)c(F)c(F)c6F)c6ccc([nH]6)c(-c6c(F)c(F)c(F)c(F)c6F)c6nc(c(-c7c(F)c(F)c(F)c(F)c7F)c7ccc4[nH]7)C=C6)C=C5)cc3)CC2)CC1=O
REMARK SMILES IDX 17 1 16 2 15 3 13 4 14 5 12 7 7 8 8 9 9 10 10 11 87 12 11 13
REMARK SMILES IDX 86 14 6 15 4 16 5 17 89 18 88 19 90 20 2 21 1 22 3 23 18 24
REMARK SMILES IDX 19 25 20 26 21 27 22 29 23 30 24 31 85 32 25 33 84 34 26 35
REMARK SMILES IDX 27 36 28 37 78 38 29 39 83 40 77 41 79 42 30 43 82 44 76 45
REMARK SMILES IDX 75 46 31 48 63 49 43 50 62 51 44 52 47 53 61 54 80 55 45 56
REMARK SMILES IDX 46 57 60 59 81 60 48 61 32 62 33 63 41 64 34 65 35 66 39 67
REMARK SMILES IDX 42 68 36 69 37 70 40 71 38 72 64 73 65 74 73 75 66 76 67 77
REMARK SMILES IDX 71 78 74 79 68 80 69 81 72 82 70 83 49 84 50 85 58 86 51 87
REMARK SMILES IDX 52 88 56 89 59 90 53 91 54 92 57 93 55 94
REMARK H PARENT 15 6 20 28 79 47 47 58
REMARK Flexibility Score: inf
ROOT
ATOM      1  C   UNL A   1      31.779  30.497  26.803  1.00  0.00     0.023 C 
ENDROOT
BRANCH   1   2
ATOM      2  C   UNL A   1      32.301  29.875  25.510  1.00  0.00     0.116 C 
BRANCH   2   3
ATOM      3  N   UNL A   1      31.290  29.052  24.864  1.00  0.00    -0.356 N 
ATOM      4  C   UNL A   1      31.315  27.742  24.490  1.00  0.00     0.223 C 
ATOM      5  O   UNL A   1      30.320  27.287  23.923  1.00  0.00    -0.275 OA
ATOM      6  H   UNL A   1      30.448  29.519  24.663  1.00  0.00     0.163 HD
BRANCH   4   7
ATOM      7  C   UNL A   1      32.509  26.846  24.789  1.00  0.00     0.082 C 
ATOM      8  C   UNL A   1      32.901  22.882  24.721  1.00  0.00     0.227 C 
ATOM      9  O   UNL A   1      31.794  22.638  25.212  1.00  0.00    -0.274 OA
ATOM     10  N   UNL A   1      33.477  24.131  24.875  1.00  0.00    -0.342 N 
ATOM     11  C   UNL A   1      33.282  24.836  26.135  1.00  0.00     0.120 C 
ATOM     12  C   UNL A   1      33.929  24.969  23.778  1.00  0.00     0.120 C 
ATOM     13  C   UNL A   1      32.266  25.959  26.016  1.00  0.00     0.035 C 
ATOM     14  C   UNL A   1      32.957  26.114  23.517  1.00  0.00     0.035 C 
BRANCH   8  15
ATOM     15  C   UNL A   1      33.754  21.725  24.198  1.00  0.00     0.107 C 
ATOM     16  N   UNL A   1      34.104  19.424  24.567  1.00  0.00    -0.339 N 
ATOM     17  C   UNL A   1      33.050  20.405  24.490  1.00  0.00     0.133 C 
ATOM     18  C   UNL A   1      35.340  20.020  24.753  1.00  0.00     0.223 C 
ATOM     19  C   UNL A   1      35.186  21.515  24.665  1.00  0.00     0.115 C 
ATOM     20  O   UNL A   1      36.397  19.454  25.001  1.00  0.00    -0.275 OA
BRANCH  16  21
ATOM     21  C   UNL A   1      33.874  17.983  24.734  1.00  0.00     0.078 C 
ATOM     22  C   UNL A   1      32.529  17.639  25.381  1.00  0.00     0.031 C 
ATOM     23  C   UNL A   1      33.990  17.246  23.396  1.00  0.00     0.031 C 
ENDBRANCH  16  21
ENDBRANCH   8  15
ENDBRANCH   4   7
ENDBRANCH   2   3
ENDBRANCH   1   2
BRANCH   1  24
ATOM     24  C   UNL A   1      31.616  32.015  26.753  1.00  0.00     0.023 C 
BRANCH  24  25
ATOM     25  C   UNL A   1      32.807  32.806  27.275  1.00  0.00     0.116 C 
BRANCH  25  26
ATOM     26  N   UNL A   1      32.471  34.178  27.626  1.00  0.00    -0.352 N 
ATOM     27  C   UNL A   1      33.015  34.977  28.602  1.00  0.00     0.251 C 
ATOM     28  H   UNL A   1      31.755  34.591  27.090  1.00  0.00     0.163 HD
ATOM     29  O   UNL A   1      32.529  36.073  28.856  1.00  0.00    -0.269 OA
BRANCH  27  30
ATOM     30  C   UNL A   1      34.176  34.487  29.373  1.00  0.00     0.039 A 
ATOM     31  C   UNL A   1      33.956  33.889  30.615  1.00  0.00     0.014 A 
ATOM     32  C   UNL A   1      35.469  34.586  28.854  1.00  0.00     0.014 A 
ATOM     33  C   UNL A   1      35.028  33.323  31.306  1.00  0.00     0.010 A 
ATOM     34  C   UNL A   1      36.521  33.949  29.503  1.00  0.00     0.010 A 
ATOM     35  C   UNL A   1      36.312  33.312  30.736  1.00  0.00    -0.014 A 
BRANCH  35  36
ATOM     36  C   UNL A   1      37.448  32.637  31.412  1.00  0.00     0.031 A 
ATOM     37  C   UNL A   1      38.143  31.482  30.748  1.00  0.00     0.074 A 
ATOM     38  C   UNL A   1      37.807  33.018  32.653  1.00  0.00     0.049 A 
ATOM     39  N   UNL A   1      39.107  30.722  31.203  1.00  0.00    -0.248 NA
ATOM     40  C   UNL A   1      37.674  31.112  29.403  1.00  0.00     0.031 C 
ATOM     41  C   UNL A   1      37.175  34.090  33.425  1.00  0.00     0.029 A 
ATOM     42  N   UNL A   1      38.786  32.542  33.489  1.00  0.00    -0.354 N 
ATOM     43  C   UNL A   1      39.345  29.780  30.211  1.00  0.00     0.074 A 
ATOM     44  C   UNL A   1      38.390  30.027  29.154  1.00  0.00     0.031 C 
ATOM     45  C   UNL A   1      37.795  34.205  34.609  1.00  0.00     0.029 A 
ATOM     46  C   UNL A   1      38.841  33.190  34.699  1.00  0.00     0.049 A 
ATOM     47  H   UNL A   1      39.391  31.805  33.245  1.00  0.00     0.167 HD
ATOM     48  C   UNL A   1      40.292  28.814  30.175  1.00  0.00     0.037 A 
ATOM     49  C   UNL A   1      39.640  32.984  35.764  1.00  0.00     0.037 A 
ATOM     50  C   UNL A   1      41.257  28.588  31.218  1.00  0.00     0.049 A 
ATOM     51  C   UNL A   1      40.682  31.901  35.699  1.00  0.00     0.074 A 
ATOM     52  C   UNL A   1      42.300  27.679  31.248  1.00  0.00     0.029 A 
ATOM     53  N   UNL A   1      41.295  29.278  32.423  1.00  0.00    -0.354 N 
ATOM     54  N   UNL A   1      40.949  31.064  34.725  1.00  0.00    -0.248 NA
ATOM     55  C   UNL A   1      41.540  31.735  36.880  1.00  0.00     0.031 C 
ATOM     56  C   UNL A   1      42.934  27.780  32.491  1.00  0.00     0.029 A 
ATOM     57  C   UNL A   1      42.326  28.794  33.212  1.00  0.00     0.049 A 
ATOM     58  H   UNL A   1      40.680  30.003  32.677  1.00  0.00     0.167 HD
ATOM     59  C   UNL A   1      42.021  30.297  35.161  1.00  0.00     0.074 A 
ATOM     60  C   UNL A   1      42.365  30.777  36.483  1.00  0.00     0.031 C 
ATOM     61  C   UNL A   1      42.660  29.286  34.524  1.00  0.00     0.037 A 
BRANCH  48  62
ATOM     62  C   UNL A   1      40.333  27.923  28.965  1.00  0.00     0.064 A 
ATOM     63  C   UNL A   1      41.089  28.254  27.830  1.00  0.00     0.173 A 
ATOM     64  C   UNL A   1      39.637  26.705  28.955  1.00  0.00     0.173 A 
ATOM     65  F   UNL A   1      41.765  29.413  27.783  1.00  0.00    -0.203 F 
ATOM     66  C   UNL A   1      41.122  27.415  26.719  1.00  0.00     0.198 A 
ATOM     67  C   UNL A   1      39.698  25.852  27.856  1.00  0.00     0.198 A 
ATOM     68  F   UNL A   1      38.902  26.337  30.015  1.00  0.00    -0.203 F 
ATOM     69  F   UNL A   1      41.809  27.778  25.628  1.00  0.00    -0.200 F 
ATOM     70  C   UNL A   1      40.433  26.212  26.736  1.00  0.00     0.200 A 
ATOM     71  F   UNL A   1      39.045  24.683  27.880  1.00  0.00    -0.200 F 
ATOM     72  F   UNL A   1      40.474  25.400  25.670  1.00  0.00    -0.200 F 
ENDBRANCH  48  62
BRANCH  49  73
ATOM     73  C   UNL A   1      39.500  33.837  36.973  1.00  0.00     0.064 A 
ATOM     74  C   UNL A   1      38.722  33.423  38.063  1.00  0.00     0.173 A 
ATOM     75  C   UNL A   1      40.139  35.083  37.065  1.00  0.00     0.173 A 
ATOM     76  F   UNL A   1      38.074  32.249  38.015  1.00  0.00    -0.203 F 
ATOM     77  C   UNL A   1      38.567  34.231  39.187  1.00  0.00     0.198 A 
ATOM     78  C   UNL A   1      40.009  35.877  38.203  1.00  0.00     0.198 A 
ATOM     79  F   UNL A   1      40.900  35.524  36.053  1.00  0.00    -0.203 F 
ATOM     80  F   UNL A   1      37.778  33.831  40.194  1.00  0.00    -0.200 F 
ATOM     81  C   UNL A   1      39.217  35.455  39.259  1.00  0.00     0.200 A 
ATOM     82  F   UNL A   1      40.652  37.051  38.275  1.00  0.00    -0.200 F 
ATOM     83  F   UNL A   1      39.072  36.229  40.343  1.00  0.00    -0.200 F 
ENDBRANCH  49  73
BRANCH  61  84
ATOM     84  C   UNL A   1      43.826  28.653  35.231  1.00  0.00     0.064 A 
ATOM     85  C   UNL A   1      45.119  29.187  35.146  1.00  0.00     0.173 A 
ATOM     86  C   UNL A   1      43.634  27.520  36.036  1.00  0.00     0.173 A 
ATOM     87  F   UNL A   1      45.359  30.260  34.377  1.00  0.00    -0.203 F 
ATOM     88  C   UNL A   1      46.183  28.594  35.821  1.00  0.00     0.198 A 
ATOM     89  C   UNL A   1      44.694  26.950  36.737  1.00  0.00     0.198 A 
ATOM     90  F   UNL A   1      42.415  26.974  36.158  1.00  0.00    -0.203 F 
ATOM     91  F   UNL A   1      47.420  29.092  35.685  1.00  0.00    -0.200 F 
ATOM     92  C   UNL A   1      45.969  27.483  36.621  1.00  0.00     0.200 A 
ATOM     93  F   UNL A   1      44.480  25.886  37.523  1.00  0.00    -0.200 F 
ATOM     94  F   UNL A   1      46.992  26.919  37.277  1.00  0.00    -0.200 F 
ENDBRANCH  61  84
ENDBRANCH  35  36
ENDBRANCH  27  30
ENDBRANCH  25  26
ENDBRANCH  24  25
ENDBRANCH   1  24
TORSDOF 13
ENDMDL
MODEL 2
REMARK VINA RESULT:     -13.0      5.593     11.482
REMARK SMILES CC(C)N1C[C@@H](C(=O)N2CCC(C(=O)NCCCCNC(=O)c3ccc(-c4c5nc(c(-c6c(F)c(F)c(F)c(F)c6F)c6ccc([nH]6)c(-c6c(F)c(F)c(F)c(F)c6F)c6nc(c(-c7c(F)c(F)c(F)c(F)c7F)c7ccc4[nH]7)C=C6)C=C5)cc3)CC2)CC1=O
REMARK SMILES IDX 17 1 16 2 15 3 13 4 14 5 12 7 7 8 8 9 9 10 10 11 87 12 11 13
REMARK SMILES IDX 86 14 6 15 4 16 5 17 89 18 88 19 90 20 2 21 1 22 3 23 18 24
REMARK SMILES IDX 19 25 20 26 21 27 22 29 23 30 24 31 85 32 25 33 84 34 26 35
REMARK SMILES IDX 27 36 28 37 78 38 29 39 83 40 77 41 79 42 30 43 82 44 76 45
REMARK SMILES IDX 75 46 31 48 63 49 43 50 62 51 44 52 47 53 61 54 80 55 45 56
REMARK SMILES IDX 46 57 60 59 81 60 48 61 32 62 33 63 41 64 34 65 35 66 39 67
REMARK SMILES IDX 42 68 36 69 37 70 40 71 38 72 64 73 65 74 73 75 66 76 67 77
REMARK SMILES IDX 71 78 74 79 68 80 69 81 72 82 70 83 49 84 50 85 58 86 51 87
REMARK SMILES IDX 52 88 56 89 59 90 53 91 54 92 57 93 55 94
REMARK H PARENT 15 6 20 28 79 47 47 58
REMARK Flexibility Score: inf
ROOT
ATOM      1  C   UNL A   1      37.343  21.159  24.602  1.00  0.00     0.023 C 
ENDROOT
BRANCH   1   2
ATOM      2  C   UNL A   1      36.987  22.079  25.767  1.00  0.00     0.116 C 
BRANCH   2   3
ATOM      3  N   UNL A   1      35.625  21.861  26.228  1.00  0.00    -0.356 N 
ATOM      4  C   UNL A   1      34.483  22.569  26.002  1.00  0.00     0.223 C 
ATOM      5  O   UNL A   1      33.447  22.179  26.543  1.00  0.00    -0.275 OA
ATOM      6  H   UNL A   1      35.508  21.068  26.800  1.00  0.00     0.163 HD
BRANCH   4   7
ATOM      7  C   UNL A   1      34.464  23.781  25.081  1.00  0.00     0.082 C 
ATOM      8  C   UNL A   1      31.458  26.075  23.823  1.00  0.00     0.227 C 
ATOM      9  O   UNL A   1      30.655  25.151  23.664  1.00  0.00    -0.274 OA
ATOM     10  N   UNL A   1      32.817  25.821  23.877  1.00  0.00    -0.342 N 
ATOM     11  C   UNL A   1      33.364  24.776  23.019  1.00  0.00     0.120 C 
ATOM     12  C   UNL A   1      33.687  26.220  24.970  1.00  0.00     0.120 C 
ATOM     13  C   UNL A   1      33.683  23.507  23.789  1.00  0.00     0.035 C 
ATOM     14  C   UNL A   1      34.041  25.034  25.861  1.00  0.00     0.035 C 
BRANCH   8  15
ATOM     15  C   UNL A   1      30.973  27.518  23.672  1.00  0.00     0.107 C 
ATOM     16  N   UNL A   1      29.072  28.725  22.979  1.00  0.00    -0.339 N 
ATOM     17  C   UNL A   1      29.451  27.547  23.722  1.00  0.00     0.133 C 
ATOM     18  C   UNL A   1      30.107  29.173  22.176  1.00  0.00     0.223 C 
ATOM     19  C   UNL A   1      31.341  28.360  22.461  1.00  0.00     0.115 C 
ATOM     20  O   UNL A   1      30.046  30.054  21.327  1.00  0.00    -0.275 OA
BRANCH  16  21
ATOM     21  C   UNL A   1      27.690  29.206  22.853  1.00  0.00     0.078 C 
ATOM     22  C   UNL A   1      26.649  28.281  23.491  1.00  0.00     0.031 C 
ATOM     23  C   UNL A   1      27.538  30.613  23.441  1.00  0.00     0.031 C 
ENDBRANCH  16  21
ENDBRANCH   8  15
ENDBRANCH   4   7
ENDBRANCH   2   3
ENDBRANCH   1   2
BRANCH   1  24
ATOM     24  C   UNL A   1      38.155  19.927  24.995  1.00  0.00     0.023 C 
BRANCH  24  25
ATOM     25  C   UNL A   1      39.336  20.203  25.915  1.00  0.00     0.116 C 
BRANCH  25  26
ATOM     26  N   UNL A   1      40.312  19.123  25.930  1.00  0.00    -0.352 N 
ATOM     27  C   UNL A   1      41.673  19.193  26.103  1.00  0.00     0.251 C 
ATOM     28  H   UNL A   1      39.946  18.218  25.799  1.00  0.00     0.163 HD
ATOM     29  O   UNL A   1      42.373  18.196  25.959  1.00  0.00    -0.269 OA
BRANCH  27  30
ATOM     30  C   UNL A   1      42.295  20.492  26.427  1.00  0.00     0.039 A 
ATOM     31  C   UNL A   1      42.831  21.260  25.391  1.00  0.00     0.014 A 
ATOM     32  C   UNL A   1      42.316  20.964  27.742  1.00  0.00     0.014 A 
ATOM     33  C   UNL A   1      43.323  22.537  25.665  1.00  0.00     0.010 A 
ATOM     34  C   UNL A   1      42.729  22.267  27.999  1.00  0.00     0.010 A 
ATOM     35  C   UNL A   1      43.237  23.067  26.964  1.00  0.00    -0.014 A 
BRANCH  35  36
ATOM     36  C   UNL A   1      43.672  24.455  27.258  1.00  0.00     0.031 A 
ATOM     37  C   UNL A   1      42.683  25.460  27.777  1.00  0.00     0.074 A 
ATOM     38  C   UNL A   1      44.939  24.828  26.993  1.00  0.00     0.049 A 
ATOM     39  N   UNL A   1      42.852  26.734  28.030  1.00  0.00    -0.248 NA
ATOM     40  C   UNL A   1      41.313  24.979  28.017  1.00  0.00     0.031 C 
ATOM     41  C   UNL A   1      45.978  23.957  26.438  1.00  0.00     0.029 A 
ATOM     42  N   UNL A   1      45.568  26.038  27.145  1.00  0.00    -0.354 N 
ATOM     43  C   UNL A   1      41.612  27.205  28.440  1.00  0.00     0.074 A 
ATOM     44  C   UNL A   1      40.687  26.097  28.351  1.00  0.00     0.031 C 
ATOM     45  C   UNL A   1      47.119  24.654  26.319  1.00  0.00     0.029 A 
ATOM     46  C   UNL A   1      46.883  26.030  26.749  1.00  0.00     0.049 A 
ATOM     47  H   UNL A   1      45.118  26.837  27.505  1.00  0.00     0.167 HD
ATOM     48  C   UNL A   1      41.282  28.443  28.878  1.00  0.00     0.037 A 
ATOM     49  C   UNL A   1      47.794  27.022  26.726  1.00  0.00     0.037 A 
ATOM     50  C   UNL A   1      42.212  29.535  28.989  1.00  0.00     0.049 A 
ATOM     51  C   UNL A   1      47.400  28.389  27.213  1.00  0.00     0.074 A 
ATOM     52  C   UNL A   1      41.991  30.809  29.484  1.00  0.00     0.029 A 
ATOM     53  N   UNL A   1      43.542  29.485  28.596  1.00  0.00    -0.354 N 
ATOM     54  N   UNL A   1      46.243  28.805  27.672  1.00  0.00    -0.248 NA
ATOM     55  C   UNL A   1      48.439  29.427  27.188  1.00  0.00     0.031 C 
ATOM     56  C   UNL A   1      43.171  31.545  29.338  1.00  0.00     0.029 A 
ATOM     57  C   UNL A   1      44.146  30.713  28.810  1.00  0.00     0.049 A 
ATOM     58  H   UNL A   1      43.989  28.692  28.219  1.00  0.00     0.167 HD
ATOM     59  C   UNL A   1      46.423  30.138  28.016  1.00  0.00     0.074 A 
ATOM     60  C   UNL A   1      47.806  30.458  27.727  1.00  0.00     0.031 C 
ATOM     61  C   UNL A   1      45.525  31.016  28.524  1.00  0.00     0.037 A 
BRANCH  48  62
ATOM     62  C   UNL A   1      39.851  28.684  29.269  1.00  0.00     0.064 A 
ATOM     63  C   UNL A   1      39.391  28.438  30.572  1.00  0.00     0.173 A 
ATOM     64  C   UNL A   1      38.937  29.204  28.340  1.00  0.00     0.173 A 
ATOM     65  F   UNL A   1      40.221  27.930  31.497  1.00  0.00    -0.203 F 
ATOM     66  C   UNL A   1      38.064  28.673  30.921  1.00  0.00     0.198 A 
ATOM     67  C   UNL A   1      37.619  29.470  28.701  1.00  0.00     0.198 A 
ATOM     68  F   UNL A   1      39.325  29.463  27.082  1.00  0.00    -0.203 F 
ATOM     69  F   UNL A   1      37.636  28.381  32.157  1.00  0.00    -0.200 F 
ATOM     70  C   UNL A   1      37.182  29.196  29.989  1.00  0.00     0.200 A 
ATOM     71  F   UNL A   1      36.772  29.990  27.803  1.00  0.00    -0.200 F 
ATOM     72  F   UNL A   1      35.907  29.432  30.329  1.00  0.00    -0.200 F 
ENDBRANCH  48  62
BRANCH  49  73
ATOM     73  C   UNL A   1      49.175  26.752  26.246  1.00  0.00     0.064 A 
ATOM     74  C   UNL A   1      49.535  26.993  24.913  1.00  0.00     0.173 A 
ATOM     75  C   UNL A   1      50.160  26.245  27.106  1.00  0.00     0.173 A 
ATOM     76  F   UNL A   1      48.622  27.457  24.046  1.00  0.00    -0.203 F 
ATOM     77  C   UNL A   1      50.820  26.717  24.452  1.00  0.00     0.198 A 
ATOM     78  C   UNL A   1      51.455  25.999  26.651  1.00  0.00     0.198 A 
ATOM     79  F   UNL A   1      49.869  26.002  28.392  1.00  0.00    -0.203 F 
ATOM     80  F   UNL A   1      51.124  26.912  23.162  1.00  0.00    -0.200 F 
ATOM     81  C   UNL A   1      51.781  26.226  25.324  1.00  0.00     0.200 A 
ATOM     82  F   UNL A   1      52.384  25.540  27.501  1.00  0.00    -0.200 F 
ATOM     83  F   UNL A   1      53.019  25.966  24.882  1.00  0.00    -0.200 F 
ENDBRANCH  49  73
BRANCH  61  84
ATOM     84  C   UNL A   1      46.015  32.401  28.839  1.00  0.00     0.064 A 
ATOM     85  C   UNL A   1      46.601  32.714  30.074  1.00  0.00     0.173 A 
ATOM     86  C   UNL A   1      45.933  33.417  27.874  1.00  0.00     0.173 A 
ATOM     87  F   UNL A   1      46.690  31.782  31.035  1.00  0.00    -0.203 F 
ATOM     88  C   UNL A   1      47.063  34.000  30.341  1.00  0.00     0.198 A 
ATOM     89  C   UNL A   1      46.428  34.693  28.133  1.00  0.00     0.198 A 
ATOM     90  F   UNL A   1      45.389  33.169  26.674  1.00  0.00    -0.203 F 
ATOM     91  F   UNL A   1      47.573  34.289  31.546  1.00  0.00    -0.200 F 
ATOM     92  C   UNL A   1      46.984  34.985  29.369  1.00  0.00     0.200 A 
ATOM     93  F   UNL A   1      46.364  35.639  27.185  1.00  0.00    -0.200 F 
ATOM     94  F   UNL A   1      47.438  36.219  29.624  1.00  0.00    -0.200 F 
ENDBRANCH  61  84
ENDBRANCH  35  36
ENDBRANCH  27  30
ENDBRANCH  25  26
ENDBRANCH  24  25
ENDBRANCH   1  24
TORSDOF 13
ENDMDL
MODEL 3
REMARK VINA RESULT:     -13.0      0.137      1.128
REMARK SMILES CC(C)N1C[C@@H](C(=O)N2CCC(C(=O)NCCCCNC(=O)c3ccc(-c4c5nc(c(-c6c(F)c(F)c(F)c(F)c6F)c6ccc([nH]6)c(-c6c(F)c(F)c(F)c(F)c6F)c6nc(c(-c7c(F)c(F)c(F)c(F)c7F)c7ccc4[nH]7)C=C6)C=C5)cc3)CC2)CC1=O
REMARK SMILES IDX 17 1 16 2 15 3 13 4 14 5 12 7 7 8 8 9 9 10 10 11 87 12 11 13
REMARK SMILES IDX 86 14 6 15 4 16 5 17 89 18 88 19 90 20 2 21 1 22 3 23 18 24
REMARK SMILES IDX 19 25 20 26 21 27 22 29 23 30 24 31 85 32 25 33 84 34 26 35
REMARK SMILES IDX 27 36 28 37 78 38 29 39 83 40 77 41 79 42 30 43 82 44 76 45
REMARK SMILES IDX 75 46 31 48 63 49 43 50 62 51 44 52 47 53 61 54 80 55 45 56
REMARK SMILES IDX 46 57 60 59 81 60 48 61 32 62 33 63 41 64 34 65 35 66 39 67
REMARK SMILES IDX 42 68 36 69 37 70 40 71 38 72 64 73 65 74 73 75 66 76 67 77
REMARK SMILES IDX 71 78 74 79 68 80 69 81 72 82 70 83 49 84 50 85 58 86 51 87
REMARK SMILES IDX 52 88 56 89 59 90 53 91 54 92 57 93 55 94
REMARK H PARENT 15 6 20 28 79 47 47 58
REMARK Flexibility Score: inf
ROOT
ATOM      1  C   UNL A   1      31.784  30.473  26.883  1.00  0.00     0.023 C 
ENDROOT
BRANCH   1   2
ATOM      2  C   UNL A   1      32.373  29.885  25.604  1.00  0.00     0.116 C 
BRANCH   2   3
ATOM      3  N   UNL A   1      31.397  29.083  24.882  1.00  0.00    -0.356 N 
ATOM      4  C   UNL A   1      31.473  27.813  24.395  1.00  0.00     0.223 C 
ATOM      5  O   UNL A   1      30.498  27.372  23.785  1.00  0.00    -0.275 OA
ATOM      6  H   UNL A   1      30.539  29.535  24.716  1.00  0.00     0.163 HD
BRANCH   4   7
ATOM      7  C   UNL A   1      32.699  26.940  24.624  1.00  0.00     0.082 C 
ATOM      8  C   UNL A   1      33.113  22.980  24.774  1.00  0.00     0.227 C 
ATOM      9  O   UNL A   1      32.066  22.769  25.394  1.00  0.00    -0.274 OA
ATOM     10  N   UNL A   1      33.692  24.237  24.784  1.00  0.00    -0.342 N 
ATOM     11  C   UNL A   1      33.626  25.024  26.009  1.00  0.00     0.120 C 
ATOM     12  C   UNL A   1      34.019  25.002  23.593  1.00  0.00     0.120 C 
ATOM     13  C   UNL A   1      32.595  26.135  25.925  1.00  0.00     0.035 C 
ATOM     14  C   UNL A   1      33.015  26.126  23.362  1.00  0.00     0.035 C 
BRANCH   8  15
ATOM     15  C   UNL A   1      33.915  21.792  24.240  1.00  0.00     0.107 C 
ATOM     16  N   UNL A   1      34.204  19.485  24.623  1.00  0.00    -0.339 N 
ATOM     17  C   UNL A   1      33.178  20.498  24.564  1.00  0.00     0.133 C 
ATOM     18  C   UNL A   1      35.462  20.044  24.769  1.00  0.00     0.223 C 
ATOM     19  C   UNL A   1      35.351  21.542  24.669  1.00  0.00     0.115 C 
ATOM     20  O   UNL A   1      36.507  19.447  24.994  1.00  0.00    -0.275 OA
BRANCH  16  21
ATOM     21  C   UNL A   1      33.933  18.054  24.811  1.00  0.00     0.078 C 
ATOM     22  C   UNL A   1      32.524  17.750  25.329  1.00  0.00     0.031 C 
ATOM     23  C   UNL A   1      34.170  17.272  23.515  1.00  0.00     0.031 C 
ENDBRANCH  16  21
ENDBRANCH   8  15
ENDBRANCH   4   7
ENDBRANCH   2   3
ENDBRANCH   1   2
BRANCH   1  24
ATOM     24  C   UNL A   1      31.581  31.987  26.848  1.00  0.00     0.023 C 
BRANCH  24  25
ATOM     25  C   UNL A   1      32.795  32.808  27.259  1.00  0.00     0.116 C 
BRANCH  25  26
ATOM     26  N   UNL A   1      32.465  34.183  27.599  1.00  0.00    -0.352 N 
ATOM     27  C   UNL A   1      33.008  34.985  28.573  1.00  0.00     0.251 C 
ATOM     28  H   UNL A   1      31.755  34.597  27.057  1.00  0.00     0.163 HD
ATOM     29  O   UNL A   1      32.527  36.085  28.818  1.00  0.00    -0.269 OA
BRANCH  27  30
ATOM     30  C   UNL A   1      34.162  34.493  29.355  1.00  0.00     0.039 A 
ATOM     31  C   UNL A   1      33.929  33.894  30.594  1.00  0.00     0.014 A 
ATOM     32  C   UNL A   1      35.460  34.591  28.847  1.00  0.00     0.014 A 
ATOM     33  C   UNL A   1      34.995  33.326  31.294  1.00  0.00     0.010 A 
ATOM     34  C   UNL A   1      36.505  33.953  29.506  1.00  0.00     0.010 A 
ATOM     35  C   UNL A   1      36.284  33.314  30.736  1.00  0.00    -0.014 A 
BRANCH  35  36
ATOM     36  C   UNL A   1      37.413  32.637  31.422  1.00  0.00     0.031 A 
ATOM     37  C   UNL A   1      38.107  31.477  30.765  1.00  0.00     0.074 A 
ATOM     38  C   UNL A   1      37.766  33.021  32.664  1.00  0.00     0.049 A 
ATOM     39  N   UNL A   1      39.066  30.715  31.229  1.00  0.00    -0.248 NA
ATOM     40  C   UNL A   1      37.646  31.105  29.419  1.00  0.00     0.031 C 
ATOM     41  C   UNL A   1      37.133  34.098  33.427  1.00  0.00     0.029 A 
ATOM     42  N   UNL A   1      38.737  32.544  33.507  1.00  0.00    -0.354 N 
ATOM     43  C   UNL A   1      39.307  29.769  30.242  1.00  0.00     0.074 A 
ATOM     44  C   UNL A   1      38.359  30.016  29.178  1.00  0.00     0.031 C 
ATOM     45  C   UNL A   1      37.746  34.215  34.615  1.00  0.00     0.029 A 
ATOM     46  C   UNL A   1      38.788  33.196  34.715  1.00  0.00     0.049 A 
ATOM     47  H   UNL A   1      39.341  31.804  33.269  1.00  0.00     0.167 HD
ATOM     48  C   UNL A   1      40.251  28.799  30.215  1.00  0.00     0.037 A 
ATOM     49  C   UNL A   1      39.578  32.991  35.786  1.00  0.00     0.037 A 
ATOM     50  C   UNL A   1      41.208  28.574  31.266  1.00  0.00     0.049 A 
ATOM     51  C   UNL A   1      40.617  31.904  35.731  1.00  0.00     0.074 A 
ATOM     52  C   UNL A   1      42.247  27.660  31.305  1.00  0.00     0.029 A 
ATOM     53  N   UNL A   1      41.241  29.267  32.468  1.00  0.00    -0.354 N 
ATOM     54  N   UNL A   1      40.887  31.063  34.761  1.00  0.00    -0.248 NA
ATOM     55  C   UNL A   1      41.467  31.739  36.918  1.00  0.00     0.031 C 
ATOM     56  C   UNL A   1      42.873  27.763  32.551  1.00  0.00     0.029 A 
ATOM     57  C   UNL A   1      42.265  28.783  33.266  1.00  0.00     0.049 A 
ATOM     58  H   UNL A   1      40.627  29.995  32.715  1.00  0.00     0.167 HD
ATOM     59  C   UNL A   1      41.953  30.293  35.207  1.00  0.00     0.074 A 
ATOM     60  C   UNL A   1      42.291  30.777  36.530  1.00  0.00     0.031 C 
ATOM     61  C   UNL A   1      42.593  29.278  34.578  1.00  0.00     0.037 A 
BRANCH  48  62
ATOM     62  C   UNL A   1      40.296  27.904  29.009  1.00  0.00     0.064 A 
ATOM     63  C   UNL A   1      41.035  28.244  27.865  1.00  0.00     0.173 A 
ATOM     64  C   UNL A   1      39.621  26.674  29.010  1.00  0.00     0.173 A 
ATOM     65  F   UNL A   1      41.690  29.414  27.807  1.00  0.00    -0.203 F 
ATOM     66  C   UNL A   1      41.072  27.400  26.758  1.00  0.00     0.198 A 
ATOM     67  C   UNL A   1      39.687  25.818  27.914  1.00  0.00     0.198 A 
ATOM     68  F   UNL A   1      38.904  26.297  30.079  1.00  0.00    -0.203 F 
ATOM     69  F   UNL A   1      41.742  27.771  25.658  1.00  0.00    -0.200 F 
ATOM     70  C   UNL A   1      40.405  26.186  26.786  1.00  0.00     0.200 A 
ATOM     71  F   UNL A   1      39.055  24.637  27.949  1.00  0.00    -0.200 F 
ATOM     72  F   UNL A   1      40.450  25.370  25.723  1.00  0.00    -0.200 F 
ENDBRANCH  48  62
BRANCH  49  73
ATOM     73  C   UNL A   1      39.435  33.849  36.991  1.00  0.00     0.064 A 
ATOM     74  C   UNL A   1      40.061  35.101  37.065  1.00  0.00     0.173 A 
ATOM     75  C   UNL A   1      38.672  33.436  38.094  1.00  0.00     0.173 A 
ATOM     76  F   UNL A   1      40.818  35.531  36.044  1.00  0.00    -0.203 F 
ATOM     77  C   UNL A   1      39.950  35.897  38.202  1.00  0.00     0.198 A 
ATOM     78  C   UNL A   1      38.537  34.247  39.220  1.00  0.00     0.198 A 
ATOM     79  F   UNL A   1      38.048  32.250  38.074  1.00  0.00    -0.203 F 
ATOM     80  F   UNL A   1      40.599  37.068  38.264  1.00  0.00    -0.200 F 
ATOM     81  C   UNL A   1      39.183  35.472  39.277  1.00  0.00     0.200 A 
ATOM     82  F   UNL A   1      37.781  33.840  40.248  1.00  0.00    -0.200 F 
ATOM     83  F   UNL A   1      39.072  36.241  40.369  1.00  0.00    -0.200 F 
ENDBRANCH  49  73
BRANCH  61  84
ATOM     84  C   UNL A   1      43.751  28.642  35.294  1.00  0.00     0.064 A 
ATOM     85  C   UNL A   1      45.065  29.099  35.122  1.00  0.00     0.173 A 
ATOM     86  C   UNL A   1      43.534  27.589  36.195  1.00  0.00     0.173 A 
ATOM     87  F   UNL A   1      45.329  30.094  34.261  1.00  0.00    -0.203 F 
ATOM     88  C   UNL A   1      46.124  28.507  35.807  1.00  0.00     0.198 A 
ATOM     89  C   UNL A   1      44.591  27.022  36.903  1.00  0.00     0.198 A 
ATOM     90  F   UNL A   1      42.295  27.119  36.402  1.00  0.00    -0.203 F 
ATOM     91  F   UNL A   1      47.378  28.927  35.589  1.00  0.00    -0.200 F 
ATOM     92  C   UNL A   1      45.885  27.476  36.702  1.00  0.00     0.200 A 
ATOM     93  F   UNL A   1      44.354  26.036  37.780  1.00  0.00    -0.200 F 
ATOM     94  F   UNL A   1      46.903  26.913  37.367  1.00  0.00    -0.200 F 
ENDBRANCH  61  84
ENDBRANCH  35  36
ENDBRANCH  27  30
ENDBRANCH  25  26
ENDBRANCH  24  25
ENDBRANCH   1  24
TORSDOF 13
ENDMDL
