MODEL 1
REMARK VINA RESULT:     -14.1      0.000      0.000
REMARK SMILES O=C(NCCCCNC(=O)c1ccc(-c2c3nc(c(-c4c(F)c(F)c(F)c(F)c4F)c4ccc([nH]4)c(-c4c(F)c(F)c(F)c(F)c4F)c4nc(c(-c5c(F)c(F)c(F)c(F)c5F)c5ccc2[nH]5)C=C4)C=C3)cc1)C1=Cc2cc(Cl)cc(C#Cc3ccccc3)c2O[C@@H]1C(F)(F)F
REMARK SMILES IDX 5 1 4 2 3 3 1 4 2 5 74 7 75 8 92 9 76 10 91 11 77 12 90 13
REMARK SMILES IDX 78 14 81 15 79 16 80 17 93 18 94 19 95 20 96 21 82 22 83 23
REMARK SMILES IDX 84 24 85 25 89 26 86 27 88 28 87 29 6 30 7 31 8 32 9 33
REMARK SMILES IDX 10 35 11 36 12 37 73 38 13 39 72 40 14 41 15 42 16 43 66 44
REMARK SMILES IDX 17 45 71 46 65 47 67 48 18 49 70 50 64 51 63 52 19 54 51 55
REMARK SMILES IDX 31 56 50 57 32 58 35 59 49 60 68 61 33 62 34 63 48 65 69 66
REMARK SMILES IDX 36 67 20 68 21 69 29 70 22 71 23 72 27 73 30 74 24 75 25 76
REMARK SMILES IDX 28 77 26 78 52 79 53 80 61 81 54 82 55 83 59 84 62 85 56 86
REMARK SMILES IDX 57 87 60 88 58 89 37 90 38 91 46 92 39 93 40 94 44 95 47 96
REMARK SMILES IDX 41 97 42 98 45 99 43 100
REMARK H PARENT 3 6 8 34 67 53 35 64
REMARK Flexibility Score: inf
ROOT
ATOM      1  C   UNL A   1      32.136  27.859  27.052  1.00  0.00     0.023 C 
ENDROOT
BRANCH   1   2
ATOM      2  C   UNL A   1      31.116  26.881  26.487  1.00  0.00     0.116 C 
BRANCH   2   3
ATOM      3  N   UNL A   1      31.286  25.498  26.877  1.00  0.00    -0.352 N 
ATOM      4  O   UNL A   1      32.325  23.520  27.052  1.00  0.00    -0.270 OA
ATOM      5  C   UNL A   1      32.163  24.558  26.409  1.00  0.00     0.251 C 
ATOM      6  H   UNL A   1      30.679  25.186  27.587  1.00  0.00     0.163 HD
BRANCH   5   7
ATOM      7  C   UNL A   1      33.010  24.774  25.198  1.00  0.00     0.067 C 
ATOM      8  C   UNL A   1      34.302  25.147  25.261  1.00  0.00     0.025 C 
ATOM      9  C   UNL A   1      32.584  23.909  24.037  1.00  0.00     0.314 C 
ATOM     10  C   UNL A   1      35.218  24.021  24.902  1.00  0.00     0.020 A 
ATOM     11  O   UNL A   1      33.384  22.694  23.986  1.00  0.00    -0.474 OA
ATOM     12  C   UNL A   1      36.520  24.089  25.414  1.00  0.00     0.032 A 
ATOM     13  C   UNL A   1      34.667  22.783  24.488  1.00  0.00     0.143 A 
ATOM     14  C   UNL A   1      37.222  22.909  25.636  1.00  0.00     0.043 A 
ATOM     15  C   UNL A   1      35.367  21.598  24.766  1.00  0.00     0.069 A 
ATOM     16  Cl  UNL A   1      38.729  22.967  26.465  1.00  0.00    -0.084 Cl
ATOM     17  C   UNL A   1      36.647  21.672  25.342  1.00  0.00     0.041 A 
BRANCH   9  18
ATOM     18  C   UNL A   1      32.588  24.705  22.718  1.00  0.00     0.429 C 
ATOM     19  F   UNL A   1      33.331  24.096  21.766  1.00  0.00    -0.167 F 
ATOM     20  F   UNL A   1      31.333  24.830  22.217  1.00  0.00    -0.167 F 
ATOM     21  F   UNL A   1      33.075  25.961  22.866  1.00  0.00    -0.167 F 
ENDBRANCH   9  18
BRANCH  15  22
ATOM     22  C   UNL A   1      34.756  20.295  24.704  1.00  0.00    -0.058 C 
ATOM     23  C   UNL A   1      34.321  19.177  24.789  1.00  0.00    -0.062 C 
BRANCH  23  24
ATOM     24  C   UNL A   1      33.888  17.814  24.937  1.00  0.00     0.025 A 
ATOM     25  C   UNL A   1      32.592  17.526  25.371  1.00  0.00     0.017 A 
ATOM     26  C   UNL A   1      34.770  16.762  24.705  1.00  0.00     0.017 A 
ATOM     27  C   UNL A   1      32.170  16.207  25.566  1.00  0.00     0.001 A 
ATOM     28  C   UNL A   1      34.361  15.440  24.919  1.00  0.00     0.001 A 
ATOM     29  C   UNL A   1      33.062  15.163  25.348  1.00  0.00     0.000 A 
ENDBRANCH  23  24
ENDBRANCH  15  22
ENDBRANCH   5   7
ENDBRANCH   2   3
ENDBRANCH   1   2
BRANCH   1  30
ATOM     30  C   UNL A   1      31.676  29.307  27.045  1.00  0.00     0.023 C 
BRANCH  30  31
ATOM     31  C   UNL A   1      32.649  30.319  26.448  1.00  0.00     0.116 C 
BRANCH  31  32
ATOM     32  N   UNL A   1      32.556  31.674  26.977  1.00  0.00    -0.352 N 
ATOM     33  C   UNL A   1      33.516  32.401  27.654  1.00  0.00     0.251 C 
ATOM     34  H   UNL A   1      31.696  32.131  26.833  1.00  0.00     0.163 HD
ATOM     35  O   UNL A   1      33.278  33.536  28.053  1.00  0.00    -0.269 OA
BRANCH  33  36
ATOM     36  C   UNL A   1      34.833  31.783  27.938  1.00  0.00     0.039 A 
ATOM     37  C   UNL A   1      35.967  32.589  28.049  1.00  0.00     0.014 A 
ATOM     38  C   UNL A   1      34.926  30.416  28.196  1.00  0.00     0.014 A 
ATOM     39  C   UNL A   1      37.151  32.039  28.547  1.00  0.00     0.010 A 
ATOM     40  C   UNL A   1      36.076  29.880  28.753  1.00  0.00     0.010 A 
ATOM     41  C   UNL A   1      37.189  30.697  28.967  1.00  0.00    -0.014 A 
BRANCH  41  42
ATOM     42  C   UNL A   1      38.323  30.168  29.759  1.00  0.00     0.031 A 
ATOM     43  C   UNL A   1      38.587  30.649  31.152  1.00  0.00     0.074 A 
ATOM     44  C   UNL A   1      39.190  29.333  29.154  1.00  0.00     0.049 A 
ATOM     45  N   UNL A   1      39.535  30.293  31.981  1.00  0.00    -0.248 NA
ATOM     46  C   UNL A   1      37.689  31.689  31.674  1.00  0.00     0.031 C 
ATOM     47  C   UNL A   1      39.097  28.891  27.761  1.00  0.00     0.029 A 
ATOM     48  N   UNL A   1      40.324  28.722  29.622  1.00  0.00    -0.354 N 
ATOM     49  C   UNL A   1      39.338  31.049  33.127  1.00  0.00     0.074 A 
ATOM     50  C   UNL A   1      38.229  31.941  32.856  1.00  0.00     0.031 C 
ATOM     51  C   UNL A   1      40.112  28.056  27.496  1.00  0.00     0.029 A 
ATOM     52  C   UNL A   1      40.947  27.932  28.687  1.00  0.00     0.049 A 
ATOM     53  H   UNL A   1      40.661  28.838  30.540  1.00  0.00     0.167 HD
ATOM     54  C   UNL A   1      40.004  30.982  34.305  1.00  0.00     0.037 A 
ATOM     55  C   UNL A   1      42.067  27.191  28.777  1.00  0.00     0.037 A 
ATOM     56  C   UNL A   1      41.124  30.107  34.547  1.00  0.00     0.049 A 
ATOM     57  C   UNL A   1      42.800  27.140  30.088  1.00  0.00     0.074 A 
ATOM     58  C   UNL A   1      41.827  29.907  35.721  1.00  0.00     0.029 A 
ATOM     59  N   UNL A   1      41.723  29.305  33.583  1.00  0.00    -0.354 N 
ATOM     60  N   UNL A   1      42.528  27.758  31.211  1.00  0.00    -0.248 NA
ATOM     61  C   UNL A   1      43.990  26.281  30.147  1.00  0.00     0.031 C 
ATOM     62  C   UNL A   1      42.894  29.043  35.450  1.00  0.00     0.029 A 
ATOM     63  C   UNL A   1      42.816  28.645  34.125  1.00  0.00     0.049 A 
ATOM     64  H   UNL A   1      41.417  29.218  32.651  1.00  0.00     0.167 HD
ATOM     65  C   UNL A   1      43.501  27.356  32.116  1.00  0.00     0.074 A 
ATOM     66  C   UNL A   1      44.355  26.417  31.413  1.00  0.00     0.031 C 
ATOM     67  C   UNL A   1      43.673  27.731  33.408  1.00  0.00     0.037 A 
BRANCH  54  68
ATOM     68  C   UNL A   1      39.538  31.887  35.413  1.00  0.00     0.064 A 
ATOM     69  C   UNL A   1      38.571  31.475  36.346  1.00  0.00     0.173 A 
ATOM     70  C   UNL A   1      40.068  33.178  35.554  1.00  0.00     0.173 A 
ATOM     71  F   UNL A   1      38.026  30.251  36.257  1.00  0.00    -0.203 F 
ATOM     72  C   UNL A   1      38.115  32.336  37.339  1.00  0.00     0.198 A 
ATOM     73  C   UNL A   1      39.638  34.025  36.574  1.00  0.00     0.198 A 
ATOM     74  F   UNL A   1      41.001  33.626  34.700  1.00  0.00    -0.203 F 
ATOM     75  F   UNL A   1      37.139  31.943  38.168  1.00  0.00    -0.200 F 
ATOM     76  C   UNL A   1      38.653  33.609  37.456  1.00  0.00     0.200 A 
ATOM     77  F   UNL A   1      40.171  35.248  36.696  1.00  0.00    -0.200 F 
ATOM     78  F   UNL A   1      38.211  34.439  38.411  1.00  0.00    -0.200 F 
ENDBRANCH  54  68
BRANCH  55  79
ATOM     79  C   UNL A   1      42.531  26.424  27.594  1.00  0.00     0.064 A 
ATOM     80  C   UNL A   1      43.503  26.944  26.728  1.00  0.00     0.173 A 
ATOM     81  C   UNL A   1      42.047  25.134  27.329  1.00  0.00     0.173 A 
ATOM     82  F   UNL A   1      43.985  28.179  26.930  1.00  0.00    -0.203 F 
ATOM     83  C   UNL A   1      43.964  26.208  25.638  1.00  0.00     0.198 A 
ATOM     84  C   UNL A   1      42.531  24.386  26.258  1.00  0.00     0.198 A 
ATOM     85  F   UNL A   1      41.124  24.584  28.134  1.00  0.00    -0.203 F 
ATOM     86  F   UNL A   1      44.870  26.743  24.808  1.00  0.00    -0.200 F 
ATOM     87  C   UNL A   1      43.486  24.927  25.410  1.00  0.00     0.200 A 
ATOM     88  F   UNL A   1      42.082  23.140  26.055  1.00  0.00    -0.200 F 
ATOM     89  F   UNL A   1      43.944  24.212  24.373  1.00  0.00    -0.200 F 
ENDBRANCH  55  79
BRANCH  67  90
ATOM     90  C   UNL A   1      44.832  27.125  34.149  1.00  0.00     0.064 A 
ATOM     91  C   UNL A   1      44.715  25.897  34.820  1.00  0.00     0.173 A 
ATOM     92  C   UNL A   1      46.083  27.759  34.159  1.00  0.00     0.173 A 
ATOM     93  F   UNL A   1      43.537  25.255  34.854  1.00  0.00    -0.203 F 
ATOM     94  C   UNL A   1      45.799  25.345  35.497  1.00  0.00     0.198 A 
ATOM     95  C   UNL A   1      47.174  27.186  34.806  1.00  0.00     0.198 A 
ATOM     96  F   UNL A   1      46.253  28.932  33.530  1.00  0.00    -0.203 F 
ATOM     97  F   UNL A   1      45.648  24.200  36.178  1.00  0.00    -0.200 F 
ATOM     98  C   UNL A   1      47.029  25.984  35.483  1.00  0.00     0.200 A 
ATOM     99  F   UNL A   1      48.366  27.797  34.776  1.00  0.00    -0.200 F 
ATOM    100  F   UNL A   1      48.073  25.447  36.128  1.00  0.00    -0.200 F 
ENDBRANCH  67  90
ENDBRANCH  41  42
ENDBRANCH  33  36
ENDBRANCH  31  32
ENDBRANCH  30  31
ENDBRANCH   1  30
TORSDOF 14
ENDMDL
MODEL 2
REMARK VINA RESULT:     -14.1      2.692      3.668
REMARK SMILES O=C(NCCCCNC(=O)c1ccc(-c2c3nc(c(-c4c(F)c(F)c(F)c(F)c4F)c4ccc([nH]4)c(-c4c(F)c(F)c(F)c(F)c4F)c4nc(c(-c5c(F)c(F)c(F)c(F)c5F)c5ccc2[nH]5)C=C4)C=C3)cc1)C1=Cc2cc(Cl)cc(C#Cc3ccccc3)c2O[C@@H]1C(F)(F)F
REMARK SMILES IDX 5 1 4 2 3 3 1 4 2 5 74 7 75 8 92 9 76 10 91 11 77 12 90 13
REMARK SMILES IDX 78 14 81 15 79 16 80 17 93 18 94 19 95 20 96 21 82 22 83 23
REMARK SMILES IDX 84 24 85 25 89 26 86 27 88 28 87 29 6 30 7 31 8 32 9 33
REMARK SMILES IDX 10 35 11 36 12 37 73 38 13 39 72 40 14 41 15 42 16 43 66 44
REMARK SMILES IDX 17 45 71 46 65 47 67 48 18 49 70 50 64 51 63 52 19 54 51 55
REMARK SMILES IDX 31 56 50 57 32 58 35 59 49 60 68 61 33 62 34 63 48 65 69 66
REMARK SMILES IDX 36 67 20 68 21 69 29 70 22 71 23 72 27 73 30 74 24 75 25 76
REMARK SMILES IDX 28 77 26 78 52 79 53 80 61 81 54 82 55 83 59 84 62 85 56 86
REMARK SMILES IDX 57 87 60 88 58 89 37 90 38 91 46 92 39 93 40 94 44 95 47 96
REMARK SMILES IDX 41 97 42 98 45 99 43 100
REMARK H PARENT 3 6 8 34 67 53 35 64
REMARK Flexibility Score: inf
ROOT
ATOM      1  C   UNL A   1      31.717  28.009  27.237  1.00  0.00     0.023 C 
ENDROOT
BRANCH   1   2
ATOM      2  C   UNL A   1      31.183  26.933  26.303  1.00  0.00     0.116 C 
BRANCH   2   3
ATOM      3  N   UNL A   1      31.371  25.567  26.744  1.00  0.00    -0.352 N 
ATOM      4  O   UNL A   1      32.442  23.616  27.008  1.00  0.00    -0.270 OA
ATOM      5  C   UNL A   1      32.274  24.628  26.327  1.00  0.00     0.251 C 
ATOM      6  H   UNL A   1      30.755  25.268  27.452  1.00  0.00     0.163 HD
BRANCH   5   7
ATOM      7  C   UNL A   1      33.142  24.819  25.127  1.00  0.00     0.067 C 
ATOM      8  C   UNL A   1      34.439  25.169  25.205  1.00  0.00     0.025 C 
ATOM      9  C   UNL A   1      32.716  23.953  23.966  1.00  0.00     0.314 C 
ATOM     10  C   UNL A   1      35.339  24.023  24.867  1.00  0.00     0.020 A 
ATOM     11  O   UNL A   1      33.494  22.723  23.936  1.00  0.00    -0.474 OA
ATOM     12  C   UNL A   1      36.635  24.071  25.398  1.00  0.00     0.032 A 
ATOM     13  C   UNL A   1      34.771  22.792  24.456  1.00  0.00     0.143 A 
ATOM     14  C   UNL A   1      37.312  22.880  25.639  1.00  0.00     0.043 A 
ATOM     15  C   UNL A   1      35.445  21.596  24.753  1.00  0.00     0.069 A 
ATOM     16  Cl  UNL A   1      38.807  22.917  26.489  1.00  0.00    -0.084 Cl
ATOM     17  C   UNL A   1      36.718  21.652  25.346  1.00  0.00     0.041 A 
BRANCH   9  18
ATOM     18  C   UNL A   1      32.754  24.738  22.641  1.00  0.00     0.429 C 
ATOM     19  F   UNL A   1      33.148  23.960  21.607  1.00  0.00    -0.167 F 
ATOM     20  F   UNL A   1      31.526  25.221  22.323  1.00  0.00    -0.167 F 
ATOM     21  F   UNL A   1      33.592  25.802  22.687  1.00  0.00    -0.167 F 
ENDBRANCH   9  18
BRANCH  15  22
ATOM     22  C   UNL A   1      34.811  20.304  24.692  1.00  0.00    -0.058 C 
ATOM     23  C   UNL A   1      34.349  19.198  24.782  1.00  0.00    -0.062 C 
BRANCH  23  24
ATOM     24  C   UNL A   1      33.880  17.848  24.942  1.00  0.00     0.025 A 
ATOM     25  C   UNL A   1      32.573  17.598  25.367  1.00  0.00     0.017 A 
ATOM     26  C   UNL A   1      34.737  16.771  24.730  1.00  0.00     0.017 A 
ATOM     27  C   UNL A   1      32.116  16.292  25.574  1.00  0.00     0.001 A 
ATOM     28  C   UNL A   1      34.293  15.463  24.955  1.00  0.00     0.001 A 
ATOM     29  C   UNL A   1      32.984  15.224  25.376  1.00  0.00     0.000 A 
ENDBRANCH  23  24
ENDBRANCH  15  22
ENDBRANCH   5   7
ENDBRANCH   2   3
ENDBRANCH   1   2
BRANCH   1  30
ATOM     30  C   UNL A   1      33.224  28.189  27.178  1.00  0.00     0.023 C 
BRANCH  30  31
ATOM     31  C   UNL A   1      33.721  29.524  26.631  1.00  0.00     0.116 C 
BRANCH  31  32
ATOM     32  N   UNL A   1      33.716  30.635  27.575  1.00  0.00    -0.352 N 
ATOM     33  C   UNL A   1      34.706  31.014  28.461  1.00  0.00     0.251 C 
ATOM     34  H   UNL A   1      32.902  31.187  27.581  1.00  0.00     0.163 HD
ATOM     35  O   UNL A   1      34.545  31.972  29.208  1.00  0.00    -0.269 OA
BRANCH  33  36
ATOM     36  C   UNL A   1      35.958  30.225  28.538  1.00  0.00     0.039 A 
ATOM     37  C   UNL A   1      36.876  30.277  27.488  1.00  0.00     0.014 A 
ATOM     38  C   UNL A   1      36.269  29.514  29.696  1.00  0.00     0.014 A 
ATOM     39  C   UNL A   1      38.149  29.729  27.664  1.00  0.00     0.010 A 
ATOM     40  C   UNL A   1      37.551  29.027  29.903  1.00  0.00     0.010 A 
ATOM     41  C   UNL A   1      38.514  29.163  28.899  1.00  0.00    -0.014 A 
BRANCH  41  42
ATOM     42  C   UNL A   1      39.925  28.840  29.214  1.00  0.00     0.031 A 
ATOM     43  C   UNL A   1      40.810  29.827  29.909  1.00  0.00     0.074 A 
ATOM     44  C   UNL A   1      40.434  27.682  28.750  1.00  0.00     0.049 A 
ATOM     45  N   UNL A   1      42.066  29.707  30.257  1.00  0.00    -0.248 NA
ATOM     46  C   UNL A   1      40.218  31.134  30.229  1.00  0.00     0.031 C 
ATOM     47  C   UNL A   1      39.694  26.698  27.956  1.00  0.00     0.029 A 
ATOM     48  N   UNL A   1      41.690  27.145  28.860  1.00  0.00    -0.354 N 
ATOM     49  C   UNL A   1      42.409  30.911  30.852  1.00  0.00     0.074 A 
ATOM     50  C   UNL A   1      41.253  31.778  30.746  1.00  0.00     0.031 C 
ATOM     51  C   UNL A   1      40.500  25.663  27.678  1.00  0.00     0.029 A 
ATOM     52  C   UNL A   1      41.820  25.926  28.240  1.00  0.00     0.049 A 
ATOM     53  H   UNL A   1      42.428  27.589  29.336  1.00  0.00     0.167 HD
ATOM     54  C   UNL A   1      43.574  31.249  31.457  1.00  0.00     0.037 A 
ATOM     55  C   UNL A   1      42.887  25.111  28.135  1.00  0.00     0.037 A 
ATOM     56  C   UNL A   1      44.724  30.383  31.528  1.00  0.00     0.049 A 
ATOM     57  C   UNL A   1      44.174  25.509  28.800  1.00  0.00     0.074 A 
ATOM     58  C   UNL A   1      45.927  30.596  32.174  1.00  0.00     0.029 A 
ATOM     59  N   UNL A   1      44.821  29.145  30.903  1.00  0.00    -0.354 N 
ATOM     60  N   UNL A   1      44.451  26.596  29.478  1.00  0.00    -0.248 NA
ATOM     61  C   UNL A   1      45.293  24.564  28.694  1.00  0.00     0.031 C 
ATOM     62  C   UNL A   1      46.778  29.523  31.881  1.00  0.00     0.029 A 
ATOM     63  C   UNL A   1      46.082  28.604  31.111  1.00  0.00     0.049 A 
ATOM     64  H   UNL A   1      44.101  28.715  30.388  1.00  0.00     0.167 HD
ATOM     65  C   UNL A   1      45.770  26.463  29.892  1.00  0.00     0.074 A 
ATOM     66  C   UNL A   1      46.226  25.174  29.410  1.00  0.00     0.031 C 
ATOM     67  C   UNL A   1      46.532  27.330  30.604  1.00  0.00     0.037 A 
BRANCH  54  68
ATOM     68  C   UNL A   1      43.657  32.617  32.078  1.00  0.00     0.064 A 
ATOM     69  C   UNL A   1      43.279  32.844  33.413  1.00  0.00     0.173 A 
ATOM     70  C   UNL A   1      44.126  33.713  31.340  1.00  0.00     0.173 A 
ATOM     71  F   UNL A   1      42.818  31.834  34.167  1.00  0.00    -0.203 F 
ATOM     72  C   UNL A   1      43.317  34.122  33.964  1.00  0.00     0.198 A 
ATOM     73  C   UNL A   1      44.200  34.983  31.906  1.00  0.00     0.198 A 
ATOM     74  F   UNL A   1      44.510  33.556  30.063  1.00  0.00    -0.203 F 
ATOM     75  F   UNL A   1      42.881  34.324  35.214  1.00  0.00    -0.200 F 
ATOM     76  C   UNL A   1      43.783  35.190  33.212  1.00  0.00     0.200 A 
ATOM     77  F   UNL A   1      44.666  36.011  31.183  1.00  0.00    -0.200 F 
ATOM     78  F   UNL A   1      43.816  36.420  33.742  1.00  0.00    -0.200 F 
ENDBRANCH  54  68
BRANCH  55  79
ATOM     79  C   UNL A   1      42.756  23.831  27.392  1.00  0.00     0.064 A 
ATOM     80  C   UNL A   1      43.146  23.729  26.050  1.00  0.00     0.173 A 
ATOM     81  C   UNL A   1      42.281  22.671  28.023  1.00  0.00     0.173 A 
ATOM     82  F   UNL A   1      43.592  24.814  25.399  1.00  0.00    -0.203 F 
ATOM     83  C   UNL A   1      43.057  22.519  25.365  1.00  0.00     0.198 A 
ATOM     84  C   UNL A   1      42.222  21.455  27.346  1.00  0.00     0.198 A 
ATOM     85  F   UNL A   1      41.906  22.712  29.310  1.00  0.00    -0.203 F 
ATOM     86  F   UNL A   1      43.407  22.457  24.072  1.00  0.00    -0.200 F 
ATOM     87  C   UNL A   1      42.605  21.381  26.016  1.00  0.00     0.200 A 
ATOM     88  F   UNL A   1      41.806  20.354  27.987  1.00  0.00    -0.200 F 
ATOM     89  F   UNL A   1      42.538  20.214  25.362  1.00  0.00    -0.200 F 
ENDBRANCH  55  79
BRANCH  67  90
ATOM     90  C   UNL A   1      47.945  26.912  30.906  1.00  0.00     0.064 A 
ATOM     91  C   UNL A   1      49.020  27.321  30.101  1.00  0.00     0.173 A 
ATOM     92  C   UNL A   1      48.231  26.124  32.030  1.00  0.00     0.173 A 
ATOM     93  F   UNL A   1      48.801  28.063  29.005  1.00  0.00    -0.203 F 
ATOM     94  C   UNL A   1      50.324  26.930  30.396  1.00  0.00     0.198 A 
ATOM     95  C   UNL A   1      49.540  25.767  32.343  1.00  0.00     0.198 A 
ATOM     96  F   UNL A   1      47.242  25.710  32.836  1.00  0.00    -0.203 F 
ATOM     97  F   UNL A   1      51.328  27.286  29.582  1.00  0.00    -0.200 F 
ATOM     98  C   UNL A   1      50.584  26.162  31.520  1.00  0.00     0.200 A 
ATOM     99  F   UNL A   1      49.790  25.038  33.439  1.00  0.00    -0.200 F 
ATOM    100  F   UNL A   1      51.840  25.795  31.807  1.00  0.00    -0.200 F 
ENDBRANCH  67  90
ENDBRANCH  41  42
ENDBRANCH  33  36
ENDBRANCH  31  32
ENDBRANCH  30  31
ENDBRANCH   1  30
TORSDOF 14
ENDMDL
MODEL 3
REMARK VINA RESULT:     -14.0      2.726      3.729
REMARK SMILES O=C(NCCCCNC(=O)c1ccc(-c2c3nc(c(-c4c(F)c(F)c(F)c(F)c4F)c4ccc([nH]4)c(-c4c(F)c(F)c(F)c(F)c4F)c4nc(c(-c5c(F)c(F)c(F)c(F)c5F)c5ccc2[nH]5)C=C4)C=C3)cc1)C1=Cc2cc(Cl)cc(C#Cc3ccccc3)c2O[C@@H]1C(F)(F)F
REMARK SMILES IDX 5 1 4 2 3 3 1 4 2 5 74 7 75 8 92 9 76 10 91 11 77 12 90 13
REMARK SMILES IDX 78 14 81 15 79 16 80 17 93 18 94 19 95 20 96 21 82 22 83 23
REMARK SMILES IDX 84 24 85 25 89 26 86 27 88 28 87 29 6 30 7 31 8 32 9 33
REMARK SMILES IDX 10 35 11 36 12 37 73 38 13 39 72 40 14 41 15 42 16 43 66 44
REMARK SMILES IDX 17 45 71 46 65 47 67 48 18 49 70 50 64 51 63 52 19 54 51 55
REMARK SMILES IDX 31 56 50 57 32 58 35 59 49 60 68 61 33 62 34 63 48 65 69 66
REMARK SMILES IDX 36 67 20 68 21 69 29 70 22 71 23 72 27 73 30 74 24 75 25 76
REMARK SMILES IDX 28 77 26 78 52 79 53 80 61 81 54 82 55 83 59 84 62 85 56 86
REMARK SMILES IDX 57 87 60 88 58 89 37 90 38 91 46 92 39 93 40 94 44 95 47 96
REMARK SMILES IDX 41 97 42 98 45 99 43 100
REMARK H PARENT 3 6 8 34 67 53 35 64
REMARK Flexibility Score: inf
ROOT
ATOM      1  C   UNL A   1      31.914  28.007  27.410  1.00  0.00     0.023 C 
ENDROOT
BRANCH   1   2
ATOM      2  C   UNL A   1      31.270  26.990  26.478  1.00  0.00     0.116 C 
BRANCH   2   3
ATOM      3  N   UNL A   1      31.397  25.604  26.873  1.00  0.00    -0.352 N 
ATOM      4  O   UNL A   1      32.371  23.594  27.054  1.00  0.00    -0.270 OA
ATOM      5  C   UNL A   1      32.241  24.634  26.407  1.00  0.00     0.251 C 
ATOM      6  H   UNL A   1      30.782  25.315  27.586  1.00  0.00     0.163 HD
BRANCH   5   7
ATOM      7  C   UNL A   1      33.091  24.817  25.193  1.00  0.00     0.067 C 
ATOM      8  C   UNL A   1      34.391  25.161  25.250  1.00  0.00     0.025 C 
ATOM      9  C   UNL A   1      32.644  23.950  24.042  1.00  0.00     0.314 C 
ATOM     10  C   UNL A   1      35.281  24.011  24.903  1.00  0.00     0.020 A 
ATOM     11  O   UNL A   1      33.416  22.716  24.004  1.00  0.00    -0.474 OA
ATOM     12  C   UNL A   1      36.585  24.055  25.413  1.00  0.00     0.032 A 
ATOM     13  C   UNL A   1      34.701  22.781  24.504  1.00  0.00     0.143 A 
ATOM     14  C   UNL A   1      37.260  22.861  25.648  1.00  0.00     0.043 A 
ATOM     15  C   UNL A   1      35.375  21.583  24.795  1.00  0.00     0.069 A 
ATOM     16  Cl  UNL A   1      38.769  22.895  26.474  1.00  0.00    -0.084 Cl
ATOM     17  C   UNL A   1      36.657  21.635  25.368  1.00  0.00     0.041 A 
BRANCH   9  18
ATOM     18  C   UNL A   1      32.665  24.731  22.714  1.00  0.00     0.429 C 
ATOM     19  F   UNL A   1      31.419  25.075  22.314  1.00  0.00    -0.167 F 
ATOM     20  F   UNL A   1      33.371  25.883  22.835  1.00  0.00    -0.167 F 
ATOM     21  F   UNL A   1      33.232  24.028  21.704  1.00  0.00    -0.167 F 
ENDBRANCH   9  18
BRANCH  15  22
ATOM     22  C   UNL A   1      34.734  20.294  24.747  1.00  0.00    -0.058 C 
ATOM     23  C   UNL A   1      34.286  19.181  24.836  1.00  0.00    -0.062 C 
BRANCH  23  24
ATOM     24  C   UNL A   1      33.842  17.822  24.979  1.00  0.00     0.025 A 
ATOM     25  C   UNL A   1      32.538  17.544  25.398  1.00  0.00     0.017 A 
ATOM     26  C   UNL A   1      34.718  16.763  24.757  1.00  0.00     0.017 A 
ATOM     27  C   UNL A   1      32.105  16.228  25.589  1.00  0.00     0.001 A 
ATOM     28  C   UNL A   1      34.297  15.445  24.966  1.00  0.00     0.001 A 
ATOM     29  C   UNL A   1      32.992  15.177  25.381  1.00  0.00     0.000 A 
ENDBRANCH  23  24
ENDBRANCH  15  22
ENDBRANCH   5   7
ENDBRANCH   2   3
ENDBRANCH   1   2
BRANCH   1  30
ATOM     30  C   UNL A   1      33.391  28.244  27.143  1.00  0.00     0.023 C 
BRANCH  30  31
ATOM     31  C   UNL A   1      33.767  29.634  26.639  1.00  0.00     0.116 C 
BRANCH  31  32
ATOM     32  N   UNL A   1      33.743  30.696  27.637  1.00  0.00    -0.352 N 
ATOM     33  C   UNL A   1      34.717  31.031  28.559  1.00  0.00     0.251 C 
ATOM     34  H   UNL A   1      32.928  31.246  27.657  1.00  0.00     0.163 HD
ATOM     35  O   UNL A   1      34.540  31.951  29.350  1.00  0.00    -0.269 OA
BRANCH  33  36
ATOM     36  C   UNL A   1      35.969  30.241  28.619  1.00  0.00     0.039 A 
ATOM     37  C   UNL A   1      36.874  30.296  27.559  1.00  0.00     0.014 A 
ATOM     38  C   UNL A   1      36.292  29.525  29.771  1.00  0.00     0.014 A 
ATOM     39  C   UNL A   1      38.149  29.746  27.718  1.00  0.00     0.010 A 
ATOM     40  C   UNL A   1      37.576  29.036  29.961  1.00  0.00     0.010 A 
ATOM     41  C   UNL A   1      38.527  29.175  28.947  1.00  0.00    -0.014 A 
BRANCH  41  42
ATOM     42  C   UNL A   1      39.941  28.849  29.244  1.00  0.00     0.031 A 
ATOM     43  C   UNL A   1      40.837  29.835  29.928  1.00  0.00     0.074 A 
ATOM     44  C   UNL A   1      40.442  27.690  28.775  1.00  0.00     0.049 A 
ATOM     45  N   UNL A   1      42.097  29.713  30.260  1.00  0.00    -0.248 NA
ATOM     46  C   UNL A   1      40.251  31.144  30.254  1.00  0.00     0.031 C 
ATOM     47  C   UNL A   1      39.691  26.707  27.992  1.00  0.00     0.029 A 
ATOM     48  N   UNL A   1      41.698  27.150  28.870  1.00  0.00    -0.354 N 
ATOM     49  C   UNL A   1      42.450  30.917  30.850  1.00  0.00     0.074 A 
ATOM     50  C   UNL A   1      41.294  31.786  30.758  1.00  0.00     0.031 C 
ATOM     51  C   UNL A   1      40.491  25.670  27.703  1.00  0.00     0.029 A 
ATOM     52  C   UNL A   1      41.819  25.931  28.249  1.00  0.00     0.049 A 
ATOM     53  H   UNL A   1      42.443  27.594  29.336  1.00  0.00     0.167 HD
ATOM     54  C   UNL A   1      43.623  31.253  31.440  1.00  0.00     0.037 A 
ATOM     55  C   UNL A   1      42.882  25.114  28.132  1.00  0.00     0.037 A 
ATOM     56  C   UNL A   1      44.771  30.385  31.497  1.00  0.00     0.049 A 
ATOM     57  C   UNL A   1      44.179  25.510  28.780  1.00  0.00     0.074 A 
ATOM     58  C   UNL A   1      45.983  30.595  32.129  1.00  0.00     0.029 A 
ATOM     59  N   UNL A   1      44.859  29.146  30.873  1.00  0.00    -0.354 N 
ATOM     60  N   UNL A   1      44.466  26.596  29.454  1.00  0.00    -0.248 NA
ATOM     61  C   UNL A   1      45.294  24.562  28.661  1.00  0.00     0.031 C 
ATOM     62  C   UNL A   1      46.828  29.521  31.826  1.00  0.00     0.029 A 
ATOM     63  C   UNL A   1      46.121  28.603  31.066  1.00  0.00     0.049 A 
ATOM     64  H   UNL A   1      44.131  28.717  30.367  1.00  0.00     0.167 HD
ATOM     65  C   UNL A   1      45.789  26.461  29.852  1.00  0.00     0.074 A 
ATOM     66  C   UNL A   1      46.237  25.171  29.365  1.00  0.00     0.031 C 
ATOM     67  C   UNL A   1      46.563  27.328  30.554  1.00  0.00     0.037 A 
BRANCH  54  68
ATOM     68  C   UNL A   1      43.716  32.621  32.059  1.00  0.00     0.064 A 
ATOM     69  C   UNL A   1      44.181  33.730  31.331  1.00  0.00     0.173 A 
ATOM     70  C   UNL A   1      43.329  32.834  33.390  1.00  0.00     0.173 A 
ATOM     71  F   UNL A   1      44.569  33.586  30.055  1.00  0.00    -0.203 F 
ATOM     72  C   UNL A   1      44.305  34.981  31.927  1.00  0.00     0.198 A 
ATOM     73  C   UNL A   1      43.416  34.096  33.973  1.00  0.00     0.198 A 
ATOM     74  F   UNL A   1      42.867  31.816  34.133  1.00  0.00    -0.203 F 
ATOM     75  F   UNL A   1      44.822  36.004  31.233  1.00  0.00    -0.200 F 
ATOM     76  C   UNL A   1      43.917  35.166  33.246  1.00  0.00     0.200 A 
ATOM     77  F   UNL A   1      43.026  34.276  35.242  1.00  0.00    -0.200 F 
ATOM     78  F   UNL A   1      44.040  36.370  33.820  1.00  0.00    -0.200 F 
ENDBRANCH  54  68
BRANCH  55  79
ATOM     79  C   UNL A   1      42.739  23.834  27.392  1.00  0.00     0.064 A 
ATOM     80  C   UNL A   1      43.165  23.715  26.062  1.00  0.00     0.173 A 
ATOM     81  C   UNL A   1      42.218  22.690  28.014  1.00  0.00     0.173 A 
ATOM     82  F   UNL A   1      43.656  24.784  25.418  1.00  0.00    -0.203 F 
ATOM     83  C   UNL A   1      43.064  22.504  25.380  1.00  0.00     0.198 A 
ATOM     84  C   UNL A   1      42.147  21.471  27.341  1.00  0.00     0.198 A 
ATOM     85  F   UNL A   1      41.808  22.747  29.290  1.00  0.00    -0.203 F 
ATOM     86  F   UNL A   1      43.448  22.426  24.098  1.00  0.00    -0.200 F 
ATOM     87  C   UNL A   1      42.565  21.381  26.023  1.00  0.00     0.200 A 
ATOM     88  F   UNL A   1      41.685  20.385  27.975  1.00  0.00    -0.200 F 
ATOM     89  F   UNL A   1      42.487  20.212  25.373  1.00  0.00    -0.200 F 
ENDBRANCH  55  79
BRANCH  67  90
ATOM     90  C   UNL A   1      47.978  26.907  30.838  1.00  0.00     0.064 A 
ATOM     91  C   UNL A   1      48.296  26.085  31.931  1.00  0.00     0.173 A 
ATOM     92  C   UNL A   1      49.023  27.300  29.989  1.00  0.00     0.173 A 
ATOM     93  F   UNL A   1      47.337  25.693  32.784  1.00  0.00    -0.203 F 
ATOM     94  C   UNL A   1      49.611  25.699  32.178  1.00  0.00     0.198 A 
ATOM     95  C   UNL A   1      50.331  26.882  30.218  1.00  0.00     0.198 A 
ATOM     96  F   UNL A   1      48.775  28.081  28.927  1.00  0.00    -0.203 F 
ATOM     97  F   UNL A   1      49.898  24.961  33.259  1.00  0.00    -0.200 F 
ATOM     98  C   UNL A   1      50.625  26.090  31.318  1.00  0.00     0.200 A 
ATOM     99  F   UNL A   1      51.307  27.247  29.375  1.00  0.00    -0.200 F 
ATOM    100  F   UNL A   1      51.888  25.710  31.552  1.00  0.00    -0.200 F 
ENDBRANCH  67  90
ENDBRANCH  41  42
ENDBRANCH  33  36
ENDBRANCH  31  32
ENDBRANCH  30  31
ENDBRANCH   1  30
TORSDOF 14
ENDMDL
