MODEL 1
REMARK VINA RESULT:     -12.5      0.000      0.000
REMARK SMILES O=C(NCCCCNC(=O)c1cccnc1NC[C@H](c1ccccc1)[NH+]1CCOCC1)c1ccc(-c2c3nc(c(-c4c(F)c(F)c(F)c(F)c4F)c4ccc([nH]4)c(-c4c(F)c(F)c(F)c(F)c4F)c4nc(c(-c5c(F)c(F)c(F)c(F)c5F)c5ccc2[nH]5)C=C4)C=C3)cc1
REMARK SMILES IDX 6 1 5 2 4 3 3 4 1 5 2 6 32 8 33 9 94 10 34 11 93 12 35 13
REMARK SMILES IDX 36 14 37 15 87 16 38 17 92 18 86 19 88 20 39 21 91 22 85 23
REMARK SMILES IDX 84 24 40 26 72 27 52 28 71 29 53 30 56 31 70 32 89 33 54 34
REMARK SMILES IDX 55 35 69 37 90 38 57 39 41 40 42 41 50 42 43 43 44 44 48 45
REMARK SMILES IDX 51 46 45 47 46 48 49 49 47 50 73 51 74 52 82 53 75 54 76 55
REMARK SMILES IDX 80 56 83 57 77 58 78 59 81 60 79 61 58 62 59 63 67 64 60 65
REMARK SMILES IDX 61 66 65 67 68 68 62 69 63 70 66 71 64 72 7 73 8 74 9 75
REMARK SMILES IDX 10 77 11 78 12 79 16 80 13 81 15 82 14 83 17 84 18 86 19 87
REMARK SMILES IDX 26 88 27 89 31 90 28 92 30 93 29 94 20 95 21 96 25 97 22 98
REMARK SMILES IDX 24 99 23 100
REMARK H PARENT 3 7 88 25 56 36 8 76 17 85 26 91
REMARK Flexibility Score: inf
ROOT
ATOM      1  C   UNL A   1      31.405  31.040  25.772  1.00  0.00     0.023 C 
ENDROOT
BRANCH   1   2
ATOM      2  C   UNL A   1      31.355  32.055  26.914  1.00  0.00     0.023 C 
BRANCH   2   3
ATOM      3  C   UNL A   1      32.631  32.862  27.116  1.00  0.00     0.116 C 
BRANCH   3   4
ATOM      4  N   UNL A   1      32.374  34.199  27.623  1.00  0.00    -0.352 N 
ATOM      5  O   UNL A   1      32.528  35.941  29.046  1.00  0.00    -0.269 OA
ATOM      6  C   UNL A   1      32.983  34.875  28.653  1.00  0.00     0.251 C 
ATOM      7  H   UNL A   1      31.658  34.693  27.161  1.00  0.00     0.163 HD
BRANCH   6   8
ATOM      8  C   UNL A   1      34.177  34.296  29.303  1.00  0.00     0.039 A 
ATOM      9  C   UNL A   1      35.460  34.563  28.816  1.00  0.00     0.014 A 
ATOM     10  C   UNL A   1      34.003  33.483  30.424  1.00  0.00     0.014 A 
ATOM     11  C   UNL A   1      36.558  33.913  29.368  1.00  0.00     0.010 A 
ATOM     12  C   UNL A   1      35.115  32.895  31.028  1.00  0.00     0.010 A 
ATOM     13  C   UNL A   1      36.397  33.085  30.488  1.00  0.00    -0.014 A 
BRANCH  13  14
ATOM     14  C   UNL A   1      37.579  32.464  31.135  1.00  0.00     0.031 A 
ATOM     15  C   UNL A   1      38.286  31.308  30.491  1.00  0.00     0.074 A 
ATOM     16  C   UNL A   1      37.981  32.921  32.334  1.00  0.00     0.049 A 
ATOM     17  N   UNL A   1      39.261  30.570  30.958  1.00  0.00    -0.248 NA
ATOM     18  C   UNL A   1      37.829  30.922  29.149  1.00  0.00     0.031 C 
ATOM     19  C   UNL A   1      37.369  34.038  33.055  1.00  0.00     0.029 A 
ATOM     20  N   UNL A   1      38.983  32.494  33.167  1.00  0.00    -0.354 N 
ATOM     21  C   UNL A   1      39.517  29.617  29.982  1.00  0.00     0.074 A 
ATOM     22  C   UNL A   1      38.576  29.854  28.907  1.00  0.00     0.031 C 
ATOM     23  C   UNL A   1      38.004  34.207  34.223  1.00  0.00     0.029 A 
ATOM     24  C   UNL A   1      39.021  33.171  34.361  1.00  0.00     0.049 A 
ATOM     25  H   UNL A   1      39.612  31.774  32.934  1.00  0.00     0.167 HD
ATOM     26  C   UNL A   1      40.453  28.636  29.988  1.00  0.00     0.037 A 
ATOM     27  C   UNL A   1      39.760  32.955  35.466  1.00  0.00     0.037 A 
ATOM     28  C   UNL A   1      41.381  28.413  31.067  1.00  0.00     0.049 A 
ATOM     29  C   UNL A   1      40.757  31.833  35.472  1.00  0.00     0.074 A 
ATOM     30  C   UNL A   1      42.398  27.479  31.151  1.00  0.00     0.029 A 
ATOM     31  N   UNL A   1      41.390  29.122  32.263  1.00  0.00    -0.354 N 
ATOM     32  N   UNL A   1      41.023  30.963  34.528  1.00  0.00    -0.248 NA
ATOM     33  C   UNL A   1      41.557  31.662  36.691  1.00  0.00     0.031 C 
ATOM     34  C   UNL A   1      42.975  27.575  32.423  1.00  0.00     0.029 A 
ATOM     35  C   UNL A   1      42.371  28.620  33.104  1.00  0.00     0.049 A 
ATOM     36  H   UNL A   1      40.789  29.870  32.479  1.00  0.00     0.167 HD
ATOM     37  C   UNL A   1      42.039  30.159  35.025  1.00  0.00     0.074 A 
ATOM     38  C   UNL A   1      42.343  30.646  36.355  1.00  0.00     0.031 C 
ATOM     39  C   UNL A   1      42.668  29.119  34.424  1.00  0.00     0.037 A 
BRANCH  26  40
ATOM     40  C   UNL A   1      40.487  27.703  28.808  1.00  0.00     0.064 A 
ATOM     41  C   UNL A   1      41.275  27.960  27.676  1.00  0.00     0.173 A 
ATOM     42  C   UNL A   1      39.721  26.527  28.815  1.00  0.00     0.173 A 
ATOM     43  F   UNL A   1      42.024  29.071  27.612  1.00  0.00    -0.203 F 
ATOM     44  C   UNL A   1      41.256  27.102  26.578  1.00  0.00     0.198 A 
ATOM     45  C   UNL A   1      39.733  25.652  27.732  1.00  0.00     0.198 A 
ATOM     46  F   UNL A   1      38.958  26.221  29.876  1.00  0.00    -0.203 F 
ATOM     47  F   UNL A   1      41.964  27.407  25.480  1.00  0.00    -0.200 F 
ATOM     48  C   UNL A   1      40.490  25.948  26.608  1.00  0.00     0.200 A 
ATOM     49  F   UNL A   1      39.005  24.528  27.771  1.00  0.00    -0.200 F 
ATOM     50  F   UNL A   1      40.470  25.126  25.549  1.00  0.00    -0.200 F 
ENDBRANCH  26  40
BRANCH  27  51
ATOM     51  C   UNL A   1      39.550  33.822  36.651  1.00  0.00     0.064 A 
ATOM     52  C   UNL A   1      38.729  33.415  37.710  1.00  0.00     0.173 A 
ATOM     53  C   UNL A   1      40.220  35.049  36.778  1.00  0.00     0.173 A 
ATOM     54  F   UNL A   1      38.057  32.256  37.629  1.00  0.00    -0.203 F 
ATOM     55  C   UNL A   1      38.585  34.202  38.851  1.00  0.00     0.198 A 
ATOM     56  C   UNL A   1      40.099  35.821  37.930  1.00  0.00     0.198 A 
ATOM     57  F   UNL A   1      41.027  35.478  35.795  1.00  0.00    -0.203 F 
ATOM     58  F   UNL A   1      37.776  33.800  39.840  1.00  0.00    -0.200 F 
ATOM     59  C   UNL A   1      39.278  35.398  38.965  1.00  0.00     0.200 A 
ATOM     60  F   UNL A   1      40.789  36.963  38.045  1.00  0.00    -0.200 F 
ATOM     61  F   UNL A   1      39.157  36.143  40.072  1.00  0.00    -0.200 F 
ENDBRANCH  27  51
BRANCH  39  62
ATOM     62  C   UNL A   1      43.788  28.456  35.173  1.00  0.00     0.064 A 
ATOM     63  C   UNL A   1      43.566  27.370  36.031  1.00  0.00     0.173 A 
ATOM     64  C   UNL A   1      45.114  28.864  34.958  1.00  0.00     0.173 A 
ATOM     65  F   UNL A   1      42.317  26.953  36.284  1.00  0.00    -0.203 F 
ATOM     66  C   UNL A   1      44.631  26.720  36.651  1.00  0.00     0.198 A 
ATOM     67  C   UNL A   1      46.178  28.194  35.555  1.00  0.00     0.198 A 
ATOM     68  F   UNL A   1      45.380  29.898  34.144  1.00  0.00    -0.203 F 
ATOM     69  F   UNL A   1      44.396  25.703  37.490  1.00  0.00    -0.200 F 
ATOM     70  C   UNL A   1      45.935  27.124  36.402  1.00  0.00     0.200 A 
ATOM     71  F   UNL A   1      47.436  28.576  35.300  1.00  0.00    -0.200 F 
ATOM     72  F   UNL A   1      46.959  26.481  36.980  1.00  0.00    -0.200 F 
ENDBRANCH  39  62
ENDBRANCH  13  14
ENDBRANCH   6   8
ENDBRANCH   3   4
ENDBRANCH   2   3
ENDBRANCH   1   2
BRANCH   1  73
ATOM     73  C   UNL A   1      32.499  29.984  25.893  1.00  0.00     0.116 C 
BRANCH  73  74
ATOM     74  N   UNL A   1      33.233  29.799  24.652  1.00  0.00    -0.352 N 
ATOM     75  C   UNL A   1      32.889  29.039  23.561  1.00  0.00     0.255 C 
ATOM     76  H   UNL A   1      34.088  30.283  24.584  1.00  0.00     0.163 HD
ATOM     77  O   UNL A   1      33.705  28.851  22.662  1.00  0.00    -0.269 OA
BRANCH  75  78
ATOM     78  C   UNL A   1      31.546  28.435  23.492  1.00  0.00     0.082 A 
ATOM     79  C   UNL A   1      30.506  29.119  22.851  1.00  0.00     0.019 A 
ATOM     80  C   UNL A   1      31.312  27.181  24.062  1.00  0.00     0.139 A 
ATOM     81  C   UNL A   1      29.230  28.576  22.864  1.00  0.00     0.021 A 
ATOM     82  N   UNL A   1      30.056  26.671  24.091  1.00  0.00    -0.239 NA
ATOM     83  C   UNL A   1      29.056  27.363  23.501  1.00  0.00     0.113 A 
BRANCH  80  84
ATOM     84  N   UNL A   1      32.339  26.481  24.692  1.00  0.00    -0.363 N 
ATOM     85  H   UNL A   1      32.679  26.774  25.568  1.00  0.00     0.162 HD
BRANCH  84  86
ATOM     86  C   UNL A   1      32.904  25.305  24.035  1.00  0.00     0.184 C 
BRANCH  86  87
ATOM     87  C   UNL A   1      33.371  24.186  25.030  1.00  0.00     0.234 C 
BRANCH  87  88
ATOM     88  N   UNL A   1      32.504  22.990  25.207  1.00  0.00    -0.323 N 
ATOM     89  C   UNL A   1      31.045  23.182  25.178  1.00  0.00     0.291 C 
ATOM     90  C   UNL A   1      32.854  22.200  26.402  1.00  0.00     0.291 C 
ATOM     91  H   UNL A   1      32.723  22.482  24.351  1.00  0.00     0.348 HD
ATOM     92  C   UNL A   1      30.431  23.682  26.500  1.00  0.00     0.221 C 
ATOM     93  C   UNL A   1      32.276  22.804  27.691  1.00  0.00     0.221 C 
ATOM     94  O   UNL A   1      30.847  22.888  27.619  1.00  0.00    -0.370 OA
ENDBRANCH  87  88
BRANCH  87  95
ATOM     95  C   UNL A   1      34.805  23.725  24.750  1.00  0.00     0.011 A 
ATOM     96  C   UNL A   1      35.831  23.906  25.690  1.00  0.00     0.010 A 
ATOM     97  C   UNL A   1      35.110  23.063  23.547  1.00  0.00     0.010 A 
ATOM     98  C   UNL A   1      37.118  23.421  25.442  1.00  0.00     0.001 A 
ATOM     99  C   UNL A   1      36.395  22.578  23.302  1.00  0.00     0.001 A 
ATOM    100  C   UNL A   1      37.399  22.755  24.251  1.00  0.00     0.000 A 
ENDBRANCH  87  95
ENDBRANCH  86  87
ENDBRANCH  84  86
ENDBRANCH  80  84
ENDBRANCH  75  78
ENDBRANCH  73  74
ENDBRANCH   1  73
TORSDOF 16
ENDMDL
MODEL 2
REMARK VINA RESULT:     -12.5      5.329     11.023
REMARK SMILES O=C(NCCCCNC(=O)c1cccnc1NC[C@H](c1ccccc1)[NH+]1CCOCC1)c1ccc(-c2c3nc(c(-c4c(F)c(F)c(F)c(F)c4F)c4ccc([nH]4)c(-c4c(F)c(F)c(F)c(F)c4F)c4nc(c(-c5c(F)c(F)c(F)c(F)c5F)c5ccc2[nH]5)C=C4)C=C3)cc1
REMARK SMILES IDX 6 1 5 2 4 3 3 4 1 5 2 6 32 8 33 9 94 10 34 11 93 12 35 13
REMARK SMILES IDX 36 14 37 15 87 16 38 17 92 18 86 19 88 20 39 21 91 22 85 23
REMARK SMILES IDX 84 24 40 26 72 27 52 28 71 29 53 30 56 31 70 32 89 33 54 34
REMARK SMILES IDX 55 35 69 37 90 38 57 39 41 40 42 41 50 42 43 43 44 44 48 45
REMARK SMILES IDX 51 46 45 47 46 48 49 49 47 50 73 51 74 52 82 53 75 54 76 55
REMARK SMILES IDX 80 56 83 57 77 58 78 59 81 60 79 61 58 62 59 63 67 64 60 65
REMARK SMILES IDX 61 66 65 67 68 68 62 69 63 70 66 71 64 72 7 73 8 74 9 75
REMARK SMILES IDX 10 77 11 78 12 79 16 80 13 81 15 82 14 83 17 84 18 86 19 87
REMARK SMILES IDX 26 88 27 89 31 90 28 92 30 93 29 94 20 95 21 96 25 97 22 98
REMARK SMILES IDX 24 99 23 100
REMARK H PARENT 3 7 88 25 56 36 8 76 17 85 26 91
REMARK Flexibility Score: inf
ROOT
ATOM      1  C   UNL A   1      36.788  20.013  25.030  1.00  0.00     0.023 C 
ENDROOT
BRANCH   1   2
ATOM      2  C   UNL A   1      38.238  19.643  24.716  1.00  0.00     0.023 C 
BRANCH   2   3
ATOM      3  C   UNL A   1      39.235  19.947  25.826  1.00  0.00     0.116 C 
BRANCH   3   4
ATOM      4  N   UNL A   1      40.313  18.974  25.893  1.00  0.00    -0.352 N 
ATOM      5  O   UNL A   1      42.446  18.246  25.968  1.00  0.00    -0.269 OA
ATOM      6  C   UNL A   1      41.657  19.172  26.101  1.00  0.00     0.251 C 
ATOM      7  H   UNL A   1      40.041  18.036  25.770  1.00  0.00     0.163 HD
BRANCH   6   8
ATOM      8  C   UNL A   1      42.150  20.517  26.463  1.00  0.00     0.039 A 
ATOM      9  C   UNL A   1      42.284  20.896  27.802  1.00  0.00     0.014 A 
ATOM     10  C   UNL A   1      42.494  21.403  25.441  1.00  0.00     0.014 A 
ATOM     11  C   UNL A   1      42.636  22.204  28.118  1.00  0.00     0.010 A 
ATOM     12  C   UNL A   1      42.925  22.691  25.762  1.00  0.00     0.010 A 
ATOM     13  C   UNL A   1      42.974  23.109  27.102  1.00  0.00    -0.014 A 
BRANCH  13  14
ATOM     14  C   UNL A   1      43.437  24.476  27.441  1.00  0.00     0.031 A 
ATOM     15  C   UNL A   1      42.476  25.505  27.961  1.00  0.00     0.074 A 
ATOM     16  C   UNL A   1      44.726  24.799  27.230  1.00  0.00     0.049 A 
ATOM     17  N   UNL A   1      42.674  26.775  28.204  1.00  0.00    -0.248 NA
ATOM     18  C   UNL A   1      41.105  25.047  28.232  1.00  0.00     0.031 C 
ATOM     19  C   UNL A   1      45.749  23.882  26.727  1.00  0.00     0.029 A 
ATOM     20  N   UNL A   1      45.391  25.987  27.392  1.00  0.00    -0.354 N 
ATOM     21  C   UNL A   1      41.452  27.276  28.631  1.00  0.00     0.074 A 
ATOM     22  C   UNL A   1      40.511  26.176  28.588  1.00  0.00     0.031 C 
ATOM     23  C   UNL A   1      46.911  24.539  26.618  1.00  0.00     0.029 A 
ATOM     24  C   UNL A   1      46.699  25.936  26.978  1.00  0.00     0.049 A 
ATOM     25  H   UNL A   1      44.973  26.795  27.767  1.00  0.00     0.167 HD
ATOM     26  C   UNL A   1      41.150  28.538  29.022  1.00  0.00     0.037 A 
ATOM     27  C   UNL A   1      47.617  26.914  26.857  1.00  0.00     0.037 A 
ATOM     28  C   UNL A   1      42.099  29.621  29.056  1.00  0.00     0.049 A 
ATOM     29  C   UNL A   1      47.248  28.316  27.248  1.00  0.00     0.074 A 
ATOM     30  C   UNL A   1      41.907  30.924  29.481  1.00  0.00     0.029 A 
ATOM     31  N   UNL A   1      43.419  29.531  28.630  1.00  0.00    -0.354 N 
ATOM     32  N   UNL A   1      46.103  28.773  27.692  1.00  0.00    -0.248 NA
ATOM     33  C   UNL A   1      48.296  29.337  27.125  1.00  0.00     0.031 C 
ATOM     34  C   UNL A   1      43.087  31.639  29.246  1.00  0.00     0.029 A 
ATOM     35  C   UNL A   1      44.040  30.765  28.748  1.00  0.00     0.049 A 
ATOM     36  H   UNL A   1      43.849  28.712  28.295  1.00  0.00     0.167 HD
ATOM     37  C   UNL A   1      46.297  30.126  27.929  1.00  0.00     0.074 A 
ATOM     38  C   UNL A   1      47.672  30.417  27.580  1.00  0.00     0.031 C 
ATOM     39  C   UNL A   1      45.414  31.040  28.403  1.00  0.00     0.037 A 
BRANCH  26  40
ATOM     40  C   UNL A   1      39.722  28.824  29.398  1.00  0.00     0.064 A 
ATOM     41  C   UNL A   1      39.240  28.626  30.701  1.00  0.00     0.173 A 
ATOM     42  C   UNL A   1      38.821  29.312  28.438  1.00  0.00     0.173 A 
ATOM     43  F   UNL A   1      40.054  28.156  31.659  1.00  0.00    -0.203 F 
ATOM     44  C   UNL A   1      37.902  28.856  31.015  1.00  0.00     0.198 A 
ATOM     45  C   UNL A   1      37.494  29.578  28.764  1.00  0.00     0.198 A 
ATOM     46  F   UNL A   1      39.227  29.534  27.179  1.00  0.00    -0.203 F 
ATOM     47  F   UNL A   1      37.450  28.592  32.250  1.00  0.00    -0.200 F 
ATOM     48  C   UNL A   1      37.032  29.336  30.049  1.00  0.00     0.200 A 
ATOM     49  F   UNL A   1      36.659  30.058  27.833  1.00  0.00    -0.200 F 
ATOM     50  F   UNL A   1      35.744  29.553  30.352  1.00  0.00    -0.200 F 
ENDBRANCH  26  40
BRANCH  27  51
ATOM     51  C   UNL A   1      48.958  26.578  26.321  1.00  0.00     0.064 A 
ATOM     52  C   UNL A   1      49.285  26.821  24.981  1.00  0.00     0.173 A 
ATOM     53  C   UNL A   1      49.964  26.066  27.157  1.00  0.00     0.173 A 
ATOM     54  F   UNL A   1      48.353  27.297  24.141  1.00  0.00    -0.203 F 
ATOM     55  C   UNL A   1      50.566  26.565  24.496  1.00  0.00     0.198 A 
ATOM     56  C   UNL A   1      51.251  25.838  26.679  1.00  0.00     0.198 A 
ATOM     57  F   UNL A   1      49.704  25.827  28.451  1.00  0.00    -0.203 F 
ATOM     58  F   UNL A   1      50.846  26.785  23.205  1.00  0.00    -0.200 F 
ATOM     59  C   UNL A   1      51.550  26.085  25.348  1.00  0.00     0.200 A 
ATOM     60  F   UNL A   1      52.205  25.397  27.510  1.00  0.00    -0.200 F 
ATOM     61  F   UNL A   1      52.788  25.860  24.885  1.00  0.00    -0.200 F 
ENDBRANCH  27  51
BRANCH  39  62
ATOM     62  C   UNL A   1      45.911  32.439  28.625  1.00  0.00     0.064 A 
ATOM     63  C   UNL A   1      45.783  33.435  27.647  1.00  0.00     0.173 A 
ATOM     64  C   UNL A   1      46.447  32.804  29.870  1.00  0.00     0.173 A 
ATOM     65  F   UNL A   1      45.295  33.134  26.435  1.00  0.00    -0.203 F 
ATOM     66  C   UNL A   1      46.178  34.745  27.907  1.00  0.00     0.198 A 
ATOM     67  C   UNL A   1      46.812  34.120  30.136  1.00  0.00     0.198 A 
ATOM     68  F   UNL A   1      46.588  31.888  30.840  1.00  0.00    -0.203 F 
ATOM     69  F   UNL A   1      46.074  35.677  26.950  1.00  0.00    -0.200 F 
ATOM     70  C   UNL A   1      46.679  35.089  29.155  1.00  0.00     0.200 A 
ATOM     71  F   UNL A   1      47.280  34.452  31.348  1.00  0.00    -0.200 F 
ATOM     72  F   UNL A   1      47.035  36.356  29.410  1.00  0.00    -0.200 F 
ENDBRANCH  39  62
ENDBRANCH  13  14
ENDBRANCH   6   8
ENDBRANCH   3   4
ENDBRANCH   2   3
ENDBRANCH   1   2
BRANCH   1  73
ATOM     73  C   UNL A   1      36.574  21.447  25.502  1.00  0.00     0.116 C 
BRANCH  73  74
ATOM     74  N   UNL A   1      35.729  21.524  26.682  1.00  0.00    -0.352 N 
ATOM     75  C   UNL A   1      34.359  21.471  26.757  1.00  0.00     0.255 C 
ATOM     76  H   UNL A   1      36.202  21.627  27.540  1.00  0.00     0.163 HD
ATOM     77  O   UNL A   1      33.792  21.727  27.816  1.00  0.00    -0.269 OA
BRANCH  75  78
ATOM     78  C   UNL A   1      33.579  21.128  25.553  1.00  0.00     0.082 A 
ATOM     79  C   UNL A   1      33.175  19.805  25.338  1.00  0.00     0.019 A 
ATOM     80  C   UNL A   1      33.241  22.122  24.631  1.00  0.00     0.139 A 
ATOM     81  C   UNL A   1      32.512  19.482  24.164  1.00  0.00     0.021 A 
ATOM     82  N   UNL A   1      32.616  21.791  23.474  1.00  0.00    -0.239 NA
ATOM     83  C   UNL A   1      32.267  20.503  23.265  1.00  0.00     0.113 A 
BRANCH  80  84
ATOM     84  N   UNL A   1      33.625  23.446  24.837  1.00  0.00    -0.363 N 
ATOM     85  H   UNL A   1      34.556  23.725  24.684  1.00  0.00     0.162 HD
BRANCH  84  86
ATOM     86  C   UNL A   1      32.626  24.413  25.282  1.00  0.00     0.184 C 
BRANCH  86  87
ATOM     87  C   UNL A   1      32.812  25.845  24.669  1.00  0.00     0.234 C 
BRANCH  87  88
ATOM     88  N   UNL A   1      31.979  26.227  23.497  1.00  0.00    -0.323 N 
ATOM     89  C   UNL A   1      31.668  25.189  22.500  1.00  0.00     0.291 C 
ATOM     90  C   UNL A   1      32.487  27.420  22.796  1.00  0.00     0.291 C 
ATOM     91  H   UNL A   1      31.093  26.421  23.964  1.00  0.00     0.348 HD
ATOM     92  C   UNL A   1      32.787  24.922  21.474  1.00  0.00     0.221 C 
ATOM     93  C   UNL A   1      33.654  27.089  21.852  1.00  0.00     0.221 C 
ATOM     94  O   UNL A   1      33.255  26.132  20.863  1.00  0.00    -0.370 OA
ENDBRANCH  87  88
BRANCH  87  95
ATOM     95  C   UNL A   1      32.715  26.946  25.730  1.00  0.00     0.011 A 
ATOM     96  C   UNL A   1      31.515  27.207  26.409  1.00  0.00     0.010 A 
ATOM     97  C   UNL A   1      33.855  27.693  26.076  1.00  0.00     0.010 A 
ATOM     98  C   UNL A   1      31.463  28.172  27.417  1.00  0.00     0.001 A 
ATOM     99  C   UNL A   1      33.802  28.655  27.086  1.00  0.00     0.001 A 
ATOM    100  C   UNL A   1      32.606  28.893  27.758  1.00  0.00     0.000 A 
ENDBRANCH  87  95
ENDBRANCH  86  87
ENDBRANCH  84  86
ENDBRANCH  80  84
ENDBRANCH  75  78
ENDBRANCH  73  74
ENDBRANCH   1  73
TORSDOF 16
ENDMDL
MODEL 3
REMARK VINA RESULT:     -12.4      5.253     10.597
REMARK SMILES O=C(NCCCCNC(=O)c1cccnc1NC[C@H](c1ccccc1)[NH+]1CCOCC1)c1ccc(-c2c3nc(c(-c4c(F)c(F)c(F)c(F)c4F)c4ccc([nH]4)c(-c4c(F)c(F)c(F)c(F)c4F)c4nc(c(-c5c(F)c(F)c(F)c(F)c5F)c5ccc2[nH]5)C=C4)C=C3)cc1
REMARK SMILES IDX 6 1 5 2 4 3 3 4 1 5 2 6 32 8 33 9 94 10 34 11 93 12 35 13
REMARK SMILES IDX 36 14 37 15 87 16 38 17 92 18 86 19 88 20 39 21 91 22 85 23
REMARK SMILES IDX 84 24 40 26 72 27 52 28 71 29 53 30 56 31 70 32 89 33 54 34
REMARK SMILES IDX 55 35 69 37 90 38 57 39 41 40 42 41 50 42 43 43 44 44 48 45
REMARK SMILES IDX 51 46 45 47 46 48 49 49 47 50 73 51 74 52 82 53 75 54 76 55
REMARK SMILES IDX 80 56 83 57 77 58 78 59 81 60 79 61 58 62 59 63 67 64 60 65
REMARK SMILES IDX 61 66 65 67 68 68 62 69 63 70 66 71 64 72 7 73 8 74 9 75
REMARK SMILES IDX 10 77 11 78 12 79 16 80 13 81 15 82 14 83 17 84 18 86 19 87
REMARK SMILES IDX 26 88 27 89 31 90 28 92 30 93 29 94 20 95 21 96 25 97 22 98
REMARK SMILES IDX 24 99 23 100
REMARK H PARENT 3 7 88 25 56 36 8 76 17 85 26 91
REMARK Flexibility Score: inf
ROOT
ATOM      1  C   UNL A   1      36.774  19.989  25.011  1.00  0.00     0.023 C 
ENDROOT
BRANCH   1   2
ATOM      2  C   UNL A   1      38.236  19.652  24.719  1.00  0.00     0.023 C 
BRANCH   2   3
ATOM      3  C   UNL A   1      39.213  20.005  25.832  1.00  0.00     0.116 C 
BRANCH   3   4
ATOM      4  N   UNL A   1      40.356  19.108  25.880  1.00  0.00    -0.352 N 
ATOM      5  O   UNL A   1      42.533  18.527  25.961  1.00  0.00    -0.269 OA
ATOM      6  C   UNL A   1      41.680  19.391  26.115  1.00  0.00     0.251 C 
ATOM      7  H   UNL A   1      40.151  18.158  25.721  1.00  0.00     0.163 HD
BRANCH   6   8
ATOM      8  C   UNL A   1      42.074  20.753  26.531  1.00  0.00     0.039 A 
ATOM      9  C   UNL A   1      42.358  21.740  25.581  1.00  0.00     0.014 A 
ATOM     10  C   UNL A   1      42.148  21.044  27.894  1.00  0.00     0.014 A 
ATOM     11  C   UNL A   1      42.843  22.976  25.994  1.00  0.00     0.010 A 
ATOM     12  C   UNL A   1      42.556  22.313  28.307  1.00  0.00     0.010 A 
ATOM     13  C   UNL A   1      42.931  23.279  27.360  1.00  0.00    -0.014 A 
BRANCH  13  14
ATOM     14  C   UNL A   1      43.360  24.629  27.800  1.00  0.00     0.031 A 
ATOM     15  C   UNL A   1      42.347  25.678  28.154  1.00  0.00     0.074 A 
ATOM     16  C   UNL A   1      44.673  24.918  27.831  1.00  0.00     0.049 A 
ATOM     17  N   UNL A   1      42.530  26.940  28.451  1.00  0.00    -0.248 NA
ATOM     18  C   UNL A   1      40.939  25.255  28.166  1.00  0.00     0.031 C 
ATOM     19  C   UNL A   1      45.747  23.979  27.506  1.00  0.00     0.029 A 
ATOM     20  N   UNL A   1      45.328  26.085  28.130  1.00  0.00    -0.354 N 
ATOM     21  C   UNL A   1      41.264  27.469  28.657  1.00  0.00     0.074 A 
ATOM     22  C   UNL A   1      40.318  26.397  28.427  1.00  0.00     0.031 C 
ATOM     23  C   UNL A   1      46.926  24.605  27.619  1.00  0.00     0.029 A 
ATOM     24  C   UNL A   1      46.688  26.003  27.959  1.00  0.00     0.049 A 
ATOM     25  H   UNL A   1      44.870  26.901  28.436  1.00  0.00     0.167 HD
ATOM     26  C   UNL A   1      40.928  28.734  29.008  1.00  0.00     0.037 A 
ATOM     27  C   UNL A   1      47.637  26.956  28.022  1.00  0.00     0.037 A 
ATOM     28  C   UNL A   1      41.883  29.790  29.232  1.00  0.00     0.049 A 
ATOM     29  C   UNL A   1      47.239  28.363  28.363  1.00  0.00     0.074 A 
ATOM     30  C   UNL A   1      41.650  31.092  29.636  1.00  0.00     0.029 A 
ATOM     31  N   UNL A   1      43.255  29.668  29.050  1.00  0.00    -0.354 N 
ATOM     32  N   UNL A   1      46.044  28.847  28.600  1.00  0.00    -0.248 NA
ATOM     33  C   UNL A   1      48.317  29.356  28.448  1.00  0.00     0.031 C 
ATOM     34  C   UNL A   1      42.871  31.777  29.630  1.00  0.00     0.029 A 
ATOM     35  C   UNL A   1      43.876  30.883  29.298  1.00  0.00     0.049 A 
ATOM     36  H   UNL A   1      43.717  28.841  28.785  1.00  0.00     0.167 HD
ATOM     37  C   UNL A   1      46.226  30.191  28.890  1.00  0.00     0.074 A 
ATOM     38  C   UNL A   1      47.649  30.447  28.800  1.00  0.00     0.031 C 
ATOM     39  C   UNL A   1      45.296  31.123  29.212  1.00  0.00     0.037 A 
BRANCH  26  40
ATOM     40  C   UNL A   1      39.463  29.056  29.125  1.00  0.00     0.064 A 
ATOM     41  C   UNL A   1      38.782  28.996  30.350  1.00  0.00     0.173 A 
ATOM     42  C   UNL A   1      38.730  29.437  27.990  1.00  0.00     0.173 A 
ATOM     43  F   UNL A   1      39.430  28.633  31.467  1.00  0.00    -0.203 F 
ATOM     44  C   UNL A   1      37.414  29.256  30.426  1.00  0.00     0.198 A 
ATOM     45  C   UNL A   1      37.372  29.733  28.075  1.00  0.00     0.198 A 
ATOM     46  F   UNL A   1      39.330  29.524  26.793  1.00  0.00    -0.203 F 
ATOM     47  F   UNL A   1      36.773  29.123  31.596  1.00  0.00    -0.200 F 
ATOM     48  C   UNL A   1      36.712  29.628  29.290  1.00  0.00     0.200 A 
ATOM     49  F   UNL A   1      36.699  30.110  26.979  1.00  0.00    -0.200 F 
ATOM     50  F   UNL A   1      35.397  29.874  29.364  1.00  0.00    -0.200 F 
ENDBRANCH  26  40
BRANCH  27  51
ATOM     51  C   UNL A   1      49.044  26.589  27.732  1.00  0.00     0.064 A 
ATOM     52  C   UNL A   1      49.947  26.307  28.765  1.00  0.00     0.173 A 
ATOM     53  C   UNL A   1      49.498  26.447  26.410  1.00  0.00     0.173 A 
ATOM     54  F   UNL A   1      49.563  26.442  30.043  1.00  0.00    -0.203 F 
ATOM     55  C   UNL A   1      51.250  25.899  28.489  1.00  0.00     0.198 A 
ATOM     56  C   UNL A   1      50.791  26.011  26.136  1.00  0.00     0.198 A 
ATOM     57  F   UNL A   1      48.668  26.694  25.385  1.00  0.00    -0.203 F 
ATOM     58  F   UNL A   1      52.100  25.658  29.496  1.00  0.00    -0.200 F 
ATOM     59  C   UNL A   1      51.667  25.740  27.176  1.00  0.00     0.200 A 
ATOM     60  F   UNL A   1      51.182  25.836  24.867  1.00  0.00    -0.200 F 
ATOM     61  F   UNL A   1      52.914  25.325  26.912  1.00  0.00    -0.200 F 
ENDBRANCH  27  51
BRANCH  39  62
ATOM     62  C   UNL A   1      45.780  32.505  29.543  1.00  0.00     0.064 A 
ATOM     63  C   UNL A   1      46.186  32.858  30.837  1.00  0.00     0.173 A 
ATOM     64  C   UNL A   1      45.918  33.463  28.526  1.00  0.00     0.173 A 
ATOM     65  F   UNL A   1      46.058  31.985  31.847  1.00  0.00    -0.203 F 
ATOM     66  C   UNL A   1      46.708  34.122  31.102  1.00  0.00     0.198 A 
ATOM     67  C   UNL A   1      46.469  34.714  28.788  1.00  0.00     0.198 A 
ATOM     68  F   UNL A   1      45.545  33.174  27.270  1.00  0.00    -0.203 F 
ATOM     69  F   UNL A   1      47.064  34.450  32.352  1.00  0.00    -0.200 F 
ATOM     70  C   UNL A   1      46.861  35.043  30.076  1.00  0.00     0.200 A 
ATOM     71  F   UNL A   1      46.630  35.595  27.792  1.00  0.00    -0.200 F 
ATOM     72  F   UNL A   1      47.387  36.250  30.329  1.00  0.00    -0.200 F 
ENDBRANCH  39  62
ENDBRANCH  13  14
ENDBRANCH   6   8
ENDBRANCH   3   4
ENDBRANCH   2   3
ENDBRANCH   1   2
BRANCH   1  73
ATOM     73  C   UNL A   1      36.522  21.413  25.498  1.00  0.00     0.116 C 
BRANCH  73  74
ATOM     74  N   UNL A   1      35.668  21.455  26.673  1.00  0.00    -0.352 N 
ATOM     75  C   UNL A   1      34.296  21.421  26.733  1.00  0.00     0.255 C 
ATOM     76  H   UNL A   1      36.133  21.516  27.538  1.00  0.00     0.163 HD
ATOM     77  O   UNL A   1      33.723  21.644  27.796  1.00  0.00    -0.269 OA
BRANCH  75  78
ATOM     78  C   UNL A   1      33.523  21.139  25.509  1.00  0.00     0.082 A 
ATOM     79  C   UNL A   1      33.129  19.827  25.220  1.00  0.00     0.019 A 
ATOM     80  C   UNL A   1      33.181  22.180  24.642  1.00  0.00     0.139 A 
ATOM     81  C   UNL A   1      32.473  19.565  24.028  1.00  0.00     0.021 A 
ATOM     82  N   UNL A   1      32.561  21.909  23.466  1.00  0.00    -0.239 NA
ATOM     83  C   UNL A   1      32.222  20.631  23.186  1.00  0.00     0.113 A 
BRANCH  80  84
ATOM     84  N   UNL A   1      33.554  23.493  24.921  1.00  0.00    -0.363 N 
ATOM     85  H   UNL A   1      34.500  23.762  24.884  1.00  0.00     0.162 HD
BRANCH  84  86
ATOM     86  C   UNL A   1      32.522  24.466  25.269  1.00  0.00     0.184 C 
BRANCH  86  87
ATOM     87  C   UNL A   1      32.759  25.889  24.656  1.00  0.00     0.234 C 
BRANCH  87  88
ATOM     88  N   UNL A   1      31.939  26.302  23.485  1.00  0.00    -0.323 N 
ATOM     89  C   UNL A   1      31.602  25.279  22.481  1.00  0.00     0.291 C 
ATOM     90  C   UNL A   1      32.483  27.484  22.791  1.00  0.00     0.291 C 
ATOM     91  H   UNL A   1      31.059  26.518  23.951  1.00  0.00     0.348 HD
ATOM     92  C   UNL A   1      32.715  24.986  21.455  1.00  0.00     0.221 C 
ATOM     93  C   UNL A   1      33.641  27.126  21.848  1.00  0.00     0.221 C 
ATOM     94  O   UNL A   1      33.218  26.186  20.853  1.00  0.00    -0.370 OA
ENDBRANCH  87  88
BRANCH  87  95
ATOM     95  C   UNL A   1      32.703  26.993  25.717  1.00  0.00     0.011 A 
ATOM     96  C   UNL A   1      33.772  27.881  25.911  1.00  0.00     0.010 A 
ATOM     97  C   UNL A   1      31.542  27.164  26.494  1.00  0.00     0.010 A 
ATOM     98  C   UNL A   1      33.675  28.920  26.839  1.00  0.00     0.001 A 
ATOM     99  C   UNL A   1      31.447  28.204  27.420  1.00  0.00     0.001 A 
ATOM    100  C   UNL A   1      32.513  29.084  27.590  1.00  0.00     0.000 A 
ENDBRANCH  87  95
ENDBRANCH  86  87
ENDBRANCH  84  86
ENDBRANCH  80  84
ENDBRANCH  75  78
ENDBRANCH  73  74
ENDBRANCH   1  73
TORSDOF 16
ENDMDL
