MODEL 1
REMARK VINA RESULT:     -12.3      0.000      0.000
REMARK SMILES CC[C@@](C)(Nc1cc([N+](=O)[O-])ccc1C)C(=O)NCCCCNC(=O)c1ccc(-c2c3nc(c(-c4c(F)c(F)c(F)c(F)c4F)c4ccc([nH]4)c(-c4c(F)c(F)c(F)c(F)c4F)c4nc(c(-c5c(F)c(F)c(F)c(F)c5F)c5ccc2[nH]5)C=C4)C=C3)cc1
REMARK SMILES IDX 20 1 19 2 18 3 16 4 17 5 3 7 4 8 2 9 1 10 5 11 6 13 7 14
REMARK SMILES IDX 14 15 8 16 13 17 15 18 12 19 9 20 10 21 11 22 21 23 22 24
REMARK SMILES IDX 23 25 24 26 25 28 26 29 27 30 88 31 28 32 87 33 29 34 30 35
REMARK SMILES IDX 31 36 81 37 32 38 86 39 80 40 82 41 33 42 85 43 79 44 78 45
REMARK SMILES IDX 34 47 66 48 46 49 65 50 47 51 50 52 64 53 83 54 48 55 49 56
REMARK SMILES IDX 63 58 84 59 51 60 35 61 36 62 44 63 37 64 38 65 42 66 45 67
REMARK SMILES IDX 39 68 40 69 43 70 41 71 67 72 68 73 76 74 69 75 70 76 74 77
REMARK SMILES IDX 77 78 71 79 72 80 75 81 73 82 52 83 53 84 61 85 54 86 55 87
REMARK SMILES IDX 59 88 62 89 56 90 57 91 60 92 58 93
REMARK H PARENT 18 6 5 12 23 27 82 46 50 57
REMARK Flexibility Score: inf
ROOT
ATOM      1  C   UNL A   1      32.598  30.437  25.890  1.00  0.00     0.023 C 
ENDROOT
BRANCH   1   2
ATOM      2  C   UNL A   1      31.501  29.339  25.815  1.00  0.00     0.116 C 
BRANCH   2   3
ATOM      3  N   UNL A   1      31.939  27.961  25.578  1.00  0.00    -0.354 N 
ATOM      4  C   UNL A   1      32.374  27.181  24.543  1.00  0.00     0.245 C 
ATOM      5  O   UNL A   1      32.682  26.033  24.909  1.00  0.00    -0.272 OA
ATOM      6  H   UNL A   1      31.913  27.441  26.414  1.00  0.00     0.163 HD
BRANCH   4   7
ATOM      7  C   UNL A   1      32.494  27.577  23.026  1.00  0.00     0.113 C 
ATOM      8  C   UNL A   1      33.280  28.877  22.803  1.00  0.00     0.045 C 
BRANCH   7   9
ATOM      9  C   UNL A   1      33.278  26.413  22.311  1.00  0.00     0.035 C 
ATOM     10  C   UNL A   1      32.498  25.638  21.245  1.00  0.00     0.007 C 
ENDBRANCH   7   9
BRANCH   7  11
ATOM     11  N   UNL A   1      31.196  27.730  22.248  1.00  0.00    -0.371 N 
ATOM     12  H   UNL A   1      31.213  27.349  21.341  1.00  0.00     0.161 HD
BRANCH  11  13
ATOM     13  C   UNL A   1      29.992  28.318  22.607  1.00  0.00     0.045 A 
ATOM     14  C   UNL A   1      29.864  29.711  22.671  1.00  0.00     0.111 A 
ATOM     15  C   UNL A   1      28.886  27.623  23.101  1.00  0.00    -0.027 A 
ATOM     16  C   UNL A   1      28.649  30.308  23.084  1.00  0.00     0.271 A 
ATOM     17  C   UNL A   1      27.609  28.190  23.258  1.00  0.00     0.012 A 
ATOM     18  C   UNL A   1      29.084  26.396  23.910  1.00  0.00     0.046 C 
ATOM     19  C   UNL A   1      27.489  29.558  23.271  1.00  0.00     0.086 A 
BRANCH  16  20
ATOM     20  N   UNL A   1      28.625  31.715  23.486  1.00  0.00     0.062 N 
ATOM     21  O   UNL A   1      27.736  32.437  23.014  1.00  0.00    -0.258 OA
ATOM     22  O   UNL A   1      29.528  32.112  24.240  1.00  0.00    -0.258 OA
ENDBRANCH  16  20
ENDBRANCH  11  13
ENDBRANCH   7  11
ENDBRANCH   4   7
ENDBRANCH   2   3
ENDBRANCH   1   2
BRANCH   1  23
ATOM     23  C   UNL A   1      32.970  30.971  27.282  1.00  0.00     0.023 C 
BRANCH  23  24
ATOM     24  C   UNL A   1      34.178  30.363  27.961  1.00  0.00     0.116 C 
BRANCH  24  25
ATOM     25  N   UNL A   1      34.962  31.272  28.799  1.00  0.00    -0.352 N 
ATOM     26  C   UNL A   1      36.221  31.014  29.329  1.00  0.00     0.251 C 
ATOM     27  H   UNL A   1      34.562  32.146  29.006  1.00  0.00     0.163 HD
ATOM     28  O   UNL A   1      36.818  31.820  30.032  1.00  0.00    -0.269 OA
BRANCH  26  29
ATOM     29  C   UNL A   1      36.858  29.742  28.918  1.00  0.00     0.039 A 
ATOM     30  C   UNL A   1      37.373  28.952  29.947  1.00  0.00     0.014 A 
ATOM     31  C   UNL A   1      37.368  29.671  27.623  1.00  0.00     0.014 A 
ATOM     32  C   UNL A   1      38.586  28.305  29.744  1.00  0.00     0.010 A 
ATOM     33  C   UNL A   1      38.629  29.122  27.461  1.00  0.00     0.010 A 
ATOM     34  C   UNL A   1      39.274  28.508  28.544  1.00  0.00    -0.014 A 
BRANCH  34  35
ATOM     35  C   UNL A   1      40.703  28.220  28.416  1.00  0.00     0.031 A 
ATOM     36  C   UNL A   1      41.145  26.897  27.926  1.00  0.00     0.074 A 
ATOM     37  C   UNL A   1      41.656  29.102  28.807  1.00  0.00     0.049 A 
ATOM     38  N   UNL A   1      42.174  26.271  28.400  1.00  0.00    -0.248 NA
ATOM     39  C   UNL A   1      40.443  26.155  26.884  1.00  0.00     0.031 C 
ATOM     40  C   UNL A   1      43.101  28.958  28.618  1.00  0.00     0.029 A 
ATOM     41  N   UNL A   1      41.529  30.221  29.651  1.00  0.00    -0.354 N 
ATOM     42  C   UNL A   1      42.407  25.193  27.585  1.00  0.00     0.074 A 
ATOM     43  C   UNL A   1      41.271  25.124  26.694  1.00  0.00     0.031 C 
ATOM     44  C   UNL A   1      43.734  29.698  29.538  1.00  0.00     0.029 A 
ATOM     45  C   UNL A   1      42.728  30.287  30.400  1.00  0.00     0.049 A 
ATOM     46  H   UNL A   1      40.760  30.833  29.709  1.00  0.00     0.167 HD
ATOM     47  C   UNL A   1      43.590  24.526  27.637  1.00  0.00     0.037 A 
ATOM     48  C   UNL A   1      42.749  30.280  31.761  1.00  0.00     0.037 A 
ATOM     49  C   UNL A   1      44.519  25.108  28.590  1.00  0.00     0.049 A 
ATOM     50  C   UNL A   1      43.542  29.151  32.371  1.00  0.00     0.074 A 
ATOM     51  C   UNL A   1      45.573  25.995  28.445  1.00  0.00     0.029 A 
ATOM     52  N   UNL A   1      44.241  25.051  29.951  1.00  0.00    -0.354 N 
ATOM     53  N   UNL A   1      43.971  28.125  31.691  1.00  0.00    -0.248 NA
ATOM     54  C   UNL A   1      43.861  29.047  33.793  1.00  0.00     0.031 C 
ATOM     55  C   UNL A   1      45.917  26.491  29.724  1.00  0.00     0.029 A 
ATOM     56  C   UNL A   1      45.080  25.896  30.649  1.00  0.00     0.049 A 
ATOM     57  H   UNL A   1      43.543  24.488  30.358  1.00  0.00     0.167 HD
ATOM     58  C   UNL A   1      44.547  27.218  32.545  1.00  0.00     0.074 A 
ATOM     59  C   UNL A   1      44.484  27.856  33.844  1.00  0.00     0.031 C 
ATOM     60  C   UNL A   1      44.999  26.010  32.096  1.00  0.00     0.037 A 
BRANCH  47  61
ATOM     61  C   UNL A   1      43.955  23.535  26.569  1.00  0.00     0.064 A 
ATOM     62  C   UNL A   1      43.431  22.229  26.557  1.00  0.00     0.173 A 
ATOM     63  C   UNL A   1      44.900  23.823  25.566  1.00  0.00     0.173 A 
ATOM     64  F   UNL A   1      42.475  21.851  27.414  1.00  0.00    -0.203 F 
ATOM     65  C   UNL A   1      43.904  21.252  25.681  1.00  0.00     0.198 A 
ATOM     66  C   UNL A   1      45.411  22.832  24.726  1.00  0.00     0.198 A 
ATOM     67  F   UNL A   1      45.363  25.072  25.404  1.00  0.00    -0.203 F 
ATOM     68  F   UNL A   1      43.389  20.015  25.727  1.00  0.00    -0.200 F 
ATOM     69  C   UNL A   1      44.920  21.542  24.793  1.00  0.00     0.200 A 
ATOM     70  F   UNL A   1      46.401  23.128  23.874  1.00  0.00    -0.200 F 
ATOM     71  F   UNL A   1      45.424  20.584  24.004  1.00  0.00    -0.200 F 
ENDBRANCH  47  61
BRANCH  48  72
ATOM     72  C   UNL A   1      41.566  30.932  32.369  1.00  0.00     0.064 A 
ATOM     73  C   UNL A   1      41.530  32.339  32.395  1.00  0.00     0.173 A 
ATOM     74  C   UNL A   1      40.361  30.246  32.551  1.00  0.00     0.173 A 
ATOM     75  F   UNL A   1      42.661  33.041  32.218  1.00  0.00    -0.203 F 
ATOM     76  C   UNL A   1      40.324  33.029  32.478  1.00  0.00     0.198 A 
ATOM     77  C   UNL A   1      39.155  30.943  32.644  1.00  0.00     0.198 A 
ATOM     78  F   UNL A   1      40.333  28.907  32.517  1.00  0.00    -0.203 F 
ATOM     79  F   UNL A   1      40.314  34.367  32.382  1.00  0.00    -0.200 F 
ATOM     80  C   UNL A   1      39.134  32.330  32.571  1.00  0.00     0.200 A 
ATOM     81  F   UNL A   1      37.999  30.266  32.712  1.00  0.00    -0.200 F 
ATOM     82  F   UNL A   1      37.967  32.988  32.549  1.00  0.00    -0.200 F 
ENDBRANCH  48  72
BRANCH  60  83
ATOM     83  C   UNL A   1      45.487  24.853  32.934  1.00  0.00     0.064 A 
ATOM     84  C   UNL A   1      46.724  24.823  33.597  1.00  0.00     0.173 A 
ATOM     85  C   UNL A   1      44.618  23.768  33.218  1.00  0.00     0.173 A 
ATOM     86  F   UNL A   1      47.593  25.837  33.492  1.00  0.00    -0.203 F 
ATOM     87  C   UNL A   1      47.083  23.768  34.442  1.00  0.00     0.198 A 
ATOM     88  C   UNL A   1      44.958  22.748  34.104  1.00  0.00     0.198 A 
ATOM     89  F   UNL A   1      43.402  23.680  32.661  1.00  0.00    -0.203 F 
ATOM     90  F   UNL A   1      48.290  23.769  35.027  1.00  0.00    -0.200 F 
ATOM     91  C   UNL A   1      46.198  22.740  34.707  1.00  0.00     0.200 A 
ATOM     92  F   UNL A   1      44.068  21.785  34.383  1.00  0.00    -0.200 F 
ATOM     93  F   UNL A   1      46.528  21.758  35.555  1.00  0.00    -0.200 F 
ENDBRANCH  60  83
ENDBRANCH  34  35
ENDBRANCH  26  29
ENDBRANCH  24  25
ENDBRANCH  23  24
ENDBRANCH   1  23
TORSDOF 15
ENDMDL
MODEL 2
REMARK VINA RESULT:     -12.2      1.625      2.341
REMARK SMILES CC[C@@](C)(Nc1cc([N+](=O)[O-])ccc1C)C(=O)NCCCCNC(=O)c1ccc(-c2c3nc(c(-c4c(F)c(F)c(F)c(F)c4F)c4ccc([nH]4)c(-c4c(F)c(F)c(F)c(F)c4F)c4nc(c(-c5c(F)c(F)c(F)c(F)c5F)c5ccc2[nH]5)C=C4)C=C3)cc1
REMARK SMILES IDX 20 1 19 2 18 3 16 4 17 5 3 7 4 8 2 9 1 10 5 11 6 13 7 14
REMARK SMILES IDX 14 15 8 16 13 17 15 18 12 19 9 20 10 21 11 22 21 23 22 24
REMARK SMILES IDX 23 25 24 26 25 28 26 29 27 30 88 31 28 32 87 33 29 34 30 35
REMARK SMILES IDX 31 36 81 37 32 38 86 39 80 40 82 41 33 42 85 43 79 44 78 45
REMARK SMILES IDX 34 47 66 48 46 49 65 50 47 51 50 52 64 53 83 54 48 55 49 56
REMARK SMILES IDX 63 58 84 59 51 60 35 61 36 62 44 63 37 64 38 65 42 66 45 67
REMARK SMILES IDX 39 68 40 69 43 70 41 71 67 72 68 73 76 74 69 75 70 76 74 77
REMARK SMILES IDX 77 78 71 79 72 80 75 81 73 82 52 83 53 84 61 85 54 86 55 87
REMARK SMILES IDX 59 88 62 89 56 90 57 91 60 92 58 93
REMARK H PARENT 18 6 5 12 23 27 82 46 50 57
REMARK Flexibility Score: inf
ROOT
ATOM      1  C   UNL A   1      32.653  28.246  27.062  1.00  0.00     0.023 C 
ENDROOT
BRANCH   1   2
ATOM      2  C   UNL A   1      31.302  27.581  26.677  1.00  0.00     0.116 C 
BRANCH   2   3
ATOM      3  N   UNL A   1      31.145  26.153  26.967  1.00  0.00    -0.354 N 
ATOM      4  C   UNL A   1      31.549  24.948  26.462  1.00  0.00     0.245 C 
ATOM      5  O   UNL A   1      31.160  23.989  27.151  1.00  0.00    -0.272 OA
ATOM      6  H   UNL A   1      30.581  26.022  27.763  1.00  0.00     0.163 HD
BRANCH   4   7
ATOM      7  C   UNL A   1      32.393  24.686  25.161  1.00  0.00     0.113 C 
ATOM      8  C   UNL A   1      33.831  25.214  25.260  1.00  0.00     0.045 C 
BRANCH   7   9
ATOM      9  C   UNL A   1      32.468  23.124  24.973  1.00  0.00     0.035 C 
ATOM     10  C   UNL A   1      33.826  22.568  24.535  1.00  0.00     0.007 C 
ENDBRANCH   7   9
BRANCH   7  11
ATOM     11  N   UNL A   1      31.833  25.226  23.854  1.00  0.00    -0.371 N 
ATOM     12  H   UNL A   1      31.654  24.543  23.170  1.00  0.00     0.161 HD
BRANCH  11  13
ATOM     13  C   UNL A   1      31.532  26.525  23.469  1.00  0.00     0.045 A 
ATOM     14  C   UNL A   1      30.207  26.976  23.443  1.00  0.00     0.111 A 
ATOM     15  C   UNL A   1      32.448  27.421  22.915  1.00  0.00    -0.027 A 
ATOM     16  C   UNL A   1      29.897  28.287  23.004  1.00  0.00     0.271 A 
ATOM     17  C   UNL A   1      32.193  28.791  22.730  1.00  0.00     0.012 A 
ATOM     18  C   UNL A   1      33.563  26.916  22.078  1.00  0.00     0.046 C 
ATOM     19  C   UNL A   1      30.892  29.230  22.753  1.00  0.00     0.086 A 
BRANCH  16  20
ATOM     20  N   UNL A   1      28.521  28.631  22.645  1.00  0.00     0.062 N 
ATOM     21  O   UNL A   1      28.349  29.481  21.762  1.00  0.00    -0.258 OA
ATOM     22  O   UNL A   1      27.608  28.083  23.283  1.00  0.00    -0.258 OA
ENDBRANCH  16  20
ENDBRANCH  11  13
ENDBRANCH   7  11
ENDBRANCH   4   7
ENDBRANCH   2   3
ENDBRANCH   1   2
BRANCH   1  23
ATOM     23  C   UNL A   1      32.643  29.757  27.344  1.00  0.00     0.023 C 
BRANCH  23  24
ATOM     24  C   UNL A   1      33.941  30.510  27.150  1.00  0.00     0.116 C 
BRANCH  24  25
ATOM     25  N   UNL A   1      34.362  31.352  28.270  1.00  0.00    -0.352 N 
ATOM     26  C   UNL A   1      35.436  31.108  29.119  1.00  0.00     0.251 C 
ATOM     27  H   UNL A   1      33.836  32.166  28.440  1.00  0.00     0.163 HD
ATOM     28  O   UNL A   1      35.727  31.854  30.045  1.00  0.00    -0.269 OA
BRANCH  26  29
ATOM     29  C   UNL A   1      36.283  29.941  28.784  1.00  0.00     0.039 A 
ATOM     30  C   UNL A   1      36.760  29.198  29.865  1.00  0.00     0.014 A 
ATOM     31  C   UNL A   1      36.964  29.972  27.568  1.00  0.00     0.014 A 
ATOM     32  C   UNL A   1      38.063  28.719  29.821  1.00  0.00     0.010 A 
ATOM     33  C   UNL A   1      38.297  29.595  27.571  1.00  0.00     0.010 A 
ATOM     34  C   UNL A   1      38.870  29.041  28.725  1.00  0.00    -0.014 A 
BRANCH  34  35
ATOM     35  C   UNL A   1      40.329  28.944  28.786  1.00  0.00     0.031 A 
ATOM     36  C   UNL A   1      41.010  27.751  28.240  1.00  0.00     0.074 A 
ATOM     37  C   UNL A   1      41.090  29.883  29.401  1.00  0.00     0.049 A 
ATOM     38  N   UNL A   1      42.040  27.202  28.800  1.00  0.00    -0.248 NA
ATOM     39  C   UNL A   1      40.564  27.057  27.036  1.00  0.00     0.031 C 
ATOM     40  C   UNL A   1      42.553  29.937  29.418  1.00  0.00     0.029 A 
ATOM     41  N   UNL A   1      40.697  30.872  30.322  1.00  0.00    -0.354 N 
ATOM     42  C   UNL A   1      42.526  26.263  27.927  1.00  0.00     0.074 A 
ATOM     43  C   UNL A   1      41.542  26.163  26.873  1.00  0.00     0.031 C 
ATOM     44  C   UNL A   1      42.948  30.635  30.492  1.00  0.00     0.029 A 
ATOM     45  C   UNL A   1      41.762  30.993  31.246  1.00  0.00     0.049 A 
ATOM     46  H   UNL A   1      39.851  31.376  30.323  1.00  0.00     0.167 HD
ATOM     47  C   UNL A   1      43.771  25.742  28.091  1.00  0.00     0.037 A 
ATOM     48  C   UNL A   1      41.598  30.830  32.588  1.00  0.00     0.037 A 
ATOM     49  C   UNL A   1      44.473  26.316  29.226  1.00  0.00     0.049 A 
ATOM     50  C   UNL A   1      42.447  29.741  33.196  1.00  0.00     0.074 A 
ATOM     51  C   UNL A   1      45.406  27.334  29.329  1.00  0.00     0.029 A 
ATOM     52  N   UNL A   1      44.021  26.067  30.517  1.00  0.00    -0.354 N 
ATOM     53  N   UNL A   1      43.100  28.861  32.491  1.00  0.00    -0.248 NA
ATOM     54  C   UNL A   1      42.579  29.510  34.632  1.00  0.00     0.031 C 
ATOM     55  C   UNL A   1      45.501  27.715  30.688  1.00  0.00     0.029 A 
ATOM     56  C   UNL A   1      44.634  26.919  31.414  1.00  0.00     0.049 A 
ATOM     57  H   UNL A   1      43.358  25.380  30.757  1.00  0.00     0.167 HD
ATOM     58  C   UNL A   1      43.672  27.936  33.328  1.00  0.00     0.074 A 
ATOM     59  C   UNL A   1      43.345  28.405  34.660  1.00  0.00     0.031 C 
ATOM     60  C   UNL A   1      44.342  26.852  32.836  1.00  0.00     0.037 A 
BRANCH  47  61
ATOM     61  C   UNL A   1      44.409  24.935  26.998  1.00  0.00     0.064 A 
ATOM     62  C   UNL A   1      44.177  23.553  26.862  1.00  0.00     0.173 A 
ATOM     63  C   UNL A   1      45.338  25.489  26.098  1.00  0.00     0.173 A 
ATOM     64  F   UNL A   1      43.266  22.920  27.611  1.00  0.00    -0.203 F 
ATOM     65  C   UNL A   1      44.905  22.767  25.969  1.00  0.00     0.198 A 
ATOM     66  C   UNL A   1      46.104  24.694  25.243  1.00  0.00     0.198 A 
ATOM     67  F   UNL A   1      45.536  26.816  26.051  1.00  0.00    -0.203 F 
ATOM     68  F   UNL A   1      44.663  21.450  25.895  1.00  0.00    -0.200 F 
ATOM     69  C   UNL A   1      45.895  23.329  25.188  1.00  0.00     0.200 A 
ATOM     70  F   UNL A   1      47.066  25.253  24.496  1.00  0.00    -0.200 F 
ATOM     71  F   UNL A   1      46.644  22.560  24.387  1.00  0.00    -0.200 F 
ENDBRANCH  47  61
BRANCH  48  72
ATOM     72  C   UNL A   1      40.265  31.259  33.072  1.00  0.00     0.064 A 
ATOM     73  C   UNL A   1      40.023  32.640  33.197  1.00  0.00     0.173 A 
ATOM     74  C   UNL A   1      39.158  30.405  33.032  1.00  0.00     0.173 A 
ATOM     75  F   UNL A   1      41.054  33.499  33.234  1.00  0.00    -0.203 F 
ATOM     76  C   UNL A   1      38.730  33.153  33.163  1.00  0.00     0.198 A 
ATOM     77  C   UNL A   1      37.863  30.923  33.007  1.00  0.00     0.198 A 
ATOM     78  F   UNL A   1      39.329  29.083  32.894  1.00  0.00    -0.203 F 
ATOM     79  F   UNL A   1      38.539  34.480  33.167  1.00  0.00    -0.200 F 
ATOM     80  C   UNL A   1      37.651  32.296  33.036  1.00  0.00     0.200 A 
ATOM     81  F   UNL A   1      36.818  30.095  32.862  1.00  0.00    -0.200 F 
ATOM     82  F   UNL A   1      36.414  32.791  32.900  1.00  0.00    -0.200 F 
ENDBRANCH  48  72
BRANCH  60  83
ATOM     83  C   UNL A   1      44.863  25.673  33.620  1.00  0.00     0.064 A 
ATOM     84  C   UNL A   1      44.049  24.756  34.304  1.00  0.00     0.173 A 
ATOM     85  C   UNL A   1      46.242  25.345  33.574  1.00  0.00     0.173 A 
ATOM     86  F   UNL A   1      42.717  24.897  34.335  1.00  0.00    -0.203 F 
ATOM     87  C   UNL A   1      44.578  23.623  34.932  1.00  0.00     0.198 A 
ATOM     88  C   UNL A   1      46.757  24.187  34.153  1.00  0.00     0.198 A 
ATOM     89  F   UNL A   1      47.128  26.129  32.943  1.00  0.00    -0.203 F 
ATOM     90  F   UNL A   1      43.763  22.795  35.600  1.00  0.00    -0.200 F 
ATOM     91  C   UNL A   1      45.927  23.331  34.845  1.00  0.00     0.200 A 
ATOM     92  F   UNL A   1      48.059  23.897  34.018  1.00  0.00    -0.200 F 
ATOM     93  F   UNL A   1      46.420  22.220  35.406  1.00  0.00    -0.200 F 
ENDBRANCH  60  83
ENDBRANCH  34  35
ENDBRANCH  26  29
ENDBRANCH  24  25
ENDBRANCH  23  24
ENDBRANCH   1  23
TORSDOF 15
ENDMDL
MODEL 3
REMARK VINA RESULT:     -12.2      3.920     10.124
REMARK SMILES CC[C@@](C)(Nc1cc([N+](=O)[O-])ccc1C)C(=O)NCCCCNC(=O)c1ccc(-c2c3nc(c(-c4c(F)c(F)c(F)c(F)c4F)c4ccc([nH]4)c(-c4c(F)c(F)c(F)c(F)c4F)c4nc(c(-c5c(F)c(F)c(F)c(F)c5F)c5ccc2[nH]5)C=C4)C=C3)cc1
REMARK SMILES IDX 20 1 19 2 18 3 16 4 17 5 3 7 4 8 2 9 1 10 5 11 6 13 7 14
REMARK SMILES IDX 14 15 8 16 13 17 15 18 12 19 9 20 10 21 11 22 21 23 22 24
REMARK SMILES IDX 23 25 24 26 25 28 26 29 27 30 88 31 28 32 87 33 29 34 30 35
REMARK SMILES IDX 31 36 81 37 32 38 86 39 80 40 82 41 33 42 85 43 79 44 78 45
REMARK SMILES IDX 34 47 66 48 46 49 65 50 47 51 50 52 64 53 83 54 48 55 49 56
REMARK SMILES IDX 63 58 84 59 51 60 35 61 36 62 44 63 37 64 38 65 42 66 45 67
REMARK SMILES IDX 39 68 40 69 43 70 41 71 67 72 68 73 76 74 69 75 70 76 74 77
REMARK SMILES IDX 77 78 71 79 72 80 75 81 73 82 52 83 53 84 61 85 54 86 55 87
REMARK SMILES IDX 59 88 62 89 56 90 57 91 60 92 58 93
REMARK H PARENT 18 6 5 12 23 27 82 46 50 57
REMARK Flexibility Score: inf
ROOT
ATOM      1  C   UNL A   1      37.287  21.677  24.707  1.00  0.00     0.023 C 
ENDROOT
BRANCH   1   2
ATOM      2  C   UNL A   1      36.048  20.844  25.142  1.00  0.00     0.116 C 
BRANCH   2   3
ATOM      3  N   UNL A   1      35.326  21.282  26.340  1.00  0.00    -0.354 N 
ATOM      4  C   UNL A   1      34.081  21.725  26.689  1.00  0.00     0.245 C 
ATOM      5  O   UNL A   1      33.970  21.921  27.912  1.00  0.00    -0.272 OA
ATOM      6  H   UNL A   1      35.913  21.246  27.129  1.00  0.00     0.163 HD
BRANCH   4   7
ATOM      7  C   UNL A   1      32.860  22.008  25.737  1.00  0.00     0.113 C 
ATOM      8  C   UNL A   1      32.189  20.727  25.223  1.00  0.00     0.045 C 
BRANCH   7   9
ATOM      9  C   UNL A   1      31.795  22.800  26.585  1.00  0.00     0.035 C 
ATOM     10  C   UNL A   1      30.328  22.499  26.265  1.00  0.00     0.007 C 
ENDBRANCH   7   9
BRANCH   7  11
ATOM     11  N   UNL A   1      33.125  22.868  24.512  1.00  0.00    -0.371 N 
ATOM     12  H   UNL A   1      33.427  22.371  23.718  1.00  0.00     0.161 HD
BRANCH  11  13
ATOM     13  C   UNL A   1      33.009  24.238  24.328  1.00  0.00     0.045 A 
ATOM     14  C   UNL A   1      32.128  24.762  23.374  1.00  0.00     0.111 A 
ATOM     15  C   UNL A   1      33.847  25.190  24.910  1.00  0.00    -0.027 A 
ATOM     16  C   UNL A   1      32.046  26.159  23.155  1.00  0.00     0.271 A 
ATOM     17  C   UNL A   1      33.595  26.573  24.895  1.00  0.00     0.012 A 
ATOM     18  C   UNL A   1      35.268  24.859  25.182  1.00  0.00     0.046 C 
ATOM     19  C   UNL A   1      32.693  27.071  23.986  1.00  0.00     0.086 A 
BRANCH  16  20
ATOM     20  N   UNL A   1      31.406  26.672  21.943  1.00  0.00     0.062 N 
ATOM     21  O   UNL A   1      30.615  27.617  22.062  1.00  0.00    -0.258 OA
ATOM     22  O   UNL A   1      31.660  26.096  20.873  1.00  0.00    -0.258 OA
ENDBRANCH  16  20
ENDBRANCH  11  13
ENDBRANCH   7  11
ENDBRANCH   4   7
ENDBRANCH   2   3
ENDBRANCH   1   2
BRANCH   1  23
ATOM     23  C   UNL A   1      38.489  21.709  25.664  1.00  0.00     0.023 C 
BRANCH  23  24
ATOM     24  C   UNL A   1      38.949  23.064  26.157  1.00  0.00     0.116 C 
BRANCH  24  25
ATOM     25  N   UNL A   1      40.389  23.207  26.374  1.00  0.00    -0.352 N 
ATOM     26  C   UNL A   1      41.055  24.383  26.698  1.00  0.00     0.251 C 
ATOM     27  H   UNL A   1      40.938  22.395  26.281  1.00  0.00     0.163 HD
ATOM     28  O   UNL A   1      42.268  24.431  26.856  1.00  0.00    -0.269 OA
BRANCH  26  29
ATOM     29  C   UNL A   1      40.206  25.571  26.942  1.00  0.00     0.039 A 
ATOM     30  C   UNL A   1      40.683  26.782  26.438  1.00  0.00     0.014 A 
ATOM     31  C   UNL A   1      39.348  25.529  28.040  1.00  0.00     0.014 A 
ATOM     32  C   UNL A   1      40.532  27.928  27.208  1.00  0.00     0.010 A 
ATOM     33  C   UNL A   1      39.300  26.646  28.857  1.00  0.00     0.010 A 
ATOM     34  C   UNL A   1      39.959  27.824  28.480  1.00  0.00    -0.014 A 
BRANCH  34  35
ATOM     35  C   UNL A   1      40.140  28.864  29.494  1.00  0.00     0.031 A 
ATOM     36  C   UNL A   1      39.108  29.908  29.669  1.00  0.00     0.074 A 
ATOM     37  C   UNL A   1      41.268  28.956  30.241  1.00  0.00     0.049 A 
ATOM     38  N   UNL A   1      39.386  31.147  29.917  1.00  0.00    -0.248 NA
ATOM     39  C   UNL A   1      37.678  29.647  29.542  1.00  0.00     0.031 C 
ATOM     40  C   UNL A   1      41.498  29.881  31.352  1.00  0.00     0.029 A 
ATOM     41  N   UNL A   1      42.527  28.371  30.013  1.00  0.00    -0.354 N 
ATOM     42  C   UNL A   1      38.206  31.778  30.218  1.00  0.00     0.074 A 
ATOM     43  C   UNL A   1      37.165  30.824  29.912  1.00  0.00     0.031 C 
ATOM     44  C   UNL A   1      42.818  30.059  31.501  1.00  0.00     0.029 A 
ATOM     45  C   UNL A   1      43.485  29.317  30.449  1.00  0.00     0.049 A 
ATOM     46  H   UNL A   1      42.705  27.483  29.626  1.00  0.00     0.167 HD
ATOM     47  C   UNL A   1      38.204  32.997  30.819  1.00  0.00     0.037 A 
ATOM     48  C   UNL A   1      44.467  29.801  29.638  1.00  0.00     0.037 A 
ATOM     49  C   UNL A   1      39.544  33.480  31.109  1.00  0.00     0.049 A 
ATOM     50  C   UNL A   1      44.457  31.299  29.467  1.00  0.00     0.074 A 
ATOM     51  C   UNL A   1      40.320  33.447  32.256  1.00  0.00     0.029 A 
ATOM     52  N   UNL A   1      40.399  33.815  30.066  1.00  0.00    -0.354 N 
ATOM     53  N   UNL A   1      43.468  32.060  29.845  1.00  0.00    -0.248 NA
ATOM     54  C   UNL A   1      45.516  32.055  28.803  1.00  0.00     0.031 C 
ATOM     55  C   UNL A   1      41.656  33.744  31.896  1.00  0.00     0.029 A 
ATOM     56  C   UNL A   1      41.689  33.969  30.533  1.00  0.00     0.049 A 
ATOM     57  H   UNL A   1      40.123  33.926  29.127  1.00  0.00     0.167 HD
ATOM     58  C   UNL A   1      43.702  33.351  29.443  1.00  0.00     0.074 A 
ATOM     59  C   UNL A   1      45.012  33.302  28.825  1.00  0.00     0.031 C 
ATOM     60  C   UNL A   1      42.775  34.334  29.638  1.00  0.00     0.037 A 
BRANCH  47  61
ATOM     61  C   UNL A   1      36.938  33.559  31.398  1.00  0.00     0.064 A 
ATOM     62  C   UNL A   1      36.663  33.504  32.777  1.00  0.00     0.173 A 
ATOM     63  C   UNL A   1      35.918  34.099  30.593  1.00  0.00     0.173 A 
ATOM     64  F   UNL A   1      37.577  33.076  33.656  1.00  0.00    -0.203 F 
ATOM     65  C   UNL A   1      35.417  33.855  33.296  1.00  0.00     0.198 A 
ATOM     66  C   UNL A   1      34.654  34.399  31.105  1.00  0.00     0.198 A 
ATOM     67  F   UNL A   1      36.125  34.321  29.286  1.00  0.00    -0.203 F 
ATOM     68  F   UNL A   1      35.196  33.761  34.615  1.00  0.00    -0.200 F 
ATOM     69  C   UNL A   1      34.400  34.265  32.456  1.00  0.00     0.200 A 
ATOM     70  F   UNL A   1      33.676  34.790  30.276  1.00  0.00    -0.200 F 
ATOM     71  F   UNL A   1      33.182  34.529  32.947  1.00  0.00    -0.200 F 
ENDBRANCH  47  61
BRANCH  48  72
ATOM     72  C   UNL A   1      44.935  28.818  28.633  1.00  0.00     0.064 A 
ATOM     73  C   UNL A   1      45.797  27.793  29.066  1.00  0.00     0.173 A 
ATOM     74  C   UNL A   1      44.271  28.641  27.415  1.00  0.00     0.173 A 
ATOM     75  F   UNL A   1      46.451  27.916  30.232  1.00  0.00    -0.203 F 
ATOM     76  C   UNL A   1      45.898  26.593  28.369  1.00  0.00     0.198 A 
ATOM     77  C   UNL A   1      44.383  27.438  26.715  1.00  0.00     0.198 A 
ATOM     78  F   UNL A   1      43.423  29.575  26.964  1.00  0.00    -0.203 F 
ATOM     79  F   UNL A   1      46.638  25.593  28.869  1.00  0.00    -0.200 F 
ATOM     80  C   UNL A   1      45.167  26.404  27.210  1.00  0.00     0.200 A 
ATOM     81  F   UNL A   1      43.657  27.246  25.604  1.00  0.00    -0.200 F 
ATOM     82  F   UNL A   1      45.183  25.215  26.594  1.00  0.00    -0.200 F 
ENDBRANCH  48  72
BRANCH  60  83
ATOM     83  C   UNL A   1      42.816  35.742  29.097  1.00  0.00     0.064 A 
ATOM     84  C   UNL A   1      42.077  36.185  27.989  1.00  0.00     0.173 A 
ATOM     85  C   UNL A   1      43.517  36.753  29.805  1.00  0.00     0.173 A 
ATOM     86  F   UNL A   1      41.293  35.349  27.297  1.00  0.00    -0.203 F 
ATOM     87  C   UNL A   1      42.076  37.527  27.591  1.00  0.00     0.198 A 
ATOM     88  C   UNL A   1      43.468  38.096  29.438  1.00  0.00     0.198 A 
ATOM     89  F   UNL A   1      44.251  36.467  30.889  1.00  0.00    -0.203 F 
ATOM     90  F   UNL A   1      41.380  37.895  26.506  1.00  0.00    -0.200 F 
ATOM     91  C   UNL A   1      42.757  38.482  28.322  1.00  0.00     0.200 A 
ATOM     92  F   UNL A   1      44.097  39.013  30.186  1.00  0.00    -0.200 F 
ATOM     93  F   UNL A   1      42.712  39.772  27.965  1.00  0.00    -0.200 F 
ENDBRANCH  60  83
ENDBRANCH  34  35
ENDBRANCH  26  29
ENDBRANCH  24  25
ENDBRANCH  23  24
ENDBRANCH   1  23
TORSDOF 15
ENDMDL
