MODEL 1
REMARK VINA RESULT:     -11.2      0.000      0.000
REMARK SMILES O=C(NCCCCNC(=O)[C@@H]1C[C@H]1c1cccc(F)c1F)c1ccc(-c2c3nc(c(-c4c(F)c(F)c(F)c(F)c4F)c4ccc([nH]4)c(-c4c(F)c(F)c(F)c(F)c4F)c4nc(c(-c5c(F)c(F)c(F)c(F)c5F)c5ccc2[nH]5)C=C4)C=C3)cc1
REMARK SMILES IDX 5 1 4 2 3 3 1 4 2 5 22 7 23 8 84 9 24 10 83 11 25 12 26 13
REMARK SMILES IDX 27 14 77 15 28 16 82 17 76 18 78 19 29 20 81 21 75 22 74 23
REMARK SMILES IDX 30 25 62 26 42 27 61 28 43 29 46 30 60 31 79 32 44 33 45 34
REMARK SMILES IDX 59 36 80 37 47 38 31 39 32 40 40 41 33 42 34 43 38 44 41 45
REMARK SMILES IDX 35 46 36 47 39 48 37 49 63 50 64 51 72 52 65 53 66 54 70 55
REMARK SMILES IDX 73 56 67 57 68 58 71 59 69 60 48 61 49 62 57 63 50 64 51 65
REMARK SMILES IDX 55 66 58 67 52 68 53 69 56 70 54 71 6 72 7 73 8 74 9 75
REMARK SMILES IDX 10 77 11 78 12 79 13 80 14 81 15 82 20 83 16 84 18 85 21 86
REMARK SMILES IDX 17 87 19 88
REMARK H PARENT 3 6 78 24 46 35 8 76
REMARK Flexibility Score: inf
ROOT
ATOM      1  C   UNL A   1      35.050  33.488  28.015  1.00  0.00     0.023 C 
ENDROOT
BRANCH   1   2
ATOM      2  C   UNL A   1      34.686  32.409  29.025  1.00  0.00     0.116 C 
BRANCH   2   3
ATOM      3  N   UNL A   1      34.076  31.239  28.411  1.00  0.00    -0.352 N 
ATOM      4  O   UNL A   1      34.025  29.227  27.386  1.00  0.00    -0.269 OA
ATOM      5  C   UNL A   1      34.663  30.059  28.022  1.00  0.00     0.251 C 
ATOM      6  H   UNL A   1      33.106  31.302  28.251  1.00  0.00     0.163 HD
BRANCH   5   7
ATOM      7  C   UNL A   1      36.082  29.809  28.350  1.00  0.00     0.039 A 
ATOM      8  C   UNL A   1      37.080  30.067  27.408  1.00  0.00     0.014 A 
ATOM      9  C   UNL A   1      36.416  29.296  29.606  1.00  0.00     0.014 A 
ATOM     10  C   UNL A   1      38.384  29.663  27.660  1.00  0.00     0.010 A 
ATOM     11  C   UNL A   1      37.747  28.986  29.896  1.00  0.00     0.010 A 
ATOM     12  C   UNL A   1      38.738  29.138  28.915  1.00  0.00    -0.014 A 
BRANCH  12  13
ATOM     13  C   UNL A   1      40.165  28.840  29.196  1.00  0.00     0.031 A 
ATOM     14  C   UNL A   1      41.014  29.769  30.014  1.00  0.00     0.074 A 
ATOM     15  C   UNL A   1      40.682  27.692  28.717  1.00  0.00     0.049 A 
ATOM     16  N   UNL A   1      42.274  29.645  30.355  1.00  0.00    -0.248 NA
ATOM     17  C   UNL A   1      40.380  31.000  30.510  1.00  0.00     0.031 C 
ATOM     18  C   UNL A   1      39.949  26.720  27.904  1.00  0.00     0.029 A 
ATOM     19  N   UNL A   1      41.928  27.137  28.855  1.00  0.00    -0.354 N 
ATOM     20  C   UNL A   1      42.584  30.781  31.089  1.00  0.00     0.074 A 
ATOM     21  C   UNL A   1      41.392  31.601  31.121  1.00  0.00     0.031 C 
ATOM     22  C   UNL A   1      40.739  25.667  27.658  1.00  0.00     0.029 A 
ATOM     23  C   UNL A   1      42.056  25.921  28.229  1.00  0.00     0.049 A 
ATOM     24  H   UNL A   1      42.660  27.567  29.354  1.00  0.00     0.167 HD
ATOM     25  C   UNL A   1      43.759  31.100  31.687  1.00  0.00     0.037 A 
ATOM     26  C   UNL A   1      43.122  25.107  28.104  1.00  0.00     0.037 A 
ATOM     27  C   UNL A   1      44.934  30.266  31.659  1.00  0.00     0.049 A 
ATOM     28  C   UNL A   1      44.419  25.505  28.744  1.00  0.00     0.074 A 
ATOM     29  C   UNL A   1      46.156  30.483  32.271  1.00  0.00     0.029 A 
ATOM     30  N   UNL A   1      45.038  29.061  30.977  1.00  0.00    -0.354 N 
ATOM     31  N   UNL A   1      44.690  26.564  29.465  1.00  0.00    -0.248 NA
ATOM     32  C   UNL A   1      45.558  24.601  28.550  1.00  0.00     0.031 C 
ATOM     33  C   UNL A   1      47.020  29.446  31.907  1.00  0.00     0.029 A 
ATOM     34  C   UNL A   1      46.316  28.543  31.126  1.00  0.00     0.049 A 
ATOM     35  H   UNL A   1      44.313  28.637  30.465  1.00  0.00     0.167 HD
ATOM     36  C   UNL A   1      46.024  26.450  29.825  1.00  0.00     0.074 A 
ATOM     37  C   UNL A   1      46.503  25.205  29.259  1.00  0.00     0.031 C 
ATOM     38  C   UNL A   1      46.782  27.303  30.555  1.00  0.00     0.037 A 
BRANCH  25  39
ATOM     39  C   UNL A   1      43.852  32.410  32.418  1.00  0.00     0.064 A 
ATOM     40  C   UNL A   1      43.473  32.497  33.768  1.00  0.00     0.173 A 
ATOM     41  C   UNL A   1      44.222  33.596  31.766  1.00  0.00     0.173 A 
ATOM     42  F   UNL A   1      43.102  31.396  34.438  1.00  0.00    -0.203 F 
ATOM     43  C   UNL A   1      43.444  33.722  34.429  1.00  0.00     0.198 A 
ATOM     44  C   UNL A   1      44.221  34.816  32.440  1.00  0.00     0.198 A 
ATOM     45  F   UNL A   1      44.600  33.570  30.479  1.00  0.00    -0.203 F 
ATOM     46  F   UNL A   1      43.038  33.784  35.705  1.00  0.00    -0.200 F 
ATOM     47  C   UNL A   1      43.821  34.880  33.766  1.00  0.00     0.200 A 
ATOM     48  F   UNL A   1      44.607  35.930  31.805  1.00  0.00    -0.200 F 
ATOM     49  F   UNL A   1      43.798  36.058  34.405  1.00  0.00    -0.200 F 
ENDBRANCH  25  39
BRANCH  26  50
ATOM     50  C   UNL A   1      42.979  23.841  27.341  1.00  0.00     0.064 A 
ATOM     51  C   UNL A   1      42.538  22.662  27.963  1.00  0.00     0.173 A 
ATOM     52  C   UNL A   1      43.345  23.768  25.991  1.00  0.00     0.173 A 
ATOM     53  F   UNL A   1      42.186  22.677  29.256  1.00  0.00    -0.203 F 
ATOM     54  C   UNL A   1      42.503  21.453  27.273  1.00  0.00     0.198 A 
ATOM     55  C   UNL A   1      43.278  22.565  25.292  1.00  0.00     0.198 A 
ATOM     56  F   UNL A   1      43.758  24.871  25.349  1.00  0.00    -0.203 F 
ATOM     57  F   UNL A   1      42.132  20.333  27.908  1.00  0.00    -0.200 F 
ATOM     58  C   UNL A   1      42.870  21.406  25.937  1.00  0.00     0.200 A 
ATOM     59  F   UNL A   1      43.612  22.526  23.995  1.00  0.00    -0.200 F 
ATOM     60  F   UNL A   1      42.831  20.244  25.271  1.00  0.00    -0.200 F 
ENDBRANCH  26  50
BRANCH  38  61
ATOM     61  C   UNL A   1      48.214  26.923  30.802  1.00  0.00     0.064 A 
ATOM     62  C   UNL A   1      49.229  27.384  29.948  1.00  0.00     0.173 A 
ATOM     63  C   UNL A   1      48.572  26.038  31.828  1.00  0.00     0.173 A 
ATOM     64  F   UNL A   1      48.939  28.227  28.946  1.00  0.00    -0.203 F 
ATOM     65  C   UNL A   1      50.544  26.954  30.100  1.00  0.00     0.198 A 
ATOM     66  C   UNL A   1      49.894  25.637  31.999  1.00  0.00     0.198 A 
ATOM     67  F   UNL A   1      47.642  25.580  32.680  1.00  0.00    -0.203 F 
ATOM     68  F   UNL A   1      51.487  27.373  29.245  1.00  0.00    -0.200 F 
ATOM     69  C   UNL A   1      50.877  26.084  31.128  1.00  0.00     0.200 A 
ATOM     70  F   UNL A   1      50.219  24.817  33.008  1.00  0.00    -0.200 F 
ATOM     71  F   UNL A   1      52.144  25.678  31.278  1.00  0.00    -0.200 F 
ENDBRANCH  38  61
ENDBRANCH  12  13
ENDBRANCH   5   7
ENDBRANCH   2   3
ENDBRANCH   1   2
BRANCH   1  72
ATOM     72  C   UNL A   1      34.345  34.827  28.221  1.00  0.00     0.023 C 
BRANCH  72  73
ATOM     73  C   UNL A   1      33.377  34.864  29.401  1.00  0.00     0.116 C 
BRANCH  73  74
ATOM     74  N   UNL A   1      33.146  36.221  29.858  1.00  0.00    -0.356 N 
ATOM     75  C   UNL A   1      33.155  36.738  31.122  1.00  0.00     0.223 C 
ATOM     76  H   UNL A   1      32.951  36.872  29.145  1.00  0.00     0.163 HD
ATOM     77  O   UNL A   1      32.860  37.920  31.288  1.00  0.00    -0.275 OA
BRANCH  75  78
ATOM     78  C   UNL A   1      33.552  35.881  32.266  1.00  0.00     0.086 C 
ATOM     79  C   UNL A   1      33.809  36.458  33.630  1.00  0.00     0.023 C 
ATOM     80  C   UNL A   1      34.977  36.004  32.791  1.00  0.00     0.035 C 
BRANCH  80  81
ATOM     81  C   UNL A   1      35.740  34.732  33.067  1.00  0.00    -0.005 A 
ATOM     82  C   UNL A   1      35.818  34.220  34.379  1.00  0.00     0.007 A 
ATOM     83  C   UNL A   1      36.353  33.983  32.052  1.00  0.00     0.162 A 
ATOM     84  C   UNL A   1      36.474  33.017  34.661  1.00  0.00     0.004 A 
ATOM     85  C   UNL A   1      37.005  32.785  32.332  1.00  0.00     0.159 A 
ATOM     86  F   UNL A   1      36.307  34.422  30.785  1.00  0.00    -0.203 F 
ATOM     87  C   UNL A   1      37.068  32.294  33.630  1.00  0.00     0.042 A 
ATOM     88  F   UNL A   1      37.576  32.085  31.341  1.00  0.00    -0.204 F 
ENDBRANCH  80  81
ENDBRANCH  75  78
ENDBRANCH  73  74
ENDBRANCH  72  73
ENDBRANCH   1  72
TORSDOF 12
ENDMDL
MODEL 2
REMARK VINA RESULT:     -11.1      0.860      7.505
REMARK SMILES O=C(NCCCCNC(=O)[C@@H]1C[C@H]1c1cccc(F)c1F)c1ccc(-c2c3nc(c(-c4c(F)c(F)c(F)c(F)c4F)c4ccc([nH]4)c(-c4c(F)c(F)c(F)c(F)c4F)c4nc(c(-c5c(F)c(F)c(F)c(F)c5F)c5ccc2[nH]5)C=C4)C=C3)cc1
REMARK SMILES IDX 5 1 4 2 3 3 1 4 2 5 22 7 23 8 84 9 24 10 83 11 25 12 26 13
REMARK SMILES IDX 27 14 77 15 28 16 82 17 76 18 78 19 29 20 81 21 75 22 74 23
REMARK SMILES IDX 30 25 62 26 42 27 61 28 43 29 46 30 60 31 79 32 44 33 45 34
REMARK SMILES IDX 59 36 80 37 47 38 31 39 32 40 40 41 33 42 34 43 38 44 41 45
REMARK SMILES IDX 35 46 36 47 39 48 37 49 63 50 64 51 72 52 65 53 66 54 70 55
REMARK SMILES IDX 73 56 67 57 68 58 71 59 69 60 48 61 49 62 57 63 50 64 51 65
REMARK SMILES IDX 55 66 58 67 52 68 53 69 56 70 54 71 6 72 7 73 8 74 9 75
REMARK SMILES IDX 10 77 11 78 12 79 13 80 14 81 15 82 20 83 16 84 18 85 21 86
REMARK SMILES IDX 17 87 19 88
REMARK H PARENT 3 6 78 24 46 35 8 76
REMARK Flexibility Score: inf
ROOT
ATOM      1  C   UNL A   1      34.972  33.607  28.016  1.00  0.00     0.023 C 
ENDROOT
BRANCH   1   2
ATOM      2  C   UNL A   1      34.426  32.486  28.888  1.00  0.00     0.116 C 
BRANCH   2   3
ATOM      3  N   UNL A   1      33.867  31.386  28.116  1.00  0.00    -0.352 N 
ATOM      4  O   UNL A   1      33.897  29.475  26.911  1.00  0.00    -0.269 OA
ATOM      5  C   UNL A   1      34.480  30.236  27.677  1.00  0.00     0.251 C 
ATOM      6  H   UNL A   1      32.917  31.478  27.874  1.00  0.00     0.163 HD
BRANCH   5   7
ATOM      7  C   UNL A   1      35.859  29.935  28.111  1.00  0.00     0.039 A 
ATOM      8  C   UNL A   1      36.935  30.156  27.248  1.00  0.00     0.014 A 
ATOM      9  C   UNL A   1      36.078  29.410  29.387  1.00  0.00     0.014 A 
ATOM     10  C   UNL A   1      38.200  29.704  27.597  1.00  0.00     0.010 A 
ATOM     11  C   UNL A   1      37.371  29.052  29.777  1.00  0.00     0.010 A 
ATOM     12  C   UNL A   1      38.439  29.168  28.873  1.00  0.00    -0.014 A 
BRANCH  12  13
ATOM     13  C   UNL A   1      39.828  28.818  29.261  1.00  0.00     0.031 A 
ATOM     14  C   UNL A   1      40.493  27.569  28.759  1.00  0.00     0.074 A 
ATOM     15  C   UNL A   1      40.498  29.667  30.064  1.00  0.00     0.049 A 
ATOM     16  N   UNL A   1      41.703  27.129  28.999  1.00  0.00    -0.248 NA
ATOM     17  C   UNL A   1      39.703  26.694  27.880  1.00  0.00     0.031 C 
ATOM     18  C   UNL A   1      39.947  30.906  30.618  1.00  0.00     0.029 A 
ATOM     19  N   UNL A   1      41.784  29.635  30.540  1.00  0.00    -0.354 N 
ATOM     20  C   UNL A   1      41.815  25.925  28.318  1.00  0.00     0.074 A 
ATOM     21  C   UNL A   1      40.540  25.685  27.676  1.00  0.00     0.031 C 
ATOM     22  C   UNL A   1      40.899  31.540  31.313  1.00  0.00     0.029 A 
ATOM     23  C   UNL A   1      42.104  30.719  31.321  1.00  0.00     0.049 A 
ATOM     24  H   UNL A   1      42.416  28.906  30.342  1.00  0.00     0.167 HD
ATOM     25  C   UNL A   1      42.890  25.104  28.232  1.00  0.00     0.037 A 
ATOM     26  C   UNL A   1      43.234  31.013  31.991  1.00  0.00     0.037 A 
ATOM     27  C   UNL A   1      44.159  25.364  28.865  1.00  0.00     0.049 A 
ATOM     28  C   UNL A   1      44.395  30.066  31.909  1.00  0.00     0.074 A 
ATOM     29  C   UNL A   1      45.321  24.615  28.800  1.00  0.00     0.029 A 
ATOM     30  N   UNL A   1      44.432  26.452  29.684  1.00  0.00    -0.354 N 
ATOM     31  N   UNL A   1      44.500  28.950  31.232  1.00  0.00    -0.248 NA
ATOM     32  C   UNL A   1      45.591  30.415  32.685  1.00  0.00     0.031 C 
ATOM     33  C   UNL A   1      46.274  25.210  29.631  1.00  0.00     0.029 A 
ATOM     34  C   UNL A   1      45.733  26.372  30.158  1.00  0.00     0.049 A 
ATOM     35  H   UNL A   1      43.797  27.173  29.895  1.00  0.00     0.167 HD
ATOM     36  C   UNL A   1      45.776  28.468  31.486  1.00  0.00     0.074 A 
ATOM     37  C   UNL A   1      46.416  29.426  32.364  1.00  0.00     0.031 C 
ATOM     38  C   UNL A   1      46.359  27.331  31.034  1.00  0.00     0.037 A 
BRANCH  25  39
ATOM     39  C   UNL A   1      42.755  23.836  27.437  1.00  0.00     0.064 A 
ATOM     40  C   UNL A   1      42.335  22.649  28.061  1.00  0.00     0.173 A 
ATOM     41  C   UNL A   1      43.130  23.766  26.087  1.00  0.00     0.173 A 
ATOM     42  F   UNL A   1      41.973  22.656  29.352  1.00  0.00    -0.203 F 
ATOM     43  C   UNL A   1      42.314  21.441  27.369  1.00  0.00     0.198 A 
ATOM     44  C   UNL A   1      43.078  22.561  25.389  1.00  0.00     0.198 A 
ATOM     45  F   UNL A   1      43.532  24.870  25.440  1.00  0.00    -0.203 F 
ATOM     46  F   UNL A   1      41.949  20.316  27.999  1.00  0.00    -0.200 F 
ATOM     47  C   UNL A   1      42.682  21.399  26.033  1.00  0.00     0.200 A 
ATOM     48  F   UNL A   1      43.412  22.525  24.092  1.00  0.00    -0.200 F 
ATOM     49  F   UNL A   1      42.655  20.236  25.366  1.00  0.00    -0.200 F 
ENDBRANCH  25  39
BRANCH  26  50
ATOM     50  C   UNL A   1      43.298  32.265  32.787  1.00  0.00     0.064 A 
ATOM     51  C   UNL A   1      42.926  32.286  34.141  1.00  0.00     0.173 A 
ATOM     52  C   UNL A   1      43.666  33.478  32.194  1.00  0.00     0.173 A 
ATOM     53  F   UNL A   1      42.554  31.153  34.753  1.00  0.00    -0.203 F 
ATOM     54  C   UNL A   1      42.887  33.479  34.859  1.00  0.00     0.198 A 
ATOM     55  C   UNL A   1      43.660  34.666  32.922  1.00  0.00     0.198 A 
ATOM     56  F   UNL A   1      44.045  33.507  30.907  1.00  0.00    -0.203 F 
ATOM     57  F   UNL A   1      42.473  33.478  36.133  1.00  0.00    -0.200 F 
ATOM     58  C   UNL A   1      43.257  34.668  34.249  1.00  0.00     0.200 A 
ATOM     59  F   UNL A   1      44.039  35.811  32.336  1.00  0.00    -0.200 F 
ATOM     60  F   UNL A   1      43.224  35.815  34.941  1.00  0.00    -0.200 F 
ENDBRANCH  26  50
BRANCH  38  61
ATOM     61  C   UNL A   1      47.770  27.055  31.467  1.00  0.00     0.064 A 
ATOM     62  C   UNL A   1      48.852  27.556  30.724  1.00  0.00     0.173 A 
ATOM     63  C   UNL A   1      48.054  26.229  32.563  1.00  0.00     0.173 A 
ATOM     64  F   UNL A   1      48.635  28.346  29.662  1.00  0.00    -0.203 F 
ATOM     65  C   UNL A   1      50.163  27.221  31.050  1.00  0.00     0.198 A 
ATOM     66  C   UNL A   1      49.368  25.923  32.907  1.00  0.00     0.198 A 
ATOM     67  F   UNL A   1      47.057  25.737  33.313  1.00  0.00    -0.203 F 
ATOM     68  F   UNL A   1      51.175  27.675  30.300  1.00  0.00    -0.200 F 
ATOM     69  C   UNL A   1      50.420  26.408  32.144  1.00  0.00     0.200 A 
ATOM     70  F   UNL A   1      49.617  25.159  33.980  1.00  0.00    -0.200 F 
ATOM     71  F   UNL A   1      51.682  26.092  32.462  1.00  0.00    -0.200 F 
ENDBRANCH  38  61
ENDBRANCH  12  13
ENDBRANCH   5   7
ENDBRANCH   2   3
ENDBRANCH   1   2
BRANCH   1  72
ATOM     72  C   UNL A   1      34.310  34.967  28.225  1.00  0.00     0.023 C 
BRANCH  72  73
ATOM     73  C   UNL A   1      33.214  34.986  29.288  1.00  0.00     0.116 C 
BRANCH  73  74
ATOM     74  N   UNL A   1      33.051  36.309  29.861  1.00  0.00    -0.356 N 
ATOM     75  C   UNL A   1      33.154  36.725  31.157  1.00  0.00     0.223 C 
ATOM     76  H   UNL A   1      32.831  37.018  29.214  1.00  0.00     0.163 HD
ATOM     77  O   UNL A   1      32.905  37.897  31.432  1.00  0.00    -0.275 OA
BRANCH  75  78
ATOM     78  C   UNL A   1      33.598  35.772  32.204  1.00  0.00     0.086 C 
ATOM     79  C   UNL A   1      34.023  36.241  33.568  1.00  0.00     0.023 C 
ATOM     80  C   UNL A   1      35.071  35.769  32.592  1.00  0.00     0.035 C 
BRANCH  80  81
ATOM     81  C   UNL A   1      35.767  34.436  32.717  1.00  0.00    -0.005 A 
ATOM     82  C   UNL A   1      36.169  33.732  31.563  1.00  0.00     0.007 A 
ATOM     83  C   UNL A   1      36.090  33.866  33.957  1.00  0.00     0.162 A 
ATOM     84  C   UNL A   1      36.861  32.519  31.646  1.00  0.00     0.004 A 
ATOM     85  C   UNL A   1      36.780  32.660  34.041  1.00  0.00     0.159 A 
ATOM     86  F   UNL A   1      35.733  34.496  35.088  1.00  0.00    -0.203 F 
ATOM     87  C   UNL A   1      37.171  31.983  32.892  1.00  0.00     0.042 A 
ATOM     88  F   UNL A   1      37.082  32.141  35.239  1.00  0.00    -0.204 F 
ENDBRANCH  80  81
ENDBRANCH  75  78
ENDBRANCH  73  74
ENDBRANCH  72  73
ENDBRANCH   1  72
TORSDOF 12
ENDMDL
MODEL 3
REMARK VINA RESULT:     -11.1      4.362      7.223
REMARK SMILES O=C(NCCCCNC(=O)[C@@H]1C[C@H]1c1cccc(F)c1F)c1ccc(-c2c3nc(c(-c4c(F)c(F)c(F)c(F)c4F)c4ccc([nH]4)c(-c4c(F)c(F)c(F)c(F)c4F)c4nc(c(-c5c(F)c(F)c(F)c(F)c5F)c5ccc2[nH]5)C=C4)C=C3)cc1
REMARK SMILES IDX 5 1 4 2 3 3 1 4 2 5 22 7 23 8 84 9 24 10 83 11 25 12 26 13
REMARK SMILES IDX 27 14 77 15 28 16 82 17 76 18 78 19 29 20 81 21 75 22 74 23
REMARK SMILES IDX 30 25 62 26 42 27 61 28 43 29 46 30 60 31 79 32 44 33 45 34
REMARK SMILES IDX 59 36 80 37 47 38 31 39 32 40 40 41 33 42 34 43 38 44 41 45
REMARK SMILES IDX 35 46 36 47 39 48 37 49 63 50 64 51 72 52 65 53 66 54 70 55
REMARK SMILES IDX 73 56 67 57 68 58 71 59 69 60 48 61 49 62 57 63 50 64 51 65
REMARK SMILES IDX 55 66 58 67 52 68 53 69 56 70 54 71 6 72 7 73 8 74 9 75
REMARK SMILES IDX 10 77 11 78 12 79 13 80 14 81 15 82 20 83 16 84 18 85 21 86
REMARK SMILES IDX 17 87 19 88
REMARK H PARENT 3 6 78 24 46 35 8 76
REMARK Flexibility Score: inf
ROOT
ATOM      1  C   UNL A   1      31.534  31.998  26.852  1.00  0.00     0.023 C 
ENDROOT
BRANCH   1   2
ATOM      2  C   UNL A   1      32.789  32.842  27.019  1.00  0.00     0.116 C 
BRANCH   2   3
ATOM      3  N   UNL A   1      32.518  34.163  27.567  1.00  0.00    -0.352 N 
ATOM      4  O   UNL A   1      32.653  35.855  29.056  1.00  0.00    -0.269 OA
ATOM      5  C   UNL A   1      33.102  34.793  28.639  1.00  0.00     0.251 C 
ATOM      6  H   UNL A   1      31.817  34.677  27.104  1.00  0.00     0.163 HD
BRANCH   5   7
ATOM      7  C   UNL A   1      34.261  34.167  29.308  1.00  0.00     0.039 A 
ATOM      8  C   UNL A   1      35.562  34.519  28.943  1.00  0.00     0.014 A 
ATOM      9  C   UNL A   1      34.045  33.205  30.299  1.00  0.00     0.014 A 
ATOM     10  C   UNL A   1      36.637  33.799  29.448  1.00  0.00     0.010 A 
ATOM     11  C   UNL A   1      35.134  32.554  30.882  1.00  0.00     0.010 A 
ATOM     12  C   UNL A   1      36.438  32.824  30.439  1.00  0.00    -0.014 A 
BRANCH  12  13
ATOM     13  C   UNL A   1      37.620  32.167  31.052  1.00  0.00     0.031 A 
ATOM     14  C   UNL A   1      38.081  32.515  32.438  1.00  0.00     0.074 A 
ATOM     15  C   UNL A   1      38.264  31.222  30.340  1.00  0.00     0.049 A 
ATOM     16  N   UNL A   1      39.089  32.023  33.117  1.00  0.00    -0.248 NA
ATOM     17  C   UNL A   1      37.324  33.549  33.158  1.00  0.00     0.031 C 
ATOM     18  C   UNL A   1      37.908  30.811  28.981  1.00  0.00     0.029 A 
ATOM     19  N   UNL A   1      39.335  30.426  30.657  1.00  0.00    -0.354 N 
ATOM     20  C   UNL A   1      39.096  32.696  34.331  1.00  0.00     0.074 A 
ATOM     21  C   UNL A   1      38.011  33.653  34.289  1.00  0.00     0.031 C 
ATOM     22  C   UNL A   1      38.708  29.807  28.600  1.00  0.00     0.029 A 
ATOM     23  C   UNL A   1      39.683  29.555  29.654  1.00  0.00     0.049 A 
ATOM     24  H   UNL A   1      39.808  30.474  31.520  1.00  0.00     0.167 HD
ATOM     25  C   UNL A   1      39.931  32.518  35.384  1.00  0.00     0.037 A 
ATOM     26  C   UNL A   1      40.690  28.664  29.577  1.00  0.00     0.037 A 
ATOM     27  C   UNL A   1      40.998  31.550  35.417  1.00  0.00     0.049 A 
ATOM     28  C   UNL A   1      41.621  28.517  30.743  1.00  0.00     0.074 A 
ATOM     29  C   UNL A   1      41.869  31.266  36.455  1.00  0.00     0.029 A 
ATOM     30  N   UNL A   1      41.347  30.715  34.365  1.00  0.00    -0.354 N 
ATOM     31  N   UNL A   1      41.595  29.132  31.900  1.00  0.00    -0.248 NA
ATOM     32  C   UNL A   1      42.722  27.558  30.596  1.00  0.00     0.031 C 
ATOM     33  C   UNL A   1      42.785  30.309  36.010  1.00  0.00     0.029 A 
ATOM     34  C   UNL A   1      42.443  29.941  34.719  1.00  0.00     0.049 A 
ATOM     35  H   UNL A   1      40.885  30.676  33.497  1.00  0.00     0.167 HD
ATOM     36  C   UNL A   1      42.665  28.628  32.625  1.00  0.00     0.074 A 
ATOM     37  C   UNL A   1      43.308  27.638  31.784  1.00  0.00     0.031 C 
ATOM     38  C   UNL A   1      43.076  28.961  33.872  1.00  0.00     0.037 A 
BRANCH  25  39
ATOM     39  C   UNL A   1      39.744  33.390  36.594  1.00  0.00     0.064 A 
ATOM     40  C   UNL A   1      38.833  33.023  37.599  1.00  0.00     0.173 A 
ATOM     41  C   UNL A   1      40.388  34.630  36.718  1.00  0.00     0.173 A 
ATOM     42  F   UNL A   1      38.183  31.853  37.527  1.00  0.00    -0.203 F 
ATOM     43  C   UNL A   1      38.563  33.872  38.669  1.00  0.00     0.198 A 
ATOM     44  C   UNL A   1      40.138  35.463  37.807  1.00  0.00     0.198 A 
ATOM     45  F   UNL A   1      41.273  35.027  35.792  1.00  0.00    -0.203 F 
ATOM     46  F   UNL A   1      37.658  33.516  39.592  1.00  0.00    -0.200 F 
ATOM     47  C   UNL A   1      39.217  35.089  38.774  1.00  0.00     0.200 A 
ATOM     48  F   UNL A   1      40.788  36.629  37.920  1.00  0.00    -0.200 F 
ATOM     49  F   UNL A   1      38.960  35.902  39.809  1.00  0.00    -0.200 F 
ENDBRANCH  25  39
BRANCH  26  50
ATOM     50  C   UNL A   1      40.845  27.854  28.342  1.00  0.00     0.064 A 
ATOM     51  C   UNL A   1      40.289  26.569  28.239  1.00  0.00     0.173 A 
ATOM     52  C   UNL A   1      41.611  28.320  27.266  1.00  0.00     0.173 A 
ATOM     53  F   UNL A   1      39.556  26.072  29.246  1.00  0.00    -0.203 F 
ATOM     54  C   UNL A   1      40.521  25.770  27.123  1.00  0.00     0.198 A 
ATOM     55  C   UNL A   1      41.815  27.533  26.135  1.00  0.00     0.198 A 
ATOM     56  F   UNL A   1      42.150  29.547  27.310  1.00  0.00    -0.203 F 
ATOM     57  F   UNL A   1      40.025  24.526  27.077  1.00  0.00    -0.200 F 
ATOM     58  C   UNL A   1      41.282  26.253  26.070  1.00  0.00     0.200 A 
ATOM     59  F   UNL A   1      42.533  28.011  25.109  1.00  0.00    -0.200 F 
ATOM     60  F   UNL A   1      41.502  25.487  24.994  1.00  0.00    -0.200 F 
ENDBRANCH  26  50
BRANCH  38  61
ATOM     61  C   UNL A   1      44.275  28.243  34.422  1.00  0.00     0.064 A 
ATOM     62  C   UNL A   1      45.566  28.754  34.216  1.00  0.00     0.173 A 
ATOM     63  C   UNL A   1      44.155  27.009  35.078  1.00  0.00     0.173 A 
ATOM     64  F   UNL A   1      45.737  29.927  33.588  1.00  0.00    -0.203 F 
ATOM     65  C   UNL A   1      46.692  28.046  34.626  1.00  0.00     0.198 A 
ATOM     66  C   UNL A   1      45.282  26.320  35.517  1.00  0.00     0.198 A 
ATOM     67  F   UNL A   1      42.943  26.484  35.312  1.00  0.00    -0.203 F 
ATOM     68  F   UNL A   1      47.915  28.534  34.379  1.00  0.00    -0.200 F 
ATOM     69  C   UNL A   1      46.549  26.831  35.280  1.00  0.00     0.200 A 
ATOM     70  F   UNL A   1      45.142  25.159  36.172  1.00  0.00    -0.200 F 
ATOM     71  F   UNL A   1      47.633  26.155  35.682  1.00  0.00    -0.200 F 
ENDBRANCH  38  61
ENDBRANCH  12  13
ENDBRANCH   5   7
ENDBRANCH   2   3
ENDBRANCH   1   2
BRANCH   1  72
ATOM     72  C   UNL A   1      31.769  30.490  26.835  1.00  0.00     0.023 C 
BRANCH  72  73
ATOM     73  C   UNL A   1      32.475  29.967  25.586  1.00  0.00     0.116 C 
BRANCH  73  74
ATOM     74  N   UNL A   1      33.026  28.642  25.801  1.00  0.00    -0.356 N 
ATOM     75  C   UNL A   1      32.423  27.418  25.740  1.00  0.00     0.223 C 
ATOM     76  H   UNL A   1      33.984  28.622  26.026  1.00  0.00     0.163 HD
ATOM     77  O   UNL A   1      33.072  26.416  26.030  1.00  0.00    -0.275 OA
BRANCH  75  78
ATOM     78  C   UNL A   1      31.012  27.313  25.294  1.00  0.00     0.086 C 
ATOM     79  C   UNL A   1      30.471  26.049  24.684  1.00  0.00     0.023 C 
ATOM     80  C   UNL A   1      30.738  27.240  23.798  1.00  0.00     0.035 C 
BRANCH  80  81
ATOM     81  C   UNL A   1      29.639  28.107  23.237  1.00  0.00    -0.005 A 
ATOM     82  C   UNL A   1      28.288  27.823  23.528  1.00  0.00     0.007 A 
ATOM     83  C   UNL A   1      29.897  29.246  22.459  1.00  0.00     0.162 A 
ATOM     84  C   UNL A   1      27.249  28.637  23.066  1.00  0.00     0.004 A 
ATOM     85  C   UNL A   1      28.863  30.058  22.000  1.00  0.00     0.159 A 
ATOM     86  F   UNL A   1      31.164  29.566  22.155  1.00  0.00    -0.203 F 
ATOM     87  C   UNL A   1      27.539  29.763  22.301  1.00  0.00     0.042 A 
ATOM     88  F   UNL A   1      29.139  31.144  21.265  1.00  0.00    -0.204 F 
ENDBRANCH  80  81
ENDBRANCH  75  78
ENDBRANCH  73  74
ENDBRANCH  72  73
ENDBRANCH   1  72
TORSDOF 12
ENDMDL
