MODEL 1
REMARK VINA RESULT:     -11.1      0.000      0.000
REMARK SMILES CCC1(CC)C[NH+](C2(C(=O)NCCCCNC(=O)c3ccc(-c4c5nc(c(-c6c(F)c(F)c(F)c(F)c6F)c6ccc([nH]6)c(-c6c(F)c(F)c(F)c(F)c6F)c6nc(c(-c7c(F)c(F)c(F)c(F)c7F)c7ccc4[nH]7)C=C6)C=C5)cc3)CC2)C1
REMARK SMILES IDX 13 1 12 2 11 3 9 4 10 5 8 7 82 8 83 9 7 10 3 11 6 12 84 13
REMARK SMILES IDX 2 15 1 16 4 17 5 18 14 19 15 20 16 21 17 22 18 24 19 25
REMARK SMILES IDX 20 26 81 27 21 28 80 29 22 30 23 31 24 32 74 33 25 34 79 35
REMARK SMILES IDX 73 36 75 37 26 38 78 39 72 40 71 41 27 43 59 44 39 45 58 46
REMARK SMILES IDX 40 47 43 48 57 49 76 50 41 51 42 52 56 54 77 55 44 56 28 57
REMARK SMILES IDX 29 58 37 59 30 60 31 61 35 62 38 63 32 64 33 65 36 66 34 67
REMARK SMILES IDX 60 68 61 69 69 70 62 71 63 72 67 73 70 74 64 75 65 76 68 77
REMARK SMILES IDX 66 78 45 79 46 80 54 81 47 82 48 83 52 84 55 85 49 86 50 87
REMARK SMILES IDX 53 88 51 89
REMARK H PARENT 11 6 7 14 16 23 75 42 43 53
REMARK Flexibility Score: inf
ROOT
ATOM      1  C   UNL A   1      31.740  30.724  26.113  1.00  0.00     0.023 C 
ENDROOT
BRANCH   1   2
ATOM      2  C   UNL A   1      32.456  29.723  27.019  1.00  0.00     0.116 C 
BRANCH   2   3
ATOM      3  N   UNL A   1      31.680  28.517  27.230  1.00  0.00    -0.351 N 
ATOM      4  C   UNL A   1      31.319  27.456  26.427  1.00  0.00     0.281 C 
ATOM      5  O   UNL A   1      30.640  26.589  26.983  1.00  0.00    -0.268 OA
ATOM      6  H   UNL A   1      31.333  28.440  28.148  1.00  0.00     0.163 HD
BRANCH   4   7
ATOM      7  C   UNL A   1      31.711  27.312  24.943  1.00  0.00     0.177 C 
ATOM      8  C   UNL A   1      31.095  28.253  23.918  1.00  0.00     0.086 C 
ATOM      9  C   UNL A   1      30.680  26.812  23.945  1.00  0.00     0.086 C 
BRANCH   7  10
ATOM     10  N   UNL A   1      33.151  26.909  24.818  1.00  0.00    -0.321 N 
ATOM     11  C   UNL A   1      33.921  24.923  25.088  1.00  0.00     0.068 C 
ATOM     12  C   UNL A   1      33.775  26.225  25.948  1.00  0.00     0.275 C 
ATOM     13  C   UNL A   1      33.560  25.855  23.886  1.00  0.00     0.275 C 
ATOM     14  H   UNL A   1      33.414  27.867  24.586  1.00  0.00     0.349 HD
BRANCH  11  15
ATOM     15  C   UNL A   1      35.374  24.408  25.074  1.00  0.00     0.015 C 
ATOM     16  C   UNL A   1      35.490  23.048  24.397  1.00  0.00     0.005 C 
ENDBRANCH  11  15
BRANCH  11  17
ATOM     17  C   UNL A   1      32.888  23.814  25.373  1.00  0.00     0.015 C 
ATOM     18  C   UNL A   1      32.828  23.394  26.833  1.00  0.00     0.005 C 
ENDBRANCH  11  17
ENDBRANCH   7  10
ENDBRANCH   4   7
ENDBRANCH   2   3
ENDBRANCH   1   2
BRANCH   1  19
ATOM     19  C   UNL A   1      31.452  32.076  26.760  1.00  0.00     0.023 C 
BRANCH  19  20
ATOM     20  C   UNL A   1      32.679  32.822  27.263  1.00  0.00     0.116 C 
BRANCH  20  21
ATOM     21  N   UNL A   1      32.402  34.195  27.658  1.00  0.00    -0.352 N 
ATOM     22  C   UNL A   1      33.028  34.948  28.622  1.00  0.00     0.251 C 
ATOM     23  H   UNL A   1      31.671  34.642  27.172  1.00  0.00     0.163 HD
ATOM     24  O   UNL A   1      32.614  36.061  28.913  1.00  0.00    -0.269 OA
BRANCH  22  25
ATOM     25  C   UNL A   1      34.187  34.372  29.333  1.00  0.00     0.039 A 
ATOM     26  C   UNL A   1      33.957  33.573  30.454  1.00  0.00     0.014 A 
ATOM     27  C   UNL A   1      35.485  34.581  28.862  1.00  0.00     0.014 A 
ATOM     28  C   UNL A   1      35.031  32.927  31.067  1.00  0.00     0.010 A 
ATOM     29  C   UNL A   1      36.541  33.872  29.421  1.00  0.00     0.010 A 
ATOM     30  C   UNL A   1      36.325  33.043  30.532  1.00  0.00    -0.014 A 
BRANCH  30  31
ATOM     31  C   UNL A   1      37.469  32.312  31.129  1.00  0.00     0.031 A 
ATOM     32  C   UNL A   1      37.961  32.680  32.500  1.00  0.00     0.074 A 
ATOM     33  C   UNL A   1      38.101  31.364  30.412  1.00  0.00     0.049 A 
ATOM     34  N   UNL A   1      38.977  32.201  33.172  1.00  0.00    -0.248 NA
ATOM     35  C   UNL A   1      37.233  33.753  33.198  1.00  0.00     0.031 C 
ATOM     36  C   UNL A   1      37.752  30.960  29.049  1.00  0.00     0.029 A 
ATOM     37  N   UNL A   1      39.178  30.574  30.726  1.00  0.00    -0.354 N 
ATOM     38  C   UNL A   1      39.018  32.921  34.358  1.00  0.00     0.074 A 
ATOM     39  C   UNL A   1      37.963  33.909  34.292  1.00  0.00     0.031 C 
ATOM     40  C   UNL A   1      38.582  29.980  28.654  1.00  0.00     0.029 A 
ATOM     41  C   UNL A   1      39.541  29.712  29.721  1.00  0.00     0.049 A 
ATOM     42  H   UNL A   1      39.645  30.619  31.592  1.00  0.00     0.167 HD
ATOM     43  C   UNL A   1      39.842  32.755  35.419  1.00  0.00     0.037 A 
ATOM     44  C   UNL A   1      40.538  28.809  29.668  1.00  0.00     0.037 A 
ATOM     45  C   UNL A   1      40.871  31.751  35.490  1.00  0.00     0.049 A 
ATOM     46  C   UNL A   1      41.435  28.637  30.864  1.00  0.00     0.074 A 
ATOM     47  C   UNL A   1      41.719  31.458  36.544  1.00  0.00     0.029 A 
ATOM     48  N   UNL A   1      41.192  30.877  34.462  1.00  0.00    -0.354 N 
ATOM     49  N   UNL A   1      41.417  29.271  32.011  1.00  0.00    -0.248 NA
ATOM     50  C   UNL A   1      42.487  27.617  30.760  1.00  0.00     0.031 C 
ATOM     51  C   UNL A   1      42.584  30.437  36.137  1.00  0.00     0.029 A 
ATOM     52  C   UNL A   1      42.240  30.056  34.850  1.00  0.00     0.049 A 
ATOM     53  H   UNL A   1      40.743  30.844  33.587  1.00  0.00     0.167 HD
ATOM     54  C   UNL A   1      42.428  28.707  32.776  1.00  0.00     0.074 A 
ATOM     55  C   UNL A   1      43.032  27.669  31.967  1.00  0.00     0.031 C 
ATOM     56  C   UNL A   1      42.822  29.021  34.034  1.00  0.00     0.037 A 
BRANCH  43  57
ATOM     57  C   UNL A   1      39.662  33.677  36.589  1.00  0.00     0.064 A 
ATOM     58  C   UNL A   1      38.850  33.330  37.681  1.00  0.00     0.173 A 
ATOM     59  C   UNL A   1      40.331  34.909  36.635  1.00  0.00     0.173 A 
ATOM     60  F   UNL A   1      38.177  32.170  37.681  1.00  0.00    -0.203 F 
ATOM     61  C   UNL A   1      38.692  34.196  38.760  1.00  0.00     0.198 A 
ATOM     62  C   UNL A   1      40.196  35.758  37.731  1.00  0.00     0.198 A 
ATOM     63  F   UNL A   1      41.122  35.288  35.620  1.00  0.00    -0.203 F 
ATOM     64  F   UNL A   1      37.871  33.865  39.766  1.00  0.00    -0.200 F 
ATOM     65  C   UNL A   1      39.370  35.405  38.788  1.00  0.00     0.200 A 
ATOM     66  F   UNL A   1      40.862  36.920  37.763  1.00  0.00    -0.200 F 
ATOM     67  F   UNL A   1      39.223  36.233  39.831  1.00  0.00    -0.200 F 
ENDBRANCH  43  57
BRANCH  44  68
ATOM     68  C   UNL A   1      40.721  27.974  28.451  1.00  0.00     0.064 A 
ATOM     69  C   UNL A   1      41.516  28.420  27.386  1.00  0.00     0.173 A 
ATOM     70  C   UNL A   1      40.105  26.720  28.326  1.00  0.00     0.173 A 
ATOM     71  F   UNL A   1      42.110  29.621  27.451  1.00  0.00    -0.203 F 
ATOM     72  C   UNL A   1      41.670  27.655  26.232  1.00  0.00     0.198 A 
ATOM     73  C   UNL A   1      40.283  25.943  27.183  1.00  0.00     0.198 A 
ATOM     74  F   UNL A   1      39.340  26.244  29.319  1.00  0.00    -0.203 F 
ATOM     75  F   UNL A   1      42.396  28.127  25.210  1.00  0.00    -0.200 F 
ATOM     76  C   UNL A   1      41.058  26.414  26.133  1.00  0.00     0.200 A 
ATOM     77  F   UNL A   1      39.703  24.738  27.097  1.00  0.00    -0.200 F 
ATOM     78  F   UNL A   1      41.209  25.677  25.025  1.00  0.00    -0.200 F 
ENDBRANCH  44  68
BRANCH  56  79
ATOM     79  C   UNL A   1      43.932  28.205  34.630  1.00  0.00     0.064 A 
ATOM     80  C   UNL A   1      45.274  28.607  34.541  1.00  0.00     0.173 A 
ATOM     81  C   UNL A   1      43.646  27.024  35.332  1.00  0.00     0.173 A 
ATOM     82  F   UNL A   1      45.601  29.720  33.869  1.00  0.00    -0.203 F 
ATOM     83  C   UNL A   1      46.288  27.840  35.107  1.00  0.00     0.198 A 
ATOM     84  C   UNL A   1      44.659  26.277  35.924  1.00  0.00     0.198 A 
ATOM     85  F   UNL A   1      42.378  26.600  35.453  1.00  0.00    -0.203 F 
ATOM     86  F   UNL A   1      47.567  28.215  34.965  1.00  0.00    -0.200 F 
ATOM     87  C   UNL A   1      45.980  26.681  35.803  1.00  0.00     0.200 A 
ATOM     88  F   UNL A   1      44.358  25.165  36.610  1.00  0.00    -0.200 F 
ATOM     89  F   UNL A   1      46.959  25.947  36.353  1.00  0.00    -0.200 F 
ENDBRANCH  56  79
ENDBRANCH  30  31
ENDBRANCH  22  25
ENDBRANCH  20  21
ENDBRANCH  19  20
ENDBRANCH   1  19
TORSDOF 14
ENDMDL
MODEL 2
REMARK VINA RESULT:     -11.1      0.662      7.557
REMARK SMILES CCC1(CC)C[NH+](C2(C(=O)NCCCCNC(=O)c3ccc(-c4c5nc(c(-c6c(F)c(F)c(F)c(F)c6F)c6ccc([nH]6)c(-c6c(F)c(F)c(F)c(F)c6F)c6nc(c(-c7c(F)c(F)c(F)c(F)c7F)c7ccc4[nH]7)C=C6)C=C5)cc3)CC2)C1
REMARK SMILES IDX 13 1 12 2 11 3 9 4 10 5 8 7 82 8 83 9 7 10 3 11 6 12 84 13
REMARK SMILES IDX 2 15 1 16 4 17 5 18 14 19 15 20 16 21 17 22 18 24 19 25
REMARK SMILES IDX 20 26 81 27 21 28 80 29 22 30 23 31 24 32 74 33 25 34 79 35
REMARK SMILES IDX 73 36 75 37 26 38 78 39 72 40 71 41 27 43 59 44 39 45 58 46
REMARK SMILES IDX 40 47 43 48 57 49 76 50 41 51 42 52 56 54 77 55 44 56 28 57
REMARK SMILES IDX 29 58 37 59 30 60 31 61 35 62 38 63 32 64 33 65 36 66 34 67
REMARK SMILES IDX 60 68 61 69 69 70 62 71 63 72 67 73 70 74 64 75 65 76 68 77
REMARK SMILES IDX 66 78 45 79 46 80 54 81 47 82 48 83 52 84 55 85 49 86 50 87
REMARK SMILES IDX 53 88 51 89
REMARK H PARENT 11 6 7 14 16 23 75 42 43 53
REMARK Flexibility Score: inf
ROOT
ATOM      1  C   UNL A   1      31.752  30.874  25.930  1.00  0.00     0.023 C 
ENDROOT
BRANCH   1   2
ATOM      2  C   UNL A   1      32.718  29.789  26.407  1.00  0.00     0.116 C 
BRANCH   2   3
ATOM      3  N   UNL A   1      32.026  28.627  26.928  1.00  0.00    -0.351 N 
ATOM      4  C   UNL A   1      31.519  27.478  26.361  1.00  0.00     0.281 C 
ATOM      5  O   UNL A   1      30.992  26.693  27.154  1.00  0.00    -0.268 OA
ATOM      6  H   UNL A   1      31.887  28.668  27.902  1.00  0.00     0.163 HD
BRANCH   4   7
ATOM      7  C   UNL A   1      31.585  27.146  24.856  1.00  0.00     0.177 C 
ATOM      8  C   UNL A   1      30.767  27.976  23.877  1.00  0.00     0.086 C 
ATOM      9  C   UNL A   1      30.363  26.561  24.169  1.00  0.00     0.086 C 
BRANCH   7  10
ATOM     10  N   UNL A   1      32.963  26.688  24.480  1.00  0.00    -0.321 N 
ATOM     11  C   UNL A   1      33.893  24.863  25.121  1.00  0.00     0.068 C 
ATOM     12  C   UNL A   1      33.900  26.369  25.554  1.00  0.00     0.275 C 
ATOM     13  C   UNL A   1      33.177  25.390  23.835  1.00  0.00     0.275 C 
ATOM     14  H   UNL A   1      33.100  27.522  23.908  1.00  0.00     0.349 HD
BRANCH  11  15
ATOM     15  C   UNL A   1      35.320  24.333  24.876  1.00  0.00     0.015 C 
ATOM     16  C   UNL A   1      35.819  23.481  26.038  1.00  0.00     0.005 C 
ENDBRANCH  11  15
BRANCH  11  17
ATOM     17  C   UNL A   1      33.038  23.920  25.992  1.00  0.00     0.015 C 
ATOM     18  C   UNL A   1      32.324  22.836  25.200  1.00  0.00     0.005 C 
ENDBRANCH  11  17
ENDBRANCH   7  10
ENDBRANCH   4   7
ENDBRANCH   2   3
ENDBRANCH   1   2
BRANCH   1  19
ATOM     19  C   UNL A   1      31.475  31.973  26.952  1.00  0.00     0.023 C 
BRANCH  19  20
ATOM     20  C   UNL A   1      32.689  32.792  27.362  1.00  0.00     0.116 C 
BRANCH  20  21
ATOM     21  N   UNL A   1      32.383  34.188  27.637  1.00  0.00    -0.352 N 
ATOM     22  C   UNL A   1      32.982  35.030  28.543  1.00  0.00     0.251 C 
ATOM     23  H   UNL A   1      31.652  34.579  27.105  1.00  0.00     0.163 HD
ATOM     24  O   UNL A   1      32.544  36.156  28.734  1.00  0.00    -0.269 OA
BRANCH  22  25
ATOM     25  C   UNL A   1      34.140  34.537  29.315  1.00  0.00     0.039 A 
ATOM     26  C   UNL A   1      33.917  33.967  30.569  1.00  0.00     0.014 A 
ATOM     27  C   UNL A   1      35.428  34.592  28.777  1.00  0.00     0.014 A 
ATOM     28  C   UNL A   1      34.983  33.392  31.260  1.00  0.00     0.010 A 
ATOM     29  C   UNL A   1      36.471  33.946  29.428  1.00  0.00     0.010 A 
ATOM     30  C   UNL A   1      36.261  33.344  30.678  1.00  0.00    -0.014 A 
BRANCH  30  31
ATOM     31  C   UNL A   1      37.392  32.679  31.367  1.00  0.00     0.031 A 
ATOM     32  C   UNL A   1      38.095  31.524  30.711  1.00  0.00     0.074 A 
ATOM     33  C   UNL A   1      37.742  33.073  32.606  1.00  0.00     0.049 A 
ATOM     34  N   UNL A   1      39.067  30.776  31.171  1.00  0.00    -0.248 NA
ATOM     35  C   UNL A   1      37.624  31.137  29.371  1.00  0.00     0.031 C 
ATOM     36  C   UNL A   1      37.095  34.143  33.368  1.00  0.00     0.029 A 
ATOM     37  N   UNL A   1      38.722  32.611  33.448  1.00  0.00    -0.354 N 
ATOM     38  C   UNL A   1      39.309  29.827  30.187  1.00  0.00     0.074 A 
ATOM     39  C   UNL A   1      38.347  30.054  29.131  1.00  0.00     0.031 C 
ATOM     40  C   UNL A   1      37.713  34.272  34.554  1.00  0.00     0.029 A 
ATOM     41  C   UNL A   1      38.774  33.274  34.649  1.00  0.00     0.049 A 
ATOM     42  H   UNL A   1      39.333  31.875  33.212  1.00  0.00     0.167 HD
ATOM     43  C   UNL A   1      40.266  28.870  30.155  1.00  0.00     0.037 A 
ATOM     44  C   UNL A   1      39.585  33.093  35.708  1.00  0.00     0.037 A 
ATOM     45  C   UNL A   1      41.239  28.668  31.196  1.00  0.00     0.049 A 
ATOM     46  C   UNL A   1      40.647  32.029  35.644  1.00  0.00     0.074 A 
ATOM     47  C   UNL A   1      42.290  27.769  31.233  1.00  0.00     0.029 A 
ATOM     48  N   UNL A   1      41.277  29.378  32.388  1.00  0.00    -0.354 N 
ATOM     49  N   UNL A   1      40.918  31.186  34.676  1.00  0.00    -0.248 NA
ATOM     50  C   UNL A   1      41.523  31.897  36.816  1.00  0.00     0.031 C 
ATOM     51  C   UNL A   1      42.936  27.902  32.466  1.00  0.00     0.029 A 
ATOM     52  C   UNL A   1      42.323  28.922  33.176  1.00  0.00     0.049 A 
ATOM     53  H   UNL A   1      40.655  30.098  32.637  1.00  0.00     0.167 HD
ATOM     54  C   UNL A   1      42.011  30.448  35.107  1.00  0.00     0.074 A 
ATOM     55  C   UNL A   1      42.363  30.952  36.418  1.00  0.00     0.031 C 
ATOM     56  C   UNL A   1      42.664  29.442  34.475  1.00  0.00     0.037 A 
BRANCH  43  57
ATOM     57  C   UNL A   1      40.310  27.972  28.953  1.00  0.00     0.064 A 
ATOM     58  C   UNL A   1      39.600  26.761  28.914  1.00  0.00     0.173 A 
ATOM     59  C   UNL A   1      41.044  28.340  27.816  1.00  0.00     0.173 A 
ATOM     60  F   UNL A   1      38.894  26.357  29.979  1.00  0.00    -0.203 F 
ATOM     61  C   UNL A   1      39.650  25.938  27.792  1.00  0.00     0.198 A 
ATOM     62  C   UNL A   1      41.065  27.529  26.683  1.00  0.00     0.198 A 
ATOM     63  F   UNL A   1      41.737  29.488  27.799  1.00  0.00    -0.203 F 
ATOM     64  F   UNL A   1      39.008  24.762  27.798  1.00  0.00    -0.200 F 
ATOM     65  C   UNL A   1      40.376  26.325  26.675  1.00  0.00     0.200 A 
ATOM     66  F   UNL A   1      41.756  27.911  25.600  1.00  0.00    -0.200 F 
ATOM     67  F   UNL A   1      40.417  25.536  25.594  1.00  0.00    -0.200 F 
ENDBRANCH  43  57
BRANCH  44  68
ATOM     68  C   UNL A   1      39.448  33.962  36.907  1.00  0.00     0.064 A 
ATOM     69  C   UNL A   1      38.734  33.525  38.032  1.00  0.00     0.173 A 
ATOM     70  C   UNL A   1      40.021  35.241  36.952  1.00  0.00     0.173 A 
ATOM     71  F   UNL A   1      38.153  32.317  38.029  1.00  0.00    -0.203 F 
ATOM     72  C   UNL A   1      38.579  34.344  39.149  1.00  0.00     0.198 A 
ATOM     73  C   UNL A   1      39.888  36.048  38.081  1.00  0.00     0.198 A 
ATOM     74  F   UNL A   1      40.718  35.703  35.905  1.00  0.00    -0.203 F 
ATOM     75  F   UNL A   1      37.851  33.921  40.191  1.00  0.00    -0.200 F 
ATOM     76  C   UNL A   1      39.160  35.603  39.174  1.00  0.00     0.200 A 
ATOM     77  F   UNL A   1      40.464  37.257  38.108  1.00  0.00    -0.200 F 
ATOM     78  F   UNL A   1      39.013  36.389  40.250  1.00  0.00    -0.200 F 
ENDBRANCH  44  68
BRANCH  56  79
ATOM     79  C   UNL A   1      43.852  28.848  35.174  1.00  0.00     0.064 A 
ATOM     80  C   UNL A   1      45.147  29.357  34.991  1.00  0.00     0.173 A 
ATOM     81  C   UNL A   1      43.687  27.780  36.069  1.00  0.00     0.173 A 
ATOM     82  F   UNL A   1      45.360  30.368  34.135  1.00  0.00    -0.203 F 
ATOM     83  C   UNL A   1      46.235  28.797  35.654  1.00  0.00     0.198 A 
ATOM     84  C   UNL A   1      44.772  27.243  36.754  1.00  0.00     0.198 A 
ATOM     85  F   UNL A   1      42.468  27.263  36.286  1.00  0.00    -0.203 F 
ATOM     86  F   UNL A   1      47.470  29.264  35.423  1.00  0.00    -0.200 F 
ATOM     87  C   UNL A   1      46.046  27.747  36.540  1.00  0.00     0.200 A 
ATOM     88  F   UNL A   1      44.585  26.239  37.622  1.00  0.00    -0.200 F 
ATOM     89  F   UNL A   1      47.095  27.213  37.183  1.00  0.00    -0.200 F 
ENDBRANCH  56  79
ENDBRANCH  30  31
ENDBRANCH  22  25
ENDBRANCH  20  21
ENDBRANCH  19  20
ENDBRANCH   1  19
TORSDOF 14
ENDMDL
MODEL 3
REMARK VINA RESULT:     -11.1      1.414      8.019
REMARK SMILES CCC1(CC)C[NH+](C2(C(=O)NCCCCNC(=O)c3ccc(-c4c5nc(c(-c6c(F)c(F)c(F)c(F)c6F)c6ccc([nH]6)c(-c6c(F)c(F)c(F)c(F)c6F)c6nc(c(-c7c(F)c(F)c(F)c(F)c7F)c7ccc4[nH]7)C=C6)C=C5)cc3)CC2)C1
REMARK SMILES IDX 13 1 12 2 11 3 9 4 10 5 8 7 82 8 83 9 7 10 3 11 6 12 84 13
REMARK SMILES IDX 2 15 1 16 4 17 5 18 14 19 15 20 16 21 17 22 18 24 19 25
REMARK SMILES IDX 20 26 81 27 21 28 80 29 22 30 23 31 24 32 74 33 25 34 79 35
REMARK SMILES IDX 73 36 75 37 26 38 78 39 72 40 71 41 27 43 59 44 39 45 58 46
REMARK SMILES IDX 40 47 43 48 57 49 76 50 41 51 42 52 56 54 77 55 44 56 28 57
REMARK SMILES IDX 29 58 37 59 30 60 31 61 35 62 38 63 32 64 33 65 36 66 34 67
REMARK SMILES IDX 60 68 61 69 69 70 62 71 63 72 67 73 70 74 64 75 65 76 68 77
REMARK SMILES IDX 66 78 45 79 46 80 54 81 47 82 48 83 52 84 55 85 49 86 50 87
REMARK SMILES IDX 53 88 51 89
REMARK H PARENT 11 6 7 14 16 23 75 42 43 53
REMARK Flexibility Score: inf
ROOT
ATOM      1  C   UNL A   1      31.876  30.475  26.944  1.00  0.00     0.023 C 
ENDROOT
BRANCH   1   2
ATOM      2  C   UNL A   1      32.663  29.831  25.802  1.00  0.00     0.116 C 
BRANCH   2   3
ATOM      3  N   UNL A   1      32.323  28.434  25.619  1.00  0.00    -0.351 N 
ATOM      4  C   UNL A   1      32.194  27.614  24.519  1.00  0.00     0.281 C 
ATOM      5  O   UNL A   1      31.891  26.444  24.772  1.00  0.00    -0.268 OA
ATOM      6  H   UNL A   1      32.144  27.968  26.468  1.00  0.00     0.163 HD
BRANCH   4   7
ATOM      7  C   UNL A   1      32.404  28.071  23.062  1.00  0.00     0.177 C 
ATOM      8  C   UNL A   1      33.656  27.628  22.317  1.00  0.00     0.086 C 
ATOM      9  C   UNL A   1      33.514  29.059  22.744  1.00  0.00     0.086 C 
BRANCH   7  10
ATOM     10  N   UNL A   1      31.091  28.142  22.339  1.00  0.00    -0.321 N 
ATOM     11  C   UNL A   1      29.467  29.460  22.824  1.00  0.00     0.068 C 
ATOM     12  C   UNL A   1      29.866  27.974  23.118  1.00  0.00     0.275 C 
ATOM     13  C   UNL A   1      30.614  29.402  21.763  1.00  0.00     0.275 C 
ATOM     14  H   UNL A   1      31.392  27.416  21.690  1.00  0.00     0.349 HD
BRANCH  11  15
ATOM     15  C   UNL A   1      28.052  29.562  22.219  1.00  0.00     0.015 C 
ATOM     16  C   UNL A   1      27.012  28.858  23.082  1.00  0.00     0.005 C 
ENDBRANCH  11  15
BRANCH  11  17
ATOM     17  C   UNL A   1      29.707  30.458  23.975  1.00  0.00     0.015 C 
ATOM     18  C   UNL A   1      28.939  31.761  23.824  1.00  0.00     0.005 C 
ENDBRANCH  11  17
ENDBRANCH   7  10
ENDBRANCH   4   7
ENDBRANCH   2   3
ENDBRANCH   1   2
BRANCH   1  19
ATOM     19  C   UNL A   1      31.681  31.982  26.812  1.00  0.00     0.023 C 
BRANCH  19  20
ATOM     20  C   UNL A   1      32.845  32.827  27.307  1.00  0.00     0.116 C 
BRANCH  20  21
ATOM     21  N   UNL A   1      32.466  34.188  27.659  1.00  0.00    -0.352 N 
ATOM     22  C   UNL A   1      33.002  34.997  28.632  1.00  0.00     0.251 C 
ATOM     23  H   UNL A   1      31.731  34.578  27.132  1.00  0.00     0.163 HD
ATOM     24  O   UNL A   1      32.507  36.088  28.880  1.00  0.00    -0.269 OA
BRANCH  22  25
ATOM     25  C   UNL A   1      34.162  34.509  29.404  1.00  0.00     0.039 A 
ATOM     26  C   UNL A   1      33.938  33.901  30.640  1.00  0.00     0.014 A 
ATOM     27  C   UNL A   1      35.454  34.607  28.883  1.00  0.00     0.014 A 
ATOM     28  C   UNL A   1      35.009  33.331  31.328  1.00  0.00     0.010 A 
ATOM     29  C   UNL A   1      36.505  33.967  29.528  1.00  0.00     0.010 A 
ATOM     30  C   UNL A   1      36.294  33.328  30.759  1.00  0.00    -0.014 A 
BRANCH  30  31
ATOM     31  C   UNL A   1      37.432  32.669  31.443  1.00  0.00     0.031 A 
ATOM     32  C   UNL A   1      38.141  31.520  30.784  1.00  0.00     0.074 A 
ATOM     33  C   UNL A   1      37.784  33.064  32.681  1.00  0.00     0.049 A 
ATOM     34  N   UNL A   1      39.119  30.778  31.239  1.00  0.00    -0.248 NA
ATOM     35  C   UNL A   1      37.667  31.132  29.445  1.00  0.00     0.031 C 
ATOM     36  C   UNL A   1      37.133  34.129  33.447  1.00  0.00     0.029 A 
ATOM     37  N   UNL A   1      38.771  32.608  33.519  1.00  0.00    -0.354 N 
ATOM     38  C   UNL A   1      39.364  29.832  30.253  1.00  0.00     0.074 A 
ATOM     39  C   UNL A   1      38.397  30.054  29.201  1.00  0.00     0.031 C 
ATOM     40  C   UNL A   1      37.755  34.261  34.631  1.00  0.00     0.029 A 
ATOM     41  C   UNL A   1      38.822  33.271  34.721  1.00  0.00     0.049 A 
ATOM     42  H   UNL A   1      39.385  31.877  33.280  1.00  0.00     0.167 HD
ATOM     43  C   UNL A   1      40.328  28.882  30.217  1.00  0.00     0.037 A 
ATOM     44  C   UNL A   1      39.639  33.094  35.777  1.00  0.00     0.037 A 
ATOM     45  C   UNL A   1      41.306  28.685  31.254  1.00  0.00     0.049 A 
ATOM     46  C   UNL A   1      40.708  32.037  35.707  1.00  0.00     0.074 A 
ATOM     47  C   UNL A   1      42.363  27.793  31.286  1.00  0.00     0.029 A 
ATOM     48  N   UNL A   1      41.344  29.394  32.446  1.00  0.00    -0.354 N 
ATOM     49  N   UNL A   1      40.981  31.197  34.738  1.00  0.00    -0.248 NA
ATOM     50  C   UNL A   1      41.588  31.909  36.876  1.00  0.00     0.031 C 
ATOM     51  C   UNL A   1      43.013  27.929  32.516  1.00  0.00     0.029 A 
ATOM     52  C   UNL A   1      42.395  28.944  33.230  1.00  0.00     0.049 A 
ATOM     53  H   UNL A   1      40.717  30.110  32.698  1.00  0.00     0.167 HD
ATOM     54  C   UNL A   1      42.080  30.466  35.164  1.00  0.00     0.074 A 
ATOM     55  C   UNL A   1      42.434  30.971  36.474  1.00  0.00     0.031 C 
ATOM     56  C   UNL A   1      42.738  29.466  34.528  1.00  0.00     0.037 A 
BRANCH  43  57
ATOM     57  C   UNL A   1      40.373  27.986  29.014  1.00  0.00     0.064 A 
ATOM     58  C   UNL A   1      39.660  26.777  28.969  1.00  0.00     0.173 A 
ATOM     59  C   UNL A   1      41.113  28.352  27.880  1.00  0.00     0.173 A 
ATOM     60  F   UNL A   1      38.948  26.373  30.032  1.00  0.00    -0.203 F 
ATOM     61  C   UNL A   1      39.711  25.955  27.846  1.00  0.00     0.198 A 
ATOM     62  C   UNL A   1      41.136  27.543  26.746  1.00  0.00     0.198 A 
ATOM     63  F   UNL A   1      41.809  29.499  27.867  1.00  0.00    -0.203 F 
ATOM     64  F   UNL A   1      39.065  24.781  27.848  1.00  0.00    -0.200 F 
ATOM     65  C   UNL A   1      40.443  26.341  26.733  1.00  0.00     0.200 A 
ATOM     66  F   UNL A   1      41.832  27.925  25.666  1.00  0.00    -0.200 F 
ATOM     67  F   UNL A   1      40.485  25.554  25.651  1.00  0.00    -0.200 F 
ENDBRANCH  43  57
BRANCH  44  68
ATOM     68  C   UNL A   1      39.500  33.960  36.977  1.00  0.00     0.064 A 
ATOM     69  C   UNL A   1      38.772  33.527  38.095  1.00  0.00     0.173 A 
ATOM     70  C   UNL A   1      40.085  35.233  37.032  1.00  0.00     0.173 A 
ATOM     71  F   UNL A   1      38.178  32.325  38.083  1.00  0.00    -0.203 F 
ATOM     72  C   UNL A   1      38.615  34.345  39.213  1.00  0.00     0.198 A 
ATOM     73  C   UNL A   1      39.951  36.038  38.162  1.00  0.00     0.198 A 
ATOM     74  F   UNL A   1      40.797  35.691  35.992  1.00  0.00    -0.203 F 
ATOM     75  F   UNL A   1      37.874  33.926  40.247  1.00  0.00    -0.200 F 
ATOM     76  C   UNL A   1      39.210  35.597  39.247  1.00  0.00     0.200 A 
ATOM     77  F   UNL A   1      40.539  37.241  38.198  1.00  0.00    -0.200 F 
ATOM     78  F   UNL A   1      39.061  36.381  40.324  1.00  0.00    -0.200 F 
ENDBRANCH  44  68
BRANCH  56  79
ATOM     79  C   UNL A   1      43.933  28.879  35.223  1.00  0.00     0.064 A 
ATOM     80  C   UNL A   1      43.812  27.806  36.119  1.00  0.00     0.173 A 
ATOM     81  C   UNL A   1      45.219  29.372  34.958  1.00  0.00     0.173 A 
ATOM     82  F   UNL A   1      42.603  27.308  36.417  1.00  0.00    -0.203 F 
ATOM     83  C   UNL A   1      44.933  27.271  36.747  1.00  0.00     0.198 A 
ATOM     84  C   UNL A   1      46.340  28.815  35.563  1.00  0.00     0.198 A 
ATOM     85  F   UNL A   1      45.389  30.392  34.102  1.00  0.00    -0.203 F 
ATOM     86  F   UNL A   1      44.789  26.282  37.640  1.00  0.00    -0.200 F 
ATOM     87  C   UNL A   1      46.196  27.770  36.464  1.00  0.00     0.200 A 
ATOM     88  F   UNL A   1      47.561  29.288  35.276  1.00  0.00    -0.200 F 
ATOM     89  F   UNL A   1      47.275  27.248  37.065  1.00  0.00    -0.200 F 
ENDBRANCH  56  79
ENDBRANCH  30  31
ENDBRANCH  22  25
ENDBRANCH  20  21
ENDBRANCH  19  20
ENDBRANCH   1  19
TORSDOF 14
ENDMDL
