MODEL 1
REMARK VINA RESULT:     -13.3      0.000      0.000
REMARK SMILES O=C(NCCCCNC(=O)[C@@H]1CCCC[C@H]1C(=O)Nc1cccc(O)c1)c1ccc(-c2c3nc(c(-c4c(F)c(F)c(F)c(F)c4F)c4ccc([nH]4)c(-c4c(F)c(F)c(F)c(F)c4F)c4nc(c(-c5c(F)c(F)c(F)c(F)c5F)c5ccc2[nH]5)C=C4)C=C3)cc1
REMARK SMILES IDX 6 1 5 2 4 3 3 4 1 5 2 6 27 8 28 9 89 10 29 11 88 12 30 13
REMARK SMILES IDX 31 14 32 15 82 16 33 17 87 18 81 19 83 20 34 21 86 22 80 23
REMARK SMILES IDX 79 24 35 26 67 27 47 28 66 29 48 30 51 31 65 32 84 33 49 34
REMARK SMILES IDX 50 35 64 37 85 38 52 39 36 40 37 41 45 42 38 43 39 44 43 45
REMARK SMILES IDX 46 46 40 47 41 48 44 49 42 50 68 51 69 52 77 53 70 54 71 55
REMARK SMILES IDX 75 56 78 57 72 58 73 59 76 60 74 61 53 62 54 63 62 64 55 65
REMARK SMILES IDX 56 66 60 67 63 68 57 69 58 70 61 71 59 72 7 73 8 74 9 75
REMARK SMILES IDX 10 77 11 78 12 79 16 80 13 81 15 82 14 83 17 84 18 85 19 86
REMARK SMILES IDX 20 88 21 89 26 90 22 91 24 92 23 93 25 94
REMARK H PARENT 3 7 83 25 51 36 8 76 19 87 25 95
REMARK Flexibility Score: inf
ROOT
ATOM      1  C   UNL A   1      31.736  30.658  26.238  1.00  0.00     0.023 C 
ENDROOT
BRANCH   1   2
ATOM      2  C   UNL A   1      31.442  32.053  26.791  1.00  0.00     0.023 C 
BRANCH   2   3
ATOM      3  C   UNL A   1      32.665  32.839  27.251  1.00  0.00     0.116 C 
BRANCH   3   4
ATOM      4  N   UNL A   1      32.358  34.205  27.645  1.00  0.00    -0.352 N 
ATOM      5  O   UNL A   1      32.528  36.080  28.895  1.00  0.00    -0.269 OA
ATOM      6  C   UNL A   1      32.974  34.981  28.599  1.00  0.00     0.251 C 
ATOM      7  H   UNL A   1      31.612  34.631  27.164  1.00  0.00     0.163 HD
BRANCH   6   8
ATOM      8  C   UNL A   1      34.164  34.451  29.295  1.00  0.00     0.039 A 
ATOM      9  C   UNL A   1      35.438  34.587  28.734  1.00  0.00     0.014 A 
ATOM     10  C   UNL A   1      33.991  33.784  30.509  1.00  0.00     0.014 A 
ATOM     11  C   UNL A   1      36.521  33.943  29.322  1.00  0.00     0.010 A 
ATOM     12  C   UNL A   1      35.091  33.196  31.133  1.00  0.00     0.010 A 
ATOM     13  C   UNL A   1      36.358  33.245  30.528  1.00  0.00    -0.014 A 
BRANCH  13  14
ATOM     14  C   UNL A   1      37.521  32.595  31.178  1.00  0.00     0.031 A 
ATOM     15  C   UNL A   1      38.222  31.444  30.519  1.00  0.00     0.074 A 
ATOM     16  C   UNL A   1      37.917  33.030  32.387  1.00  0.00     0.049 A 
ATOM     17  N   UNL A   1      39.182  30.685  30.983  1.00  0.00    -0.248 NA
ATOM     18  C   UNL A   1      37.778  31.091  29.162  1.00  0.00     0.031 C 
ATOM     19  C   UNL A   1      37.309  34.141  33.120  1.00  0.00     0.029 A 
ATOM     20  N   UNL A   1      38.910  32.581  33.220  1.00  0.00    -0.354 N 
ATOM     21  C   UNL A   1      39.439  29.749  29.990  1.00  0.00     0.074 A 
ATOM     22  C   UNL A   1      38.522  30.024  28.904  1.00  0.00     0.031 C 
ATOM     23  C   UNL A   1      37.941  34.288  34.294  1.00  0.00     0.029 A 
ATOM     24  C   UNL A   1      38.954  33.246  34.419  1.00  0.00     0.049 A 
ATOM     25  H   UNL A   1      39.529  31.854  32.981  1.00  0.00     0.167 HD
ATOM     26  C   UNL A   1      40.359  28.755  29.991  1.00  0.00     0.037 A 
ATOM     27  C   UNL A   1      39.698  33.017  35.516  1.00  0.00     0.037 A 
ATOM     28  C   UNL A   1      41.275  28.501  31.072  1.00  0.00     0.049 A 
ATOM     29  C   UNL A   1      40.690  31.891  35.507  1.00  0.00     0.074 A 
ATOM     30  C   UNL A   1      42.279  27.551  31.150  1.00  0.00     0.029 A 
ATOM     31  N   UNL A   1      41.294  29.200  32.272  1.00  0.00    -0.354 N 
ATOM     32  N   UNL A   1      40.948  31.030  34.553  1.00  0.00    -0.248 NA
ATOM     33  C   UNL A   1      41.491  31.702  36.723  1.00  0.00     0.031 C 
ATOM     34  C   UNL A   1      42.870  27.642  32.416  1.00  0.00     0.029 A 
ATOM     35  C   UNL A   1      42.271  28.684  33.107  1.00  0.00     0.049 A 
ATOM     36  H   UNL A   1      40.700  29.953  32.495  1.00  0.00     0.167 HD
ATOM     37  C   UNL A   1      41.955  30.210  35.041  1.00  0.00     0.074 A 
ATOM     38  C   UNL A   1      42.263  30.680  36.377  1.00  0.00     0.031 C 
ATOM     39  C   UNL A   1      42.569  29.167  34.432  1.00  0.00     0.037 A 
BRANCH  26  40
ATOM     40  C   UNL A   1      40.395  27.842  28.798  1.00  0.00     0.064 A 
ATOM     41  C   UNL A   1      39.654  26.653  28.750  1.00  0.00     0.173 A 
ATOM     42  C   UNL A   1      41.172  28.176  27.676  1.00  0.00     0.173 A 
ATOM     43  F   UNL A   1      38.903  26.282  29.798  1.00  0.00    -0.203 F 
ATOM     44  C   UNL A   1      39.713  25.815  27.638  1.00  0.00     0.198 A 
ATOM     45  C   UNL A   1      41.206  27.351  26.555  1.00  0.00     0.198 A 
ATOM     46  F   UNL A   1      41.894  29.306  27.666  1.00  0.00    -0.203 F 
ATOM     47  F   UNL A   1      39.038  24.658  27.636  1.00  0.00    -0.200 F 
ATOM     48  C   UNL A   1      40.485  26.167  26.540  1.00  0.00     0.200 A 
ATOM     49  F   UNL A   1      41.942  27.699  25.491  1.00  0.00    -0.200 F 
ATOM     50  F   UNL A   1      40.542  25.358  25.472  1.00  0.00    -0.200 F 
ENDBRANCH  26  40
BRANCH  27  51
ATOM     51  C   UNL A   1      39.504  33.879  36.708  1.00  0.00     0.064 A 
ATOM     52  C   UNL A   1      38.702  33.462  37.777  1.00  0.00     0.173 A 
ATOM     53  C   UNL A   1      40.178  35.105  36.830  1.00  0.00     0.173 A 
ATOM     54  F   UNL A   1      38.028  32.305  37.697  1.00  0.00    -0.203 F 
ATOM     55  C   UNL A   1      38.583  34.238  38.927  1.00  0.00     0.198 A 
ATOM     56  C   UNL A   1      40.077  35.866  37.992  1.00  0.00     0.198 A 
ATOM     57  F   UNL A   1      40.965  35.540  35.837  1.00  0.00    -0.203 F 
ATOM     58  F   UNL A   1      37.796  33.827  39.932  1.00  0.00    -0.200 F 
ATOM     59  C   UNL A   1      39.279  35.433  39.039  1.00  0.00     0.200 A 
ATOM     60  F   UNL A   1      40.768  37.009  38.102  1.00  0.00    -0.200 F 
ATOM     61  F   UNL A   1      39.182  36.167  40.156  1.00  0.00    -0.200 F 
ENDBRANCH  27  51
BRANCH  39  62
ATOM     62  C   UNL A   1      43.666  28.478  35.188  1.00  0.00     0.064 A 
ATOM     63  C   UNL A   1      43.410  27.373  36.011  1.00  0.00     0.173 A 
ATOM     64  C   UNL A   1      44.998  28.889  35.030  1.00  0.00     0.173 A 
ATOM     65  F   UNL A   1      42.150  26.953  36.206  1.00  0.00    -0.203 F 
ATOM     66  C   UNL A   1      44.450  26.708  36.657  1.00  0.00     0.198 A 
ATOM     67  C   UNL A   1      46.036  28.208  35.658  1.00  0.00     0.198 A 
ATOM     68  F   UNL A   1      45.294  29.940  34.249  1.00  0.00    -0.203 F 
ATOM     69  F   UNL A   1      44.181  25.671  37.462  1.00  0.00    -0.200 F 
ATOM     70  C   UNL A   1      45.761  27.120  36.471  1.00  0.00     0.200 A 
ATOM     71  F   UNL A   1      47.304  28.600  35.468  1.00  0.00    -0.200 F 
ATOM     72  F   UNL A   1      46.762  26.468  37.081  1.00  0.00    -0.200 F 
ENDBRANCH  39  62
ENDBRANCH  13  14
ENDBRANCH   6   8
ENDBRANCH   3   4
ENDBRANCH   2   3
ENDBRANCH   1   2
BRANCH   1  73
ATOM     73  C   UNL A   1      32.380  29.706  27.244  1.00  0.00     0.116 C 
BRANCH  73  74
ATOM     74  N   UNL A   1      33.318  28.796  26.618  1.00  0.00    -0.356 N 
ATOM     75  C   UNL A   1      33.098  27.825  25.685  1.00  0.00     0.223 C 
ATOM     76  H   UNL A   1      34.253  28.892  26.910  1.00  0.00     0.163 HD
ATOM     77  O   UNL A   1      34.063  27.186  25.266  1.00  0.00    -0.275 OA
BRANCH  75  78
ATOM     78  C   UNL A   1      31.674  27.560  25.194  1.00  0.00     0.091 C 
ATOM     79  C   UNL A   1      31.083  26.382  25.987  1.00  0.00     0.014 C 
ATOM     80  C   UNL A   1      31.664  27.307  23.672  1.00  0.00     0.091 C 
ATOM     81  C   UNL A   1      29.736  25.948  25.428  1.00  0.00     0.001 C 
ATOM     82  C   UNL A   1      30.436  26.568  23.105  1.00  0.00     0.014 C 
ATOM     83  C   UNL A   1      29.906  25.458  24.000  1.00  0.00     0.001 C 
BRANCH  80  84
ATOM     84  C   UNL A   1      32.036  28.532  22.823  1.00  0.00     0.228 C 
ATOM     85  O   UNL A   1      33.196  28.642  22.405  1.00  0.00    -0.274 OA
ATOM     86  N   UNL A   1      31.153  29.488  22.409  1.00  0.00    -0.326 N 
ATOM     87  H   UNL A   1      31.480  29.991  21.629  1.00  0.00     0.169 HD
BRANCH  86  88
ATOM     88  C   UNL A   1      29.887  29.919  22.838  1.00  0.00     0.044 A 
ATOM     89  C   UNL A   1      29.642  31.157  23.428  1.00  0.00     0.026 A 
ATOM     90  C   UNL A   1      28.799  29.081  22.581  1.00  0.00     0.072 A 
ATOM     91  C   UNL A   1      28.353  31.537  23.811  1.00  0.00     0.006 A 
ATOM     92  C   UNL A   1      27.516  29.455  22.982  1.00  0.00     0.117 A 
ATOM     93  C   UNL A   1      27.283  30.676  23.601  1.00  0.00     0.046 A 
BRANCH  92  94
ATOM     94  O   UNL A   1      26.498  28.578  22.751  1.00  0.00    -0.508 OA
ATOM     95  H   UNL A   1      25.608  28.872  22.789  1.00  0.00     0.293 HD
ENDBRANCH  92  94
ENDBRANCH  86  88
ENDBRANCH  80  84
ENDBRANCH  75  78
ENDBRANCH  73  74
ENDBRANCH   1  73
TORSDOF 14
ENDMDL
MODEL 2
REMARK VINA RESULT:     -13.2      1.016      1.779
REMARK SMILES O=C(NCCCCNC(=O)[C@@H]1CCCC[C@H]1C(=O)Nc1cccc(O)c1)c1ccc(-c2c3nc(c(-c4c(F)c(F)c(F)c(F)c4F)c4ccc([nH]4)c(-c4c(F)c(F)c(F)c(F)c4F)c4nc(c(-c5c(F)c(F)c(F)c(F)c5F)c5ccc2[nH]5)C=C4)C=C3)cc1
REMARK SMILES IDX 6 1 5 2 4 3 3 4 1 5 2 6 27 8 28 9 89 10 29 11 88 12 30 13
REMARK SMILES IDX 31 14 32 15 82 16 33 17 87 18 81 19 83 20 34 21 86 22 80 23
REMARK SMILES IDX 79 24 35 26 67 27 47 28 66 29 48 30 51 31 65 32 84 33 49 34
REMARK SMILES IDX 50 35 64 37 85 38 52 39 36 40 37 41 45 42 38 43 39 44 43 45
REMARK SMILES IDX 46 46 40 47 41 48 44 49 42 50 68 51 69 52 77 53 70 54 71 55
REMARK SMILES IDX 75 56 78 57 72 58 73 59 76 60 74 61 53 62 54 63 62 64 55 65
REMARK SMILES IDX 56 66 60 67 63 68 57 69 58 70 61 71 59 72 7 73 8 74 9 75
REMARK SMILES IDX 10 77 11 78 12 79 16 80 13 81 15 82 14 83 17 84 18 85 19 86
REMARK SMILES IDX 20 88 21 89 26 90 22 91 24 92 23 93 25 94
REMARK H PARENT 3 7 83 25 51 36 8 76 19 87 25 95
REMARK Flexibility Score: inf
ROOT
ATOM      1  C   UNL A   1      31.664  30.802  26.015  1.00  0.00     0.023 C 
ENDROOT
BRANCH   1   2
ATOM      2  C   UNL A   1      31.390  32.029  26.886  1.00  0.00     0.023 C 
BRANCH   2   3
ATOM      3  C   UNL A   1      32.625  32.837  27.275  1.00  0.00     0.116 C 
BRANCH   3   4
ATOM      4  N   UNL A   1      32.322  34.212  27.640  1.00  0.00    -0.352 N 
ATOM      5  O   UNL A   1      32.508  36.117  28.842  1.00  0.00    -0.269 OA
ATOM      6  C   UNL A   1      32.951  35.011  28.567  1.00  0.00     0.251 C 
ATOM      7  H   UNL A   1      31.569  34.626  27.159  1.00  0.00     0.163 HD
BRANCH   6   8
ATOM      8  C   UNL A   1      34.151  34.498  29.258  1.00  0.00     0.039 A 
ATOM      9  C   UNL A   1      35.422  34.663  28.698  1.00  0.00     0.014 A 
ATOM     10  C   UNL A   1      33.990  33.817  30.466  1.00  0.00     0.014 A 
ATOM     11  C   UNL A   1      36.517  34.035  29.282  1.00  0.00     0.010 A 
ATOM     12  C   UNL A   1      35.102  33.245  31.086  1.00  0.00     0.010 A 
ATOM     13  C   UNL A   1      36.367  33.323  30.481  1.00  0.00    -0.014 A 
BRANCH  13  14
ATOM     14  C   UNL A   1      37.542  32.690  31.126  1.00  0.00     0.031 A 
ATOM     15  C   UNL A   1      38.269  31.562  30.455  1.00  0.00     0.074 A 
ATOM     16  C   UNL A   1      37.927  33.119  32.341  1.00  0.00     0.049 A 
ATOM     17  N   UNL A   1      39.244  30.818  30.912  1.00  0.00    -0.248 NA
ATOM     18  C   UNL A   1      37.835  31.216  29.094  1.00  0.00     0.031 C 
ATOM     19  C   UNL A   1      37.295  34.209  33.086  1.00  0.00     0.029 A 
ATOM     20  N   UNL A   1      38.928  32.682  33.170  1.00  0.00    -0.354 N 
ATOM     21  C   UNL A   1      39.522  29.900  29.909  1.00  0.00     0.074 A 
ATOM     22  C   UNL A   1      38.602  30.168  28.825  1.00  0.00     0.031 C 
ATOM     23  C   UNL A   1      37.922  34.356  34.262  1.00  0.00     0.029 A 
ATOM     24  C   UNL A   1      38.956  33.333  34.377  1.00  0.00     0.049 A 
ATOM     25  H   UNL A   1      39.562  31.971  32.924  1.00  0.00     0.167 HD
ATOM     26  C   UNL A   1      40.462  28.924  29.900  1.00  0.00     0.037 A 
ATOM     27  C   UNL A   1      39.703  33.108  35.473  1.00  0.00     0.037 A 
ATOM     28  C   UNL A   1      41.382  28.678  30.981  1.00  0.00     0.049 A 
ATOM     29  C   UNL A   1      40.718  32.003  35.453  1.00  0.00     0.074 A 
ATOM     30  C   UNL A   1      42.405  27.747  31.049  1.00  0.00     0.029 A 
ATOM     31  N   UNL A   1      41.384  29.363  32.188  1.00  0.00    -0.354 N 
ATOM     32  N   UNL A   1      40.996  31.159  34.489  1.00  0.00    -0.248 NA
ATOM     33  C   UNL A   1      41.521  31.817  36.668  1.00  0.00     0.031 C 
ATOM     34  C   UNL A   1      42.992  27.837  32.317  1.00  0.00     0.029 A 
ATOM     35  C   UNL A   1      42.371  28.858  33.019  1.00  0.00     0.049 A 
ATOM     36  H   UNL A   1      40.774  30.101  32.419  1.00  0.00     0.167 HD
ATOM     37  C   UNL A   1      42.019  30.354  34.970  1.00  0.00     0.074 A 
ATOM     38  C   UNL A   1      42.315  30.814  36.312  1.00  0.00     0.031 C 
ATOM     39  C   UNL A   1      42.656  29.331  34.350  1.00  0.00     0.037 A 
BRANCH  26  40
ATOM     40  C   UNL A   1      40.520  28.026  28.697  1.00  0.00     0.064 A 
ATOM     41  C   UNL A   1      41.276  28.354  27.562  1.00  0.00     0.173 A 
ATOM     42  C   UNL A   1      39.822  26.808  28.690  1.00  0.00     0.173 A 
ATOM     43  F   UNL A   1      41.954  29.511  27.512  1.00  0.00    -0.203 F 
ATOM     44  C   UNL A   1      41.304  27.512  26.452  1.00  0.00     0.198 A 
ATOM     45  C   UNL A   1      39.876  25.955  27.591  1.00  0.00     0.198 A 
ATOM     46  F   UNL A   1      39.091  26.441  29.753  1.00  0.00    -0.203 F 
ATOM     47  F   UNL A   1      41.990  27.871  25.358  1.00  0.00    -0.200 F 
ATOM     48  C   UNL A   1      40.608  26.312  26.469  1.00  0.00     0.200 A 
ATOM     49  F   UNL A   1      39.214  24.790  27.614  1.00  0.00    -0.200 F 
ATOM     50  F   UNL A   1      40.636  25.505  25.399  1.00  0.00    -0.200 F 
ENDBRANCH  26  40
BRANCH  27  51
ATOM     51  C   UNL A   1      39.489  33.951  36.675  1.00  0.00     0.064 A 
ATOM     52  C   UNL A   1      38.700  33.502  37.741  1.00  0.00     0.173 A 
ATOM     53  C   UNL A   1      40.130  35.193  36.809  1.00  0.00     0.173 A 
ATOM     54  F   UNL A   1      38.058  32.328  37.650  1.00  0.00    -0.203 F 
ATOM     55  C   UNL A   1      38.563  34.262  38.900  1.00  0.00     0.198 A 
ATOM     56  C   UNL A   1      40.012  35.939  37.978  1.00  0.00     0.198 A 
ATOM     57  F   UNL A   1      40.904  35.659  35.818  1.00  0.00    -0.203 F 
ATOM     58  F   UNL A   1      37.790  33.820  39.901  1.00  0.00    -0.200 F 
ATOM     59  C   UNL A   1      39.228  35.474  39.022  1.00  0.00     0.200 A 
ATOM     60  F   UNL A   1      40.673  37.099  38.099  1.00  0.00    -0.200 F 
ATOM     61  F   UNL A   1      39.114  36.193  40.148  1.00  0.00    -0.200 F 
ENDBRANCH  27  51
BRANCH  39  62
ATOM     62  C   UNL A   1      43.766  28.656  35.100  1.00  0.00     0.064 A 
ATOM     63  C   UNL A   1      43.524  27.570  35.952  1.00  0.00     0.173 A 
ATOM     64  C   UNL A   1      45.095  29.061  34.908  1.00  0.00     0.173 A 
ATOM     65  F   UNL A   1      42.267  27.158  36.179  1.00  0.00    -0.203 F 
ATOM     66  C   UNL A   1      44.574  26.917  36.592  1.00  0.00     0.198 A 
ATOM     67  C   UNL A   1      46.144  28.392  35.531  1.00  0.00     0.198 A 
ATOM     68  F   UNL A   1      45.378  30.094  34.099  1.00  0.00    -0.203 F 
ATOM     69  F   UNL A   1      44.318  25.899  37.425  1.00  0.00    -0.200 F 
ATOM     70  C   UNL A   1      45.882  27.322  36.373  1.00  0.00     0.200 A 
ATOM     71  F   UNL A   1      47.409  28.776  35.309  1.00  0.00    -0.200 F 
ATOM     72  F   UNL A   1      46.893  26.682  36.978  1.00  0.00    -0.200 F 
ENDBRANCH  39  62
ENDBRANCH  13  14
ENDBRANCH   6   8
ENDBRANCH   3   4
ENDBRANCH   2   3
ENDBRANCH   1   2
BRANCH   1  73
ATOM     73  C   UNL A   1      32.403  29.676  26.734  1.00  0.00     0.116 C 
BRANCH  73  74
ATOM     74  N   UNL A   1      31.550  28.532  26.986  1.00  0.00    -0.356 N 
ATOM     75  C   UNL A   1      31.282  27.454  26.193  1.00  0.00     0.223 C 
ATOM     76  H   UNL A   1      31.095  28.533  27.859  1.00  0.00     0.163 HD
ATOM     77  O   UNL A   1      30.540  26.574  26.633  1.00  0.00    -0.275 OA
BRANCH  75  78
ATOM     78  C   UNL A   1      31.900  27.372  24.797  1.00  0.00     0.091 C 
ATOM     79  C   UNL A   1      33.396  27.716  24.891  1.00  0.00     0.014 C 
ATOM     80  C   UNL A   1      31.146  28.295  23.817  1.00  0.00     0.091 C 
ATOM     81  C   UNL A   1      34.034  27.830  23.515  1.00  0.00     0.001 C 
ATOM     82  C   UNL A   1      31.899  28.700  22.535  1.00  0.00     0.014 C 
ATOM     83  C   UNL A   1      33.384  28.964  22.739  1.00  0.00     0.001 C 
BRANCH  80  84
ATOM     84  C   UNL A   1      29.704  27.858  23.517  1.00  0.00     0.228 C 
ATOM     85  O   UNL A   1      29.421  26.654  23.559  1.00  0.00    -0.274 OA
ATOM     86  N   UNL A   1      28.664  28.712  23.288  1.00  0.00    -0.326 N 
ATOM     87  H   UNL A   1      27.788  28.292  23.444  1.00  0.00     0.169 HD
BRANCH  86  88
ATOM     88  C   UNL A   1      28.555  30.053  22.883  1.00  0.00     0.044 A 
ATOM     89  C   UNL A   1      28.926  31.140  23.671  1.00  0.00     0.026 A 
ATOM     90  C   UNL A   1      28.121  30.299  21.577  1.00  0.00     0.072 A 
ATOM     91  C   UNL A   1      28.815  32.451  23.200  1.00  0.00     0.006 A 
ATOM     92  C   UNL A   1      27.993  31.610  21.116  1.00  0.00     0.117 A 
ATOM     93  C   UNL A   1      28.333  32.691  21.919  1.00  0.00     0.046 A 
BRANCH  92  94
ATOM     94  O   UNL A   1      27.519  31.794  19.852  1.00  0.00    -0.508 OA
ATOM     95  H   UNL A   1      26.655  31.507  19.628  1.00  0.00     0.293 HD
ENDBRANCH  92  94
ENDBRANCH  86  88
ENDBRANCH  80  84
ENDBRANCH  75  78
ENDBRANCH  73  74
ENDBRANCH   1  73
TORSDOF 14
ENDMDL
MODEL 3
REMARK VINA RESULT:     -13.2      3.590      5.355
REMARK SMILES O=C(NCCCCNC(=O)[C@@H]1CCCC[C@H]1C(=O)Nc1cccc(O)c1)c1ccc(-c2c3nc(c(-c4c(F)c(F)c(F)c(F)c4F)c4ccc([nH]4)c(-c4c(F)c(F)c(F)c(F)c4F)c4nc(c(-c5c(F)c(F)c(F)c(F)c5F)c5ccc2[nH]5)C=C4)C=C3)cc1
REMARK SMILES IDX 6 1 5 2 4 3 3 4 1 5 2 6 27 8 28 9 89 10 29 11 88 12 30 13
REMARK SMILES IDX 31 14 32 15 82 16 33 17 87 18 81 19 83 20 34 21 86 22 80 23
REMARK SMILES IDX 79 24 35 26 67 27 47 28 66 29 48 30 51 31 65 32 84 33 49 34
REMARK SMILES IDX 50 35 64 37 85 38 52 39 36 40 37 41 45 42 38 43 39 44 43 45
REMARK SMILES IDX 46 46 40 47 41 48 44 49 42 50 68 51 69 52 77 53 70 54 71 55
REMARK SMILES IDX 75 56 78 57 72 58 73 59 76 60 74 61 53 62 54 63 62 64 55 65
REMARK SMILES IDX 56 66 60 67 63 68 57 69 58 70 61 71 59 72 7 73 8 74 9 75
REMARK SMILES IDX 10 77 11 78 12 79 16 80 13 81 15 82 14 83 17 84 18 85 19 86
REMARK SMILES IDX 20 88 21 89 26 90 22 91 24 92 23 93 25 94
REMARK H PARENT 3 7 83 25 51 36 8 76 19 87 25 95
REMARK Flexibility Score: inf
ROOT
ATOM      1  C   UNL A   1      33.460  26.657  26.020  1.00  0.00     0.023 C 
ENDROOT
BRANCH   1   2
ATOM      2  C   UNL A   1      33.255  27.611  24.842  1.00  0.00     0.023 C 
BRANCH   2   3
ATOM      3  C   UNL A   1      33.965  28.955  24.967  1.00  0.00     0.116 C 
BRANCH   3   4
ATOM      4  N   UNL A   1      33.100  30.021  25.450  1.00  0.00    -0.352 N 
ATOM      5  O   UNL A   1      32.352  31.565  26.921  1.00  0.00    -0.269 OA
ATOM      6  C   UNL A   1      33.226  30.777  26.593  1.00  0.00     0.251 C 
ATOM      7  H   UNL A   1      32.322  30.229  24.884  1.00  0.00     0.163 HD
BRANCH   6   8
ATOM      8  C   UNL A   1      34.419  30.593  27.444  1.00  0.00     0.039 A 
ATOM      9  C   UNL A   1      35.336  31.634  27.621  1.00  0.00     0.014 A 
ATOM     10  C   UNL A   1      34.630  29.351  28.046  1.00  0.00     0.014 A 
ATOM     11  C   UNL A   1      36.529  31.393  28.292  1.00  0.00     0.010 A 
ATOM     12  C   UNL A   1      35.798  29.132  28.777  1.00  0.00     0.010 A 
ATOM     13  C   UNL A   1      36.769  30.141  28.878  1.00  0.00    -0.014 A 
BRANCH  13  14
ATOM     14  C   UNL A   1      38.023  29.896  29.631  1.00  0.00     0.031 A 
ATOM     15  C   UNL A   1      39.075  28.975  29.088  1.00  0.00     0.074 A 
ATOM     16  C   UNL A   1      38.189  30.486  30.828  1.00  0.00     0.049 A 
ATOM     17  N   UNL A   1      40.180  28.558  29.651  1.00  0.00    -0.248 NA
ATOM     18  C   UNL A   1      38.851  28.443  27.735  1.00  0.00     0.031 C 
ATOM     19  C   UNL A   1      37.232  31.400  31.453  1.00  0.00     0.029 A 
ATOM     20  N   UNL A   1      39.208  30.392  31.740  1.00  0.00    -0.354 N 
ATOM     21  C   UNL A   1      40.769  27.694  28.737  1.00  0.00     0.074 A 
ATOM     22  C   UNL A   1      39.891  27.633  27.589  1.00  0.00     0.031 C 
ATOM     23  C   UNL A   1      37.709  31.784  32.645  1.00  0.00     0.029 A 
ATOM     24  C   UNL A   1      38.971  31.096  32.893  1.00  0.00     0.049 A 
ATOM     25  H   UNL A   1      40.028  29.870  31.583  1.00  0.00     0.167 HD
ATOM     26  C   UNL A   1      41.937  27.018  28.853  1.00  0.00     0.037 A 
ATOM     27  C   UNL A   1      39.671  31.151  34.041  1.00  0.00     0.037 A 
ATOM     28  C   UNL A   1      42.809  27.099  29.996  1.00  0.00     0.049 A 
ATOM     29  C   UNL A   1      40.947  30.370  34.159  1.00  0.00     0.074 A 
ATOM     30  C   UNL A   1      44.039  26.493  30.190  1.00  0.00     0.029 A 
ATOM     31  N   UNL A   1      42.538  27.828  31.146  1.00  0.00    -0.354 N 
ATOM     32  N   UNL A   1      41.512  29.580  33.279  1.00  0.00    -0.248 NA
ATOM     33  C   UNL A   1      41.681  30.485  35.426  1.00  0.00     0.031 C 
ATOM     34  C   UNL A   1      44.487  26.816  31.477  1.00  0.00     0.029 A 
ATOM     35  C   UNL A   1      43.563  27.665  32.064  1.00  0.00     0.049 A 
ATOM     36  H   UNL A   1      41.735  28.381  31.287  1.00  0.00     0.167 HD
ATOM     37  C   UNL A   1      42.678  29.119  33.873  1.00  0.00     0.074 A 
ATOM     38  C   UNL A   1      42.740  29.722  35.190  1.00  0.00     0.031 C 
ATOM     39  C   UNL A   1      43.612  28.277  33.369  1.00  0.00     0.037 A 
BRANCH  26  40
ATOM     40  C   UNL A   1      42.323  26.101  27.727  1.00  0.00     0.064 A 
ATOM     41  C   UNL A   1      43.251  26.480  26.746  1.00  0.00     0.173 A 
ATOM     42  C   UNL A   1      41.769  24.814  27.642  1.00  0.00     0.173 A 
ATOM     43  F   UNL A   1      43.803  27.703  26.775  1.00  0.00    -0.203 F 
ATOM     44  C   UNL A   1      43.584  25.618  25.703  1.00  0.00     0.198 A 
ATOM     45  C   UNL A   1      42.126  23.944  26.614  1.00  0.00     0.198 A 
ATOM     46  F   UNL A   1      40.883  24.396  28.559  1.00  0.00    -0.203 F 
ATOM     47  F   UNL A   1      44.432  26.022  24.747  1.00  0.00    -0.200 F 
ATOM     48  C   UNL A   1      43.025  24.350  25.641  1.00  0.00     0.200 A 
ATOM     49  F   UNL A   1      41.595  22.715  26.563  1.00  0.00    -0.200 F 
ATOM     50  F   UNL A   1      43.346  23.524  24.635  1.00  0.00    -0.200 F 
ENDBRANCH  26  40
BRANCH  27  51
ATOM     51  C   UNL A   1      39.149  31.972  35.162  1.00  0.00     0.064 A 
ATOM     52  C   UNL A   1      38.438  31.386  36.215  1.00  0.00     0.173 A 
ATOM     53  C   UNL A   1      39.418  33.348  35.234  1.00  0.00     0.173 A 
ATOM     54  F   UNL A   1      38.146  30.078  36.181  1.00  0.00    -0.203 F 
ATOM     55  C   UNL A   1      38.016  32.146  37.304  1.00  0.00     0.198 A 
ATOM     56  C   UNL A   1      39.018  34.100  36.335  1.00  0.00     0.198 A 
ATOM     57  F   UNL A   1      40.105  33.950  34.253  1.00  0.00    -0.203 F 
ATOM     58  F   UNL A   1      37.322  31.567  38.293  1.00  0.00    -0.200 F 
ATOM     59  C   UNL A   1      38.316  33.499  37.368  1.00  0.00     0.200 A 
ATOM     60  F   UNL A   1      39.328  35.402  36.402  1.00  0.00    -0.200 F 
ATOM     61  F   UNL A   1      37.930  34.224  38.428  1.00  0.00    -0.200 F 
ENDBRANCH  27  51
BRANCH  39  62
ATOM     62  C   UNL A   1      44.806  27.981  34.226  1.00  0.00     0.064 A 
ATOM     63  C   UNL A   1      44.841  26.871  35.081  1.00  0.00     0.173 A 
ATOM     64  C   UNL A   1      45.955  28.780  34.136  1.00  0.00     0.173 A 
ATOM     65  F   UNL A   1      43.760  26.087  35.213  1.00  0.00    -0.203 F 
ATOM     66  C   UNL A   1      45.982  26.577  35.824  1.00  0.00     0.198 A 
ATOM     67  C   UNL A   1      47.102  28.471  34.861  1.00  0.00     0.198 A 
ATOM     68  F   UNL A   1      45.972  29.852  33.328  1.00  0.00    -0.203 F 
ATOM     69  F   UNL A   1      45.984  25.528  36.657  1.00  0.00    -0.200 F 
ATOM     70  C   UNL A   1      47.113  27.371  35.705  1.00  0.00     0.200 A 
ATOM     71  F   UNL A   1      48.198  29.231  34.736  1.00  0.00    -0.200 F 
ATOM     72  F   UNL A   1      48.216  27.077  36.408  1.00  0.00    -0.200 F 
ENDBRANCH  39  62
ENDBRANCH  13  14
ENDBRANCH   6   8
ENDBRANCH   3   4
ENDBRANCH   2   3
ENDBRANCH   1   2
BRANCH   1  73
ATOM     73  C   UNL A   1      32.528  25.446  26.016  1.00  0.00     0.116 C 
BRANCH  73  74
ATOM     74  N   UNL A   1      32.573  24.723  24.760  1.00  0.00    -0.356 N 
ATOM     75  C   UNL A   1      33.472  23.795  24.322  1.00  0.00     0.223 C 
ATOM     76  H   UNL A   1      31.847  24.935  24.129  1.00  0.00     0.163 HD
ATOM     77  O   UNL A   1      33.291  23.281  23.217  1.00  0.00    -0.275 OA
BRANCH  75  78
ATOM     78  C   UNL A   1      34.665  23.425  25.203  1.00  0.00     0.091 C 
ATOM     79  C   UNL A   1      35.929  24.097  24.641  1.00  0.00     0.014 C 
ATOM     80  C   UNL A   1      34.810  21.892  25.303  1.00  0.00     0.091 C 
ATOM     81  C   UNL A   1      37.183  23.629  25.364  1.00  0.00     0.001 C 
ATOM     82  C   UNL A   1      36.191  21.358  25.731  1.00  0.00     0.014 C 
ATOM     83  C   UNL A   1      37.367  22.134  25.157  1.00  0.00     0.001 C 
BRANCH  80  84
ATOM     84  C   UNL A   1      33.669  21.196  26.060  1.00  0.00     0.228 C 
ATOM     85  O   UNL A   1      33.240  21.709  27.101  1.00  0.00    -0.274 OA
ATOM     86  N   UNL A   1      33.015  20.080  25.625  1.00  0.00    -0.326 N 
ATOM     87  H   UNL A   1      32.131  19.972  26.043  1.00  0.00     0.169 HD
BRANCH  86  88
ATOM     88  C   UNL A   1      33.311  19.049  24.717  1.00  0.00     0.044 A 
ATOM     89  C   UNL A   1      34.391  18.177  24.850  1.00  0.00     0.026 A 
ATOM     90  C   UNL A   1      32.419  18.840  23.663  1.00  0.00     0.072 A 
ATOM     91  C   UNL A   1      34.618  17.155  23.926  1.00  0.00     0.006 A 
ATOM     92  C   UNL A   1      32.658  17.831  22.730  1.00  0.00     0.117 A 
ATOM     93  C   UNL A   1      33.755  16.987  22.850  1.00  0.00     0.046 A 
BRANCH  92  94
ATOM     94  O   UNL A   1      31.782  17.703  21.694  1.00  0.00    -0.508 OA
ATOM     95  H   UNL A   1      30.862  17.633  21.864  1.00  0.00     0.293 HD
ENDBRANCH  92  94
ENDBRANCH  86  88
ENDBRANCH  80  84
ENDBRANCH  75  78
ENDBRANCH  73  74
ENDBRANCH   1  73
TORSDOF 14
ENDMDL
