MODEL 1
REMARK VINA RESULT:     -12.2      0.000      0.000
REMARK SMILES O=C(NCCCCNC(=O)[C@H]1CC[C@@H](CNc2nncs2)CC1)c1ccc(-c2c3nc(c(-c4c(F)c(F)c(F)c(F)c4F)c4ccc([nH]4)c(-c4c(F)c(F)c(F)c(F)c4F)c4nc(c(-c5c(F)c(F)c(F)c(F)c5F)c5ccc2[nH]5)C=C4)C=C3)cc1
REMARK SMILES IDX 6 1 5 2 4 3 3 4 1 5 2 6 24 8 25 9 86 10 26 11 85 12 27 13
REMARK SMILES IDX 28 14 29 15 79 16 30 17 84 18 78 19 80 20 31 21 83 22 77 23
REMARK SMILES IDX 76 24 32 26 64 27 44 28 63 29 45 30 48 31 62 32 81 33 46 34
REMARK SMILES IDX 47 35 61 37 82 38 49 39 33 40 34 41 42 42 35 43 36 44 40 45
REMARK SMILES IDX 43 46 37 47 38 48 41 49 39 50 65 51 66 52 74 53 67 54 68 55
REMARK SMILES IDX 72 56 75 57 69 58 70 59 73 60 71 61 50 62 51 63 59 64 52 65
REMARK SMILES IDX 53 66 57 67 60 68 54 69 55 70 58 71 56 72 7 73 8 74 9 75
REMARK SMILES IDX 10 77 11 78 23 79 12 80 22 81 13 82 14 83 15 84 16 85 17 87
REMARK SMILES IDX 18 88 21 89 19 90 20 91
REMARK H PARENT 3 7 80 25 48 36 8 76 16 86
REMARK Flexibility Score: inf
ROOT
ATOM      1  C   UNL A   1      31.738  30.931  26.159  1.00  0.00     0.023 C 
ENDROOT
BRANCH   1   2
ATOM      2  C   UNL A   1      31.396  32.292  26.761  1.00  0.00     0.023 C 
BRANCH   2   3
ATOM      3  C   UNL A   1      32.574  33.022  27.389  1.00  0.00     0.116 C 
BRANCH   3   4
ATOM      4  N   UNL A   1      32.284  34.405  27.736  1.00  0.00    -0.352 N 
ATOM      5  O   UNL A   1      32.514  36.316  28.925  1.00  0.00    -0.269 OA
ATOM      6  C   UNL A   1      32.928  35.196  28.659  1.00  0.00     0.251 C 
ATOM      7  H   UNL A   1      31.537  34.825  27.252  1.00  0.00     0.163 HD
BRANCH   6   8
ATOM      8  C   UNL A   1      34.107  34.648  29.361  1.00  0.00     0.039 A 
ATOM      9  C   UNL A   1      35.348  34.611  28.722  1.00  0.00     0.014 A 
ATOM     10  C   UNL A   1      33.953  34.120  30.645  1.00  0.00     0.014 A 
ATOM     11  C   UNL A   1      36.397  33.915  29.306  1.00  0.00     0.010 A 
ATOM     12  C   UNL A   1      35.036  33.494  31.266  1.00  0.00     0.010 A 
ATOM     13  C   UNL A   1      36.255  33.358  30.588  1.00  0.00    -0.014 A 
BRANCH  13  14
ATOM     14  C   UNL A   1      37.423  32.687  31.207  1.00  0.00     0.031 A 
ATOM     15  C   UNL A   1      37.881  33.038  32.593  1.00  0.00     0.074 A 
ATOM     16  C   UNL A   1      38.037  31.709  30.513  1.00  0.00     0.049 A 
ATOM     17  N   UNL A   1      38.857  32.518  33.293  1.00  0.00    -0.248 NA
ATOM     18  C   UNL A   1      37.155  34.114  33.285  1.00  0.00     0.031 C 
ATOM     19  C   UNL A   1      37.681  31.295  29.154  1.00  0.00     0.029 A 
ATOM     20  N   UNL A   1      39.063  30.870  30.859  1.00  0.00    -0.354 N 
ATOM     21  C   UNL A   1      38.872  33.206  34.498  1.00  0.00     0.074 A 
ATOM     22  C   UNL A   1      37.822  34.201  34.427  1.00  0.00     0.031 C 
ATOM     23  C   UNL A   1      38.442  30.250  28.800  1.00  0.00     0.029 A 
ATOM     24  C   UNL A   1      39.375  29.957  29.882  1.00  0.00     0.049 A 
ATOM     25  H   UNL A   1      39.532  30.917  31.724  1.00  0.00     0.167 HD
ATOM     26  C   UNL A   1      39.682  33.016  35.568  1.00  0.00     0.037 A 
ATOM     27  C   UNL A   1      40.315  28.997  29.855  1.00  0.00     0.037 A 
ATOM     28  C   UNL A   1      40.719  32.017  35.634  1.00  0.00     0.049 A 
ATOM     29  C   UNL A   1      41.197  28.811  31.054  1.00  0.00     0.074 A 
ATOM     30  C   UNL A   1      41.594  31.746  36.671  1.00  0.00     0.029 A 
ATOM     31  N   UNL A   1      41.016  31.121  34.617  1.00  0.00    -0.354 N 
ATOM     32  N   UNL A   1      41.194  29.465  32.190  1.00  0.00    -0.248 NA
ATOM     33  C   UNL A   1      42.215  27.756  30.968  1.00  0.00     0.031 C 
ATOM     34  C   UNL A   1      42.440  30.706  36.272  1.00  0.00     0.029 A 
ATOM     35  C   UNL A   1      42.066  30.302  35.000  1.00  0.00     0.049 A 
ATOM     36  H   UNL A   1      40.550  31.072  33.752  1.00  0.00     0.167 HD
ATOM     37  C   UNL A   1      42.202  28.900  32.956  1.00  0.00     0.074 A 
ATOM     38  C   UNL A   1      42.775  27.829  32.166  1.00  0.00     0.031 C 
ATOM     39  C   UNL A   1      42.624  29.245  34.196  1.00  0.00     0.037 A 
BRANCH  26  40
ATOM     40  C   UNL A   1      39.490  33.911  36.758  1.00  0.00     0.064 A 
ATOM     41  C   UNL A   1      38.727  33.506  37.862  1.00  0.00     0.173 A 
ATOM     42  C   UNL A   1      40.123  35.161  36.820  1.00  0.00     0.173 A 
ATOM     43  F   UNL A   1      38.091  32.325  37.847  1.00  0.00    -0.203 F 
ATOM     44  C   UNL A   1      38.593  34.326  38.980  1.00  0.00     0.198 A 
ATOM     45  C   UNL A   1      40.006  35.970  37.948  1.00  0.00     0.198 A 
ATOM     46  F   UNL A   1      40.868  35.594  35.791  1.00  0.00    -0.203 F 
ATOM     47  F   UNL A   1      37.833  33.932  40.012  1.00  0.00    -0.200 F 
ATOM     48  C   UNL A   1      39.239  35.553  39.026  1.00  0.00     0.200 A 
ATOM     49  F   UNL A   1      40.638  37.150  37.994  1.00  0.00    -0.200 F 
ATOM     50  F   UNL A   1      39.117  36.336  40.106  1.00  0.00    -0.200 F 
ENDBRANCH  26  40
BRANCH  27  51
ATOM     51  C   UNL A   1      40.462  28.147  28.648  1.00  0.00     0.064 A 
ATOM     52  C   UNL A   1      41.270  28.546  27.575  1.00  0.00     0.173 A 
ATOM     53  C   UNL A   1      39.814  26.907  28.553  1.00  0.00     0.173 A 
ATOM     54  F   UNL A   1      41.897  29.731  27.613  1.00  0.00    -0.203 F 
ATOM     55  C   UNL A   1      41.411  27.744  26.445  1.00  0.00     0.198 A 
ATOM     56  C   UNL A   1      39.980  26.092  27.436  1.00  0.00     0.198 A 
ATOM     57  F   UNL A   1      39.037  26.476  29.558  1.00  0.00    -0.203 F 
ATOM     58  F   UNL A   1      42.158  28.166  25.416  1.00  0.00    -0.200 F 
ATOM     59  C   UNL A   1      40.772  26.515  26.380  1.00  0.00     0.200 A 
ATOM     60  F   UNL A   1      39.375  24.897  27.386  1.00  0.00    -0.200 F 
ATOM     61  F   UNL A   1      40.917  25.738  25.297  1.00  0.00    -0.200 F 
ENDBRANCH  27  51
BRANCH  39  62
ATOM     62  C   UNL A   1      43.752  28.442  34.771  1.00  0.00     0.064 A 
ATOM     63  C   UNL A   1      45.088  28.837  34.603  1.00  0.00     0.173 A 
ATOM     64  C   UNL A   1      43.495  27.275  35.503  1.00  0.00     0.173 A 
ATOM     65  F   UNL A   1      45.382  29.937  33.894  1.00  0.00    -0.203 F 
ATOM     66  C   UNL A   1      46.128  28.073  35.124  1.00  0.00     0.198 A 
ATOM     67  C   UNL A   1      44.537  26.528  36.044  1.00  0.00     0.198 A 
ATOM     68  F   UNL A   1      42.233  26.859  35.693  1.00  0.00    -0.203 F 
ATOM     69  F   UNL A   1      47.399  28.440  34.908  1.00  0.00    -0.200 F 
ATOM     70  C   UNL A   1      45.852  26.922  35.848  1.00  0.00     0.200 A 
ATOM     71  F   UNL A   1      44.269  25.419  36.748  1.00  0.00    -0.200 F 
ATOM     72  F   UNL A   1      46.855  26.186  36.345  1.00  0.00    -0.200 F 
ENDBRANCH  39  62
ENDBRANCH  13  14
ENDBRANCH   6   8
ENDBRANCH   3   4
ENDBRANCH   2   3
ENDBRANCH   1   2
BRANCH   1  73
ATOM     73  C   UNL A   1      32.013  29.832  27.186  1.00  0.00     0.116 C 
BRANCH  73  74
ATOM     74  N   UNL A   1      33.427  29.718  27.472  1.00  0.00    -0.356 N 
ATOM     75  C   UNL A   1      34.357  28.826  27.038  1.00  0.00     0.223 C 
ATOM     76  H   UNL A   1      33.776  30.404  28.086  1.00  0.00     0.163 HD
ATOM     77  O   UNL A   1      35.491  28.919  27.516  1.00  0.00    -0.275 OA
BRANCH  75  78
ATOM     78  C   UNL A   1      34.063  27.784  25.958  1.00  0.00     0.078 C 
ATOM     79  C   UNL A   1      32.973  26.770  26.318  1.00  0.00     0.014 C 
ATOM     80  C   UNL A   1      33.854  28.453  24.595  1.00  0.00     0.014 C 
ATOM     81  C   UNL A   1      32.681  25.792  25.181  1.00  0.00     0.006 C 
ATOM     82  C   UNL A   1      33.565  27.430  23.501  1.00  0.00     0.006 C 
ATOM     83  C   UNL A   1      32.391  26.496  23.844  1.00  0.00     0.008 C 
BRANCH  83  84
ATOM     84  C   UNL A   1      31.016  27.203  23.853  1.00  0.00     0.119 C 
BRANCH  84  85
ATOM     85  N   UNL A   1      30.775  27.847  22.580  1.00  0.00    -0.360 N 
ATOM     86  H   UNL A   1      31.389  27.625  21.843  1.00  0.00     0.162 HD
BRANCH  85  87
ATOM     87  C   UNL A   1      29.784  28.726  22.311  1.00  0.00     0.205 A 
ATOM     88  N   UNL A   1      29.949  29.716  21.456  1.00  0.00    -0.121 NA
ATOM     89  S   UNL A   1      28.204  28.706  23.007  1.00  0.00    -0.083 S 
ATOM     90  N   UNL A   1      28.816  30.480  21.275  1.00  0.00    -0.145 NA
ATOM     91  C   UNL A   1      27.826  30.054  22.024  1.00  0.00     0.204 A 
ENDBRANCH  85  87
ENDBRANCH  84  85
ENDBRANCH  83  84
ENDBRANCH  75  78
ENDBRANCH  73  74
ENDBRANCH   1  73
TORSDOF 14
ENDMDL
MODEL 2
REMARK VINA RESULT:     -12.1      1.955      3.123
REMARK SMILES O=C(NCCCCNC(=O)[C@H]1CC[C@@H](CNc2nncs2)CC1)c1ccc(-c2c3nc(c(-c4c(F)c(F)c(F)c(F)c4F)c4ccc([nH]4)c(-c4c(F)c(F)c(F)c(F)c4F)c4nc(c(-c5c(F)c(F)c(F)c(F)c5F)c5ccc2[nH]5)C=C4)C=C3)cc1
REMARK SMILES IDX 6 1 5 2 4 3 3 4 1 5 2 6 24 8 25 9 86 10 26 11 85 12 27 13
REMARK SMILES IDX 28 14 29 15 79 16 30 17 84 18 78 19 80 20 31 21 83 22 77 23
REMARK SMILES IDX 76 24 32 26 64 27 44 28 63 29 45 30 48 31 62 32 81 33 46 34
REMARK SMILES IDX 47 35 61 37 82 38 49 39 33 40 34 41 42 42 35 43 36 44 40 45
REMARK SMILES IDX 43 46 37 47 38 48 41 49 39 50 65 51 66 52 74 53 67 54 68 55
REMARK SMILES IDX 72 56 75 57 69 58 70 59 73 60 71 61 50 62 51 63 59 64 52 65
REMARK SMILES IDX 53 66 57 67 60 68 54 69 55 70 58 71 56 72 7 73 8 74 9 75
REMARK SMILES IDX 10 77 11 78 23 79 12 80 22 81 13 82 14 83 15 84 16 85 17 87
REMARK SMILES IDX 18 88 21 89 19 90 20 91
REMARK H PARENT 3 7 80 25 48 36 8 76 16 86
REMARK Flexibility Score: inf
ROOT
ATOM      1  C   UNL A   1      31.808  30.521  26.697  1.00  0.00     0.023 C 
ENDROOT
BRANCH   1   2
ATOM      2  C   UNL A   1      31.584  32.031  26.749  1.00  0.00     0.023 C 
BRANCH   2   3
ATOM      3  C   UNL A   1      32.773  32.831  27.258  1.00  0.00     0.116 C 
BRANCH   3   4
ATOM      4  N   UNL A   1      32.432  34.185  27.668  1.00  0.00    -0.352 N 
ATOM      5  O   UNL A   1      32.570  36.037  28.960  1.00  0.00    -0.269 OA
ATOM      6  C   UNL A   1      33.025  34.944  28.650  1.00  0.00     0.251 C 
ATOM      7  H   UNL A   1      31.687  34.608  27.183  1.00  0.00     0.163 HD
BRANCH   6   8
ATOM      8  C   UNL A   1      34.199  34.394  29.358  1.00  0.00     0.039 A 
ATOM      9  C   UNL A   1      35.488  34.685  28.909  1.00  0.00     0.014 A 
ATOM     10  C   UNL A   1      34.001  33.538  30.444  1.00  0.00     0.014 A 
ATOM     11  C   UNL A   1      36.571  34.006  29.451  1.00  0.00     0.010 A 
ATOM     12  C   UNL A   1      35.101  32.920  31.043  1.00  0.00     0.010 A 
ATOM     13  C   UNL A   1      36.390  33.124  30.529  1.00  0.00    -0.014 A 
BRANCH  13  14
ATOM     14  C   UNL A   1      37.581  32.476  31.128  1.00  0.00     0.031 A 
ATOM     15  C   UNL A   1      38.059  32.839  32.504  1.00  0.00     0.074 A 
ATOM     16  C   UNL A   1      38.199  31.506  30.425  1.00  0.00     0.049 A 
ATOM     17  N   UNL A   1      39.058  32.338  33.186  1.00  0.00    -0.248 NA
ATOM     18  C   UNL A   1      37.328  33.904  33.207  1.00  0.00     0.031 C 
ATOM     19  C   UNL A   1      37.824  31.083  29.074  1.00  0.00     0.029 A 
ATOM     20  N   UNL A   1      39.246  30.687  30.753  1.00  0.00    -0.354 N 
ATOM     21  C   UNL A   1      39.084  33.031  34.389  1.00  0.00     0.074 A 
ATOM     22  C   UNL A   1      38.015  34.007  34.336  1.00  0.00     0.031 C 
ATOM     23  C   UNL A   1      38.596  30.050  28.708  1.00  0.00     0.029 A 
ATOM     24  C   UNL A   1      39.554  29.777  29.772  1.00  0.00     0.049 A 
ATOM     25  H   UNL A   1      39.730  30.745  31.608  1.00  0.00     0.167 HD
ATOM     26  C   UNL A   1      39.918  32.858  35.443  1.00  0.00     0.037 A 
ATOM     27  C   UNL A   1      40.511  28.833  29.730  1.00  0.00     0.037 A 
ATOM     28  C   UNL A   1      40.973  31.877  35.492  1.00  0.00     0.049 A 
ATOM     29  C   UNL A   1      41.419  28.666  30.912  1.00  0.00     0.074 A 
ATOM     30  C   UNL A   1      41.872  31.624  36.513  1.00  0.00     0.029 A 
ATOM     31  N   UNL A   1      41.266  30.983  34.472  1.00  0.00    -0.354 N 
ATOM     32  N   UNL A   1      41.426  29.323  32.046  1.00  0.00    -0.248 NA
ATOM     33  C   UNL A   1      42.453  27.629  30.809  1.00  0.00     0.031 C 
ATOM     34  C   UNL A   1      42.729  30.598  36.100  1.00  0.00     0.029 A 
ATOM     35  C   UNL A   1      42.338  30.184  34.837  1.00  0.00     0.049 A 
ATOM     36  H   UNL A   1      40.784  30.924  33.616  1.00  0.00     0.167 HD
ATOM     37  C   UNL A   1      42.459  28.778  32.794  1.00  0.00     0.074 A 
ATOM     38  C   UNL A   1      43.035  27.715  31.996  1.00  0.00     0.031 C 
ATOM     39  C   UNL A   1      42.898  29.134  34.025  1.00  0.00     0.037 A 
BRANCH  26  40
ATOM     40  C   UNL A   1      39.732  33.752  36.634  1.00  0.00     0.064 A 
ATOM     41  C   UNL A   1      40.339  35.015  36.703  1.00  0.00     0.173 A 
ATOM     42  C   UNL A   1      38.893  33.369  37.691  1.00  0.00     0.173 A 
ATOM     43  F   UNL A   1      41.160  35.424  35.725  1.00  0.00    -0.203 F 
ATOM     44  C   UNL A   1      40.122  35.855  37.792  1.00  0.00     0.198 A 
ATOM     45  C   UNL A   1      38.661  34.220  38.769  1.00  0.00     0.198 A 
ATOM     46  F   UNL A   1      38.285  32.172  37.672  1.00  0.00    -0.203 F 
ATOM     47  F   UNL A   1      40.738  37.045  37.853  1.00  0.00    -0.200 F 
ATOM     48  C   UNL A   1      39.278  35.461  38.820  1.00  0.00     0.200 A 
ATOM     49  F   UNL A   1      37.837  33.842  39.755  1.00  0.00    -0.200 F 
ATOM     50  F   UNL A   1      39.064  36.275  39.863  1.00  0.00    -0.200 F 
ENDBRANCH  26  40
BRANCH  27  51
ATOM     51  C   UNL A   1      40.650  27.982  28.523  1.00  0.00     0.064 A 
ATOM     52  C   UNL A   1      40.002  26.743  28.431  1.00  0.00     0.173 A 
ATOM     53  C   UNL A   1      41.417  28.401  27.427  1.00  0.00     0.173 A 
ATOM     54  F   UNL A   1      39.271  26.292  29.461  1.00  0.00    -0.203 F 
ATOM     55  C   UNL A   1      40.130  25.948  27.294  1.00  0.00     0.198 A 
ATOM     56  C   UNL A   1      41.520  27.620  26.278  1.00  0.00     0.198 A 
ATOM     57  F   UNL A   1      42.049  29.584  27.462  1.00  0.00    -0.203 F 
ATOM     58  F   UNL A   1      39.532  24.750  27.247  1.00  0.00    -0.200 F 
ATOM     59  C   UNL A   1      40.882  26.391  26.217  1.00  0.00     0.200 A 
ATOM     60  F   UNL A   1      42.232  28.061  25.233  1.00  0.00    -0.200 F 
ATOM     61  F   UNL A   1      40.996  25.631  25.119  1.00  0.00    -0.200 F 
ENDBRANCH  27  51
BRANCH  39  62
ATOM     62  C   UNL A   1      44.051  28.353  34.580  1.00  0.00     0.064 A 
ATOM     63  C   UNL A   1      45.376  28.772  34.386  1.00  0.00     0.173 A 
ATOM     64  C   UNL A   1      43.829  27.183  35.320  1.00  0.00     0.173 A 
ATOM     65  F   UNL A   1      45.638  29.875  33.669  1.00  0.00    -0.203 F 
ATOM     66  C   UNL A   1      46.439  28.027  34.889  1.00  0.00     0.198 A 
ATOM     67  C   UNL A   1      44.894  26.456  35.842  1.00  0.00     0.198 A 
ATOM     68  F   UNL A   1      42.578  26.745  35.534  1.00  0.00    -0.203 F 
ATOM     69  F   UNL A   1      47.699  28.416  34.648  1.00  0.00    -0.200 F 
ATOM     70  C   UNL A   1      46.198  26.873  35.620  1.00  0.00     0.200 A 
ATOM     71  F   UNL A   1      44.659  25.344  36.554  1.00  0.00    -0.200 F 
ATOM     72  F   UNL A   1      47.223  26.156  36.100  1.00  0.00    -0.200 F 
ENDBRANCH  39  62
ENDBRANCH  13  14
ENDBRANCH   6   8
ENDBRANCH   3   4
ENDBRANCH   2   3
ENDBRANCH   1   2
BRANCH   1  73
ATOM     73  C   UNL A   1      33.277  30.096  26.667  1.00  0.00     0.116 C 
BRANCH  73  74
ATOM     74  N   UNL A   1      33.677  29.674  25.341  1.00  0.00    -0.356 N 
ATOM     75  C   UNL A   1      33.697  28.443  24.764  1.00  0.00     0.223 C 
ATOM     76  H   UNL A   1      33.988  30.403  24.757  1.00  0.00     0.163 HD
ATOM     77  O   UNL A   1      34.173  28.363  23.628  1.00  0.00    -0.275 OA
BRANCH  75  78
ATOM     78  C   UNL A   1      33.106  27.204  25.437  1.00  0.00     0.078 C 
ATOM     79  C   UNL A   1      31.707  26.810  24.951  1.00  0.00     0.014 C 
ATOM     80  C   UNL A   1      34.109  26.045  25.428  1.00  0.00     0.014 C 
ATOM     81  C   UNL A   1      31.192  25.534  25.614  1.00  0.00     0.006 C 
ATOM     82  C   UNL A   1      33.540  24.799  26.100  1.00  0.00     0.006 C 
ATOM     83  C   UNL A   1      32.186  24.363  25.514  1.00  0.00     0.008 C 
BRANCH  83  84
ATOM     84  C   UNL A   1      32.280  23.811  24.073  1.00  0.00     0.119 C 
BRANCH  84  85
ATOM     85  N   UNL A   1      33.107  22.624  24.044  1.00  0.00    -0.360 N 
ATOM     86  H   UNL A   1      32.658  21.763  24.204  1.00  0.00     0.162 HD
BRANCH  85  87
ATOM     87  C   UNL A   1      34.439  22.592  23.818  1.00  0.00     0.205 A 
ATOM     88  N   UNL A   1      34.987  23.240  22.808  1.00  0.00    -0.121 NA
ATOM     89  S   UNL A   1      35.601  21.739  24.768  1.00  0.00    -0.083 S 
ATOM     90  N   UNL A   1      36.361  23.129  22.765  1.00  0.00    -0.145 NA
ATOM     91  C   UNL A   1      36.812  22.375  23.741  1.00  0.00     0.204 A 
ENDBRANCH  85  87
ENDBRANCH  84  85
ENDBRANCH  83  84
ENDBRANCH  75  78
ENDBRANCH  73  74
ENDBRANCH   1  73
TORSDOF 14
ENDMDL
MODEL 3
REMARK VINA RESULT:     -12.0      2.102      2.820
REMARK SMILES O=C(NCCCCNC(=O)[C@H]1CC[C@@H](CNc2nncs2)CC1)c1ccc(-c2c3nc(c(-c4c(F)c(F)c(F)c(F)c4F)c4ccc([nH]4)c(-c4c(F)c(F)c(F)c(F)c4F)c4nc(c(-c5c(F)c(F)c(F)c(F)c5F)c5ccc2[nH]5)C=C4)C=C3)cc1
REMARK SMILES IDX 6 1 5 2 4 3 3 4 1 5 2 6 24 8 25 9 86 10 26 11 85 12 27 13
REMARK SMILES IDX 28 14 29 15 79 16 30 17 84 18 78 19 80 20 31 21 83 22 77 23
REMARK SMILES IDX 76 24 32 26 64 27 44 28 63 29 45 30 48 31 62 32 81 33 46 34
REMARK SMILES IDX 47 35 61 37 82 38 49 39 33 40 34 41 42 42 35 43 36 44 40 45
REMARK SMILES IDX 43 46 37 47 38 48 41 49 39 50 65 51 66 52 74 53 67 54 68 55
REMARK SMILES IDX 72 56 75 57 69 58 70 59 73 60 71 61 50 62 51 63 59 64 52 65
REMARK SMILES IDX 53 66 57 67 60 68 54 69 55 70 58 71 56 72 7 73 8 74 9 75
REMARK SMILES IDX 10 77 11 78 23 79 12 80 22 81 13 82 14 83 15 84 16 85 17 87
REMARK SMILES IDX 18 88 21 89 19 90 20 91
REMARK H PARENT 3 7 80 25 48 36 8 76 16 86
REMARK Flexibility Score: inf
ROOT
ATOM      1  C   UNL A   1      31.770  30.483  26.635  1.00  0.00     0.023 C 
ENDROOT
BRANCH   1   2
ATOM      2  C   UNL A   1      31.523  31.986  26.749  1.00  0.00     0.023 C 
BRANCH   2   3
ATOM      3  C   UNL A   1      32.715  32.788  27.248  1.00  0.00     0.116 C 
BRANCH   3   4
ATOM      4  N   UNL A   1      32.382  34.153  27.627  1.00  0.00    -0.352 N 
ATOM      5  O   UNL A   1      32.526  36.031  28.880  1.00  0.00    -0.269 OA
ATOM      6  C   UNL A   1      32.973  34.929  28.596  1.00  0.00     0.251 C 
ATOM      7  H   UNL A   1      31.643  34.571  27.128  1.00  0.00     0.163 HD
BRANCH   6   8
ATOM      8  C   UNL A   1      34.139  34.386  29.323  1.00  0.00     0.039 A 
ATOM      9  C   UNL A   1      35.433  34.639  28.863  1.00  0.00     0.014 A 
ATOM     10  C   UNL A   1      33.929  33.573  30.440  1.00  0.00     0.014 A 
ATOM     11  C   UNL A   1      36.505  33.963  29.428  1.00  0.00     0.010 A 
ATOM     12  C   UNL A   1      35.020  32.960  31.060  1.00  0.00     0.010 A 
ATOM     13  C   UNL A   1      36.311  33.124  30.538  1.00  0.00    -0.014 A 
BRANCH  13  14
ATOM     14  C   UNL A   1      37.493  32.478  31.159  1.00  0.00     0.031 A 
ATOM     15  C   UNL A   1      37.944  32.843  32.544  1.00  0.00     0.074 A 
ATOM     16  C   UNL A   1      38.125  31.510  30.468  1.00  0.00     0.049 A 
ATOM     17  N   UNL A   1      38.930  32.344  33.245  1.00  0.00    -0.248 NA
ATOM     18  C   UNL A   1      37.197  33.906  33.232  1.00  0.00     0.031 C 
ATOM     19  C   UNL A   1      37.777  31.085  29.110  1.00  0.00     0.029 A 
ATOM     20  N   UNL A   1      39.168  30.693  30.816  1.00  0.00    -0.354 N 
ATOM     21  C   UNL A   1      38.932  33.037  34.448  1.00  0.00     0.074 A 
ATOM     22  C   UNL A   1      37.863  34.011  34.374  1.00  0.00     0.031 C 
ATOM     23  C   UNL A   1      38.558  30.054  28.759  1.00  0.00     0.029 A 
ATOM     24  C   UNL A   1      39.497  29.783  29.842  1.00  0.00     0.049 A 
ATOM     25  H   UNL A   1      39.636  30.752  31.681  1.00  0.00     0.167 HD
ATOM     26  C   UNL A   1      39.746  32.866  35.518  1.00  0.00     0.037 A 
ATOM     27  C   UNL A   1      40.456  28.841  29.818  1.00  0.00     0.037 A 
ATOM     28  C   UNL A   1      40.803  31.889  35.586  1.00  0.00     0.049 A 
ATOM     29  C   UNL A   1      41.342  28.677  31.017  1.00  0.00     0.074 A 
ATOM     30  C   UNL A   1      41.684  31.638  36.624  1.00  0.00     0.029 A 
ATOM     31  N   UNL A   1      41.117  30.995  34.573  1.00  0.00    -0.354 N 
ATOM     32  N   UNL A   1      41.326  29.334  32.151  1.00  0.00    -0.248 NA
ATOM     33  C   UNL A   1      42.380  27.642  30.934  1.00  0.00     0.031 C 
ATOM     34  C   UNL A   1      42.550  30.613  36.228  1.00  0.00     0.029 A 
ATOM     35  C   UNL A   1      42.184  30.198  34.958  1.00  0.00     0.049 A 
ATOM     36  H   UNL A   1      40.652  30.934  33.708  1.00  0.00     0.167 HD
ATOM     37  C   UNL A   1      42.346  28.792  32.917  1.00  0.00     0.074 A 
ATOM     38  C   UNL A   1      42.940  27.730  32.131  1.00  0.00     0.031 C 
ATOM     39  C   UNL A   1      42.762  29.149  34.157  1.00  0.00     0.037 A 
BRANCH  26  40
ATOM     40  C   UNL A   1      39.537  33.761  36.705  1.00  0.00     0.064 A 
ATOM     41  C   UNL A   1      38.731  33.369  37.783  1.00  0.00     0.173 A 
ATOM     42  C   UNL A   1      40.196  34.997  36.792  1.00  0.00     0.173 A 
ATOM     43  F   UNL A   1      38.069  32.203  37.743  1.00  0.00    -0.203 F 
ATOM     44  C   UNL A   1      38.581  34.188  38.900  1.00  0.00     0.198 A 
ATOM     45  C   UNL A   1      40.061  35.803  37.919  1.00  0.00     0.198 A 
ATOM     46  F   UNL A   1      40.983  35.416  35.789  1.00  0.00    -0.203 F 
ATOM     47  F   UNL A   1      37.780  33.808  39.906  1.00  0.00    -0.200 F 
ATOM     48  C   UNL A   1      39.253  35.400  38.971  1.00  0.00     0.200 A 
ATOM     49  F   UNL A   1      40.719  36.969  37.990  1.00  0.00    -0.200 F 
ATOM     50  F   UNL A   1      39.114  36.182  40.050  1.00  0.00    -0.200 F 
ENDBRANCH  26  40
BRANCH  27  51
ATOM     51  C   UNL A   1      40.619  27.991  28.613  1.00  0.00     0.064 A 
ATOM     52  C   UNL A   1      41.443  28.389  27.552  1.00  0.00     0.173 A 
ATOM     53  C   UNL A   1      39.971  26.751  28.510  1.00  0.00     0.173 A 
ATOM     54  F   UNL A   1      42.070  29.573  27.598  1.00  0.00    -0.203 F 
ATOM     55  C   UNL A   1      41.599  27.585  26.424  1.00  0.00     0.198 A 
ATOM     56  C   UNL A   1      40.152  25.935  27.395  1.00  0.00     0.198 A 
ATOM     57  F   UNL A   1      39.180  26.322  29.504  1.00  0.00    -0.203 F 
ATOM     58  F   UNL A   1      42.361  28.006  25.405  1.00  0.00    -0.200 F 
ATOM     59  C   UNL A   1      40.960  26.357  26.351  1.00  0.00     0.200 A 
ATOM     60  F   UNL A   1      39.547  24.741  27.338  1.00  0.00    -0.200 F 
ATOM     61  F   UNL A   1      41.119  25.580  25.270  1.00  0.00    -0.200 F 
ENDBRANCH  27  51
BRANCH  39  62
ATOM     62  C   UNL A   1      43.906  28.371  34.733  1.00  0.00     0.064 A 
ATOM     63  C   UNL A   1      45.231  28.804  34.584  1.00  0.00     0.173 A 
ATOM     64  C   UNL A   1      43.673  27.188  35.450  1.00  0.00     0.173 A 
ATOM     65  F   UNL A   1      45.503  29.920  33.890  1.00  0.00    -0.203 F 
ATOM     66  C   UNL A   1      46.287  28.062  35.106  1.00  0.00     0.198 A 
ATOM     67  C   UNL A   1      44.730  26.464  35.993  1.00  0.00     0.198 A 
ATOM     68  F   UNL A   1      42.422  26.736  35.622  1.00  0.00    -0.203 F 
ATOM     69  F   UNL A   1      47.549  28.466  34.907  1.00  0.00    -0.200 F 
ATOM     70  C   UNL A   1      46.036  26.896  35.813  1.00  0.00     0.200 A 
ATOM     71  F   UNL A   1      44.486  25.340  36.681  1.00  0.00    -0.200 F 
ATOM     72  F   UNL A   1      47.054  26.182  36.313  1.00  0.00    -0.200 F 
ENDBRANCH  39  62
ENDBRANCH  13  14
ENDBRANCH   6   8
ENDBRANCH   3   4
ENDBRANCH   2   3
ENDBRANCH   1   2
BRANCH   1  73
ATOM     73  C   UNL A   1      33.241  30.087  26.509  1.00  0.00     0.116 C 
BRANCH  73  74
ATOM     74  N   UNL A   1      33.548  29.613  25.176  1.00  0.00    -0.356 N 
ATOM     75  C   UNL A   1      33.635  28.352  24.675  1.00  0.00     0.223 C 
ATOM     76  H   UNL A   1      33.725  30.325  24.520  1.00  0.00     0.163 HD
ATOM     77  O   UNL A   1      34.000  28.238  23.501  1.00  0.00    -0.275 OA
BRANCH  75  78
ATOM     78  C   UNL A   1      33.241  27.113  25.479  1.00  0.00     0.078 C 
ATOM     79  C   UNL A   1      31.746  26.780  25.462  1.00  0.00     0.014 C 
ATOM     80  C   UNL A   1      34.140  25.923  25.125  1.00  0.00     0.014 C 
ATOM     81  C   UNL A   1      31.419  25.501  26.232  1.00  0.00     0.006 C 
ATOM     82  C   UNL A   1      33.767  24.676  25.921  1.00  0.00     0.006 C 
ATOM     83  C   UNL A   1      32.279  24.302  25.796  1.00  0.00     0.008 C 
BRANCH  83  84
ATOM     84  C   UNL A   1      31.884  23.792  24.390  1.00  0.00     0.119 C 
BRANCH  84  85
ATOM     85  N   UNL A   1      32.811  22.776  23.946  1.00  0.00    -0.360 N 
ATOM     86  H   UNL A   1      33.428  23.020  23.219  1.00  0.00     0.162 HD
BRANCH  85  87
ATOM     87  C   UNL A   1      32.907  21.520  24.439  1.00  0.00     0.205 A 
ATOM     88  N   UNL A   1      31.855  20.731  24.534  1.00  0.00    -0.121 NA
ATOM     89  S   UNL A   1      34.355  20.767  25.000  1.00  0.00    -0.083 S 
ATOM     90  N   UNL A   1      32.153  19.473  25.014  1.00  0.00    -0.145 NA
ATOM     91  C   UNL A   1      33.431  19.357  25.290  1.00  0.00     0.204 A 
ENDBRANCH  85  87
ENDBRANCH  84  85
ENDBRANCH  83  84
ENDBRANCH  75  78
ENDBRANCH  73  74
ENDBRANCH   1  73
TORSDOF 14
ENDMDL
