MODEL 1
REMARK VINA RESULT:     -12.7      0.000      0.000
REMARK SMILES C[C@@H]1[C@@H](C(=O)NCCCCNC(=O)c2ccc(-c3c4nc(c(-c5c(F)c(F)c(F)c(F)c5F)c5ccc([nH]5)c(-c5c(F)c(F)c(F)c(F)c5F)c5nc(c(-c6c(F)c(F)c(F)c(F)c6F)c6ccc3[nH]6)C=C5)C=C4)cc2)CCN1C(=O)N1CCCCC1
REMARK SMILES IDX 9 1 8 2 7 3 6 4 4 5 5 6 3 8 1 9 2 10 79 11 77 12 78 13 80 14
REMARK SMILES IDX 81 15 82 16 83 17 87 18 84 19 86 20 85 21 10 22 11 23 12 24
REMARK SMILES IDX 13 26 14 27 15 28 76 29 16 30 75 31 17 32 18 33 19 34 69 35
REMARK SMILES IDX 20 36 74 37 68 38 70 39 21 40 73 41 67 42 66 43 22 45 54 46
REMARK SMILES IDX 34 47 53 48 35 49 38 50 52 51 71 52 36 53 37 54 51 56 72 57
REMARK SMILES IDX 39 58 23 59 24 60 32 61 25 62 26 63 30 64 33 65 27 66 28 67
REMARK SMILES IDX 31 68 29 69 55 70 56 71 64 72 57 73 58 74 62 75 65 76 59 77
REMARK SMILES IDX 60 78 63 79 61 80 40 81 41 82 49 83 42 84 43 85 47 86 50 87
REMARK SMILES IDX 44 88 45 89 48 90 46 91
REMARK H PARENT 6 7 11 25 70 44 38 55
REMARK Flexibility Score: inf
ROOT
ATOM      1  C   UNL A   1      31.453  32.118  26.546  1.00  0.00     0.023 C 
ENDROOT
BRANCH   1   2
ATOM      2  C   UNL A   1      31.517  30.597  26.420  1.00  0.00     0.023 C 
BRANCH   2   3
ATOM      3  C   UNL A   1      32.880  30.022  26.056  1.00  0.00     0.116 C 
BRANCH   3   4
ATOM      4  N   UNL A   1      33.056  29.787  24.637  1.00  0.00    -0.356 N 
ATOM      5  C   UNL A   1      32.502  28.813  23.853  1.00  0.00     0.225 C 
ATOM      6  O   UNL A   1      32.761  28.833  22.651  1.00  0.00    -0.275 OA
ATOM      7  H   UNL A   1      33.659  30.414  24.173  1.00  0.00     0.163 HD
BRANCH   5   8
ATOM      8  C   UNL A   1      31.688  27.706  24.514  1.00  0.00     0.102 C 
ATOM      9  C   UNL A   1      31.911  26.035  26.348  1.00  0.00     0.032 C 
ATOM     10  C   UNL A   1      32.576  26.561  25.068  1.00  0.00     0.096 C 
ATOM     11  N   UNL A   1      32.613  25.575  23.965  1.00  0.00    -0.321 N 
ATOM     12  C   UNL A   1      30.742  26.957  23.571  1.00  0.00     0.037 C 
ATOM     13  C   UNL A   1      31.625  25.896  22.954  1.00  0.00     0.122 C 
BRANCH  11  14
ATOM     14  C   UNL A   1      33.707  24.839  23.535  1.00  0.00     0.320 C 
ATOM     15  O   UNL A   1      34.169  24.981  22.401  1.00  0.00    -0.248 OA
ATOM     16  N   UNL A   1      34.297  23.989  24.438  1.00  0.00    -0.325 N 
ATOM     17  C   UNL A   1      35.742  23.803  24.383  1.00  0.00     0.121 C 
ATOM     18  C   UNL A   1      33.537  22.963  25.132  1.00  0.00     0.121 C 
ATOM     19  C   UNL A   1      36.119  22.417  23.867  1.00  0.00     0.022 C 
ATOM     20  C   UNL A   1      33.918  21.552  24.681  1.00  0.00     0.022 C 
ATOM     21  C   UNL A   1      35.427  21.337  24.695  1.00  0.00     0.004 C 
ENDBRANCH  11  14
ENDBRANCH   5   8
ENDBRANCH   3   4
ENDBRANCH   2   3
ENDBRANCH   1   2
BRANCH   1  22
ATOM     22  C   UNL A   1      32.614  32.765  27.290  1.00  0.00     0.116 C 
BRANCH  22  23
ATOM     23  N   UNL A   1      32.372  34.160  27.626  1.00  0.00    -0.352 N 
ATOM     24  C   UNL A   1      32.984  34.963  28.561  1.00  0.00     0.251 C 
ATOM     25  H   UNL A   1      31.661  34.597  27.104  1.00  0.00     0.163 HD
ATOM     26  O   UNL A   1      32.541  36.080  28.795  1.00  0.00    -0.269 OA
BRANCH  24  27
ATOM     27  C   UNL A   1      34.158  34.464  29.312  1.00  0.00     0.039 A 
ATOM     28  C   UNL A   1      33.958  33.862  30.557  1.00  0.00     0.014 A 
ATOM     29  C   UNL A   1      35.449  34.581  28.792  1.00  0.00     0.014 A 
ATOM     30  C   UNL A   1      35.043  33.308  31.242  1.00  0.00     0.010 A 
ATOM     31  C   UNL A   1      36.511  33.947  29.428  1.00  0.00     0.010 A 
ATOM     32  C   UNL A   1      36.323  33.309  30.662  1.00  0.00    -0.014 A 
BRANCH  32  33
ATOM     33  C   UNL A   1      37.480  32.663  31.337  1.00  0.00     0.031 A 
ATOM     34  C   UNL A   1      38.202  31.526  30.668  1.00  0.00     0.074 A 
ATOM     35  C   UNL A   1      37.838  33.052  32.576  1.00  0.00     0.049 A 
ATOM     36  N   UNL A   1      39.181  30.782  31.121  1.00  0.00    -0.248 NA
ATOM     37  C   UNL A   1      37.744  31.155  29.319  1.00  0.00     0.031 C 
ATOM     38  C   UNL A   1      37.191  34.111  33.353  1.00  0.00     0.029 A 
ATOM     39  N   UNL A   1      38.832  32.593  33.406  1.00  0.00    -0.354 N 
ATOM     40  C   UNL A   1      39.439  29.850  30.124  1.00  0.00     0.074 A 
ATOM     41  C   UNL A   1      38.475  30.080  29.071  1.00  0.00     0.031 C 
ATOM     42  C   UNL A   1      37.819  34.238  34.533  1.00  0.00     0.029 A 
ATOM     43  C   UNL A   1      38.885  33.243  34.616  1.00  0.00     0.049 A 
ATOM     44  H   UNL A   1      39.448  31.866  33.159  1.00  0.00     0.167 HD
ATOM     45  C   UNL A   1      40.409  28.906  30.077  1.00  0.00     0.037 A 
ATOM     46  C   UNL A   1      39.695  33.053  35.674  1.00  0.00     0.037 A 
ATOM     47  C   UNL A   1      41.379  28.693  31.119  1.00  0.00     0.049 A 
ATOM     48  C   UNL A   1      40.756  31.986  35.604  1.00  0.00     0.074 A 
ATOM     49  C   UNL A   1      42.434  27.798  31.146  1.00  0.00     0.029 A 
ATOM     50  N   UNL A   1      41.411  29.384  32.322  1.00  0.00    -0.354 N 
ATOM     51  N   UNL A   1      41.035  31.155  34.630  1.00  0.00    -0.248 NA
ATOM     52  C   UNL A   1      41.622  31.837  36.782  1.00  0.00     0.031 C 
ATOM     53  C   UNL A   1      43.069  27.907  32.387  1.00  0.00     0.029 A 
ATOM     54  C   UNL A   1      42.453  28.918  33.107  1.00  0.00     0.049 A 
ATOM     55  H   UNL A   1      40.785  30.098  32.580  1.00  0.00     0.167 HD
ATOM     56  C   UNL A   1      42.128  30.414  35.058  1.00  0.00     0.074 A 
ATOM     57  C   UNL A   1      42.468  30.902  36.379  1.00  0.00     0.031 C 
ATOM     58  C   UNL A   1      42.791  29.422  34.414  1.00  0.00     0.037 A 
BRANCH  45  59
ATOM     59  C   UNL A   1      40.466  28.031  28.856  1.00  0.00     0.064 A 
ATOM     60  C   UNL A   1      41.217  28.390  27.726  1.00  0.00     0.173 A 
ATOM     61  C   UNL A   1      39.780  26.808  28.823  1.00  0.00     0.173 A 
ATOM     62  F   UNL A   1      41.885  29.554  27.699  1.00  0.00    -0.203 F 
ATOM     63  C   UNL A   1      41.248  27.576  26.596  1.00  0.00     0.198 A 
ATOM     64  C   UNL A   1      39.842  25.980  27.705  1.00  0.00     0.198 A 
ATOM     65  F   UNL A   1      39.051  26.412  29.877  1.00  0.00    -0.203 F 
ATOM     66  F   UNL A   1      41.923  27.971  25.507  1.00  0.00    -0.200 F 
ATOM     67  C   UNL A   1      40.566  26.369  26.589  1.00  0.00     0.200 A 
ATOM     68  F   UNL A   1      39.196  24.806  27.707  1.00  0.00    -0.200 F 
ATOM     69  F   UNL A   1      40.602  25.584  25.503  1.00  0.00    -0.200 F 
ENDBRANCH  45  59
BRANCH  46  70
ATOM     70  C   UNL A   1      39.558  33.911  36.881  1.00  0.00     0.064 A 
ATOM     71  C   UNL A   1      38.795  33.489  37.981  1.00  0.00     0.173 A 
ATOM     72  C   UNL A   1      40.173  35.169  36.960  1.00  0.00     0.173 A 
ATOM     73  F   UNL A   1      38.169  32.303  37.946  1.00  0.00    -0.203 F 
ATOM     74  C   UNL A   1      38.635  34.301  39.101  1.00  0.00     0.198 A 
ATOM     75  C   UNL A   1      40.038  35.967  38.094  1.00  0.00     0.198 A 
ATOM     76  F   UNL A   1      40.917  35.617  35.939  1.00  0.00    -0.203 F 
ATOM     77  F   UNL A   1      37.860  33.895  40.115  1.00  0.00    -0.200 F 
ATOM     78  C   UNL A   1      39.261  35.537  39.160  1.00  0.00     0.200 A 
ATOM     79  F   UNL A   1      40.658  37.153  38.154  1.00  0.00    -0.200 F 
ATOM     80  F   UNL A   1      39.110  36.317  40.239  1.00  0.00    -0.200 F 
ENDBRANCH  46  70
BRANCH  58  81
ATOM     81  C   UNL A   1      43.990  28.832  35.103  1.00  0.00     0.064 A 
ATOM     82  C   UNL A   1      43.891  27.713  35.940  1.00  0.00     0.173 A 
ATOM     83  C   UNL A   1      45.266  29.378  34.887  1.00  0.00     0.173 A 
ATOM     84  F   UNL A   1      42.694  27.160  36.192  1.00  0.00    -0.203 F 
ATOM     85  C   UNL A   1      45.019  27.180  36.560  1.00  0.00     0.198 A 
ATOM     86  C   UNL A   1      46.395  28.822  35.479  1.00  0.00     0.198 A 
ATOM     87  F   UNL A   1      45.418  30.445  34.088  1.00  0.00    -0.203 F 
ATOM     88  F   UNL A   1      44.892  26.144  37.401  1.00  0.00    -0.200 F 
ATOM     89  C   UNL A   1      46.270  27.729  36.323  1.00  0.00     0.200 A 
ATOM     90  F   UNL A   1      47.604  29.344  35.235  1.00  0.00    -0.200 F 
ATOM     91  F   UNL A   1      47.354  27.210  36.914  1.00  0.00    -0.200 F 
ENDBRANCH  58  81
ENDBRANCH  32  33
ENDBRANCH  24  27
ENDBRANCH  22  23
ENDBRANCH   1  22
TORSDOF 12
ENDMDL
MODEL 2
REMARK VINA RESULT:     -12.7      0.190      1.621
REMARK SMILES C[C@@H]1[C@@H](C(=O)NCCCCNC(=O)c2ccc(-c3c4nc(c(-c5c(F)c(F)c(F)c(F)c5F)c5ccc([nH]5)c(-c5c(F)c(F)c(F)c(F)c5F)c5nc(c(-c6c(F)c(F)c(F)c(F)c6F)c6ccc3[nH]6)C=C5)C=C4)cc2)CCN1C(=O)N1CCCCC1
REMARK SMILES IDX 9 1 8 2 7 3 6 4 4 5 5 6 3 8 1 9 2 10 79 11 77 12 78 13 80 14
REMARK SMILES IDX 81 15 82 16 83 17 87 18 84 19 86 20 85 21 10 22 11 23 12 24
REMARK SMILES IDX 13 26 14 27 15 28 76 29 16 30 75 31 17 32 18 33 19 34 69 35
REMARK SMILES IDX 20 36 74 37 68 38 70 39 21 40 73 41 67 42 66 43 22 45 54 46
REMARK SMILES IDX 34 47 53 48 35 49 38 50 52 51 71 52 36 53 37 54 51 56 72 57
REMARK SMILES IDX 39 58 23 59 24 60 32 61 25 62 26 63 30 64 33 65 27 66 28 67
REMARK SMILES IDX 31 68 29 69 55 70 56 71 64 72 57 73 58 74 62 75 65 76 59 77
REMARK SMILES IDX 60 78 63 79 61 80 40 81 41 82 49 83 42 84 43 85 47 86 50 87
REMARK SMILES IDX 44 88 45 89 48 90 46 91
REMARK H PARENT 6 7 11 25 70 44 38 55
REMARK Flexibility Score: inf
ROOT
ATOM      1  C   UNL A   1      31.451  32.157  26.534  1.00  0.00     0.023 C 
ENDROOT
BRANCH   1   2
ATOM      2  C   UNL A   1      31.452  30.630  26.506  1.00  0.00     0.023 C 
BRANCH   2   3
ATOM      3  C   UNL A   1      32.756  29.979  26.062  1.00  0.00     0.116 C 
BRANCH   3   4
ATOM      4  N   UNL A   1      32.865  29.808  24.626  1.00  0.00    -0.356 N 
ATOM      5  C   UNL A   1      32.259  28.881  23.824  1.00  0.00     0.225 C 
ATOM      6  O   UNL A   1      32.465  28.953  22.614  1.00  0.00    -0.275 OA
ATOM      7  H   UNL A   1      33.456  30.447  24.165  1.00  0.00     0.163 HD
BRANCH   5   8
ATOM      8  C   UNL A   1      31.457  27.756  24.469  1.00  0.00     0.102 C 
ATOM      9  C   UNL A   1      31.684  26.081  26.299  1.00  0.00     0.032 C 
ATOM     10  C   UNL A   1      32.357  26.624  25.029  1.00  0.00     0.096 C 
ATOM     11  N   UNL A   1      32.426  25.645  23.923  1.00  0.00    -0.321 N 
ATOM     12  C   UNL A   1      30.536  26.996  23.510  1.00  0.00     0.037 C 
ATOM     13  C   UNL A   1      31.446  25.953  22.901  1.00  0.00     0.122 C 
BRANCH  11  14
ATOM     14  C   UNL A   1      33.538  24.931  23.504  1.00  0.00     0.320 C 
ATOM     15  O   UNL A   1      34.028  25.103  22.386  1.00  0.00    -0.248 OA
ATOM     16  N   UNL A   1      34.115  24.065  24.402  1.00  0.00    -0.325 N 
ATOM     17  C   UNL A   1      35.563  23.895  24.380  1.00  0.00     0.121 C 
ATOM     18  C   UNL A   1      33.348  23.015  25.052  1.00  0.00     0.121 C 
ATOM     19  C   UNL A   1      35.967  22.526  23.842  1.00  0.00     0.022 C 
ATOM     20  C   UNL A   1      33.756  21.620  24.578  1.00  0.00     0.022 C 
ATOM     21  C   UNL A   1      35.266  21.419  24.626  1.00  0.00     0.004 C 
ENDBRANCH  11  14
ENDBRANCH   5   8
ENDBRANCH   3   4
ENDBRANCH   2   3
ENDBRANCH   1   2
BRANCH   1  22
ATOM     22  C   UNL A   1      32.619  32.802  27.270  1.00  0.00     0.116 C 
BRANCH  22  23
ATOM     23  N   UNL A   1      32.374  34.191  27.625  1.00  0.00    -0.352 N 
ATOM     24  C   UNL A   1      32.972  34.977  28.584  1.00  0.00     0.251 C 
ATOM     25  H   UNL A   1      31.672  34.639  27.099  1.00  0.00     0.163 HD
ATOM     26  O   UNL A   1      32.528  36.091  28.829  1.00  0.00    -0.269 OA
BRANCH  24  27
ATOM     27  C   UNL A   1      34.132  34.463  29.345  1.00  0.00     0.039 A 
ATOM     28  C   UNL A   1      33.911  33.840  30.577  1.00  0.00     0.014 A 
ATOM     29  C   UNL A   1      35.432  34.586  28.849  1.00  0.00     0.014 A 
ATOM     30  C   UNL A   1      34.984  33.272  31.270  1.00  0.00     0.010 A 
ATOM     31  C   UNL A   1      36.483  33.938  29.492  1.00  0.00     0.010 A 
ATOM     32  C   UNL A   1      36.272  33.280  30.712  1.00  0.00    -0.014 A 
BRANCH  32  33
ATOM     33  C   UNL A   1      37.417  32.620  31.394  1.00  0.00     0.031 A 
ATOM     34  C   UNL A   1      38.126  31.470  30.733  1.00  0.00     0.074 A 
ATOM     35  C   UNL A   1      37.776  33.008  32.633  1.00  0.00     0.049 A 
ATOM     36  N   UNL A   1      39.091  30.713  31.194  1.00  0.00    -0.248 NA
ATOM     37  C   UNL A   1      37.668  31.100  29.384  1.00  0.00     0.031 C 
ATOM     38  C   UNL A   1      37.140  34.080  33.402  1.00  0.00     0.029 A 
ATOM     39  N   UNL A   1      38.758  32.539  33.470  1.00  0.00    -0.354 N 
ATOM     40  C   UNL A   1      39.340  29.773  30.202  1.00  0.00     0.074 A 
ATOM     41  C   UNL A   1      38.384  30.013  29.143  1.00  0.00     0.031 C 
ATOM     42  C   UNL A   1      37.765  34.203  34.585  1.00  0.00     0.029 A 
ATOM     43  C   UNL A   1      38.816  33.193  34.677  1.00  0.00     0.049 A 
ATOM     44  H   UNL A   1      39.365  31.802  33.228  1.00  0.00     0.167 HD
ATOM     45  C   UNL A   1      40.296  28.815  30.163  1.00  0.00     0.037 A 
ATOM     46  C   UNL A   1      39.618  32.995  35.739  1.00  0.00     0.037 A 
ATOM     47  C   UNL A   1      41.258  28.592  31.210  1.00  0.00     0.049 A 
ATOM     48  C   UNL A   1      40.664  31.913  35.679  1.00  0.00     0.074 A 
ATOM     49  C   UNL A   1      42.300  27.682  31.245  1.00  0.00     0.029 A 
ATOM     50  N   UNL A   1      41.295  29.287  32.411  1.00  0.00    -0.354 N 
ATOM     51  N   UNL A   1      40.935  31.074  34.709  1.00  0.00    -0.248 NA
ATOM     52  C   UNL A   1      41.522  31.757  36.861  1.00  0.00     0.031 C 
ATOM     53  C   UNL A   1      42.931  27.787  32.489  1.00  0.00     0.029 A 
ATOM     54  C   UNL A   1      42.327  28.810  33.202  1.00  0.00     0.049 A 
ATOM     55  H   UNL A   1      40.678  30.013  32.662  1.00  0.00     0.167 HD
ATOM     56  C   UNL A   1      42.014  30.319  35.145  1.00  0.00     0.074 A 
ATOM     57  C   UNL A   1      42.356  30.807  36.465  1.00  0.00     0.031 C 
ATOM     58  C   UNL A   1      42.666  29.315  34.509  1.00  0.00     0.037 A 
BRANCH  45  59
ATOM     59  C   UNL A   1      40.346  27.935  28.946  1.00  0.00     0.064 A 
ATOM     60  C   UNL A   1      41.107  28.277  27.817  1.00  0.00     0.173 A 
ATOM     61  C   UNL A   1      39.642  26.721  28.915  1.00  0.00     0.173 A 
ATOM     62  F   UNL A   1      41.792  29.431  27.789  1.00  0.00    -0.203 F 
ATOM     63  C   UNL A   1      41.131  27.458  26.691  1.00  0.00     0.198 A 
ATOM     64  C   UNL A   1      39.697  25.888  27.801  1.00  0.00     0.198 A 
ATOM     65  F   UNL A   1      38.903  26.340  29.968  1.00  0.00    -0.203 F 
ATOM     66  F   UNL A   1      41.817  27.839  25.603  1.00  0.00    -0.200 F 
ATOM     67  C   UNL A   1      40.432  26.262  26.686  1.00  0.00     0.200 A 
ATOM     68  F   UNL A   1      39.034  24.723  27.805  1.00  0.00    -0.200 F 
ATOM     69  F   UNL A   1      40.461  25.472  25.604  1.00  0.00    -0.200 F 
ENDBRANCH  45  59
BRANCH  46  70
ATOM     70  C   UNL A   1      39.488  33.861  36.942  1.00  0.00     0.064 A 
ATOM     71  C   UNL A   1      40.133  35.105  37.007  1.00  0.00     0.173 A 
ATOM     72  C   UNL A   1      38.728  33.463  38.052  1.00  0.00     0.173 A 
ATOM     73  F   UNL A   1      40.889  35.521  35.980  1.00  0.00    -0.203 F 
ATOM     74  C   UNL A   1      40.043  35.906  38.143  1.00  0.00     0.198 A 
ATOM     75  C   UNL A   1      38.613  34.280  39.175  1.00  0.00     0.198 A 
ATOM     76  F   UNL A   1      38.086  32.286  38.040  1.00  0.00    -0.203 F 
ATOM     77  F   UNL A   1      40.711  37.065  38.198  1.00  0.00    -0.200 F 
ATOM     78  C   UNL A   1      39.278  35.495  39.224  1.00  0.00     0.200 A 
ATOM     79  F   UNL A   1      37.859  33.887  40.211  1.00  0.00    -0.200 F 
ATOM     80  F   UNL A   1      39.188  36.268  40.316  1.00  0.00    -0.200 F 
ENDBRANCH  46  70
BRANCH  58  81
ATOM     81  C   UNL A   1      43.853  28.710  35.205  1.00  0.00     0.064 A 
ATOM     82  C   UNL A   1      45.153  29.200  35.020  1.00  0.00     0.173 A 
ATOM     83  C   UNL A   1      43.676  27.646  36.104  1.00  0.00     0.173 A 
ATOM     84  F   UNL A   1      45.381  30.207  34.162  1.00  0.00    -0.203 F 
ATOM     85  C   UNL A   1      46.236  28.628  35.684  1.00  0.00     0.198 A 
ATOM     86  C   UNL A   1      44.755  27.099  36.792  1.00  0.00     0.198 A 
ATOM     87  F   UNL A   1      42.451  27.144  36.325  1.00  0.00    -0.203 F 
ATOM     88  F   UNL A   1      47.477  29.076  35.448  1.00  0.00    -0.200 F 
ATOM     89  C   UNL A   1      46.035  27.584  36.575  1.00  0.00     0.200 A 
ATOM     90  F   UNL A   1      44.555  26.103  37.665  1.00  0.00    -0.200 F 
ATOM     91  F   UNL A   1      47.076  27.040  37.218  1.00  0.00    -0.200 F 
ENDBRANCH  58  81
ENDBRANCH  32  33
ENDBRANCH  24  27
ENDBRANCH  22  23
ENDBRANCH   1  22
TORSDOF 12
ENDMDL
MODEL 3
REMARK VINA RESULT:     -12.6      0.678      7.600
REMARK SMILES C[C@@H]1[C@@H](C(=O)NCCCCNC(=O)c2ccc(-c3c4nc(c(-c5c(F)c(F)c(F)c(F)c5F)c5ccc([nH]5)c(-c5c(F)c(F)c(F)c(F)c5F)c5nc(c(-c6c(F)c(F)c(F)c(F)c6F)c6ccc3[nH]6)C=C5)C=C4)cc2)CCN1C(=O)N1CCCCC1
REMARK SMILES IDX 9 1 8 2 7 3 6 4 4 5 5 6 3 8 1 9 2 10 79 11 77 12 78 13 80 14
REMARK SMILES IDX 81 15 82 16 83 17 87 18 84 19 86 20 85 21 10 22 11 23 12 24
REMARK SMILES IDX 13 26 14 27 15 28 76 29 16 30 75 31 17 32 18 33 19 34 69 35
REMARK SMILES IDX 20 36 74 37 68 38 70 39 21 40 73 41 67 42 66 43 22 45 54 46
REMARK SMILES IDX 34 47 53 48 35 49 38 50 52 51 71 52 36 53 37 54 51 56 72 57
REMARK SMILES IDX 39 58 23 59 24 60 32 61 25 62 26 63 30 64 33 65 27 66 28 67
REMARK SMILES IDX 31 68 29 69 55 70 56 71 64 72 57 73 58 74 62 75 65 76 59 77
REMARK SMILES IDX 60 78 63 79 61 80 40 81 41 82 49 83 42 84 43 85 47 86 50 87
REMARK SMILES IDX 44 88 45 89 48 90 46 91
REMARK H PARENT 6 7 11 25 70 44 38 55
REMARK Flexibility Score: inf
ROOT
ATOM      1  C   UNL A   1      31.315  32.068  26.909  1.00  0.00     0.023 C 
ENDROOT
BRANCH   1   2
ATOM      2  C   UNL A   1      31.327  31.030  25.789  1.00  0.00     0.023 C 
BRANCH   2   3
ATOM      3  C   UNL A   1      32.421  29.974  25.882  1.00  0.00     0.116 C 
BRANCH   3   4
ATOM      4  N   UNL A   1      33.104  29.727  24.627  1.00  0.00    -0.356 N 
ATOM      5  C   UNL A   1      32.746  28.892  23.605  1.00  0.00     0.225 C 
ATOM      6  O   UNL A   1      33.462  28.875  22.606  1.00  0.00    -0.275 OA
ATOM      7  H   UNL A   1      33.942  30.228  24.493  1.00  0.00     0.163 HD
BRANCH   5   8
ATOM      8  C   UNL A   1      31.555  27.959  23.795  1.00  0.00     0.102 C 
ATOM      9  C   UNL A   1      30.743  26.231  25.395  1.00  0.00     0.032 C 
ATOM     10  C   UNL A   1      31.936  26.642  24.519  1.00  0.00     0.096 C 
ATOM     11  N   UNL A   1      32.219  25.699  23.415  1.00  0.00    -0.321 N 
ATOM     12  C   UNL A   1      30.930  27.447  22.493  1.00  0.00     0.037 C 
ATOM     13  C   UNL A   1      31.776  26.243  22.147  1.00  0.00     0.122 C 
BRANCH  11  14
ATOM     14  C   UNL A   1      33.242  24.765  23.352  1.00  0.00     0.320 C 
ATOM     15  O   UNL A   1      34.148  24.860  22.521  1.00  0.00    -0.248 OA
ATOM     16  N   UNL A   1      33.246  23.760  24.289  1.00  0.00    -0.325 N 
ATOM     17  C   UNL A   1      34.526  23.265  24.780  1.00  0.00     0.121 C 
ATOM     18  C   UNL A   1      32.097  22.891  24.482  1.00  0.00     0.121 C 
ATOM     19  C   UNL A   1      34.827  21.859  24.270  1.00  0.00     0.022 C 
ATOM     20  C   UNL A   1      32.371  21.456  24.029  1.00  0.00     0.022 C 
ATOM     21  C   UNL A   1      33.675  20.916  24.604  1.00  0.00     0.004 C 
ENDBRANCH  11  14
ENDBRANCH   5   8
ENDBRANCH   3   4
ENDBRANCH   2   3
ENDBRANCH   1   2
BRANCH   1  22
ATOM     22  C   UNL A   1      32.611  32.846  27.100  1.00  0.00     0.116 C 
BRANCH  22  23
ATOM     23  N   UNL A   1      32.399  34.206  27.568  1.00  0.00    -0.352 N 
ATOM     24  C   UNL A   1      33.020  34.899  28.582  1.00  0.00     0.251 C 
ATOM     25  H   UNL A   1      31.703  34.710  27.085  1.00  0.00     0.163 HD
ATOM     26  O   UNL A   1      32.601  35.999  28.920  1.00  0.00    -0.269 OA
BRANCH  24  27
ATOM     27  C   UNL A   1      34.173  34.301  29.290  1.00  0.00     0.039 A 
ATOM     28  C   UNL A   1      33.936  33.472  30.390  1.00  0.00     0.014 A 
ATOM     29  C   UNL A   1      35.483  34.549  28.872  1.00  0.00     0.014 A 
ATOM     30  C   UNL A   1      35.007  32.830  31.018  1.00  0.00     0.010 A 
ATOM     31  C   UNL A   1      36.536  33.835  29.436  1.00  0.00     0.010 A 
ATOM     32  C   UNL A   1      36.311  32.973  30.519  1.00  0.00    -0.014 A 
BRANCH  32  33
ATOM     33  C   UNL A   1      37.458  32.245  31.124  1.00  0.00     0.031 A 
ATOM     34  C   UNL A   1      37.945  32.616  32.498  1.00  0.00     0.074 A 
ATOM     35  C   UNL A   1      38.104  31.299  30.414  1.00  0.00     0.049 A 
ATOM     36  N   UNL A   1      38.973  32.157  33.167  1.00  0.00    -0.248 NA
ATOM     37  C   UNL A   1      37.193  33.666  33.204  1.00  0.00     0.031 C 
ATOM     38  C   UNL A   1      37.760  30.877  29.055  1.00  0.00     0.029 A 
ATOM     39  N   UNL A   1      39.192  30.525  30.735  1.00  0.00    -0.354 N 
ATOM     40  C   UNL A   1      38.999  32.873  34.357  1.00  0.00     0.074 A 
ATOM     41  C   UNL A   1      37.925  33.839  34.293  1.00  0.00     0.031 C 
ATOM     42  C   UNL A   1      38.602  29.906  28.669  1.00  0.00     0.029 A 
ATOM     43  C   UNL A   1      39.572  29.664  29.735  1.00  0.00     0.049 A 
ATOM     44  H   UNL A   1      39.657  30.582  31.601  1.00  0.00     0.167 HD
ATOM     45  C   UNL A   1      39.825  32.721  35.420  1.00  0.00     0.037 A 
ATOM     46  C   UNL A   1      40.591  28.786  29.679  1.00  0.00     0.037 A 
ATOM     47  C   UNL A   1      40.880  31.745  35.489  1.00  0.00     0.049 A 
ATOM     48  C   UNL A   1      41.506  28.645  30.867  1.00  0.00     0.074 A 
ATOM     49  C   UNL A   1      41.739  31.475  36.540  1.00  0.00     0.029 A 
ATOM     50  N   UNL A   1      41.223  30.878  34.460  1.00  0.00    -0.354 N 
ATOM     51  N   UNL A   1      41.479  29.280  32.014  1.00  0.00    -0.248 NA
ATOM     52  C   UNL A   1      42.588  27.658  30.755  1.00  0.00     0.031 C 
ATOM     53  C   UNL A   1      42.637  30.486  36.128  1.00  0.00     0.029 A 
ATOM     54  C   UNL A   1      42.296  30.090  34.845  1.00  0.00     0.049 A 
ATOM     55  H   UNL A   1      40.772  30.831  33.587  1.00  0.00     0.167 HD
ATOM     56  C   UNL A   1      42.512  28.745  32.772  1.00  0.00     0.074 A 
ATOM     57  C   UNL A   1      43.139  27.725  31.958  1.00  0.00     0.031 C 
ATOM     58  C   UNL A   1      42.902  29.067  34.030  1.00  0.00     0.037 A 
BRANCH  45  59
ATOM     59  C   UNL A   1      39.617  33.634  36.596  1.00  0.00     0.064 A 
ATOM     60  C   UNL A   1      38.805  33.268  37.681  1.00  0.00     0.173 A 
ATOM     61  C   UNL A   1      40.255  34.882  36.649  1.00  0.00     0.173 A 
ATOM     62  F   UNL A   1      38.162  32.089  37.676  1.00  0.00    -0.203 F 
ATOM     63  C   UNL A   1      38.609  34.132  38.755  1.00  0.00     0.198 A 
ATOM     64  C   UNL A   1      40.086  35.728  37.743  1.00  0.00     0.198 A 
ATOM     65  F   UNL A   1      41.047  35.282  35.644  1.00  0.00    -0.203 F 
ATOM     66  F   UNL A   1      37.780  33.783  39.750  1.00  0.00    -0.200 F 
ATOM     67  C   UNL A   1      39.255  35.357  38.789  1.00  0.00     0.200 A 
ATOM     68  F   UNL A   1      40.724  36.906  37.781  1.00  0.00    -0.200 F 
ATOM     69  F   UNL A   1      39.071  36.185  39.827  1.00  0.00    -0.200 F 
ENDBRANCH  45  59
BRANCH  46  70
ATOM     70  C   UNL A   1      40.785  27.945  28.467  1.00  0.00     0.064 A 
ATOM     71  C   UNL A   1      41.563  28.401  27.392  1.00  0.00     0.173 A 
ATOM     72  C   UNL A   1      40.193  26.679  28.350  1.00  0.00     0.173 A 
ATOM     73  F   UNL A   1      42.133  29.615  27.446  1.00  0.00    -0.203 F 
ATOM     74  C   UNL A   1      41.722  27.634  26.241  1.00  0.00     0.198 A 
ATOM     75  C   UNL A   1      40.379  25.899  27.211  1.00  0.00     0.198 A 
ATOM     76  F   UNL A   1      39.444  26.194  29.351  1.00  0.00    -0.203 F 
ATOM     77  F   UNL A   1      42.428  28.117  25.209  1.00  0.00    -0.200 F 
ATOM     78  C   UNL A   1      41.135  26.382  26.153  1.00  0.00     0.200 A 
ATOM     79  F   UNL A   1      39.824  24.682  27.137  1.00  0.00    -0.200 F 
ATOM     80  F   UNL A   1      41.291  25.641  25.046  1.00  0.00    -0.200 F 
ENDBRANCH  46  70
BRANCH  58  81
ATOM     81  C   UNL A   1      44.027  28.271  34.630  1.00  0.00     0.064 A 
ATOM     82  C   UNL A   1      45.362  28.689  34.546  1.00  0.00     0.173 A 
ATOM     83  C   UNL A   1      43.755  27.087  35.335  1.00  0.00     0.173 A 
ATOM     84  F   UNL A   1      45.679  29.806  33.872  1.00  0.00    -0.203 F 
ATOM     85  C   UNL A   1      46.386  27.938  35.117  1.00  0.00     0.198 A 
ATOM     86  C   UNL A   1      44.776  26.357  35.935  1.00  0.00     0.198 A 
ATOM     87  F   UNL A   1      42.493  26.645  35.453  1.00  0.00    -0.203 F 
ATOM     88  F   UNL A   1      47.660  28.328  34.975  1.00  0.00    -0.200 F 
ATOM     89  C   UNL A   1      46.092  26.777  35.817  1.00  0.00     0.200 A 
ATOM     90  F   UNL A   1      44.487  25.246  36.625  1.00  0.00    -0.200 F 
ATOM     91  F   UNL A   1      47.077  26.060  36.373  1.00  0.00    -0.200 F 
ENDBRANCH  58  81
ENDBRANCH  32  33
ENDBRANCH  24  27
ENDBRANCH  22  23
ENDBRANCH   1  22
TORSDOF 12
ENDMDL
