MODEL 1
REMARK VINA RESULT:     -13.7      0.000      0.000
REMARK SMILES Cc1cc(NC(=O)NCc2sccc2C)ccc1C(=O)NCCCCNC(=O)c1ccc(-c2c3nc(c(-c4c(F)c(F)c(F)c(F)c4F)c4ccc([nH]4)c(-c4c(F)c(F)c(F)c(F)c4F)c4nc(c(-c5c(F)c(F)c(F)c(F)c5F)c5ccc2[nH]5)C=C4)C=C3)cc1
REMARK SMILES IDX 23 1 22 2 21 3 19 4 20 5 18 7 1 8 2 9 3 10 4 11 17 12 16 13
REMARK SMILES IDX 5 14 6 15 7 17 8 18 9 20 10 21 11 22 14 23 12 24 13 25 15 26
REMARK SMILES IDX 24 27 25 28 26 29 27 30 28 32 29 33 30 34 91 35 31 36 90 37
REMARK SMILES IDX 32 38 33 39 34 40 84 41 35 42 89 43 83 44 85 45 36 46 88 47
REMARK SMILES IDX 82 48 81 49 37 51 69 52 49 53 68 54 50 55 53 56 67 57 86 58
REMARK SMILES IDX 51 59 52 60 66 62 87 63 54 64 38 65 39 66 47 67 40 68 41 69
REMARK SMILES IDX 45 70 48 71 42 72 43 73 46 74 44 75 70 76 71 77 79 78 72 79
REMARK SMILES IDX 73 80 77 81 80 82 74 83 75 84 78 85 76 86 55 87 56 88 64 89
REMARK SMILES IDX 57 90 58 91 62 92 65 93 59 94 60 95 63 96 61 97
REMARK H PARENT 21 6 5 16 8 19 26 31 85 50 53 61
REMARK Flexibility Score: inf
ROOT
ATOM      1  C   UNL A   1      31.917  30.175  26.737  1.00  0.00     0.023 C 
ENDROOT
BRANCH   1   2
ATOM      2  C   UNL A   1      31.099  30.517  25.480  1.00  0.00     0.116 C 
BRANCH   2   3
ATOM      3  N   UNL A   1      31.698  29.968  24.275  1.00  0.00    -0.352 N 
ATOM      4  C   UNL A   1      31.989  28.693  23.859  1.00  0.00     0.251 C 
ATOM      5  O   UNL A   1      32.435  28.558  22.718  1.00  0.00    -0.269 OA
ATOM      6  H   UNL A   1      31.948  30.657  23.617  1.00  0.00     0.163 HD
BRANCH   4   7
ATOM      7  C   UNL A   1      31.707  27.462  24.647  1.00  0.00     0.042 A 
ATOM      8  C   UNL A   1      33.978  27.243  25.837  1.00  0.00     0.045 C 
ATOM      9  C   UNL A   1      32.598  26.790  25.499  1.00  0.00    -0.036 A 
ATOM     10  C   UNL A   1      32.157  25.638  26.178  1.00  0.00     0.030 A 
ATOM     11  C   UNL A   1      30.841  25.200  26.072  1.00  0.00     0.043 A 
ATOM     12  C   UNL A   1      30.448  26.876  24.395  1.00  0.00     0.016 A 
ATOM     13  C   UNL A   1      30.019  25.742  25.092  1.00  0.00     0.027 A 
BRANCH  11  14
ATOM     14  N   UNL A   1      30.305  24.286  26.980  1.00  0.00    -0.308 N 
ATOM     15  C   UNL A   1      30.039  22.962  26.864  1.00  0.00     0.319 C 
ATOM     16  H   UNL A   1      30.078  24.671  27.858  1.00  0.00     0.171 HD
ATOM     17  O   UNL A   1      29.287  22.437  27.690  1.00  0.00    -0.248 OA
ATOM     18  N   UNL A   1      30.634  22.155  25.959  1.00  0.00    -0.333 N 
ATOM     19  H   UNL A   1      30.320  21.223  26.001  1.00  0.00     0.165 HD
BRANCH  18  20
ATOM     20  C   UNL A   1      31.639  22.377  24.940  1.00  0.00     0.165 C 
BRANCH  20  21
ATOM     21  C   UNL A   1      32.909  21.616  25.159  1.00  0.00     0.027 A 
ATOM     22  S   UNL A   1      34.147  22.400  26.072  1.00  0.00    -0.147 S 
ATOM     23  C   UNL A   1      33.337  20.399  24.652  1.00  0.00    -0.035 A 
ATOM     24  C   UNL A   1      35.262  21.160  25.758  1.00  0.00     0.065 A 
ATOM     25  C   UNL A   1      34.705  20.148  25.013  1.00  0.00     0.015 A 
ATOM     26  C   UNL A   1      32.538  19.461  23.811  1.00  0.00     0.045 C 
ENDBRANCH  20  21
ENDBRANCH  18  20
ENDBRANCH  11  14
ENDBRANCH   4   7
ENDBRANCH   2   3
ENDBRANCH   1   2
BRANCH   1  27
ATOM     27  C   UNL A   1      33.134  31.054  27.004  1.00  0.00     0.023 C 
BRANCH  27  28
ATOM     28  C   UNL A   1      34.178  30.385  27.875  1.00  0.00     0.116 C 
BRANCH  28  29
ATOM     29  N   UNL A   1      35.004  31.308  28.653  1.00  0.00    -0.352 N 
ATOM     30  C   UNL A   1      36.246  31.102  29.233  1.00  0.00     0.251 C 
ATOM     31  H   UNL A   1      34.621  32.206  28.785  1.00  0.00     0.163 HD
ATOM     32  O   UNL A   1      36.778  31.994  29.889  1.00  0.00    -0.269 OA
BRANCH  30  33
ATOM     33  C   UNL A   1      37.003  29.865  28.917  1.00  0.00     0.039 A 
ATOM     34  C   UNL A   1      37.145  28.914  29.934  1.00  0.00     0.014 A 
ATOM     35  C   UNL A   1      37.825  29.819  27.800  1.00  0.00     0.014 A 
ATOM     36  C   UNL A   1      38.306  28.151  29.984  1.00  0.00     0.010 A 
ATOM     37  C   UNL A   1      39.046  29.196  27.931  1.00  0.00     0.010 A 
ATOM     38  C   UNL A   1      39.316  28.426  29.067  1.00  0.00    -0.014 A 
BRANCH  38  39
ATOM     39  C   UNL A   1      40.717  28.089  29.288  1.00  0.00     0.031 A 
ATOM     40  C   UNL A   1      41.277  26.844  28.725  1.00  0.00     0.074 A 
ATOM     41  C   UNL A   1      41.526  29.007  29.867  1.00  0.00     0.049 A 
ATOM     42  N   UNL A   1      42.393  26.312  29.090  1.00  0.00    -0.248 NA
ATOM     43  C   UNL A   1      40.574  26.055  27.722  1.00  0.00     0.031 C 
ATOM     44  C   UNL A   1      42.987  29.027  29.869  1.00  0.00     0.029 A 
ATOM     45  N   UNL A   1      41.166  30.042  30.751  1.00  0.00    -0.354 N 
ATOM     46  C   UNL A   1      42.699  25.311  28.193  1.00  0.00     0.074 A 
ATOM     47  C   UNL A   1      41.491  25.131  27.429  1.00  0.00     0.031 C 
ATOM     48  C   UNL A   1      43.410  29.782  30.896  1.00  0.00     0.029 A 
ATOM     49  C   UNL A   1      42.236  30.140  31.672  1.00  0.00     0.049 A 
ATOM     50  H   UNL A   1      40.343  30.582  30.734  1.00  0.00     0.167 HD
ATOM     51  C   UNL A   1      43.989  24.866  28.130  1.00  0.00     0.037 A 
ATOM     52  C   UNL A   1      42.063  29.848  32.994  1.00  0.00     0.037 A 
ATOM     53  C   UNL A   1      44.775  25.416  29.240  1.00  0.00     0.049 A 
ATOM     54  C   UNL A   1      42.924  28.708  33.485  1.00  0.00     0.074 A 
ATOM     55  C   UNL A   1      45.698  26.447  29.326  1.00  0.00     0.029 A 
ATOM     56  N   UNL A   1      44.423  25.097  30.550  1.00  0.00    -0.354 N 
ATOM     57  N   UNL A   1      43.495  27.838  32.699  1.00  0.00    -0.248 NA
ATOM     58  C   UNL A   1      43.185  28.436  34.897  1.00  0.00     0.031 C 
ATOM     59  C   UNL A   1      45.843  26.794  30.694  1.00  0.00     0.029 A 
ATOM     60  C   UNL A   1      45.031  25.959  31.442  1.00  0.00     0.049 A 
ATOM     61  H   UNL A   1      43.824  24.358  30.805  1.00  0.00     0.167 HD
ATOM     62  C   UNL A   1      44.153  26.902  33.449  1.00  0.00     0.074 A 
ATOM     63  C   UNL A   1      43.947  27.331  34.819  1.00  0.00     0.031 C 
ATOM     64  C   UNL A   1      44.798  25.843  32.875  1.00  0.00     0.037 A 
BRANCH  51  65
ATOM     65  C   UNL A   1      44.623  24.184  26.920  1.00  0.00     0.064 A 
ATOM     66  C   UNL A   1      44.364  22.818  26.654  1.00  0.00     0.173 A 
ATOM     67  C   UNL A   1      45.562  24.763  26.044  1.00  0.00     0.173 A 
ATOM     68  F   UNL A   1      43.415  22.143  27.315  1.00  0.00    -0.203 F 
ATOM     69  C   UNL A   1      45.071  22.083  25.694  1.00  0.00     0.198 A 
ATOM     70  C   UNL A   1      46.292  24.024  25.106  1.00  0.00     0.198 A 
ATOM     71  F   UNL A   1      45.782  26.077  26.006  1.00  0.00    -0.203 F 
ATOM     72  F   UNL A   1      44.793  20.784  25.513  1.00  0.00    -0.200 F 
ATOM     73  C   UNL A   1      46.059  22.679  24.942  1.00  0.00     0.200 A 
ATOM     74  F   UNL A   1      47.223  24.639  24.362  1.00  0.00    -0.200 F 
ATOM     75  F   UNL A   1      46.761  21.972  24.046  1.00  0.00    -0.200 F 
ENDBRANCH  51  65
BRANCH  52  76
ATOM     76  C   UNL A   1      40.701  30.174  33.492  1.00  0.00     0.064 A 
ATOM     77  C   UNL A   1      40.386  31.526  33.725  1.00  0.00     0.173 A 
ATOM     78  C   UNL A   1      39.635  29.278  33.360  1.00  0.00     0.173 A 
ATOM     79  F   UNL A   1      41.373  32.423  33.871  1.00  0.00    -0.203 F 
ATOM     80  C   UNL A   1      39.071  31.983  33.698  1.00  0.00     0.198 A 
ATOM     81  C   UNL A   1      38.315  29.737  33.351  1.00  0.00     0.198 A 
ATOM     82  F   UNL A   1      39.867  27.980  33.116  1.00  0.00    -0.203 F 
ATOM     83  F   UNL A   1      38.817  33.295  33.807  1.00  0.00    -0.200 F 
ATOM     84  C   UNL A   1      38.037  31.090  33.481  1.00  0.00     0.200 A 
ATOM     85  F   UNL A   1      37.314  28.878  33.109  1.00  0.00    -0.200 F 
ATOM     86  F   UNL A   1      36.780  31.536  33.354  1.00  0.00    -0.200 F 
ENDBRANCH  52  76
BRANCH  64  87
ATOM     87  C   UNL A   1      45.341  24.640  33.606  1.00  0.00     0.064 A 
ATOM     88  C   UNL A   1      44.611  23.460  33.824  1.00  0.00     0.173 A 
ATOM     89  C   UNL A   1      46.706  24.590  33.979  1.00  0.00     0.173 A 
ATOM     90  F   UNL A   1      43.341  23.341  33.413  1.00  0.00    -0.203 F 
ATOM     91  C   UNL A   1      45.187  22.334  34.421  1.00  0.00     0.198 A 
ATOM     92  C   UNL A   1      47.291  23.446  34.519  1.00  0.00     0.198 A 
ATOM     93  F   UNL A   1      47.519  25.642  33.803  1.00  0.00    -0.203 F 
ATOM     94  F   UNL A   1      44.436  21.245  34.642  1.00  0.00    -0.200 F 
ATOM     95  C   UNL A   1      46.527  22.323  34.755  1.00  0.00     0.200 A 
ATOM     96  F   UNL A   1      48.604  23.433  34.789  1.00  0.00    -0.200 F 
ATOM     97  F   UNL A   1      47.086  21.224  35.280  1.00  0.00    -0.200 F 
ENDBRANCH  64  87
ENDBRANCH  38  39
ENDBRANCH  30  33
ENDBRANCH  28  29
ENDBRANCH  27  28
ENDBRANCH   1  27
TORSDOF 14
ENDMDL
MODEL 2
REMARK VINA RESULT:     -13.5      1.754      2.340
REMARK SMILES Cc1cc(NC(=O)NCc2sccc2C)ccc1C(=O)NCCCCNC(=O)c1ccc(-c2c3nc(c(-c4c(F)c(F)c(F)c(F)c4F)c4ccc([nH]4)c(-c4c(F)c(F)c(F)c(F)c4F)c4nc(c(-c5c(F)c(F)c(F)c(F)c5F)c5ccc2[nH]5)C=C4)C=C3)cc1
REMARK SMILES IDX 23 1 22 2 21 3 19 4 20 5 18 7 1 8 2 9 3 10 4 11 17 12 16 13
REMARK SMILES IDX 5 14 6 15 7 17 8 18 9 20 10 21 11 22 14 23 12 24 13 25 15 26
REMARK SMILES IDX 24 27 25 28 26 29 27 30 28 32 29 33 30 34 91 35 31 36 90 37
REMARK SMILES IDX 32 38 33 39 34 40 84 41 35 42 89 43 83 44 85 45 36 46 88 47
REMARK SMILES IDX 82 48 81 49 37 51 69 52 49 53 68 54 50 55 53 56 67 57 86 58
REMARK SMILES IDX 51 59 52 60 66 62 87 63 54 64 38 65 39 66 47 67 40 68 41 69
REMARK SMILES IDX 45 70 48 71 42 72 43 73 46 74 44 75 70 76 71 77 79 78 72 79
REMARK SMILES IDX 73 80 77 81 80 82 74 83 75 84 78 85 76 86 55 87 56 88 64 89
REMARK SMILES IDX 57 90 58 91 62 92 65 93 59 94 60 95 63 96 61 97
REMARK H PARENT 21 6 5 16 8 19 26 31 85 50 53 61
REMARK Flexibility Score: inf
ROOT
ATOM      1  C   UNL A   1      34.378  28.967  26.830  1.00  0.00     0.023 C 
ENDROOT
BRANCH   1   2
ATOM      2  C   UNL A   1      33.185  28.219  26.209  1.00  0.00     0.116 C 
BRANCH   2   3
ATOM      3  N   UNL A   1      32.887  28.690  24.866  1.00  0.00    -0.352 N 
ATOM      4  C   UNL A   1      32.484  28.066  23.713  1.00  0.00     0.251 C 
ATOM      5  O   UNL A   1      32.236  28.781  22.740  1.00  0.00    -0.269 OA
ATOM      6  H   UNL A   1      32.998  29.663  24.763  1.00  0.00     0.163 HD
BRANCH   4   7
ATOM      7  C   UNL A   1      32.228  26.604  23.587  1.00  0.00     0.042 A 
ATOM      8  C   UNL A   1      30.098  26.467  25.025  1.00  0.00     0.045 C 
ATOM      9  C   UNL A   1      31.191  25.880  24.199  1.00  0.00    -0.036 A 
ATOM     10  C   UNL A   1      31.092  24.497  23.960  1.00  0.00     0.030 A 
ATOM     11  C   UNL A   1      31.956  23.855  23.079  1.00  0.00     0.043 A 
ATOM     12  C   UNL A   1      33.213  25.892  22.871  1.00  0.00     0.016 A 
ATOM     13  C   UNL A   1      33.088  24.520  22.627  1.00  0.00     0.027 A 
BRANCH  11  14
ATOM     14  N   UNL A   1      31.669  22.585  22.575  1.00  0.00    -0.308 N 
ATOM     15  C   UNL A   1      32.191  21.368  22.867  1.00  0.00     0.319 C 
ATOM     16  H   UNL A   1      30.965  22.570  21.887  1.00  0.00     0.171 HD
ATOM     17  O   UNL A   1      31.996  20.439  22.080  1.00  0.00    -0.248 OA
ATOM     18  N   UNL A   1      32.825  21.084  24.025  1.00  0.00    -0.333 N 
ATOM     19  H   UNL A   1      33.154  20.157  24.073  1.00  0.00     0.165 HD
BRANCH  18  20
ATOM     20  C   UNL A   1      33.122  21.859  25.212  1.00  0.00     0.165 C 
BRANCH  20  21
ATOM     21  C   UNL A   1      34.543  22.324  25.298  1.00  0.00     0.027 A 
ATOM     22  S   UNL A   1      35.772  21.156  24.974  1.00  0.00    -0.147 S 
ATOM     23  C   UNL A   1      35.079  23.533  25.715  1.00  0.00    -0.035 A 
ATOM     24  C   UNL A   1      37.008  22.227  25.430  1.00  0.00     0.065 A 
ATOM     25  C   UNL A   1      36.512  23.459  25.781  1.00  0.00     0.015 A 
ATOM     26  C   UNL A   1      34.313  24.757  26.089  1.00  0.00     0.045 C 
ENDBRANCH  20  21
ENDBRANCH  18  20
ENDBRANCH  11  14
ENDBRANCH   4   7
ENDBRANCH   2   3
ENDBRANCH   1   2
BRANCH   1  27
ATOM     27  C   UNL A   1      34.224  30.478  26.964  1.00  0.00     0.023 C 
BRANCH  27  28
ATOM     28  C   UNL A   1      34.412  30.977  28.383  1.00  0.00     0.116 C 
BRANCH  28  29
ATOM     29  N   UNL A   1      35.573  31.847  28.573  1.00  0.00    -0.352 N 
ATOM     30  C   UNL A   1      36.904  31.510  28.758  1.00  0.00     0.251 C 
ATOM     31  H   UNL A   1      35.380  32.812  28.570  1.00  0.00     0.163 HD
ATOM     32  O   UNL A   1      37.745  32.386  28.940  1.00  0.00    -0.269 OA
BRANCH  30  33
ATOM     33  C   UNL A   1      37.334  30.102  28.566  1.00  0.00     0.039 A 
ATOM     34  C   UNL A   1      37.444  29.296  29.705  1.00  0.00     0.014 A 
ATOM     35  C   UNL A   1      37.936  29.714  27.378  1.00  0.00     0.014 A 
ATOM     36  C   UNL A   1      38.419  28.305  29.738  1.00  0.00     0.010 A 
ATOM     37  C   UNL A   1      39.010  28.856  27.457  1.00  0.00     0.010 A 
ATOM     38  C   UNL A   1      39.300  28.214  28.664  1.00  0.00    -0.014 A 
BRANCH  38  39
ATOM     39  C   UNL A   1      40.621  27.603  28.759  1.00  0.00     0.031 A 
ATOM     40  C   UNL A   1      40.787  26.156  28.513  1.00  0.00     0.074 A 
ATOM     41  C   UNL A   1      41.702  28.404  28.907  1.00  0.00     0.049 A 
ATOM     42  N   UNL A   1      41.829  25.473  28.844  1.00  0.00    -0.248 NA
ATOM     43  C   UNL A   1      39.742  25.341  27.910  1.00  0.00     0.031 C 
ATOM     44  C   UNL A   1      43.102  28.058  28.679  1.00  0.00     0.029 A 
ATOM     45  N   UNL A   1      41.755  29.686  29.488  1.00  0.00    -0.354 N 
ATOM     46  C   UNL A   1      41.729  24.232  28.251  1.00  0.00     0.074 A 
ATOM     47  C   UNL A   1      40.372  24.173  27.769  1.00  0.00     0.031 C 
ATOM     48  C   UNL A   1      43.879  28.918  29.358  1.00  0.00     0.029 A 
ATOM     49  C   UNL A   1      42.997  29.744  30.162  1.00  0.00     0.049 A 
ATOM     50  H   UNL A   1      41.071  30.393  29.436  1.00  0.00     0.167 HD
ATOM     51  C   UNL A   1      42.860  23.477  28.126  1.00  0.00     0.037 A 
ATOM     52  C   UNL A   1      43.062  29.851  31.521  1.00  0.00     0.037 A 
ATOM     53  C   UNL A   1      43.961  24.076  28.888  1.00  0.00     0.049 A 
ATOM     54  C   UNL A   1      43.766  28.695  32.192  1.00  0.00     0.074 A 
ATOM     55  C   UNL A   1      45.066  24.830  28.522  1.00  0.00     0.029 A 
ATOM     56  N   UNL A   1      43.847  24.200  30.272  1.00  0.00    -0.354 N 
ATOM     57  N   UNL A   1      43.969  27.540  31.622  1.00  0.00    -0.248 NA
ATOM     58  C   UNL A   1      44.269  28.735  33.563  1.00  0.00     0.031 C 
ATOM     59  C   UNL A   1      45.571  25.465  29.685  1.00  0.00     0.029 A 
ATOM     60  C   UNL A   1      44.793  25.079  30.763  1.00  0.00     0.049 A 
ATOM     61  H   UNL A   1      43.184  23.724  30.823  1.00  0.00     0.167 HD
ATOM     62  C   UNL A   1      44.576  26.690  32.507  1.00  0.00     0.074 A 
ATOM     63  C   UNL A   1      44.762  27.492  33.702  1.00  0.00     0.031 C 
ATOM     64  C   UNL A   1      44.858  25.394  32.183  1.00  0.00     0.037 A 
BRANCH  51  65
ATOM     65  C   UNL A   1      43.068  22.374  27.093  1.00  0.00     0.064 A 
ATOM     66  C   UNL A   1      42.345  21.160  27.189  1.00  0.00     0.173 A 
ATOM     67  C   UNL A   1      44.017  22.386  26.051  1.00  0.00     0.173 A 
ATOM     68  F   UNL A   1      41.327  21.017  28.046  1.00  0.00    -0.203 F 
ATOM     69  C   UNL A   1      42.638  20.037  26.405  1.00  0.00     0.198 A 
ATOM     70  C   UNL A   1      44.333  21.255  25.289  1.00  0.00     0.198 A 
ATOM     71  F   UNL A   1      44.645  23.500  25.676  1.00  0.00    -0.203 F 
ATOM     72  F   UNL A   1      41.931  18.909  26.569  1.00  0.00    -0.200 F 
ATOM     73  C   UNL A   1      43.655  20.074  25.477  1.00  0.00     0.200 A 
ATOM     74  F   UNL A   1      45.304  21.332  24.367  1.00  0.00    -0.200 F 
ATOM     75  F   UNL A   1      43.961  18.992  24.750  1.00  0.00    -0.200 F 
ENDBRANCH  51  65
BRANCH  52  76
ATOM     76  C   UNL A   1      41.932  30.623  32.102  1.00  0.00     0.064 A 
ATOM     77  C   UNL A   1      41.945  32.024  31.961  1.00  0.00     0.173 A 
ATOM     78  C   UNL A   1      40.710  30.019  32.414  1.00  0.00     0.173 A 
ATOM     79  F   UNL A   1      43.095  32.653  31.675  1.00  0.00    -0.203 F 
ATOM     80  C   UNL A   1      40.771  32.771  32.001  1.00  0.00     0.198 A 
ATOM     81  C   UNL A   1      39.535  30.775  32.470  1.00  0.00     0.198 A 
ATOM     82  F   UNL A   1      40.625  28.688  32.540  1.00  0.00    -0.203 F 
ATOM     83  F   UNL A   1      40.808  34.088  31.746  1.00  0.00    -0.200 F 
ATOM     84  C   UNL A   1      39.561  32.141  32.227  1.00  0.00     0.200 A 
ATOM     85  F   UNL A   1      38.358  30.160  32.658  1.00  0.00    -0.200 F 
ATOM     86  F   UNL A   1      38.418  32.837  32.167  1.00  0.00    -0.200 F 
ENDBRANCH  52  76
BRANCH  64  87
ATOM     87  C   UNL A   1      45.299  24.320  33.147  1.00  0.00     0.064 A 
ATOM     88  C   UNL A   1      44.517  23.205  33.489  1.00  0.00     0.173 A 
ATOM     89  C   UNL A   1      46.625  24.309  33.644  1.00  0.00     0.173 A 
ATOM     90  F   UNL A   1      43.283  23.040  32.992  1.00  0.00    -0.203 F 
ATOM     91  C   UNL A   1      45.004  22.185  34.312  1.00  0.00     0.198 A 
ATOM     92  C   UNL A   1      47.126  23.261  34.415  1.00  0.00     0.198 A 
ATOM     93  F   UNL A   1      47.483  25.304  33.371  1.00  0.00    -0.203 F 
ATOM     94  F   UNL A   1      44.203  21.160  34.641  1.00  0.00    -0.200 F 
ATOM     95  C   UNL A   1      46.310  22.206  34.762  1.00  0.00     0.200 A 
ATOM     96  F   UNL A   1      48.410  23.272  34.799  1.00  0.00    -0.200 F 
ATOM     97  F   UNL A   1      46.787  21.200  35.508  1.00  0.00    -0.200 F 
ENDBRANCH  64  87
ENDBRANCH  38  39
ENDBRANCH  30  33
ENDBRANCH  28  29
ENDBRANCH  27  28
ENDBRANCH   1  27
TORSDOF 14
ENDMDL
MODEL 3
REMARK VINA RESULT:     -13.4      4.081     10.328
REMARK SMILES Cc1cc(NC(=O)NCc2sccc2C)ccc1C(=O)NCCCCNC(=O)c1ccc(-c2c3nc(c(-c4c(F)c(F)c(F)c(F)c4F)c4ccc([nH]4)c(-c4c(F)c(F)c(F)c(F)c4F)c4nc(c(-c5c(F)c(F)c(F)c(F)c5F)c5ccc2[nH]5)C=C4)C=C3)cc1
REMARK SMILES IDX 23 1 22 2 21 3 19 4 20 5 18 7 1 8 2 9 3 10 4 11 17 12 16 13
REMARK SMILES IDX 5 14 6 15 7 17 8 18 9 20 10 21 11 22 14 23 12 24 13 25 15 26
REMARK SMILES IDX 24 27 25 28 26 29 27 30 28 32 29 33 30 34 91 35 31 36 90 37
REMARK SMILES IDX 32 38 33 39 34 40 84 41 35 42 89 43 83 44 85 45 36 46 88 47
REMARK SMILES IDX 82 48 81 49 37 51 69 52 49 53 68 54 50 55 53 56 67 57 86 58
REMARK SMILES IDX 51 59 52 60 66 62 87 63 54 64 38 65 39 66 47 67 40 68 41 69
REMARK SMILES IDX 45 70 48 71 42 72 43 73 46 74 44 75 70 76 71 77 79 78 72 79
REMARK SMILES IDX 73 80 77 81 80 82 74 83 75 84 78 85 76 86 55 87 56 88 64 89
REMARK SMILES IDX 57 90 58 91 62 92 65 93 59 94 60 95 63 96 61 97
REMARK H PARENT 21 6 5 16 8 19 26 31 85 50 53 61
REMARK Flexibility Score: inf
ROOT
ATOM      1  C   UNL A   1      37.030  21.486  24.672  1.00  0.00     0.023 C 
ENDROOT
BRANCH   1   2
ATOM      2  C   UNL A   1      35.721  22.162  25.115  1.00  0.00     0.116 C 
BRANCH   2   3
ATOM      3  N   UNL A   1      34.613  21.832  24.234  1.00  0.00    -0.352 N 
ATOM      4  C   UNL A   1      33.496  22.514  23.823  1.00  0.00     0.251 C 
ATOM      5  O   UNL A   1      32.774  21.966  22.987  1.00  0.00    -0.269 OA
ATOM      6  H   UNL A   1      34.677  20.926  23.852  1.00  0.00     0.163 HD
BRANCH   4   7
ATOM      7  C   UNL A   1      33.154  23.904  24.234  1.00  0.00     0.042 A 
ATOM      8  C   UNL A   1      31.102  23.374  25.694  1.00  0.00     0.045 C 
ATOM      9  C   UNL A   1      32.069  24.297  25.034  1.00  0.00    -0.036 A 
ATOM     10  C   UNL A   1      31.902  25.662  25.334  1.00  0.00     0.030 A 
ATOM     11  C   UNL A   1      32.828  26.611  24.912  1.00  0.00     0.043 A 
ATOM     12  C   UNL A   1      33.953  24.907  23.645  1.00  0.00     0.016 A 
ATOM     13  C   UNL A   1      33.785  26.257  23.969  1.00  0.00     0.027 A 
BRANCH  11  14
ATOM     14  N   UNL A   1      32.867  27.888  25.473  1.00  0.00    -0.308 N 
ATOM     15  C   UNL A   1      32.662  29.111  24.926  1.00  0.00     0.319 C 
ATOM     16  H   UNL A   1      33.083  27.903  26.434  1.00  0.00     0.171 HD
ATOM     17  O   UNL A   1      33.050  30.106  25.544  1.00  0.00    -0.248 OA
ATOM     18  N   UNL A   1      31.961  29.316  23.790  1.00  0.00    -0.333 N 
ATOM     19  H   UNL A   1      31.916  30.263  23.524  1.00  0.00     0.165 HD
BRANCH  18  20
ATOM     20  C   UNL A   1      31.261  28.431  22.881  1.00  0.00     0.165 C 
BRANCH  20  21
ATOM     21  C   UNL A   1      29.791  28.699  22.780  1.00  0.00     0.027 A 
ATOM     22  S   UNL A   1      29.315  30.231  22.143  1.00  0.00    -0.147 S 
ATOM     23  C   UNL A   1      28.702  27.965  23.224  1.00  0.00    -0.035 A 
ATOM     24  C   UNL A   1      27.679  29.948  22.496  1.00  0.00     0.065 A 
ATOM     25  C   UNL A   1      27.483  28.704  23.046  1.00  0.00     0.015 A 
ATOM     26  C   UNL A   1      28.743  26.607  23.840  1.00  0.00     0.045 C 
ENDBRANCH  20  21
ENDBRANCH  18  20
ENDBRANCH  11  14
ENDBRANCH   4   7
ENDBRANCH   2   3
ENDBRANCH   1   2
BRANCH   1  27
ATOM     27  C   UNL A   1      38.162  21.486  25.692  1.00  0.00     0.023 C 
BRANCH  27  28
ATOM     28  C   UNL A   1      38.628  22.878  26.072  1.00  0.00     0.116 C 
BRANCH  28  29
ATOM     29  N   UNL A   1      40.017  22.953  26.523  1.00  0.00    -0.352 N 
ATOM     30  C   UNL A   1      40.736  24.048  26.977  1.00  0.00     0.251 C 
ATOM     31  H   UNL A   1      40.514  22.104  26.499  1.00  0.00     0.163 HD
ATOM     32  O   UNL A   1      41.920  23.927  27.281  1.00  0.00    -0.269 OA
BRANCH  30  33
ATOM     33  C   UNL A   1      40.028  25.322  27.254  1.00  0.00     0.039 A 
ATOM     34  C   UNL A   1      40.346  26.427  26.456  1.00  0.00     0.014 A 
ATOM     35  C   UNL A   1      39.363  25.501  28.458  1.00  0.00     0.014 A 
ATOM     36  C   UNL A   1      40.302  27.699  27.019  1.00  0.00     0.010 A 
ATOM     37  C   UNL A   1      39.476  26.727  29.075  1.00  0.00     0.010 A 
ATOM     38  C   UNL A   1      40.023  27.808  28.378  1.00  0.00    -0.014 A 
BRANCH  38  39
ATOM     39  C   UNL A   1      40.416  28.955  29.189  1.00  0.00     0.031 A 
ATOM     40  C   UNL A   1      39.428  30.003  29.517  1.00  0.00     0.074 A 
ATOM     41  C   UNL A   1      41.639  28.957  29.769  1.00  0.00     0.049 A 
ATOM     42  N   UNL A   1      39.725  31.173  29.968  1.00  0.00    -0.248 NA
ATOM     43  C   UNL A   1      37.999  29.823  29.303  1.00  0.00     0.031 C 
ATOM     44  C   UNL A   1      42.099  29.800  30.869  1.00  0.00     0.029 A 
ATOM     45  N   UNL A   1      42.802  28.291  29.336  1.00  0.00    -0.354 N 
ATOM     46  C   UNL A   1      38.557  31.779  30.378  1.00  0.00     0.074 A 
ATOM     47  C   UNL A   1      37.512  30.939  29.851  1.00  0.00     0.031 C 
ATOM     48  C   UNL A   1      43.441  29.848  30.848  1.00  0.00     0.029 A 
ATOM     49  C   UNL A   1      43.873  29.163  29.643  1.00  0.00     0.049 A 
ATOM     50  H   UNL A   1      42.858  27.405  28.909  1.00  0.00     0.167 HD
ATOM     51  C   UNL A   1      38.640  32.841  31.233  1.00  0.00     0.037 A 
ATOM     52  C   UNL A   1      44.630  29.730  28.659  1.00  0.00     0.037 A 
ATOM     53  C   UNL A   1      40.033  33.281  31.369  1.00  0.00     0.049 A 
ATOM     54  C   UNL A   1      44.581  31.240  28.644  1.00  0.00     0.074 A 
ATOM     55  C   UNL A   1      40.991  33.097  32.353  1.00  0.00     0.029 A 
ATOM     56  N   UNL A   1      40.711  33.758  30.248  1.00  0.00    -0.354 N 
ATOM     57  N   UNL A   1      43.654  31.942  29.233  1.00  0.00    -0.248 NA
ATOM     58  C   UNL A   1      45.551  32.076  27.940  1.00  0.00     0.031 C 
ATOM     59  C   UNL A   1      42.260  33.399  31.794  1.00  0.00     0.029 A 
ATOM     60  C   UNL A   1      42.072  33.790  30.480  1.00  0.00     0.049 A 
ATOM     61  H   UNL A   1      40.278  34.035  29.408  1.00  0.00     0.167 HD
ATOM     62  C   UNL A   1      43.857  33.273  28.986  1.00  0.00     0.074 A 
ATOM     63  C   UNL A   1      45.069  33.307  28.189  1.00  0.00     0.031 C 
ATOM     64  C   UNL A   1      42.998  34.230  29.445  1.00  0.00     0.037 A 
BRANCH  51  65
ATOM     65  C   UNL A   1      37.528  33.297  32.174  1.00  0.00     0.064 A 
ATOM     66  C   UNL A   1      36.435  34.047  31.677  1.00  0.00     0.173 A 
ATOM     67  C   UNL A   1      37.512  33.132  33.573  1.00  0.00     0.173 A 
ATOM     68  F   UNL A   1      36.232  34.202  30.363  1.00  0.00    -0.203 F 
ATOM     69  C   UNL A   1      35.499  34.671  32.511  1.00  0.00     0.198 A 
ATOM     70  C   UNL A   1      36.596  33.780  34.410  1.00  0.00     0.198 A 
ATOM     71  F   UNL A   1      38.336  32.293  34.200  1.00  0.00    -0.203 F 
ATOM     72  F   UNL A   1      34.503  35.389  31.973  1.00  0.00    -0.200 F 
ATOM     73  C   UNL A   1      35.599  34.565  33.881  1.00  0.00     0.200 A 
ATOM     74  F   UNL A   1      36.696  33.629  35.740  1.00  0.00    -0.200 F 
ATOM     75  F   UNL A   1      34.725  35.188  34.683  1.00  0.00    -0.200 F 
ENDBRANCH  51  65
BRANCH  52  76
ATOM     76  C   UNL A   1      44.778  28.862  27.461  1.00  0.00     0.064 A 
ATOM     77  C   UNL A   1      45.659  27.767  27.541  1.00  0.00     0.173 A 
ATOM     78  C   UNL A   1      43.822  28.846  26.441  1.00  0.00     0.173 A 
ATOM     79  F   UNL A   1      46.603  27.740  28.494  1.00  0.00    -0.203 F 
ATOM     80  C   UNL A   1      45.508  26.650  26.723  1.00  0.00     0.198 A 
ATOM     81  C   UNL A   1      43.684  27.730  25.610  1.00  0.00     0.198 A 
ATOM     82  F   UNL A   1      42.939  29.848  26.324  1.00  0.00    -0.203 F 
ATOM     83  F   UNL A   1      46.292  25.577  26.906  1.00  0.00    -0.200 F 
ATOM     84  C   UNL A   1      44.501  26.621  25.776  1.00  0.00     0.200 A 
ATOM     85  F   UNL A   1      42.688  27.688  24.713  1.00  0.00    -0.200 F 
ATOM     86  F   UNL A   1      44.287  25.512  25.056  1.00  0.00    -0.200 F 
ENDBRANCH  52  76
BRANCH  64  87
ATOM     87  C   UNL A   1      42.994  35.682  29.033  1.00  0.00     0.064 A 
ATOM     88  C   UNL A   1      42.284  36.181  27.929  1.00  0.00     0.173 A 
ATOM     89  C   UNL A   1      43.599  36.658  29.861  1.00  0.00     0.173 A 
ATOM     90  F   UNL A   1      41.575  35.370  27.132  1.00  0.00    -0.203 F 
ATOM     91  C   UNL A   1      42.230  37.548  27.642  1.00  0.00     0.198 A 
ATOM     92  C   UNL A   1      43.493  38.025  29.605  1.00  0.00     0.198 A 
ATOM     93  F   UNL A   1      44.287  36.316  30.961  1.00  0.00    -0.203 F 
ATOM     94  F   UNL A   1      41.571  37.971  26.553  1.00  0.00    -0.200 F 
ATOM     95  C   UNL A   1      42.822  38.469  28.486  1.00  0.00     0.200 A 
ATOM     96  F   UNL A   1      44.028  38.906  30.461  1.00  0.00    -0.200 F 
ATOM     97  F   UNL A   1      42.724  39.781  28.234  1.00  0.00    -0.200 F 
ENDBRANCH  64  87
ENDBRANCH  38  39
ENDBRANCH  30  33
ENDBRANCH  28  29
ENDBRANCH  27  28
ENDBRANCH   1  27
TORSDOF 14
ENDMDL
