MODEL 1
REMARK VINA RESULT:     -11.3      0.000      0.000
REMARK SMILES COc1ccc(OC)c(C[NH2+][C@@H](C(=O)NCCCCNC(=O)c2ccc(-c3c4nc(c(-c5c(F)c(F)c(F)c(F)c5F)c5ccc([nH]5)c(-c5c(F)c(F)c(F)c(F)c5F)c5nc(c(-c6c(F)c(F)c(F)c(F)c6F)c6ccc3[nH]6)C=C5)C=C4)cc2)C(C)C)c1
REMARK SMILES IDX 16 1 15 2 13 3 14 4 12 6 11 7 10 10 9 11 3 12 4 13 89 14
REMARK SMILES IDX 5 15 6 16 2 17 1 18 7 19 8 20 86 21 87 22 88 23 17 24 18 25
REMARK SMILES IDX 19 26 20 27 21 28 22 30 23 31 24 32 85 33 25 34 84 35 26 36
REMARK SMILES IDX 27 37 28 38 78 39 29 40 83 41 77 42 79 43 30 44 82 45 76 46
REMARK SMILES IDX 75 47 31 49 63 50 43 51 62 52 44 53 47 54 61 55 80 56 45 57
REMARK SMILES IDX 46 58 60 60 81 61 48 62 32 63 33 64 41 65 34 66 35 67 39 68
REMARK SMILES IDX 42 69 36 70 37 71 40 72 38 73 64 74 65 75 73 76 66 77 67 78
REMARK SMILES IDX 71 79 74 80 68 81 69 82 72 83 70 84 49 85 50 86 58 87 51 88
REMARK SMILES IDX 52 89 56 90 59 91 53 92 54 93 57 94 55 95
REMARK H PARENT 15 5 11 8 11 9 20 29 79 48 47 59
REMARK Flexibility Score: inf
ROOT
ATOM      1  C   UNL A   1      33.133  29.790  26.082  1.00  0.00     0.116 C 
ENDROOT
BRANCH   1   2
ATOM      2  N   UNL A   1      33.265  29.745  24.633  1.00  0.00    -0.351 N 
ATOM      3  C   UNL A   1      32.897  28.803  23.707  1.00  0.00     0.278 C 
ATOM      4  O   UNL A   1      33.286  28.990  22.550  1.00  0.00    -0.268 OA
ATOM      5  H   UNL A   1      33.700  30.539  24.246  1.00  0.00     0.163 HD
BRANCH   3   6
ATOM      6  C   UNL A   1      32.065  27.535  24.096  1.00  0.00     0.275 C 
BRANCH   6   7
ATOM      7  N   UNL A   1      32.777  26.271  23.715  1.00  0.00    -0.332 N 
ATOM      8  H   UNL A   1      32.124  25.489  23.767  1.00  0.00     0.347 HD
ATOM      9  H   UNL A   1      33.135  26.368  22.766  1.00  0.00     0.347 HD
BRANCH   7  10
ATOM     10  C   UNL A   1      33.886  26.026  24.612  1.00  0.00     0.302 C 
BRANCH  10  11
ATOM     11  C   UNL A   1      33.879  24.875  25.579  1.00  0.00     0.052 A 
ATOM     12  C   UNL A   1      32.407  23.506  26.996  1.00  0.00     0.119 A 
ATOM     13  C   UNL A   1      33.435  22.592  27.177  1.00  0.00     0.050 A 
ATOM     14  C   UNL A   1      32.643  24.649  26.240  1.00  0.00     0.059 A 
ATOM     15  C   UNL A   1      34.667  22.799  26.548  1.00  0.00     0.051 A 
ATOM     16  C   UNL A   1      34.884  23.911  25.721  1.00  0.00     0.127 A 
BRANCH  12  17
ATOM     17  O   UNL A   1      31.216  23.252  27.619  1.00  0.00    -0.497 OA
ATOM     18  C   UNL A   1      30.240  22.653  26.768  1.00  0.00     0.278 C 
ENDBRANCH  12  17
BRANCH  16  19
ATOM     19  O   UNL A   1      36.129  23.975  25.160  1.00  0.00    -0.496 OA
ATOM     20  C   UNL A   1      36.363  23.043  24.109  1.00  0.00     0.278 C 
ENDBRANCH  16  19
ENDBRANCH  10  11
ENDBRANCH   7  10
ENDBRANCH   6   7
BRANCH   6  21
ATOM     21  C   UNL A   1      30.691  27.558  23.364  1.00  0.00     0.051 C 
ATOM     22  C   UNL A   1      29.736  26.473  23.883  1.00  0.00     0.014 C 
ATOM     23  C   UNL A   1      29.998  28.921  23.499  1.00  0.00     0.014 C 
ENDBRANCH   6  21
ENDBRANCH   3   6
ENDBRANCH   1   2
BRANCH   1  24
ATOM     24  C   UNL A   1      31.767  30.347  26.514  1.00  0.00     0.023 C 
BRANCH  24  25
ATOM     25  C   UNL A   1      31.633  31.860  26.503  1.00  0.00     0.023 C 
BRANCH  25  26
ATOM     26  C   UNL A   1      32.737  32.566  27.258  1.00  0.00     0.116 C 
BRANCH  26  27
ATOM     27  N   UNL A   1      32.417  33.954  27.574  1.00  0.00    -0.352 N 
ATOM     28  C   UNL A   1      32.984  34.777  28.518  1.00  0.00     0.251 C 
ATOM     29  H   UNL A   1      31.696  34.357  27.037  1.00  0.00     0.163 HD
ATOM     30  O   UNL A   1      32.527  35.891  28.728  1.00  0.00    -0.269 OA
BRANCH  28  31
ATOM     31  C   UNL A   1      34.127  34.275  29.307  1.00  0.00     0.039 A 
ATOM     32  C   UNL A   1      33.881  33.503  30.444  1.00  0.00     0.014 A 
ATOM     33  C   UNL A   1      35.434  34.512  28.880  1.00  0.00     0.014 A 
ATOM     34  C   UNL A   1      34.953  32.912  31.113  1.00  0.00     0.010 A 
ATOM     35  C   UNL A   1      36.482  33.824  29.471  1.00  0.00     0.010 A 
ATOM     36  C   UNL A   1      36.257  33.040  30.610  1.00  0.00    -0.014 A 
BRANCH  36  37
ATOM     37  C   UNL A   1      37.417  32.413  31.286  1.00  0.00     0.031 A 
ATOM     38  C   UNL A   1      38.151  31.292  30.601  1.00  0.00     0.074 A 
ATOM     39  C   UNL A   1      37.757  32.793  32.533  1.00  0.00     0.049 A 
ATOM     40  N   UNL A   1      39.126  30.543  31.048  1.00  0.00    -0.248 NA
ATOM     41  C   UNL A   1      37.696  30.930  29.246  1.00  0.00     0.031 C 
ATOM     42  C   UNL A   1      37.069  33.812  33.330  1.00  0.00     0.029 A 
ATOM     43  N   UNL A   1      38.764  32.355  33.356  1.00  0.00    -0.354 N 
ATOM     44  C   UNL A   1      39.368  29.608  30.050  1.00  0.00     0.074 A 
ATOM     45  C   UNL A   1      38.401  29.837  29.002  1.00  0.00     0.031 C 
ATOM     46  C   UNL A   1      37.692  33.940  34.513  1.00  0.00     0.029 A 
ATOM     47  C   UNL A   1      38.802  32.994  34.571  1.00  0.00     0.049 A 
ATOM     48  H   UNL A   1      39.399  31.648  33.098  1.00  0.00     0.167 HD
ATOM     49  C   UNL A   1      40.335  28.662  29.998  1.00  0.00     0.037 A 
ATOM     50  C   UNL A   1      39.643  32.832  35.608  1.00  0.00     0.037 A 
ATOM     51  C   UNL A   1      41.338  28.489  31.010  1.00  0.00     0.049 A 
ATOM     52  C   UNL A   1      40.759  31.828  35.488  1.00  0.00     0.074 A 
ATOM     53  C   UNL A   1      42.417  27.623  31.018  1.00  0.00     0.029 A 
ATOM     54  N   UNL A   1      41.395  29.214  32.192  1.00  0.00    -0.354 N 
ATOM     55  N   UNL A   1      41.030  31.004  34.504  1.00  0.00    -0.248 NA
ATOM     56  C   UNL A   1      41.700  31.745  36.614  1.00  0.00     0.031 C 
ATOM     57  C   UNL A   1      43.109  27.801  32.219  1.00  0.00     0.029 A 
ATOM     58  C   UNL A   1      42.489  28.811  32.938  1.00  0.00     0.049 A 
ATOM     59  H   UNL A   1      40.753  29.911  32.458  1.00  0.00     0.167 HD
ATOM     60  C   UNL A   1      42.188  30.334  34.875  1.00  0.00     0.074 A 
ATOM     61  C   UNL A   1      42.577  30.858  36.167  1.00  0.00     0.031 C 
ATOM     62  C   UNL A   1      42.869  29.370  34.209  1.00  0.00     0.037 A 
BRANCH  49  63
ATOM     63  C   UNL A   1      40.369  27.763  28.798  1.00  0.00     0.064 A 
ATOM     64  C   UNL A   1      41.138  28.073  27.665  1.00  0.00     0.173 A 
ATOM     65  C   UNL A   1      39.657  26.554  28.795  1.00  0.00     0.173 A 
ATOM     66  F   UNL A   1      41.823  29.226  27.610  1.00  0.00    -0.203 F 
ATOM     67  C   UNL A   1      41.173  27.219  26.566  1.00  0.00     0.198 A 
ATOM     68  C   UNL A   1      39.720  25.687  27.708  1.00  0.00     0.198 A 
ATOM     69  F   UNL A   1      38.906  26.209  29.852  1.00  0.00    -0.203 F 
ATOM     70  F   UNL A   1      41.876  27.561  25.478  1.00  0.00    -0.200 F 
ATOM     71  C   UNL A   1      40.473  26.023  26.592  1.00  0.00     0.200 A 
ATOM     72  F   UNL A   1      39.050  24.526  27.738  1.00  0.00    -0.200 F 
ATOM     73  F   UNL A   1      40.518  25.197  25.538  1.00  0.00    -0.200 F 
ENDBRANCH  49  63
BRANCH  50  74
ATOM     74  C   UNL A   1      39.496  33.663  36.833  1.00  0.00     0.064 A 
ATOM     75  C   UNL A   1      38.737  33.212  37.922  1.00  0.00     0.173 A 
ATOM     76  C   UNL A   1      40.086  34.931  36.931  1.00  0.00     0.173 A 
ATOM     77  F   UNL A   1      38.139  32.011  37.870  1.00  0.00    -0.203 F 
ATOM     78  C   UNL A   1      38.543  34.011  39.048  1.00  0.00     0.198 A 
ATOM     79  C   UNL A   1      39.916  35.717  38.070  1.00  0.00     0.198 A 
ATOM     80  F   UNL A   1      40.831  35.405  35.922  1.00  0.00    -0.203 F 
ATOM     81  F   UNL A   1      37.764  33.577  40.047  1.00  0.00    -0.200 F 
ATOM     82  C   UNL A   1      39.135  35.262  39.121  1.00  0.00     0.200 A 
ATOM     83  F   UNL A   1      40.503  36.920  38.143  1.00  0.00    -0.200 F 
ATOM     84  F   UNL A   1      38.946  36.032  40.200  1.00  0.00    -0.200 F 
ENDBRANCH  50  74
BRANCH  62  85
ATOM     85  C   UNL A   1      44.131  28.863  34.838  1.00  0.00     0.064 A 
ATOM     86  C   UNL A   1      44.136  27.753  35.694  1.00  0.00     0.173 A 
ATOM     87  C   UNL A   1      45.360  29.475  34.544  1.00  0.00     0.173 A 
ATOM     88  F   UNL A   1      42.984  27.143  36.013  1.00  0.00    -0.203 F 
ATOM     89  C   UNL A   1      45.321  27.294  36.261  1.00  0.00     0.198 A 
ATOM     90  C   UNL A   1      46.547  28.994  35.088  1.00  0.00     0.198 A 
ATOM     91  F   UNL A   1      45.409  30.534  33.721  1.00  0.00    -0.203 F 
ATOM     92  F   UNL A   1      45.295  26.265  37.118  1.00  0.00    -0.200 F 
ATOM     93  C   UNL A   1      46.525  27.910  35.952  1.00  0.00     0.200 A 
ATOM     94  F   UNL A   1      47.711  29.580  34.777  1.00  0.00    -0.200 F 
ATOM     95  F   UNL A   1      47.666  27.462  36.495  1.00  0.00    -0.200 F 
ENDBRANCH  62  85
ENDBRANCH  36  37
ENDBRANCH  28  31
ENDBRANCH  26  27
ENDBRANCH  25  26
ENDBRANCH  24  25
ENDBRANCH   1  24
TORSDOF 17
ENDMDL
MODEL 2
REMARK VINA RESULT:     -11.3      0.138      1.599
REMARK SMILES COc1ccc(OC)c(C[NH2+][C@@H](C(=O)NCCCCNC(=O)c2ccc(-c3c4nc(c(-c5c(F)c(F)c(F)c(F)c5F)c5ccc([nH]5)c(-c5c(F)c(F)c(F)c(F)c5F)c5nc(c(-c6c(F)c(F)c(F)c(F)c6F)c6ccc3[nH]6)C=C5)C=C4)cc2)C(C)C)c1
REMARK SMILES IDX 16 1 15 2 13 3 14 4 12 6 11 7 10 10 9 11 3 12 4 13 89 14
REMARK SMILES IDX 5 15 6 16 2 17 1 18 7 19 8 20 86 21 87 22 88 23 17 24 18 25
REMARK SMILES IDX 19 26 20 27 21 28 22 30 23 31 24 32 85 33 25 34 84 35 26 36
REMARK SMILES IDX 27 37 28 38 78 39 29 40 83 41 77 42 79 43 30 44 82 45 76 46
REMARK SMILES IDX 75 47 31 49 63 50 43 51 62 52 44 53 47 54 61 55 80 56 45 57
REMARK SMILES IDX 46 58 60 60 81 61 48 62 32 63 33 64 41 65 34 66 35 67 39 68
REMARK SMILES IDX 42 69 36 70 37 71 40 72 38 73 64 74 65 75 73 76 66 77 67 78
REMARK SMILES IDX 71 79 74 80 68 81 69 82 72 83 70 84 49 85 50 86 58 87 51 88
REMARK SMILES IDX 52 89 56 90 59 91 53 92 54 93 57 94 55 95
REMARK H PARENT 15 5 11 8 11 9 20 29 79 48 47 59
REMARK Flexibility Score: inf
ROOT
ATOM      1  C   UNL A   1      33.120  29.761  26.101  1.00  0.00     0.116 C 
ENDROOT
BRANCH   1   2
ATOM      2  N   UNL A   1      33.207  29.702  24.649  1.00  0.00    -0.351 N 
ATOM      3  C   UNL A   1      32.839  28.737  23.746  1.00  0.00     0.278 C 
ATOM      4  O   UNL A   1      33.185  28.922  22.575  1.00  0.00    -0.268 OA
ATOM      5  H   UNL A   1      33.604  30.504  24.238  1.00  0.00     0.163 HD
BRANCH   3   6
ATOM      6  C   UNL A   1      32.061  27.449  24.177  1.00  0.00     0.275 C 
BRANCH   6   7
ATOM      7  N   UNL A   1      32.774  26.203  23.740  1.00  0.00    -0.332 N 
ATOM      8  H   UNL A   1      32.141  25.408  23.820  1.00  0.00     0.347 HD
ATOM      9  H   UNL A   1      33.075  26.317  22.773  1.00  0.00     0.347 HD
BRANCH   7  10
ATOM     10  C   UNL A   1      33.938  25.971  24.569  1.00  0.00     0.302 C 
BRANCH  10  11
ATOM     11  C   UNL A   1      33.995  24.830  25.547  1.00  0.00     0.052 A 
ATOM     12  C   UNL A   1      32.600  23.383  26.964  1.00  0.00     0.119 A 
ATOM     13  C   UNL A   1      33.682  22.538  27.162  1.00  0.00     0.050 A 
ATOM     14  C   UNL A   1      32.770  24.533  26.199  1.00  0.00     0.059 A 
ATOM     15  C   UNL A   1      34.904  22.817  26.542  1.00  0.00     0.051 A 
ATOM     16  C   UNL A   1      35.057  23.934  25.706  1.00  0.00     0.127 A 
BRANCH  12  17
ATOM     17  O   UNL A   1      31.422  23.060  27.579  1.00  0.00    -0.497 OA
ATOM     18  C   UNL A   1      30.267  23.329  26.784  1.00  0.00     0.278 C 
ENDBRANCH  12  17
BRANCH  16  19
ATOM     19  O   UNL A   1      36.301  24.071  25.155  1.00  0.00    -0.496 OA
ATOM     20  C   UNL A   1      36.728  22.974  24.354  1.00  0.00     0.278 C 
ENDBRANCH  16  19
ENDBRANCH  10  11
ENDBRANCH   7  10
ENDBRANCH   6   7
BRANCH   6  21
ATOM     21  C   UNL A   1      30.643  27.447  23.533  1.00  0.00     0.051 C 
ATOM     22  C   UNL A   1      29.676  26.497  24.256  1.00  0.00     0.014 C 
ATOM     23  C   UNL A   1      30.024  28.852  23.518  1.00  0.00     0.014 C 
ENDBRANCH   6  21
ENDBRANCH   3   6
ENDBRANCH   1   2
BRANCH   1  24
ATOM     24  C   UNL A   1      31.771  30.330  26.570  1.00  0.00     0.023 C 
BRANCH  24  25
ATOM     25  C   UNL A   1      31.641  31.843  26.532  1.00  0.00     0.023 C 
BRANCH  25  26
ATOM     26  C   UNL A   1      32.757  32.561  27.257  1.00  0.00     0.116 C 
BRANCH  26  27
ATOM     27  N   UNL A   1      32.433  33.947  27.578  1.00  0.00    -0.352 N 
ATOM     28  C   UNL A   1      32.991  34.765  28.531  1.00  0.00     0.251 C 
ATOM     29  H   UNL A   1      31.717  34.352  27.036  1.00  0.00     0.163 HD
ATOM     30  O   UNL A   1      32.531  35.877  28.743  1.00  0.00    -0.269 OA
BRANCH  28  31
ATOM     31  C   UNL A   1      34.127  34.260  29.328  1.00  0.00     0.039 A 
ATOM     32  C   UNL A   1      33.874  33.428  30.421  1.00  0.00     0.014 A 
ATOM     33  C   UNL A   1      35.438  34.553  28.949  1.00  0.00     0.014 A 
ATOM     34  C   UNL A   1      34.944  32.838  31.092  1.00  0.00     0.010 A 
ATOM     35  C   UNL A   1      36.489  33.868  29.537  1.00  0.00     0.010 A 
ATOM     36  C   UNL A   1      36.257  33.025  30.632  1.00  0.00    -0.014 A 
BRANCH  36  37
ATOM     37  C   UNL A   1      37.416  32.401  31.312  1.00  0.00     0.031 A 
ATOM     38  C   UNL A   1      38.151  31.278  30.630  1.00  0.00     0.074 A 
ATOM     39  C   UNL A   1      37.756  32.786  32.557  1.00  0.00     0.049 A 
ATOM     40  N   UNL A   1      39.125  30.530  31.081  1.00  0.00    -0.248 NA
ATOM     41  C   UNL A   1      37.697  30.911  29.277  1.00  0.00     0.031 C 
ATOM     42  C   UNL A   1      37.068  33.808  33.350  1.00  0.00     0.029 A 
ATOM     43  N   UNL A   1      38.762  32.350  33.382  1.00  0.00    -0.354 N 
ATOM     44  C   UNL A   1      39.368  29.591  30.086  1.00  0.00     0.074 A 
ATOM     45  C   UNL A   1      38.402  29.817  29.037  1.00  0.00     0.031 C 
ATOM     46  C   UNL A   1      37.691  33.940  34.533  1.00  0.00     0.029 A 
ATOM     47  C   UNL A   1      38.800  32.993  34.595  1.00  0.00     0.049 A 
ATOM     48  H   UNL A   1      39.398  31.642  33.127  1.00  0.00     0.167 HD
ATOM     49  C   UNL A   1      40.334  28.645  30.038  1.00  0.00     0.037 A 
ATOM     50  C   UNL A   1      39.641  32.835  35.633  1.00  0.00     0.037 A 
ATOM     51  C   UNL A   1      41.338  28.476  31.051  1.00  0.00     0.049 A 
ATOM     52  C   UNL A   1      40.757  31.831  35.517  1.00  0.00     0.074 A 
ATOM     53  C   UNL A   1      42.417  27.610  31.062  1.00  0.00     0.029 A 
ATOM     54  N   UNL A   1      41.394  29.205  32.230  1.00  0.00    -0.354 N 
ATOM     55  N   UNL A   1      41.027  31.003  34.536  1.00  0.00    -0.248 NA
ATOM     56  C   UNL A   1      41.697  31.752  36.644  1.00  0.00     0.031 C 
ATOM     57  C   UNL A   1      43.108  27.792  32.263  1.00  0.00     0.029 A 
ATOM     58  C   UNL A   1      42.487  28.804  32.978  1.00  0.00     0.049 A 
ATOM     59  H   UNL A   1      40.752  29.903  32.494  1.00  0.00     0.167 HD
ATOM     60  C   UNL A   1      42.186  30.334  34.910  1.00  0.00     0.074 A 
ATOM     61  C   UNL A   1      42.574  30.863  36.200  1.00  0.00     0.031 C 
ATOM     62  C   UNL A   1      42.867  29.368  34.247  1.00  0.00     0.037 A 
BRANCH  49  63
ATOM     63  C   UNL A   1      40.370  27.742  28.841  1.00  0.00     0.064 A 
ATOM     64  C   UNL A   1      39.643  26.543  28.800  1.00  0.00     0.173 A 
ATOM     65  C   UNL A   1      41.108  28.101  27.702  1.00  0.00     0.173 A 
ATOM     66  F   UNL A   1      38.936  26.145  29.869  1.00  0.00    -0.203 F 
ATOM     67  C   UNL A   1      39.672  25.724  27.674  1.00  0.00     0.198 A 
ATOM     68  C   UNL A   1      41.109  27.296  26.567  1.00  0.00     0.198 A 
ATOM     69  F   UNL A   1      41.820  29.238  27.689  1.00  0.00    -0.203 F 
ATOM     70  F   UNL A   1      39.008  24.560  27.677  1.00  0.00    -0.200 F 
ATOM     71  C   UNL A   1      40.397  26.106  26.555  1.00  0.00     0.200 A 
ATOM     72  F   UNL A   1      41.802  27.671  25.482  1.00  0.00    -0.200 F 
ATOM     73  F   UNL A   1      40.413  25.323  25.468  1.00  0.00    -0.200 F 
ENDBRANCH  49  63
BRANCH  50  74
ATOM     74  C   UNL A   1      39.493  33.671  36.855  1.00  0.00     0.064 A 
ATOM     75  C   UNL A   1      38.744  33.218  37.951  1.00  0.00     0.173 A 
ATOM     76  C   UNL A   1      40.072  34.945  36.943  1.00  0.00     0.173 A 
ATOM     77  F   UNL A   1      38.158  32.012  37.907  1.00  0.00    -0.203 F 
ATOM     78  C   UNL A   1      38.550  34.020  39.073  1.00  0.00     0.198 A 
ATOM     79  C   UNL A   1      39.902  35.734  38.079  1.00  0.00     0.198 A 
ATOM     80  F   UNL A   1      40.807  35.421  35.928  1.00  0.00    -0.203 F 
ATOM     81  F   UNL A   1      37.781  33.585  40.080  1.00  0.00    -0.200 F 
ATOM     82  C   UNL A   1      39.131  35.277  39.137  1.00  0.00     0.200 A 
ATOM     83  F   UNL A   1      40.478  36.943  38.144  1.00  0.00    -0.200 F 
ATOM     84  F   UNL A   1      38.941  36.051  40.214  1.00  0.00    -0.200 F 
ENDBRANCH  50  74
BRANCH  62  85
ATOM     85  C   UNL A   1      44.129  28.863  34.879  1.00  0.00     0.064 A 
ATOM     86  C   UNL A   1      45.368  29.474  34.642  1.00  0.00     0.173 A 
ATOM     87  C   UNL A   1      44.087  27.775  35.765  1.00  0.00     0.173 A 
ATOM     88  F   UNL A   1      45.458  30.509  33.794  1.00  0.00    -0.203 F 
ATOM     89  C   UNL A   1      46.527  28.993  35.244  1.00  0.00     0.198 A 
ATOM     90  C   UNL A   1      45.243  27.317  36.390  1.00  0.00     0.198 A 
ATOM     91  F   UNL A   1      42.923  27.164  36.032  1.00  0.00    -0.203 F 
ATOM     92  F   UNL A   1      47.709  29.560  34.964  1.00  0.00    -0.200 F 
ATOM     93  C   UNL A   1      46.462  27.921  36.123  1.00  0.00     0.200 A 
ATOM     94  F   UNL A   1      45.177  26.291  37.249  1.00  0.00    -0.200 F 
ATOM     95  F   UNL A   1      47.579  27.464  36.706  1.00  0.00    -0.200 F 
ENDBRANCH  62  85
ENDBRANCH  36  37
ENDBRANCH  28  31
ENDBRANCH  26  27
ENDBRANCH  25  26
ENDBRANCH  24  25
ENDBRANCH   1  24
TORSDOF 17
ENDMDL
MODEL 3
REMARK VINA RESULT:     -11.2      0.795      2.169
REMARK SMILES COc1ccc(OC)c(C[NH2+][C@@H](C(=O)NCCCCNC(=O)c2ccc(-c3c4nc(c(-c5c(F)c(F)c(F)c(F)c5F)c5ccc([nH]5)c(-c5c(F)c(F)c(F)c(F)c5F)c5nc(c(-c6c(F)c(F)c(F)c(F)c6F)c6ccc3[nH]6)C=C5)C=C4)cc2)C(C)C)c1
REMARK SMILES IDX 16 1 15 2 13 3 14 4 12 6 11 7 10 10 9 11 3 12 4 13 89 14
REMARK SMILES IDX 5 15 6 16 2 17 1 18 7 19 8 20 86 21 87 22 88 23 17 24 18 25
REMARK SMILES IDX 19 26 20 27 21 28 22 30 23 31 24 32 85 33 25 34 84 35 26 36
REMARK SMILES IDX 27 37 28 38 78 39 29 40 83 41 77 42 79 43 30 44 82 45 76 46
REMARK SMILES IDX 75 47 31 49 63 50 43 51 62 52 44 53 47 54 61 55 80 56 45 57
REMARK SMILES IDX 46 58 60 60 81 61 48 62 32 63 33 64 41 65 34 66 35 67 39 68
REMARK SMILES IDX 42 69 36 70 37 71 40 72 38 73 64 74 65 75 73 76 66 77 67 78
REMARK SMILES IDX 71 79 74 80 68 81 69 82 72 83 70 84 49 85 50 86 58 87 51 88
REMARK SMILES IDX 52 89 56 90 59 91 53 92 54 93 57 94 55 95
REMARK H PARENT 15 5 11 8 11 9 20 29 79 48 47 59
REMARK Flexibility Score: inf
ROOT
ATOM      1  C   UNL A   1      31.567  29.638  25.678  1.00  0.00     0.116 C 
ENDROOT
BRANCH   1   2
ATOM      2  N   UNL A   1      32.524  29.730  24.585  1.00  0.00    -0.351 N 
ATOM      3  C   UNL A   1      33.151  28.771  23.831  1.00  0.00     0.278 C 
ATOM      4  O   UNL A   1      34.037  29.166  23.067  1.00  0.00    -0.268 OA
ATOM      5  H   UNL A   1      32.767  30.653  24.341  1.00  0.00     0.163 HD
BRANCH   3   6
ATOM      6  C   UNL A   1      32.798  27.251  23.959  1.00  0.00     0.275 C 
BRANCH   6   7
ATOM      7  N   UNL A   1      34.028  26.414  24.151  1.00  0.00    -0.332 N 
ATOM      8  H   UNL A   1      34.118  25.765  23.370  1.00  0.00     0.347 HD
ATOM      9  H   UNL A   1      34.841  27.028  24.193  1.00  0.00     0.347 HD
BRANCH   7  10
ATOM     10  C   UNL A   1      33.942  25.665  25.386  1.00  0.00     0.302 C 
BRANCH  10  11
ATOM     11  C   UNL A   1      33.182  24.370  25.471  1.00  0.00     0.052 A 
ATOM     12  C   UNL A   1      31.304  23.263  26.609  1.00  0.00     0.119 A 
ATOM     13  C   UNL A   1      31.356  22.230  25.685  1.00  0.00     0.050 A 
ATOM     14  C   UNL A   1      32.232  24.296  26.522  1.00  0.00     0.059 A 
ATOM     15  C   UNL A   1      32.293  22.272  24.647  1.00  0.00     0.051 A 
ATOM     16  C   UNL A   1      33.179  23.352  24.511  1.00  0.00     0.127 A 
BRANCH  12  17
ATOM     17  O   UNL A   1      30.360  23.184  27.595  1.00  0.00    -0.497 OA
ATOM     18  C   UNL A   1      29.162  22.521  27.192  1.00  0.00     0.278 C 
ENDBRANCH  12  17
BRANCH  16  19
ATOM     19  O   UNL A   1      34.027  23.266  23.442  1.00  0.00    -0.496 OA
ATOM     20  C   UNL A   1      35.303  22.703  23.730  1.00  0.00     0.278 C 
ENDBRANCH  16  19
ENDBRANCH  10  11
ENDBRANCH   7  10
ENDBRANCH   6   7
BRANCH   6  21
ATOM     21  C   UNL A   1      32.076  26.765  22.668  1.00  0.00     0.051 C 
ATOM     22  C   UNL A   1      33.027  26.032  21.710  1.00  0.00     0.014 C 
ATOM     23  C   UNL A   1      30.899  25.835  22.992  1.00  0.00     0.014 C 
ENDBRANCH   6  21
ENDBRANCH   3   6
ENDBRANCH   1   2
BRANCH   1  24
ATOM     24  C   UNL A   1      31.995  30.487  26.886  1.00  0.00     0.023 C 
BRANCH  24  25
ATOM     25  C   UNL A   1      31.722  31.977  26.780  1.00  0.00     0.023 C 
BRANCH  25  26
ATOM     26  C   UNL A   1      32.891  32.834  27.210  1.00  0.00     0.116 C 
BRANCH  26  27
ATOM     27  N   UNL A   1      32.502  34.191  27.579  1.00  0.00    -0.352 N 
ATOM     28  C   UNL A   1      33.006  34.992  28.577  1.00  0.00     0.251 C 
ATOM     29  H   UNL A   1      31.780  34.587  27.040  1.00  0.00     0.163 HD
ATOM     30  O   UNL A   1      32.494  36.074  28.823  1.00  0.00    -0.269 OA
BRANCH  28  31
ATOM     31  C   UNL A   1      34.146  34.503  29.376  1.00  0.00     0.039 A 
ATOM     32  C   UNL A   1      33.899  33.857  30.589  1.00  0.00     0.014 A 
ATOM     33  C   UNL A   1      35.449  34.623  28.890  1.00  0.00     0.014 A 
ATOM     34  C   UNL A   1      34.959  33.272  31.280  1.00  0.00     0.010 A 
ATOM     35  C   UNL A   1      36.478  33.936  29.513  1.00  0.00     0.010 A 
ATOM     36  C   UNL A   1      36.251  33.276  30.729  1.00  0.00    -0.014 A 
BRANCH  36  37
ATOM     37  C   UNL A   1      37.397  32.652  31.429  1.00  0.00     0.031 A 
ATOM     38  C   UNL A   1      38.126  31.510  30.772  1.00  0.00     0.074 A 
ATOM     39  C   UNL A   1      37.730  33.053  32.670  1.00  0.00     0.049 A 
ATOM     40  N   UNL A   1      39.089  30.760  31.243  1.00  0.00    -0.248 NA
ATOM     41  C   UNL A   1      37.680  31.126  29.420  1.00  0.00     0.031 C 
ATOM     42  C   UNL A   1      37.046  34.095  33.441  1.00  0.00     0.029 A 
ATOM     43  N   UNL A   1      38.725  32.621  33.511  1.00  0.00    -0.354 N 
ATOM     44  C   UNL A   1      39.331  29.803  30.266  1.00  0.00     0.074 A 
ATOM     45  C   UNL A   1      38.376  30.022  29.204  1.00  0.00     0.031 C 
ATOM     46  C   UNL A   1      37.660  34.240  34.627  1.00  0.00     0.029 A 
ATOM     47  C   UNL A   1      38.758  33.283  34.714  1.00  0.00     0.049 A 
ATOM     48  H   UNL A   1      39.356  31.903  33.273  1.00  0.00     0.167 HD
ATOM     49  C   UNL A   1      40.288  28.846  30.241  1.00  0.00     0.037 A 
ATOM     50  C   UNL A   1      39.589  33.134  35.762  1.00  0.00     0.037 A 
ATOM     51  C   UNL A   1      41.281  28.684  31.266  1.00  0.00     0.049 A 
ATOM     52  C   UNL A   1      40.696  32.116  35.672  1.00  0.00     0.074 A 
ATOM     53  C   UNL A   1      42.351  27.807  31.301  1.00  0.00     0.029 A 
ATOM     54  N   UNL A   1      41.334  29.431  32.433  1.00  0.00    -0.354 N 
ATOM     55  N   UNL A   1      40.966  31.270  34.707  1.00  0.00    -0.248 NA
ATOM     56  C   UNL A   1      41.625  32.046  36.808  1.00  0.00     0.031 C 
ATOM     57  C   UNL A   1      43.033  28.002  32.504  1.00  0.00     0.029 A 
ATOM     58  C   UNL A   1      42.417  29.032  33.197  1.00  0.00     0.049 A 
ATOM     59  H   UNL A   1      40.697  30.140  32.680  1.00  0.00     0.167 HD
ATOM     60  C   UNL A   1      42.114  30.596  35.101  1.00  0.00     0.074 A 
ATOM     61  C   UNL A   1      42.497  31.141  36.386  1.00  0.00     0.031 C 
ATOM     62  C   UNL A   1      42.791  29.612  34.461  1.00  0.00     0.037 A 
BRANCH  49  63
ATOM     63  C   UNL A   1      40.324  27.924  29.059  1.00  0.00     0.064 A 
ATOM     64  C   UNL A   1      39.589  26.729  29.033  1.00  0.00     0.173 A 
ATOM     65  C   UNL A   1      41.073  28.259  27.920  1.00  0.00     0.173 A 
ATOM     66  F   UNL A   1      38.872  26.354  30.104  1.00  0.00    -0.203 F 
ATOM     67  C   UNL A   1      39.620  25.892  27.920  1.00  0.00     0.198 A 
ATOM     68  C   UNL A   1      41.076  27.436  26.797  1.00  0.00     0.198 A 
ATOM     69  F   UNL A   1      41.794  29.390  27.893  1.00  0.00    -0.203 F 
ATOM     70  F   UNL A   1      38.947  24.733  27.938  1.00  0.00    -0.200 F 
ATOM     71  C   UNL A   1      40.354  26.251  26.800  1.00  0.00     0.200 A 
ATOM     72  F   UNL A   1      41.778  27.788  25.711  1.00  0.00    -0.200 F 
ATOM     73  F   UNL A   1      40.372  25.450  25.726  1.00  0.00    -0.200 F 
ENDBRANCH  49  63
BRANCH  50  74
ATOM     74  C   UNL A   1      39.439  33.990  36.968  1.00  0.00     0.064 A 
ATOM     75  C   UNL A   1      40.027  35.262  37.026  1.00  0.00     0.173 A 
ATOM     76  C   UNL A   1      38.732  33.548  38.095  1.00  0.00     0.173 A 
ATOM     77  F   UNL A   1      40.728  35.724  35.979  1.00  0.00    -0.203 F 
ATOM     78  C   UNL A   1      39.943  36.044  38.177  1.00  0.00     0.198 A 
ATOM     79  C   UNL A   1      38.624  34.344  39.234  1.00  0.00     0.198 A 
ATOM     80  F   UNL A   1      38.142  32.344  38.088  1.00  0.00    -0.203 F 
ATOM     81  F   UNL A   1      40.564  37.230  38.223  1.00  0.00    -0.200 F 
ATOM     82  C   UNL A   1      39.240  35.585  39.278  1.00  0.00     0.200 A 
ATOM     83  F   UNL A   1      37.930  33.902  40.293  1.00  0.00    -0.200 F 
ATOM     84  F   UNL A   1      39.163  36.334  40.386  1.00  0.00    -0.200 F 
ENDBRANCH  50  74
BRANCH  62  85
ATOM     85  C   UNL A   1      44.043  29.105  35.111  1.00  0.00     0.064 A 
ATOM     86  C   UNL A   1      45.296  29.672  34.843  1.00  0.00     0.173 A 
ATOM     87  C   UNL A   1      43.977  28.061  36.047  1.00  0.00     0.173 A 
ATOM     88  F   UNL A   1      45.409  30.664  33.946  1.00  0.00    -0.203 F 
ATOM     89  C   UNL A   1      46.445  29.190  35.463  1.00  0.00     0.198 A 
ATOM     90  C   UNL A   1      45.123  27.603  36.690  1.00  0.00     0.198 A 
ATOM     91  F   UNL A   1      42.799  27.493  36.346  1.00  0.00    -0.203 F 
ATOM     92  F   UNL A   1      47.639  29.712  35.153  1.00  0.00    -0.200 F 
ATOM     93  C   UNL A   1      46.356  28.162  36.391  1.00  0.00     0.200 A 
ATOM     94  F   UNL A   1      45.035  26.620  37.596  1.00  0.00    -0.200 F 
ATOM     95  F   UNL A   1      47.464  27.704  36.992  1.00  0.00    -0.200 F 
ENDBRANCH  62  85
ENDBRANCH  36  37
ENDBRANCH  28  31
ENDBRANCH  26  27
ENDBRANCH  25  26
ENDBRANCH  24  25
ENDBRANCH   1  24
TORSDOF 17
ENDMDL
