MODEL 1
REMARK VINA RESULT:     -11.8      0.000      0.000
REMARK SMILES C[C@@H]1CN(C(=O)NC(=O)CCCCC(=O)NCCCCNC(=O)c2ccc(-c3c4nc(c(-c5c(F)c(F)c(F)c(F)c5F)c5ccc([nH]5)c(-c5c(F)c(F)c(F)c(F)c5F)c5nc(c(-c6c(F)c(F)c(F)c(F)c6F)c6ccc3[nH]6)C=C5)C=C4)cc2)CCO1
REMARK SMILES IDX 17 1 16 2 14 3 15 4 13 6 12 7 11 8 10 9 8 10 5 11 6 12 7 13
REMARK SMILES IDX 9 15 4 16 1 17 2 18 3 19 89 20 88 21 87 22 18 23 19 24 20 25
REMARK SMILES IDX 21 26 22 27 23 29 24 30 25 31 86 32 26 33 85 34 27 35 28 36
REMARK SMILES IDX 29 37 79 38 30 39 84 40 78 41 80 42 31 43 83 44 77 45 76 46
REMARK SMILES IDX 32 48 64 49 44 50 63 51 45 52 48 53 62 54 81 55 46 56 47 57
REMARK SMILES IDX 61 59 82 60 49 61 33 62 34 63 42 64 35 65 36 66 40 67 43 68
REMARK SMILES IDX 37 69 38 70 41 71 39 72 65 73 66 74 74 75 67 76 68 77 72 78
REMARK SMILES IDX 75 79 69 80 70 81 73 82 71 83 50 84 51 85 59 86 52 87 53 88
REMARK SMILES IDX 57 89 60 90 54 91 55 92 58 93 56 94
REMARK H PARENT 16 5 7 14 21 28 80 47 48 58
REMARK Flexibility Score: inf
ROOT
ATOM      1  C   UNL A   1      32.425  30.033  25.481  1.00  0.00     0.116 C 
ENDROOT
BRANCH   1   2
ATOM      2  N   UNL A   1      31.359  29.546  24.644  1.00  0.00    -0.356 N 
ATOM      3  C   UNL A   1      31.441  28.787  23.516  1.00  0.00     0.219 C 
ATOM      4  O   UNL A   1      30.415  28.594  22.866  1.00  0.00    -0.275 OA
ATOM      5  H   UNL A   1      30.449  29.794  24.926  1.00  0.00     0.163 HD
BRANCH   3   6
ATOM      6  C   UNL A   1      32.756  28.130  23.136  1.00  0.00     0.100 C 
BRANCH   6   7
ATOM      7  C   UNL A   1      32.928  26.641  23.413  1.00  0.00     0.010 C 
BRANCH   7   8
ATOM      8  C   UNL A   1      33.842  26.205  24.569  1.00  0.00     0.010 C 
BRANCH   8   9
ATOM      9  C   UNL A   1      33.316  26.306  26.004  1.00  0.00     0.100 C 
BRANCH   9  10
ATOM     10  C   UNL A   1      31.848  26.031  26.223  1.00  0.00     0.227 C 
ATOM     11  C   UNL A   1      31.725  23.649  26.512  1.00  0.00     0.324 C 
ATOM     12  O   UNL A   1      31.238  23.404  27.613  1.00  0.00    -0.248 OA
ATOM     13  N   UNL A   1      31.367  24.794  25.856  1.00  0.00    -0.278 N 
ATOM     14  H   UNL A   1      30.743  24.732  25.097  1.00  0.00     0.174 HD
ATOM     15  O   UNL A   1      31.079  26.908  26.610  1.00  0.00    -0.275 OA
BRANCH  11  16
ATOM     16  N   UNL A   1      32.501  22.727  25.824  1.00  0.00    -0.320 N 
ATOM     17  C   UNL A   1      36.019  21.260  25.440  1.00  0.00     0.040 C 
ATOM     18  C   UNL A   1      34.643  21.688  24.941  1.00  0.00     0.134 C 
ATOM     19  C   UNL A   1      33.950  22.570  25.990  1.00  0.00     0.153 C 
ATOM     20  O   UNL A   1      33.893  20.487  24.712  1.00  0.00    -0.375 OA
ATOM     21  C   UNL A   1      32.600  20.806  24.191  1.00  0.00     0.182 C 
ATOM     22  C   UNL A   1      31.781  21.609  25.196  1.00  0.00     0.150 C 
ENDBRANCH  11  16
ENDBRANCH   9  10
ENDBRANCH   8   9
ENDBRANCH   7   8
ENDBRANCH   6   7
ENDBRANCH   3   6
ENDBRANCH   1   2
BRANCH   1  23
ATOM     23  C   UNL A   1      31.898  30.497  26.832  1.00  0.00     0.023 C 
BRANCH  23  24
ATOM     24  C   UNL A   1      31.656  31.999  26.883  1.00  0.00     0.023 C 
BRANCH  24  25
ATOM     25  C   UNL A   1      32.819  32.788  27.473  1.00  0.00     0.116 C 
BRANCH  25  26
ATOM     26  N   UNL A   1      32.494  34.189  27.712  1.00  0.00    -0.352 N 
ATOM     27  C   UNL A   1      33.042  35.031  28.655  1.00  0.00     0.251 C 
ATOM     28  H   UNL A   1      31.800  34.579  27.132  1.00  0.00     0.163 HD
ATOM     29  O   UNL A   1      32.619  36.159  28.838  1.00  0.00    -0.269 OA
BRANCH  27  30
ATOM     30  C   UNL A   1      34.153  34.495  29.459  1.00  0.00     0.039 A 
ATOM     31  C   UNL A   1      33.867  33.754  30.606  1.00  0.00     0.014 A 
ATOM     32  C   UNL A   1      35.452  34.586  28.954  1.00  0.00     0.014 A 
ATOM     33  C   UNL A   1      34.890  33.030  31.217  1.00  0.00     0.010 A 
ATOM     34  C   UNL A   1      36.447  33.801  29.515  1.00  0.00     0.010 A 
ATOM     35  C   UNL A   1      36.175  33.016  30.650  1.00  0.00    -0.014 A 
BRANCH  35  36
ATOM     36  C   UNL A   1      37.279  32.218  31.234  1.00  0.00     0.031 A 
ATOM     37  C   UNL A   1      37.776  32.565  32.607  1.00  0.00     0.074 A 
ATOM     38  C   UNL A   1      37.900  31.273  30.501  1.00  0.00     0.049 A 
ATOM     39  N   UNL A   1      38.836  32.138  33.241  1.00  0.00    -0.248 NA
ATOM     40  C   UNL A   1      36.993  33.569  33.349  1.00  0.00     0.031 C 
ATOM     41  C   UNL A   1      37.539  30.878  29.139  1.00  0.00     0.029 A 
ATOM     42  N   UNL A   1      38.985  30.487  30.799  1.00  0.00    -0.354 N 
ATOM     43  C   UNL A   1      38.871  32.852  34.430  1.00  0.00     0.074 A 
ATOM     44  C   UNL A   1      37.756  33.772  34.411  1.00  0.00     0.031 C 
ATOM     45  C   UNL A   1      38.378  29.914  28.724  1.00  0.00     0.029 A 
ATOM     46  C   UNL A   1      39.359  29.652  29.774  1.00  0.00     0.049 A 
ATOM     47  H   UNL A   1      39.453  30.520  31.665  1.00  0.00     0.167 HD
ATOM     48  C   UNL A   1      39.745  32.735  35.457  1.00  0.00     0.037 A 
ATOM     49  C   UNL A   1      40.385  28.783  29.692  1.00  0.00     0.037 A 
ATOM     50  C   UNL A   1      40.816  31.778  35.493  1.00  0.00     0.049 A 
ATOM     51  C   UNL A   1      41.318  28.639  30.865  1.00  0.00     0.074 A 
ATOM     52  C   UNL A   1      41.716  31.528  36.513  1.00  0.00     0.029 A 
ATOM     53  N   UNL A   1      41.121  30.901  34.462  1.00  0.00    -0.354 N 
ATOM     54  N   UNL A   1      41.316  29.284  32.006  1.00  0.00    -0.248 NA
ATOM     55  C   UNL A   1      42.392  27.643  30.741  1.00  0.00     0.031 C 
ATOM     56  C   UNL A   1      42.585  30.517  36.088  1.00  0.00     0.029 A 
ATOM     57  C   UNL A   1      42.200  30.111  34.819  1.00  0.00     0.049 A 
ATOM     58  H   UNL A   1      40.641  30.849  33.603  1.00  0.00     0.167 HD
ATOM     59  C   UNL A   1      42.361  28.751  32.748  1.00  0.00     0.074 A 
ATOM     60  C   UNL A   1      42.976  27.727  31.928  1.00  0.00     0.031 C 
ATOM     61  C   UNL A   1      42.774  29.078  33.996  1.00  0.00     0.037 A 
BRANCH  48  62
ATOM     62  C   UNL A   1      39.567  33.664  36.620  1.00  0.00     0.064 A 
ATOM     63  C   UNL A   1      38.803  33.304  37.741  1.00  0.00     0.173 A 
ATOM     64  C   UNL A   1      40.167  34.932  36.615  1.00  0.00     0.173 A 
ATOM     65  F   UNL A   1      38.193  32.110  37.786  1.00  0.00    -0.203 F 
ATOM     66  C   UNL A   1      38.616  34.192  38.796  1.00  0.00     0.198 A 
ATOM     67  C   UNL A   1      40.005  35.806  37.687  1.00  0.00     0.198 A 
ATOM     68  F   UNL A   1      40.909  35.325  35.569  1.00  0.00    -0.203 F 
ATOM     69  F   UNL A   1      37.829  33.850  39.825  1.00  0.00    -0.200 F 
ATOM     70  C   UNL A   1      39.221  35.440  38.770  1.00  0.00     0.200 A 
ATOM     71  F   UNL A   1      40.597  37.008  37.665  1.00  0.00    -0.200 F 
ATOM     72  F   UNL A   1      39.037  36.294  39.786  1.00  0.00    -0.200 F 
ENDBRANCH  48  62
BRANCH  49  73
ATOM     73  C   UNL A   1      40.562  27.958  28.469  1.00  0.00     0.064 A 
ATOM     74  C   UNL A   1      41.325  28.431  27.392  1.00  0.00     0.173 A 
ATOM     75  C   UNL A   1      39.983  26.687  28.352  1.00  0.00     0.173 A 
ATOM     76  F   UNL A   1      41.882  29.649  27.450  1.00  0.00    -0.203 F 
ATOM     77  C   UNL A   1      41.487  27.669  26.237  1.00  0.00     0.198 A 
ATOM     78  C   UNL A   1      40.165  25.917  27.205  1.00  0.00     0.198 A 
ATOM     79  F   UNL A   1      39.249  26.188  29.357  1.00  0.00    -0.203 F 
ATOM     80  F   UNL A   1      42.190  28.161  25.206  1.00  0.00    -0.200 F 
ATOM     81  C   UNL A   1      40.912  26.411  26.145  1.00  0.00     0.200 A 
ATOM     82  F   UNL A   1      39.618  24.696  27.126  1.00  0.00    -0.200 F 
ATOM     83  F   UNL A   1      41.072  25.677  25.036  1.00  0.00    -0.200 F 
ENDBRANCH  49  73
BRANCH  61  84
ATOM     84  C   UNL A   1      43.906  28.288  34.581  1.00  0.00     0.064 A 
ATOM     85  C   UNL A   1      45.232  28.732  34.500  1.00  0.00     0.173 A 
ATOM     86  C   UNL A   1      43.644  27.110  35.298  1.00  0.00     0.173 A 
ATOM     87  F   UNL A   1      45.531  29.845  33.814  1.00  0.00    -0.203 F 
ATOM     88  C   UNL A   1      46.261  28.017  35.107  1.00  0.00     0.198 A 
ATOM     89  C   UNL A   1      44.672  26.412  35.924  1.00  0.00     0.198 A 
ATOM     90  F   UNL A   1      42.389  26.650  35.408  1.00  0.00    -0.203 F 
ATOM     91  F   UNL A   1      47.526  28.442  34.995  1.00  0.00    -0.200 F 
ATOM     92  C   UNL A   1      45.979  26.864  35.827  1.00  0.00     0.200 A 
ATOM     93  F   UNL A   1      44.396  25.305  36.628  1.00  0.00    -0.200 F 
ATOM     94  F   UNL A   1      46.970  26.187  36.424  1.00  0.00    -0.200 F 
ENDBRANCH  61  84
ENDBRANCH  35  36
ENDBRANCH  27  30
ENDBRANCH  25  26
ENDBRANCH  24  25
ENDBRANCH  23  24
ENDBRANCH   1  23
TORSDOF 16
ENDMDL
MODEL 2
REMARK VINA RESULT:     -11.7      0.926      2.193
REMARK SMILES C[C@@H]1CN(C(=O)NC(=O)CCCCC(=O)NCCCCNC(=O)c2ccc(-c3c4nc(c(-c5c(F)c(F)c(F)c(F)c5F)c5ccc([nH]5)c(-c5c(F)c(F)c(F)c(F)c5F)c5nc(c(-c6c(F)c(F)c(F)c(F)c6F)c6ccc3[nH]6)C=C5)C=C4)cc2)CCO1
REMARK SMILES IDX 17 1 16 2 14 3 15 4 13 6 12 7 11 8 10 9 8 10 5 11 6 12 7 13
REMARK SMILES IDX 9 15 4 16 1 17 2 18 3 19 89 20 88 21 87 22 18 23 19 24 20 25
REMARK SMILES IDX 21 26 22 27 23 29 24 30 25 31 86 32 26 33 85 34 27 35 28 36
REMARK SMILES IDX 29 37 79 38 30 39 84 40 78 41 80 42 31 43 83 44 77 45 76 46
REMARK SMILES IDX 32 48 64 49 44 50 63 51 45 52 48 53 62 54 81 55 46 56 47 57
REMARK SMILES IDX 61 59 82 60 49 61 33 62 34 63 42 64 35 65 36 66 40 67 43 68
REMARK SMILES IDX 37 69 38 70 41 71 39 72 65 73 66 74 74 75 67 76 68 77 72 78
REMARK SMILES IDX 75 79 69 80 70 81 73 82 71 83 50 84 51 85 59 86 52 87 53 88
REMARK SMILES IDX 57 89 60 90 54 91 55 92 58 93 56 94
REMARK H PARENT 16 5 7 14 21 28 80 47 48 58
REMARK Flexibility Score: inf
ROOT
ATOM      1  C   UNL A   1      31.964  29.733  25.592  1.00  0.00     0.116 C 
ENDROOT
BRANCH   1   2
ATOM      2  N   UNL A   1      30.912  30.103  24.680  1.00  0.00    -0.356 N 
ATOM      3  C   UNL A   1      30.382  29.380  23.654  1.00  0.00     0.219 C 
ATOM      4  O   UNL A   1      29.582  29.934  22.902  1.00  0.00    -0.275 OA
ATOM      5  H   UNL A   1      30.524  30.997  24.818  1.00  0.00     0.163 HD
BRANCH   3   6
ATOM      6  C   UNL A   1      30.712  27.905  23.513  1.00  0.00     0.100 C 
BRANCH   6   7
ATOM      7  C   UNL A   1      29.926  26.903  24.350  1.00  0.00     0.010 C 
BRANCH   7   8
ATOM      8  C   UNL A   1      30.627  26.220  25.535  1.00  0.00     0.010 C 
BRANCH   8   9
ATOM      9  C   UNL A   1      31.008  24.742  25.416  1.00  0.00     0.100 C 
BRANCH   9  10
ATOM     10  C   UNL A   1      30.523  23.812  26.503  1.00  0.00     0.227 C 
ATOM     11  C   UNL A   1      32.447  22.479  27.045  1.00  0.00     0.324 C 
ATOM     12  O   UNL A   1      32.715  22.629  28.235  1.00  0.00    -0.248 OA
ATOM     13  N   UNL A   1      31.150  22.593  26.628  1.00  0.00    -0.278 N 
ATOM     14  H   UNL A   1      30.647  21.775  26.409  1.00  0.00     0.174 HD
ATOM     15  O   UNL A   1      29.535  24.077  27.185  1.00  0.00    -0.275 OA
BRANCH  11  16
ATOM     16  N   UNL A   1      33.385  22.030  26.126  1.00  0.00    -0.320 N 
ATOM     17  C   UNL A   1      36.408  23.028  23.996  1.00  0.00     0.040 C 
ATOM     18  C   UNL A   1      35.139  22.240  24.302  1.00  0.00     0.134 C 
ATOM     19  C   UNL A   1      34.389  22.882  25.479  1.00  0.00     0.153 C 
ATOM     20  O   UNL A   1      35.549  20.905  24.628  1.00  0.00    -0.375 OA
ATOM     21  C   UNL A   1      34.403  20.087  24.880  1.00  0.00     0.182 C 
ATOM     22  C   UNL A   1      33.627  20.580  26.097  1.00  0.00     0.150 C 
ENDBRANCH  11  16
ENDBRANCH   9  10
ENDBRANCH   8   9
ENDBRANCH   7   8
ENDBRANCH   6   7
ENDBRANCH   3   6
ENDBRANCH   1   2
BRANCH   1  23
ATOM     23  C   UNL A   1      31.873  30.524  26.889  1.00  0.00     0.023 C 
BRANCH  23  24
ATOM     24  C   UNL A   1      31.770  32.025  26.654  1.00  0.00     0.023 C 
BRANCH  24  25
ATOM     25  C   UNL A   1      32.895  32.826  27.301  1.00  0.00     0.116 C 
BRANCH  25  26
ATOM     26  N   UNL A   1      32.511  34.198  27.611  1.00  0.00    -0.352 N 
ATOM     27  C   UNL A   1      32.997  35.001  28.619  1.00  0.00     0.251 C 
ATOM     28  H   UNL A   1      31.823  34.599  27.031  1.00  0.00     0.163 HD
ATOM     29  O   UNL A   1      32.529  36.100  28.853  1.00  0.00    -0.269 OA
BRANCH  27  30
ATOM     30  C   UNL A   1      34.101  34.456  29.428  1.00  0.00     0.039 A 
ATOM     31  C   UNL A   1      33.803  33.696  30.560  1.00  0.00     0.014 A 
ATOM     32  C   UNL A   1      35.406  34.559  28.941  1.00  0.00     0.014 A 
ATOM     33  C   UNL A   1      34.822  32.966  31.172  1.00  0.00     0.010 A 
ATOM     34  C   UNL A   1      36.396  33.768  29.502  1.00  0.00     0.010 A 
ATOM     35  C   UNL A   1      36.114  32.965  30.621  1.00  0.00    -0.014 A 
BRANCH  35  36
ATOM     36  C   UNL A   1      37.213  32.161  31.206  1.00  0.00     0.031 A 
ATOM     37  C   UNL A   1      37.705  32.502  32.582  1.00  0.00     0.074 A 
ATOM     38  C   UNL A   1      37.834  31.218  30.472  1.00  0.00     0.049 A 
ATOM     39  N   UNL A   1      38.763  32.070  33.218  1.00  0.00    -0.248 NA
ATOM     40  C   UNL A   1      36.923  33.505  33.325  1.00  0.00     0.031 C 
ATOM     41  C   UNL A   1      37.477  30.829  29.108  1.00  0.00     0.029 A 
ATOM     42  N   UNL A   1      38.915  30.427  30.771  1.00  0.00    -0.354 N 
ATOM     43  C   UNL A   1      38.795  32.779  34.410  1.00  0.00     0.074 A 
ATOM     44  C   UNL A   1      37.683  33.702  34.390  1.00  0.00     0.031 C 
ATOM     45  C   UNL A   1      38.314  29.864  28.692  1.00  0.00     0.029 A 
ATOM     46  C   UNL A   1      39.291  29.595  29.744  1.00  0.00     0.049 A 
ATOM     47  H   UNL A   1      39.380  30.455  31.638  1.00  0.00     0.167 HD
ATOM     48  C   UNL A   1      39.665  32.656  35.439  1.00  0.00     0.037 A 
ATOM     49  C   UNL A   1      40.314  28.724  29.662  1.00  0.00     0.037 A 
ATOM     50  C   UNL A   1      40.734  31.695  35.476  1.00  0.00     0.049 A 
ATOM     51  C   UNL A   1      41.242  28.572  30.838  1.00  0.00     0.074 A 
ATOM     52  C   UNL A   1      41.629  31.439  36.498  1.00  0.00     0.029 A 
ATOM     53  N   UNL A   1      41.039  30.822  34.443  1.00  0.00    -0.354 N 
ATOM     54  N   UNL A   1      41.238  29.213  31.982  1.00  0.00    -0.248 NA
ATOM     55  C   UNL A   1      42.314  27.573  30.714  1.00  0.00     0.031 C 
ATOM     56  C   UNL A   1      42.496  30.428  36.073  1.00  0.00     0.029 A 
ATOM     57  C   UNL A   1      42.114  30.027  34.801  1.00  0.00     0.049 A 
ATOM     58  H   UNL A   1      40.563  30.774  33.582  1.00  0.00     0.167 HD
ATOM     59  C   UNL A   1      42.279  28.674  32.725  1.00  0.00     0.074 A 
ATOM     60  C   UNL A   1      42.894  27.651  31.904  1.00  0.00     0.031 C 
ATOM     61  C   UNL A   1      42.688  28.995  33.977  1.00  0.00     0.037 A 
BRANCH  48  62
ATOM     62  C   UNL A   1      39.486  33.581  36.606  1.00  0.00     0.064 A 
ATOM     63  C   UNL A   1      40.089  34.848  36.641  1.00  0.00     0.173 A 
ATOM     64  C   UNL A   1      38.703  33.197  37.704  1.00  0.00     0.173 A 
ATOM     65  F   UNL A   1      40.864  35.255  35.624  1.00  0.00    -0.203 F 
ATOM     66  C   UNL A   1      39.946  35.679  37.748  1.00  0.00     0.198 A 
ATOM     67  C   UNL A   1      38.535  34.044  38.796  1.00  0.00     0.198 A 
ATOM     68  F   UNL A   1      38.102  31.997  37.720  1.00  0.00    -0.203 F 
ATOM     69  F   UNL A   1      40.584  36.857  37.786  1.00  0.00    -0.200 F 
ATOM     70  C   UNL A   1      39.164  35.279  38.821  1.00  0.00     0.200 A 
ATOM     71  F   UNL A   1      37.772  33.660  39.829  1.00  0.00    -0.200 F 
ATOM     72  F   UNL A   1      39.029  36.079  39.887  1.00  0.00    -0.200 F 
ENDBRANCH  48  62
BRANCH  49  73
ATOM     73  C   UNL A   1      40.493  27.902  28.438  1.00  0.00     0.064 A 
ATOM     74  C   UNL A   1      39.900  26.636  28.334  1.00  0.00     0.173 A 
ATOM     75  C   UNL A   1      41.251  28.360  27.351  1.00  0.00     0.173 A 
ATOM     76  F   UNL A   1      39.182  26.147  29.356  1.00  0.00    -0.203 F 
ATOM     77  C   UNL A   1      40.071  25.852  27.195  1.00  0.00     0.198 A 
ATOM     78  C   UNL A   1      41.402  27.584  26.203  1.00  0.00     0.198 A 
ATOM     79  F   UNL A   1      41.835  29.566  27.400  1.00  0.00    -0.203 F 
ATOM     80  F   UNL A   1      39.524  24.630  27.136  1.00  0.00    -0.200 F 
ATOM     81  C   UNL A   1      40.818  26.328  26.128  1.00  0.00     0.200 A 
ATOM     82  F   UNL A   1      42.114  28.054  25.169  1.00  0.00    -0.200 F 
ATOM     83  F   UNL A   1      40.979  25.576  25.030  1.00  0.00    -0.200 F 
ENDBRANCH  49  73
BRANCH  61  84
ATOM     84  C   UNL A   1      43.816  28.200  34.562  1.00  0.00     0.064 A 
ATOM     85  C   UNL A   1      43.591  27.000  35.250  1.00  0.00     0.173 A 
ATOM     86  C   UNL A   1      45.143  28.609  34.361  1.00  0.00     0.173 A 
ATOM     87  F   UNL A   1      42.339  26.577  35.477  1.00  0.00    -0.203 F 
ATOM     88  C   UNL A   1      44.656  26.243  35.728  1.00  0.00     0.198 A 
ATOM     89  C   UNL A   1      46.206  27.836  34.819  1.00  0.00     0.198 A 
ATOM     90  F   UNL A   1      45.408  29.747  33.702  1.00  0.00    -0.203 F 
ATOM     91  F   UNL A   1      44.420  25.113  36.408  1.00  0.00    -0.200 F 
ATOM     92  C   UNL A   1      45.963  26.656  35.504  1.00  0.00     0.200 A 
ATOM     93  F   UNL A   1      47.466  28.231  34.591  1.00  0.00    -0.200 F 
ATOM     94  F   UNL A   1      46.987  25.916  35.951  1.00  0.00    -0.200 F 
ENDBRANCH  61  84
ENDBRANCH  35  36
ENDBRANCH  27  30
ENDBRANCH  25  26
ENDBRANCH  24  25
ENDBRANCH  23  24
ENDBRANCH   1  23
TORSDOF 16
ENDMDL
MODEL 3
REMARK VINA RESULT:     -11.7      1.130      7.412
REMARK SMILES C[C@@H]1CN(C(=O)NC(=O)CCCCC(=O)NCCCCNC(=O)c2ccc(-c3c4nc(c(-c5c(F)c(F)c(F)c(F)c5F)c5ccc([nH]5)c(-c5c(F)c(F)c(F)c(F)c5F)c5nc(c(-c6c(F)c(F)c(F)c(F)c6F)c6ccc3[nH]6)C=C5)C=C4)cc2)CCO1
REMARK SMILES IDX 17 1 16 2 14 3 15 4 13 6 12 7 11 8 10 9 8 10 5 11 6 12 7 13
REMARK SMILES IDX 9 15 4 16 1 17 2 18 3 19 89 20 88 21 87 22 18 23 19 24 20 25
REMARK SMILES IDX 21 26 22 27 23 29 24 30 25 31 86 32 26 33 85 34 27 35 28 36
REMARK SMILES IDX 29 37 79 38 30 39 84 40 78 41 80 42 31 43 83 44 77 45 76 46
REMARK SMILES IDX 32 48 64 49 44 50 63 51 45 52 48 53 62 54 81 55 46 56 47 57
REMARK SMILES IDX 61 59 82 60 49 61 33 62 34 63 42 64 35 65 36 66 40 67 43 68
REMARK SMILES IDX 37 69 38 70 41 71 39 72 65 73 66 74 74 75 67 76 68 77 72 78
REMARK SMILES IDX 75 79 69 80 70 81 73 82 71 83 50 84 51 85 59 86 52 87 53 88
REMARK SMILES IDX 57 89 60 90 54 91 55 92 58 93 56 94
REMARK H PARENT 16 5 7 14 21 28 80 47 48 58
REMARK Flexibility Score: inf
ROOT
ATOM      1  C   UNL A   1      32.540  29.280  25.560  1.00  0.00     0.116 C 
ENDROOT
BRANCH   1   2
ATOM      2  N   UNL A   1      31.408  29.775  24.819  1.00  0.00    -0.356 N 
ATOM      3  C   UNL A   1      30.645  29.125  23.897  1.00  0.00     0.219 C 
ATOM      4  O   UNL A   1      29.806  29.773  23.272  1.00  0.00    -0.275 OA
ATOM      5  H   UNL A   1      31.153  30.708  25.004  1.00  0.00     0.163 HD
BRANCH   3   6
ATOM      6  C   UNL A   1      30.775  27.622  23.725  1.00  0.00     0.100 C 
BRANCH   6   7
ATOM      7  C   UNL A   1      29.893  26.716  24.577  1.00  0.00     0.010 C 
BRANCH   7   8
ATOM      8  C   UNL A   1      30.516  26.009  25.792  1.00  0.00     0.010 C 
BRANCH   8   9
ATOM      9  C   UNL A   1      31.061  24.589  25.620  1.00  0.00     0.100 C 
BRANCH   9  10
ATOM     10  C   UNL A   1      30.648  23.561  26.647  1.00  0.00     0.227 C 
ATOM     11  C   UNL A   1      32.707  22.501  27.287  1.00  0.00     0.324 C 
ATOM     12  O   UNL A   1      32.873  22.646  28.496  1.00  0.00    -0.248 OA
ATOM     13  N   UNL A   1      31.437  22.441  26.784  1.00  0.00    -0.278 N 
ATOM     14  H   UNL A   1      31.074  21.567  26.510  1.00  0.00     0.174 HD
ATOM     15  O   UNL A   1      29.590  23.657  27.266  1.00  0.00    -0.275 OA
BRANCH  11  16
ATOM     16  N   UNL A   1      33.757  22.225  26.423  1.00  0.00    -0.320 N 
ATOM     17  C   UNL A   1      37.161  23.432  25.146  1.00  0.00     0.040 C 
ATOM     18  C   UNL A   1      35.809  22.738  25.018  1.00  0.00     0.134 C 
ATOM     19  C   UNL A   1      34.912  23.104  26.210  1.00  0.00     0.153 C 
ATOM     20  O   UNL A   1      36.069  21.327  24.993  1.00  0.00    -0.375 OA
ATOM     21  C   UNL A   1      34.845  20.606  24.823  1.00  0.00     0.182 C 
ATOM     22  C   UNL A   1      33.906  20.823  26.005  1.00  0.00     0.150 C 
ENDBRANCH  11  16
ENDBRANCH   9  10
ENDBRANCH   8   9
ENDBRANCH   7   8
ENDBRANCH   6   7
ENDBRANCH   3   6
ENDBRANCH   1   2
BRANCH   1  23
ATOM     23  C   UNL A   1      32.627  29.932  26.933  1.00  0.00     0.023 C 
BRANCH  23  24
ATOM     24  C   UNL A   1      32.177  31.387  26.921  1.00  0.00     0.023 C 
BRANCH  24  25
ATOM     25  C   UNL A   1      33.166  32.341  27.581  1.00  0.00     0.116 C 
BRANCH  25  26
ATOM     26  N   UNL A   1      32.663  33.707  27.674  1.00  0.00    -0.352 N 
ATOM     27  C   UNL A   1      33.086  34.703  28.526  1.00  0.00     0.251 C 
ATOM     28  H   UNL A   1      31.936  33.945  27.054  1.00  0.00     0.163 HD
ATOM     29  O   UNL A   1      32.524  35.781  28.590  1.00  0.00    -0.269 OA
BRANCH  27  30
ATOM     30  C   UNL A   1      34.243  34.396  29.385  1.00  0.00     0.039 A 
ATOM     31  C   UNL A   1      34.029  33.778  30.617  1.00  0.00     0.014 A 
ATOM     32  C   UNL A   1      35.528  34.564  28.865  1.00  0.00     0.014 A 
ATOM     33  C   UNL A   1      35.121  33.252  31.309  1.00  0.00     0.010 A 
ATOM     34  C   UNL A   1      36.598  33.968  29.515  1.00  0.00     0.010 A 
ATOM     35  C   UNL A   1      36.404  33.307  30.741  1.00  0.00    -0.014 A 
BRANCH  35  36
ATOM     36  C   UNL A   1      37.584  32.713  31.414  1.00  0.00     0.031 A 
ATOM     37  C   UNL A   1      38.291  31.565  30.754  1.00  0.00     0.074 A 
ATOM     38  C   UNL A   1      37.945  33.122  32.645  1.00  0.00     0.049 A 
ATOM     39  N   UNL A   1      39.216  30.774  31.231  1.00  0.00    -0.248 NA
ATOM     40  C   UNL A   1      37.860  31.234  29.385  1.00  0.00     0.031 C 
ATOM     41  C   UNL A   1      37.307  34.196  33.407  1.00  0.00     0.029 A 
ATOM     42  N   UNL A   1      38.930  32.661  33.482  1.00  0.00    -0.354 N 
ATOM     43  C   UNL A   1      39.444  29.829  30.240  1.00  0.00     0.074 A 
ATOM     44  C   UNL A   1      38.529  30.114  29.157  1.00  0.00     0.031 C 
ATOM     45  C   UNL A   1      37.926  34.321  34.593  1.00  0.00     0.029 A 
ATOM     46  C   UNL A   1      38.976  33.311  34.691  1.00  0.00     0.049 A 
ATOM     47  H   UNL A   1      39.545  31.931  33.240  1.00  0.00     0.167 HD
ATOM     48  C   UNL A   1      40.350  28.825  30.227  1.00  0.00     0.037 A 
ATOM     49  C   UNL A   1      39.771  33.106  35.759  1.00  0.00     0.037 A 
ATOM     50  C   UNL A   1      41.295  28.583  31.282  1.00  0.00     0.049 A 
ATOM     51  C   UNL A   1      40.803  32.011  35.703  1.00  0.00     0.074 A 
ATOM     52  C   UNL A   1      42.302  27.637  31.340  1.00  0.00     0.029 A 
ATOM     53  N   UNL A   1      41.355  29.309  32.464  1.00  0.00    -0.354 N 
ATOM     54  N   UNL A   1      41.045  31.151  34.743  1.00  0.00    -0.248 NA
ATOM     55  C   UNL A   1      41.676  31.859  36.876  1.00  0.00     0.031 C 
ATOM     56  C   UNL A   1      42.955  27.772  32.569  1.00  0.00     0.029 A 
ATOM     57  C   UNL A   1      42.380  28.829  33.260  1.00  0.00     0.049 A 
ATOM     58  H   UNL A   1      40.757  30.055  32.700  1.00  0.00     0.167 HD
ATOM     59  C   UNL A   1      42.114  30.382  35.179  1.00  0.00     0.074 A 
ATOM     60  C   UNL A   1      42.479  30.877  36.491  1.00  0.00     0.031 C 
ATOM     61  C   UNL A   1      42.741  29.359  34.549  1.00  0.00     0.037 A 
BRANCH  48  62
ATOM     62  C   UNL A   1      40.359  27.922  29.030  1.00  0.00     0.064 A 
ATOM     63  C   UNL A   1      41.103  28.230  27.880  1.00  0.00     0.173 A 
ATOM     64  C   UNL A   1      39.614  26.734  29.031  1.00  0.00     0.173 A 
ATOM     65  F   UNL A   1      41.818  29.364  27.823  1.00  0.00    -0.203 F 
ATOM     66  C   UNL A   1      41.070  27.401  26.763  1.00  0.00     0.198 A 
ATOM     67  C   UNL A   1      39.609  25.890  27.923  1.00  0.00     0.198 A 
ATOM     68  F   UNL A   1      38.886  26.392  30.105  1.00  0.00    -0.203 F 
ATOM     69  F   UNL A   1      41.738  27.749  25.654  1.00  0.00    -0.200 F 
ATOM     70  C   UNL A   1      40.328  26.230  26.787  1.00  0.00     0.200 A 
ATOM     71  F   UNL A   1      38.898  24.755  27.950  1.00  0.00    -0.200 F 
ATOM     72  F   UNL A   1      40.296  25.435  25.709  1.00  0.00    -0.200 F 
ENDBRANCH  48  62
BRANCH  49  73
ATOM     73  C   UNL A   1      39.648  33.978  36.955  1.00  0.00     0.064 A 
ATOM     74  C   UNL A   1      40.314  35.210  37.013  1.00  0.00     0.173 A 
ATOM     75  C   UNL A   1      38.864  33.605  38.056  1.00  0.00     0.173 A 
ATOM     76  F   UNL A   1      41.091  35.599  35.992  1.00  0.00    -0.203 F 
ATOM     77  C   UNL A   1      40.214  36.029  38.136  1.00  0.00     0.198 A 
ATOM     78  C   UNL A   1      38.747  34.437  39.168  1.00  0.00     0.198 A 
ATOM     79  F   UNL A   1      38.203  32.439  38.047  1.00  0.00    -0.203 F 
ATOM     80  F   UNL A   1      40.892  37.185  38.181  1.00  0.00    -0.200 F 
ATOM     81  C   UNL A   1      39.427  35.645  39.211  1.00  0.00     0.200 A 
ATOM     82  F   UNL A   1      37.975  34.068  40.200  1.00  0.00    -0.200 F 
ATOM     83  F   UNL A   1      39.327  36.436  40.288  1.00  0.00    -0.200 F 
ENDBRANCH  49  73
BRANCH  61  84
ATOM     84  C   UNL A   1      43.921  28.741  35.237  1.00  0.00     0.064 A 
ATOM     85  C   UNL A   1      45.224  29.215  35.034  1.00  0.00     0.173 A 
ATOM     86  C   UNL A   1      43.729  27.711  36.171  1.00  0.00     0.173 A 
ATOM     87  F   UNL A   1      45.456  30.189  34.142  1.00  0.00    -0.203 F 
ATOM     88  C   UNL A   1      46.296  28.671  35.734  1.00  0.00     0.198 A 
ATOM     89  C   UNL A   1      44.801  27.187  36.886  1.00  0.00     0.198 A 
ATOM     90  F   UNL A   1      42.499  27.229  36.404  1.00  0.00    -0.203 F 
ATOM     91  F   UNL A   1      47.539  29.117  35.505  1.00  0.00    -0.200 F 
ATOM     92  C   UNL A   1      46.084  27.664  36.666  1.00  0.00     0.200 A 
ATOM     93  F   UNL A   1      44.592  26.223  37.794  1.00  0.00    -0.200 F 
ATOM     94  F   UNL A   1      47.117  27.153  37.349  1.00  0.00    -0.200 F 
ENDBRANCH  61  84
ENDBRANCH  35  36
ENDBRANCH  27  30
ENDBRANCH  25  26
ENDBRANCH  24  25
ENDBRANCH  23  24
ENDBRANCH   1  23
TORSDOF 16
ENDMDL
