MODEL 1
REMARK VINA RESULT:     -12.7      0.000      0.000
REMARK SMILES CCC[C@]1(C(=O)NCCCCNC(=O)c2ccc(-c3c4nc(c(-c5c(F)c(F)c(F)c(F)c5F)c5ccc([nH]5)c(-c5c(F)c(F)c(F)c(F)c5F)c5nc(c(-c6c(F)c(F)c(F)c(F)c6F)c6ccc3[nH]6)C=C5)C=C4)cc2)CCCN(C(=O)N[C@H]2CCOC2)C1
REMARK SMILES IDX 9 1 8 2 7 3 5 4 6 5 4 7 78 8 90 9 79 10 81 11 80 12 3 13
REMARK SMILES IDX 2 14 1 15 82 16 83 17 84 18 85 20 86 21 89 22 87 23 88 24
REMARK SMILES IDX 10 25 11 26 12 27 13 28 14 30 15 31 16 32 77 33 17 34 76 35
REMARK SMILES IDX 18 36 19 37 20 38 70 39 21 40 75 41 69 42 71 43 22 44 74 45
REMARK SMILES IDX 68 46 67 47 23 49 55 50 35 51 54 52 36 53 39 54 53 55 72 56
REMARK SMILES IDX 37 57 38 58 52 60 73 61 40 62 24 63 25 64 33 65 26 66 27 67
REMARK SMILES IDX 31 68 34 69 28 70 29 71 32 72 30 73 56 74 57 75 65 76 58 77
REMARK SMILES IDX 59 78 63 79 66 80 60 81 61 82 64 83 62 84 41 85 42 86 50 87
REMARK SMILES IDX 43 88 44 89 48 90 51 91 45 92 46 93 49 94 47 95
REMARK H PARENT 7 6 84 19 12 29 71 48 39 59
REMARK Flexibility Score: inf
ROOT
ATOM      1  C   UNL A   1      31.605  27.695  25.843  1.00  0.00     0.023 C 
ENDROOT
BRANCH   1   2
ATOM      2  C   UNL A   1      32.294  26.469  26.448  1.00  0.00     0.116 C 
BRANCH   2   3
ATOM      3  N   UNL A   1      31.379  25.419  26.858  1.00  0.00    -0.356 N 
ATOM      4  C   UNL A   1      31.343  24.074  26.596  1.00  0.00     0.228 C 
ATOM      5  O   UNL A   1      30.576  23.441  27.323  1.00  0.00    -0.274 OA
ATOM      6  H   UNL A   1      30.644  25.732  27.433  1.00  0.00     0.163 HD
BRANCH   4   7
ATOM      7  C   UNL A   1      32.257  23.403  25.527  1.00  0.00     0.067 C 
ATOM      8  C   UNL A   1      33.755  23.596  25.927  1.00  0.00     0.020 C 
ATOM      9  C   UNL A   1      31.801  21.908  25.495  1.00  0.00     0.138 C 
ATOM     10  C   UNL A   1      34.692  22.406  25.695  1.00  0.00     0.023 C 
ATOM     11  N   UNL A   1      32.858  21.014  25.007  1.00  0.00    -0.324 N 
ATOM     12  C   UNL A   1      34.027  21.044  25.842  1.00  0.00     0.121 C 
BRANCH   7  13
ATOM     13  C   UNL A   1      32.118  23.944  24.044  1.00  0.00     0.018 C 
BRANCH  13  14
ATOM     14  C   UNL A   1      30.750  24.052  23.363  1.00  0.00    -0.002 C 
ATOM     15  C   UNL A   1      30.072  25.404  23.499  1.00  0.00     0.004 C 
ENDBRANCH  13  14
ENDBRANCH   7  13
BRANCH  11  16
ATOM     16  C   UNL A   1      32.649  20.295  23.876  1.00  0.00     0.317 C 
ATOM     17  O   UNL A   1      32.152  20.812  22.870  1.00  0.00    -0.249 OA
ATOM     18  N   UNL A   1      32.980  19.006  23.720  1.00  0.00    -0.333 N 
ATOM     19  H   UNL A   1      32.751  18.736  22.801  1.00  0.00     0.165 HD
BRANCH  18  20
ATOM     20  C   UNL A   1      33.560  17.847  24.413  1.00  0.00     0.112 C 
ATOM     21  C   UNL A   1      32.527  17.314  25.404  1.00  0.00     0.056 C 
ATOM     22  C   UNL A   1      33.855  16.553  23.665  1.00  0.00     0.185 C 
ATOM     23  C   UNL A   1      32.976  15.900  25.702  1.00  0.00     0.162 C 
ATOM     24  O   UNL A   1      33.783  15.475  24.607  1.00  0.00    -0.379 OA
ENDBRANCH  18  20
ENDBRANCH  11  16
ENDBRANCH   4   7
ENDBRANCH   2   3
ENDBRANCH   1   2
BRANCH   1  25
ATOM     25  C   UNL A   1      31.770  28.983  26.638  1.00  0.00     0.023 C 
BRANCH  25  26
ATOM     26  C   UNL A   1      32.883  29.890  26.146  1.00  0.00     0.116 C 
BRANCH  26  27
ATOM     27  N   UNL A   1      32.687  31.282  26.520  1.00  0.00    -0.352 N 
ATOM     28  C   UNL A   1      33.441  32.070  27.356  1.00  0.00     0.251 C 
ATOM     29  H   UNL A   1      31.904  31.723  26.118  1.00  0.00     0.163 HD
ATOM     30  O   UNL A   1      33.058  33.187  27.665  1.00  0.00    -0.269 OA
BRANCH  28  31
ATOM     31  C   UNL A   1      34.700  31.530  27.911  1.00  0.00     0.039 A 
ATOM     32  C   UNL A   1      35.803  32.379  28.002  1.00  0.00     0.014 A 
ATOM     33  C   UNL A   1      34.781  30.211  28.367  1.00  0.00     0.014 A 
ATOM     34  C   UNL A   1      36.969  31.921  28.612  1.00  0.00     0.010 A 
ATOM     35  C   UNL A   1      35.910  29.787  29.059  1.00  0.00     0.010 A 
ATOM     36  C   UNL A   1      37.018  30.637  29.182  1.00  0.00    -0.014 A 
BRANCH  36  37
ATOM     37  C   UNL A   1      38.225  30.190  29.919  1.00  0.00     0.031 A 
ATOM     38  C   UNL A   1      38.491  30.673  31.316  1.00  0.00     0.074 A 
ATOM     39  C   UNL A   1      39.092  29.360  29.310  1.00  0.00     0.049 A 
ATOM     40  N   UNL A   1      39.462  30.347  32.132  1.00  0.00    -0.248 NA
ATOM     41  C   UNL A   1      37.563  31.675  31.864  1.00  0.00     0.031 C 
ATOM     42  C   UNL A   1      38.980  28.886  27.929  1.00  0.00     0.029 A 
ATOM     43  N   UNL A   1      40.235  28.759  29.775  1.00  0.00    -0.354 N 
ATOM     44  C   UNL A   1      39.260  31.098  33.281  1.00  0.00     0.074 A 
ATOM     45  C   UNL A   1      38.116  31.948  33.035  1.00  0.00     0.031 C 
ATOM     46  C   UNL A   1      39.982  28.031  27.674  1.00  0.00     0.029 A 
ATOM     47  C   UNL A   1      40.827  27.923  28.859  1.00  0.00     0.049 A 
ATOM     48  H   UNL A   1      40.597  28.914  30.677  1.00  0.00     0.167 HD
ATOM     49  C   UNL A   1      39.948  31.059  34.447  1.00  0.00     0.037 A 
ATOM     50  C   UNL A   1      41.920  27.148  28.970  1.00  0.00     0.037 A 
ATOM     51  C   UNL A   1      41.080  30.202  34.688  1.00  0.00     0.049 A 
ATOM     52  C   UNL A   1      42.659  27.115  30.281  1.00  0.00     0.074 A 
ATOM     53  C   UNL A   1      41.813  30.043  35.851  1.00  0.00     0.029 A 
ATOM     54  N   UNL A   1      41.649  29.361  33.740  1.00  0.00    -0.354 N 
ATOM     55  N   UNL A   1      42.403  27.760  31.393  1.00  0.00    -0.248 NA
ATOM     56  C   UNL A   1      43.828  26.231  30.355  1.00  0.00     0.031 C 
ATOM     57  C   UNL A   1      42.859  29.151  35.591  1.00  0.00     0.029 A 
ATOM     58  C   UNL A   1      42.740  28.702  34.285  1.00  0.00     0.049 A 
ATOM     59  H   UNL A   1      41.326  29.250  32.817  1.00  0.00     0.167 HD
ATOM     60  C   UNL A   1      43.364  27.344  32.305  1.00  0.00     0.074 A 
ATOM     61  C   UNL A   1      44.186  26.365  31.622  1.00  0.00     0.031 C 
ATOM     62  C   UNL A   1      43.555  27.739  33.589  1.00  0.00     0.037 A 
BRANCH  49  63
ATOM     63  C   UNL A   1      39.493  31.969  35.553  1.00  0.00     0.064 A 
ATOM     64  C   UNL A   1      39.991  33.275  35.685  1.00  0.00     0.173 A 
ATOM     65  C   UNL A   1      38.519  31.545  36.470  1.00  0.00     0.173 A 
ATOM     66  F   UNL A   1      40.933  33.727  34.845  1.00  0.00    -0.203 F 
ATOM     67  C   UNL A   1      39.553  34.110  36.711  1.00  0.00     0.198 A 
ATOM     68  C   UNL A   1      38.058  32.395  37.472  1.00  0.00     0.198 A 
ATOM     69  F   UNL A   1      38.006  30.309  36.389  1.00  0.00    -0.203 F 
ATOM     70  F   UNL A   1      40.082  35.334  36.847  1.00  0.00    -0.200 F 
ATOM     71  C   UNL A   1      38.581  33.673  37.597  1.00  0.00     0.200 A 
ATOM     72  F   UNL A   1      37.109  31.976  38.321  1.00  0.00    -0.200 F 
ATOM     73  F   UNL A   1      38.153  34.482  38.577  1.00  0.00    -0.200 F 
ENDBRANCH  49  63
BRANCH  50  74
ATOM     74  C   UNL A   1      42.361  26.313  27.822  1.00  0.00     0.064 A 
ATOM     75  C   UNL A   1      43.365  26.756  26.947  1.00  0.00     0.173 A 
ATOM     76  C   UNL A   1      41.782  25.061  27.568  1.00  0.00     0.173 A 
ATOM     77  F   UNL A   1      43.938  27.953  27.139  1.00  0.00    -0.203 F 
ATOM     78  C   UNL A   1      43.752  25.991  25.849  1.00  0.00     0.198 A 
ATOM     79  C   UNL A   1      42.195  24.283  26.488  1.00  0.00     0.198 A 
ATOM     80  F   UNL A   1      40.824  24.586  28.377  1.00  0.00    -0.203 F 
ATOM     81  F   UNL A   1      44.675  26.463  25.000  1.00  0.00    -0.200 F 
ATOM     82  C   UNL A   1      43.171  24.753  25.623  1.00  0.00     0.200 A 
ATOM     83  F   UNL A   1      41.643  23.079  26.284  1.00  0.00    -0.200 F 
ATOM     84  F   UNL A   1      43.546  24.017  24.569  1.00  0.00    -0.200 F 
ENDBRANCH  50  74
BRANCH  62  85
ATOM     85  C   UNL A   1      44.684  27.088  34.338  1.00  0.00     0.064 A 
ATOM     86  C   UNL A   1      44.505  25.893  35.052  1.00  0.00     0.173 A 
ATOM     87  C   UNL A   1      45.960  27.672  34.350  1.00  0.00     0.173 A 
ATOM     88  F   UNL A   1      43.301  25.300  35.084  1.00  0.00    -0.203 F 
ATOM     89  C   UNL A   1      45.545  25.337  35.791  1.00  0.00     0.198 A 
ATOM     90  C   UNL A   1      47.009  27.091  35.057  1.00  0.00     0.198 A 
ATOM     91  F   UNL A   1      46.191  28.809  33.675  1.00  0.00    -0.203 F 
ATOM     92  F   UNL A   1      45.328  24.238  36.528  1.00  0.00    -0.200 F 
ATOM     93  C   UNL A   1      46.796  25.934  35.791  1.00  0.00     0.200 A 
ATOM     94  F   UNL A   1      48.222  27.661  35.042  1.00  0.00    -0.200 F 
ATOM     95  F   UNL A   1      47.795  25.401  36.508  1.00  0.00    -0.200 F 
ENDBRANCH  62  85
ENDBRANCH  36  37
ENDBRANCH  28  31
ENDBRANCH  26  27
ENDBRANCH  25  26
ENDBRANCH   1  25
TORSDOF 15
ENDMDL
MODEL 2
REMARK VINA RESULT:     -12.6      0.395      1.668
REMARK SMILES CCC[C@]1(C(=O)NCCCCNC(=O)c2ccc(-c3c4nc(c(-c5c(F)c(F)c(F)c(F)c5F)c5ccc([nH]5)c(-c5c(F)c(F)c(F)c(F)c5F)c5nc(c(-c6c(F)c(F)c(F)c(F)c6F)c6ccc3[nH]6)C=C5)C=C4)cc2)CCCN(C(=O)N[C@H]2CCOC2)C1
REMARK SMILES IDX 9 1 8 2 7 3 5 4 6 5 4 7 78 8 90 9 79 10 81 11 80 12 3 13
REMARK SMILES IDX 2 14 1 15 82 16 83 17 84 18 85 20 86 21 89 22 87 23 88 24
REMARK SMILES IDX 10 25 11 26 12 27 13 28 14 30 15 31 16 32 77 33 17 34 76 35
REMARK SMILES IDX 18 36 19 37 20 38 70 39 21 40 75 41 69 42 71 43 22 44 74 45
REMARK SMILES IDX 68 46 67 47 23 49 55 50 35 51 54 52 36 53 39 54 53 55 72 56
REMARK SMILES IDX 37 57 38 58 52 60 73 61 40 62 24 63 25 64 33 65 26 66 27 67
REMARK SMILES IDX 31 68 34 69 28 70 29 71 32 72 30 73 56 74 57 75 65 76 58 77
REMARK SMILES IDX 59 78 63 79 66 80 60 81 61 82 64 83 62 84 41 85 42 86 50 87
REMARK SMILES IDX 43 88 44 89 48 90 51 91 45 92 46 93 49 94 47 95
REMARK H PARENT 7 6 84 19 12 29 71 48 39 59
REMARK Flexibility Score: inf
ROOT
ATOM      1  C   UNL A   1      32.015  27.654  27.098  1.00  0.00     0.023 C 
ENDROOT
BRANCH   1   2
ATOM      2  C   UNL A   1      32.071  26.373  26.263  1.00  0.00     0.116 C 
BRANCH   2   3
ATOM      3  N   UNL A   1      31.474  25.218  26.909  1.00  0.00    -0.356 N 
ATOM      4  C   UNL A   1      31.611  23.871  26.697  1.00  0.00     0.228 C 
ATOM      5  O   UNL A   1      31.158  23.171  27.604  1.00  0.00    -0.274 OA
ATOM      6  H   UNL A   1      30.852  25.446  27.637  1.00  0.00     0.163 HD
BRANCH   4   7
ATOM      7  C   UNL A   1      32.350  23.287  25.456  1.00  0.00     0.067 C 
ATOM      8  C   UNL A   1      33.893  23.418  25.660  1.00  0.00     0.020 C 
ATOM      9  C   UNL A   1      31.851  21.809  25.353  1.00  0.00     0.138 C 
ATOM     10  C   UNL A   1      34.755  22.239  25.194  1.00  0.00     0.023 C 
ATOM     11  N   UNL A   1      32.805  20.948  24.644  1.00  0.00    -0.324 N 
ATOM     12  C   UNL A   1      34.077  20.881  25.308  1.00  0.00     0.121 C 
BRANCH   7  13
ATOM     13  C   UNL A   1      32.025  23.966  24.061  1.00  0.00     0.018 C 
BRANCH  13  14
ATOM     14  C   UNL A   1      30.596  24.010  23.514  1.00  0.00    -0.002 C 
ATOM     15  C   UNL A   1      29.935  25.377  23.553  1.00  0.00     0.004 C 
ENDBRANCH  13  14
ENDBRANCH   7  13
BRANCH  11  16
ATOM     16  C   UNL A   1      32.422  20.341  23.493  1.00  0.00     0.317 C 
ATOM     17  O   UNL A   1      32.101  20.998  22.498  1.00  0.00    -0.249 OA
ATOM     18  N   UNL A   1      32.388  19.015  23.306  1.00  0.00    -0.333 N 
ATOM     19  H   UNL A   1      32.106  18.839  22.379  1.00  0.00     0.165 HD
BRANCH  18  20
ATOM     20  C   UNL A   1      32.616  17.724  23.973  1.00  0.00     0.112 C 
ATOM     21  C   UNL A   1      34.066  17.309  23.733  1.00  0.00     0.056 C 
ATOM     22  C   UNL A   1      32.589  17.611  25.491  1.00  0.00     0.185 C 
ATOM     23  C   UNL A   1      34.353  16.283  24.806  1.00  0.00     0.162 C 
ATOM     24  O   UNL A   1      33.426  16.509  25.865  1.00  0.00    -0.379 OA
ENDBRANCH  18  20
ENDBRANCH  11  16
ENDBRANCH   4   7
ENDBRANCH   2   3
ENDBRANCH   1   2
BRANCH   1  25
ATOM     25  C   UNL A   1      31.718  28.923  26.312  1.00  0.00     0.023 C 
BRANCH  25  26
ATOM     26  C   UNL A   1      32.920  29.822  26.087  1.00  0.00     0.116 C 
BRANCH  26  27
ATOM     27  N   UNL A   1      32.682  31.199  26.493  1.00  0.00    -0.352 N 
ATOM     28  C   UNL A   1      33.413  31.990  27.346  1.00  0.00     0.251 C 
ATOM     29  H   UNL A   1      31.887  31.625  26.100  1.00  0.00     0.163 HD
ATOM     30  O   UNL A   1      32.996  33.088  27.680  1.00  0.00    -0.269 OA
BRANCH  28  31
ATOM     31  C   UNL A   1      34.687  31.476  27.889  1.00  0.00     0.039 A 
ATOM     32  C   UNL A   1      35.757  32.362  28.024  1.00  0.00     0.014 A 
ATOM     33  C   UNL A   1      34.815  30.144  28.294  1.00  0.00     0.014 A 
ATOM     34  C   UNL A   1      36.935  31.923  28.624  1.00  0.00     0.010 A 
ATOM     35  C   UNL A   1      35.954  29.735  28.977  1.00  0.00     0.010 A 
ATOM     36  C   UNL A   1      37.029  30.620  29.143  1.00  0.00    -0.014 A 
BRANCH  36  37
ATOM     37  C   UNL A   1      38.246  30.190  29.871  1.00  0.00     0.031 A 
ATOM     38  C   UNL A   1      38.500  30.652  31.278  1.00  0.00     0.074 A 
ATOM     39  C   UNL A   1      39.135  29.394  29.247  1.00  0.00     0.049 A 
ATOM     40  N   UNL A   1      39.479  30.334  32.087  1.00  0.00    -0.248 NA
ATOM     41  C   UNL A   1      37.547  31.618  31.845  1.00  0.00     0.031 C 
ATOM     42  C   UNL A   1      39.034  28.945  27.856  1.00  0.00     0.029 A 
ATOM     43  N   UNL A   1      40.293  28.814  29.700  1.00  0.00    -0.354 N 
ATOM     44  C   UNL A   1      39.258  31.056  33.252  1.00  0.00     0.074 A 
ATOM     45  C   UNL A   1      38.093  31.883  33.022  1.00  0.00     0.031 C 
ATOM     46  C   UNL A   1      40.058  28.121  27.585  1.00  0.00     0.029 A 
ATOM     47  C   UNL A   1      40.905  28.011  28.768  1.00  0.00     0.049 A 
ATOM     48  H   UNL A   1      40.650  28.960  30.605  1.00  0.00     0.167 HD
ATOM     49  C   UNL A   1      39.948  31.012  34.417  1.00  0.00     0.037 A 
ATOM     50  C   UNL A   1      42.019  27.262  28.864  1.00  0.00     0.037 A 
ATOM     51  C   UNL A   1      41.101  30.179  34.641  1.00  0.00     0.049 A 
ATOM     52  C   UNL A   1      42.757  27.222  30.174  1.00  0.00     0.074 A 
ATOM     53  C   UNL A   1      41.837  30.017  35.801  1.00  0.00     0.029 A 
ATOM     54  N   UNL A   1      41.691  29.373  33.677  1.00  0.00    -0.354 N 
ATOM     55  N   UNL A   1      42.485  27.838  31.299  1.00  0.00    -0.248 NA
ATOM     56  C   UNL A   1      43.949  26.367  30.231  1.00  0.00     0.031 C 
ATOM     57  C   UNL A   1      42.906  29.157  35.524  1.00  0.00     0.029 A 
ATOM     58  C   UNL A   1      42.799  28.731  34.210  1.00  0.00     0.049 A 
ATOM     59  H   UNL A   1      41.370  29.272  32.752  1.00  0.00     0.167 HD
ATOM     60  C   UNL A   1      43.457  27.429  32.203  1.00  0.00     0.074 A 
ATOM     61  C   UNL A   1      44.303  26.485  31.501  1.00  0.00     0.031 C 
ATOM     62  C   UNL A   1      43.638  27.803  33.494  1.00  0.00     0.037 A 
BRANCH  49  63
ATOM     63  C   UNL A   1      39.469  31.888  35.540  1.00  0.00     0.064 A 
ATOM     64  C   UNL A   1      38.509  31.444  36.464  1.00  0.00     0.173 A 
ATOM     65  C   UNL A   1      40.003  33.173  35.720  1.00  0.00     0.173 A 
ATOM     66  F   UNL A   1      37.955  30.230  36.331  1.00  0.00    -0.203 F 
ATOM     67  C   UNL A   1      38.080  32.264  37.505  1.00  0.00     0.198 A 
ATOM     68  C   UNL A   1      39.598  33.976  36.783  1.00  0.00     0.198 A 
ATOM     69  F   UNL A   1      40.926  33.647  34.871  1.00  0.00    -0.203 F 
ATOM     70  F   UNL A   1      37.125  31.837  38.342  1.00  0.00    -0.200 F 
ATOM     71  C   UNL A   1      38.632  33.526  37.669  1.00  0.00     0.200 A 
ATOM     72  F   UNL A   1      40.142  35.190  36.949  1.00  0.00    -0.200 F 
ATOM     73  F   UNL A   1      38.227  34.309  38.678  1.00  0.00    -0.200 F 
ENDBRANCH  49  63
BRANCH  50  74
ATOM     74  C   UNL A   1      42.481  26.462  27.699  1.00  0.00     0.064 A 
ATOM     75  C   UNL A   1      43.457  26.956  26.822  1.00  0.00     0.173 A 
ATOM     76  C   UNL A   1      41.949  25.191  27.433  1.00  0.00     0.173 A 
ATOM     77  F   UNL A   1      43.984  28.173  27.025  1.00  0.00    -0.203 F 
ATOM     78  C   UNL A   1      43.863  26.223  25.709  1.00  0.00     0.198 A 
ATOM     79  C   UNL A   1      42.381  24.445  26.339  1.00  0.00     0.198 A 
ATOM     80  F   UNL A   1      41.019  24.667  28.245  1.00  0.00    -0.203 F 
ATOM     81  F   UNL A   1      44.757  26.744  24.858  1.00  0.00    -0.200 F 
ATOM     82  C   UNL A   1      43.329  24.966  25.471  1.00  0.00     0.200 A 
ATOM     83  F   UNL A   1      41.876  23.223  26.123  1.00  0.00    -0.200 F 
ATOM     84  F   UNL A   1      43.722  24.261  24.403  1.00  0.00    -0.200 F 
ENDBRANCH  50  74
BRANCH  62  85
ATOM     85  C   UNL A   1      44.783  27.166  34.231  1.00  0.00     0.064 A 
ATOM     86  C   UNL A   1      46.056  27.755  34.268  1.00  0.00     0.173 A 
ATOM     87  C   UNL A   1      44.607  25.946  34.900  1.00  0.00     0.173 A 
ATOM     88  F   UNL A   1      46.282  28.917  33.633  1.00  0.00    -0.203 F 
ATOM     89  C   UNL A   1      47.121  27.122  34.903  1.00  0.00     0.198 A 
ATOM     90  C   UNL A   1      45.664  25.335  35.569  1.00  0.00     0.198 A 
ATOM     91  F   UNL A   1      43.408  25.343  34.907  1.00  0.00    -0.203 F 
ATOM     92  F   UNL A   1      48.345  27.666  34.858  1.00  0.00    -0.200 F 
ATOM     93  C   UNL A   1      46.924  25.914  35.555  1.00  0.00     0.200 A 
ATOM     94  F   UNL A   1      45.468  24.176  36.213  1.00  0.00    -0.200 F 
ATOM     95  F   UNL A   1      47.951  25.303  36.160  1.00  0.00    -0.200 F 
ENDBRANCH  62  85
ENDBRANCH  36  37
ENDBRANCH  28  31
ENDBRANCH  26  27
ENDBRANCH  25  26
ENDBRANCH   1  25
TORSDOF 15
ENDMDL
MODEL 3
REMARK VINA RESULT:     -12.4      2.271      7.887
REMARK SMILES CCC[C@]1(C(=O)NCCCCNC(=O)c2ccc(-c3c4nc(c(-c5c(F)c(F)c(F)c(F)c5F)c5ccc([nH]5)c(-c5c(F)c(F)c(F)c(F)c5F)c5nc(c(-c6c(F)c(F)c(F)c(F)c6F)c6ccc3[nH]6)C=C5)C=C4)cc2)CCCN(C(=O)N[C@H]2CCOC2)C1
REMARK SMILES IDX 9 1 8 2 7 3 5 4 6 5 4 7 78 8 90 9 79 10 81 11 80 12 3 13
REMARK SMILES IDX 2 14 1 15 82 16 83 17 84 18 85 20 86 21 89 22 87 23 88 24
REMARK SMILES IDX 10 25 11 26 12 27 13 28 14 30 15 31 16 32 77 33 17 34 76 35
REMARK SMILES IDX 18 36 19 37 20 38 70 39 21 40 75 41 69 42 71 43 22 44 74 45
REMARK SMILES IDX 68 46 67 47 23 49 55 50 35 51 54 52 36 53 39 54 53 55 72 56
REMARK SMILES IDX 37 57 38 58 52 60 73 61 40 62 24 63 25 64 33 65 26 66 27 67
REMARK SMILES IDX 31 68 34 69 28 70 29 71 32 72 30 73 56 74 57 75 65 76 58 77
REMARK SMILES IDX 59 78 63 79 66 80 60 81 61 82 64 83 62 84 41 85 42 86 50 87
REMARK SMILES IDX 43 88 44 89 48 90 51 91 45 92 46 93 49 94 47 95
REMARK H PARENT 7 6 84 19 12 29 71 48 39 59
REMARK Flexibility Score: inf
ROOT
ATOM      1  C   UNL A   1      31.521  30.808  26.751  1.00  0.00     0.023 C 
ENDROOT
BRANCH   1   2
ATOM      2  C   UNL A   1      32.187  30.035  25.611  1.00  0.00     0.116 C 
BRANCH   2   3
ATOM      3  N   UNL A   1      31.343  29.859  24.443  1.00  0.00    -0.356 N 
ATOM      4  C   UNL A   1      30.969  28.746  23.736  1.00  0.00     0.228 C 
ATOM      5  O   UNL A   1      30.031  28.935  22.960  1.00  0.00    -0.274 OA
ATOM      6  H   UNL A   1      30.969  30.699  24.091  1.00  0.00     0.163 HD
BRANCH   4   7
ATOM      7  C   UNL A   1      31.623  27.350  23.962  1.00  0.00     0.067 C 
ATOM      8  C   UNL A   1      30.826  26.573  25.059  1.00  0.00     0.020 C 
ATOM      9  C   UNL A   1      31.592  26.664  22.557  1.00  0.00     0.138 C 
ATOM     10  C   UNL A   1      30.613  25.074  24.829  1.00  0.00     0.023 C 
ATOM     11  N   UNL A   1      31.625  25.200  22.653  1.00  0.00    -0.324 N 
ATOM     12  C   UNL A   1      30.493  24.673  23.365  1.00  0.00     0.121 C 
BRANCH   7  13
ATOM     13  C   UNL A   1      33.138  27.350  24.426  1.00  0.00     0.018 C 
BRANCH  13  14
ATOM     14  C   UNL A   1      33.579  26.615  25.695  1.00  0.00    -0.002 C 
ATOM     15  C   UNL A   1      34.332  25.318  25.455  1.00  0.00     0.004 C 
ENDBRANCH  13  14
ENDBRANCH   7  13
BRANCH  11  16
ATOM     16  C   UNL A   1      32.663  24.522  22.102  1.00  0.00     0.317 C 
ATOM     17  O   UNL A   1      33.224  24.930  21.079  1.00  0.00    -0.249 OA
ATOM     18  N   UNL A   1      33.196  23.402  22.607  1.00  0.00    -0.333 N 
ATOM     19  H   UNL A   1      33.952  23.133  22.036  1.00  0.00     0.165 HD
BRANCH  18  20
ATOM     20  C   UNL A   1      33.071  22.425  23.699  1.00  0.00     0.112 C 
ATOM     21  C   UNL A   1      32.290  21.220  23.179  1.00  0.00     0.056 C 
ATOM     22  C   UNL A   1      34.292  21.695  24.243  1.00  0.00     0.185 C 
ATOM     23  C   UNL A   1      32.615  20.106  24.148  1.00  0.00     0.162 C 
ATOM     24  O   UNL A   1      33.852  20.438  24.773  1.00  0.00    -0.379 OA
ENDBRANCH  18  20
ENDBRANCH  11  16
ENDBRANCH   4   7
ENDBRANCH   2   3
ENDBRANCH   1   2
BRANCH   1  25
ATOM     25  C   UNL A   1      31.558  32.324  26.610  1.00  0.00     0.023 C 
BRANCH  25  26
ATOM     26  C   UNL A   1      32.712  32.997  27.330  1.00  0.00     0.116 C 
BRANCH  26  27
ATOM     27  N   UNL A   1      32.422  34.373  27.703  1.00  0.00    -0.352 N 
ATOM     28  C   UNL A   1      32.993  35.143  28.686  1.00  0.00     0.251 C 
ATOM     29  H   UNL A   1      31.718  34.815  27.177  1.00  0.00     0.163 HD
ATOM     30  O   UNL A   1      32.537  36.244  28.952  1.00  0.00    -0.269 OA
BRANCH  28  31
ATOM     31  C   UNL A   1      34.139  34.604  29.447  1.00  0.00     0.039 A 
ATOM     32  C   UNL A   1      33.902  34.061  30.710  1.00  0.00     0.014 A 
ATOM     33  C   UNL A   1      35.429  34.603  28.907  1.00  0.00     0.014 A 
ATOM     34  C   UNL A   1      34.950  33.459  31.402  1.00  0.00     0.010 A 
ATOM     35  C   UNL A   1      36.450  33.920  29.556  1.00  0.00     0.010 A 
ATOM     36  C   UNL A   1      36.222  33.346  30.814  1.00  0.00    -0.014 A 
BRANCH  36  37
ATOM     37  C   UNL A   1      37.307  32.615  31.512  1.00  0.00     0.031 A 
ATOM     38  C   UNL A   1      38.000  31.459  30.849  1.00  0.00     0.074 A 
ATOM     39  C   UNL A   1      37.650  32.989  32.759  1.00  0.00     0.049 A 
ATOM     40  N   UNL A   1      39.005  30.740  31.282  1.00  0.00    -0.248 NA
ATOM     41  C   UNL A   1      37.484  31.034  29.538  1.00  0.00     0.031 C 
ATOM     42  C   UNL A   1      36.996  34.046  33.534  1.00  0.00     0.029 A 
ATOM     43  N   UNL A   1      38.639  32.530  33.592  1.00  0.00    -0.354 N 
ATOM     44  C   UNL A   1      39.238  29.785  30.303  1.00  0.00     0.074 A 
ATOM     45  C   UNL A   1      38.229  29.969  29.284  1.00  0.00     0.031 C 
ATOM     46  C   UNL A   1      37.631  34.188  34.707  1.00  0.00     0.029 A 
ATOM     47  C   UNL A   1      38.713  33.212  34.783  1.00  0.00     0.049 A 
ATOM     48  H   UNL A   1      39.237  31.784  33.359  1.00  0.00     0.167 HD
ATOM     49  C   UNL A   1      40.224  28.858  30.245  1.00  0.00     0.037 A 
ATOM     50  C   UNL A   1      39.566  33.070  35.813  1.00  0.00     0.037 A 
ATOM     51  C   UNL A   1      41.232  28.688  31.259  1.00  0.00     0.049 A 
ATOM     52  C   UNL A   1      40.659  32.041  35.717  1.00  0.00     0.074 A 
ATOM     53  C   UNL A   1      42.308  27.818  31.271  1.00  0.00     0.029 A 
ATOM     54  N   UNL A   1      41.282  29.400  32.450  1.00  0.00    -0.354 N 
ATOM     55  N   UNL A   1      40.928  31.206  34.743  1.00  0.00    -0.248 NA
ATOM     56  C   UNL A   1      41.578  31.950  36.857  1.00  0.00     0.031 C 
ATOM     57  C   UNL A   1      42.975  27.964  32.493  1.00  0.00     0.029 A 
ATOM     58  C   UNL A   1      42.355  28.970  33.215  1.00  0.00     0.049 A 
ATOM     59  H   UNL A   1      40.648  30.106  32.712  1.00  0.00     0.167 HD
ATOM     60  C   UNL A   1      42.058  30.505  35.142  1.00  0.00     0.074 A 
ATOM     61  C   UNL A   1      42.442  31.040  36.433  1.00  0.00     0.031 C 
ATOM     62  C   UNL A   1      42.717  29.505  34.504  1.00  0.00     0.037 A 
BRANCH  49  63
ATOM     63  C   UNL A   1      40.262  27.959  29.041  1.00  0.00     0.064 A 
ATOM     64  C   UNL A   1      41.000  28.293  27.894  1.00  0.00     0.173 A 
ATOM     65  C   UNL A   1      39.584  26.731  29.048  1.00  0.00     0.173 A 
ATOM     66  F   UNL A   1      41.656  29.460  27.829  1.00  0.00    -0.203 F 
ATOM     67  C   UNL A   1      41.032  27.445  26.789  1.00  0.00     0.198 A 
ATOM     68  C   UNL A   1      39.647  25.870  27.954  1.00  0.00     0.198 A 
ATOM     69  F   UNL A   1      38.867  26.359  30.118  1.00  0.00    -0.203 F 
ATOM     70  F   UNL A   1      41.701  27.811  25.687  1.00  0.00    -0.200 F 
ATOM     71  C   UNL A   1      40.363  26.231  26.824  1.00  0.00     0.200 A 
ATOM     72  F   UNL A   1      39.011  24.691  27.994  1.00  0.00    -0.200 F 
ATOM     73  F   UNL A   1      40.404  25.411  25.764  1.00  0.00    -0.200 F 
ENDBRANCH  49  63
BRANCH  50  74
ATOM     74  C   UNL A   1      39.444  33.948  37.007  1.00  0.00     0.064 A 
ATOM     75  C   UNL A   1      40.041  35.218  37.036  1.00  0.00     0.173 A 
ATOM     76  C   UNL A   1      38.739  33.534  38.146  1.00  0.00     0.173 A 
ATOM     77  F   UNL A   1      40.740  35.653  35.977  1.00  0.00    -0.203 F 
ATOM     78  C   UNL A   1      39.960  36.026  38.168  1.00  0.00     0.198 A 
ATOM     79  C   UNL A   1      38.631  34.357  39.265  1.00  0.00     0.198 A 
ATOM     80  F   UNL A   1      38.142  32.333  38.168  1.00  0.00    -0.203 F 
ATOM     81  F   UNL A   1      40.585  37.211  38.187  1.00  0.00    -0.200 F 
ATOM     82  C   UNL A   1      39.250  35.598  39.280  1.00  0.00     0.200 A 
ATOM     83  F   UNL A   1      37.928  33.948  40.330  1.00  0.00    -0.200 F 
ATOM     84  F   UNL A   1      39.170  36.376  40.366  1.00  0.00    -0.200 F 
ENDBRANCH  50  74
BRANCH  62  85
ATOM     85  C   UNL A   1      43.933  28.949  35.188  1.00  0.00     0.064 A 
ATOM     86  C   UNL A   1      43.849  27.877  36.091  1.00  0.00     0.173 A 
ATOM     87  C   UNL A   1      45.201  29.501  34.946  1.00  0.00     0.173 A 
ATOM     88  F   UNL A   1      42.659  27.321  36.368  1.00  0.00    -0.203 F 
ATOM     89  C   UNL A   1      44.976  27.415  36.763  1.00  0.00     0.198 A 
ATOM     90  C   UNL A   1      46.333  29.009  35.590  1.00  0.00     0.198 A 
ATOM     91  F   UNL A   1      45.343  30.520  34.084  1.00  0.00    -0.203 F 
ATOM     92  F   UNL A   1      44.857  26.442  37.678  1.00  0.00    -0.200 F 
ATOM     93  C   UNL A   1      46.218  27.978  36.510  1.00  0.00     0.200 A 
ATOM     94  F   UNL A   1      47.534  29.544  35.331  1.00  0.00    -0.200 F 
ATOM     95  F   UNL A   1      47.301  27.536  37.162  1.00  0.00    -0.200 F 
ENDBRANCH  62  85
ENDBRANCH  36  37
ENDBRANCH  28  31
ENDBRANCH  26  27
ENDBRANCH  25  26
ENDBRANCH   1  25
TORSDOF 15
ENDMDL
