MODEL 1
REMARK VINA RESULT:     -13.2      0.000      0.000
REMARK SMILES COC(=O)c1c(-c2ccccc2Cl)csc1NC(=O)[C@@H]1[C@@H]2CC[C@@H](C2)[C@@H]1C(=O)NCCCCNC(=O)c1ccc(-c2c3nc(c(-c4c(F)c(F)c(F)c(F)c4F)c4ccc([nH]4)c(-c4c(F)c(F)c(F)c(F)c4F)c4nc(c(-c5c(F)c(F)c(F)c(F)c5F)c5ccc2[nH]5)C=C4)C=C3)cc1
REMARK SMILES IDX 30 1 29 2 27 3 28 4 26 6 20 7 21 8 22 9 25 10 24 11 23 12
REMARK SMILES IDX 18 13 17 14 19 16 16 17 5 18 6 19 14 20 15 21 3 22 4 23 2 24
REMARK SMILES IDX 1 25 7 26 8 27 12 28 9 29 11 30 13 31 10 32 31 33 32 34
REMARK SMILES IDX 33 35 34 36 35 37 36 39 37 40 38 41 99 42 39 43 98 44 40 45
REMARK SMILES IDX 41 46 42 47 92 48 43 49 97 50 91 51 93 52 44 53 96 54 90 55
REMARK SMILES IDX 89 56 45 58 77 59 57 60 76 61 58 62 61 63 75 64 94 65 59 66
REMARK SMILES IDX 60 67 74 69 95 70 62 71 46 72 47 73 55 74 48 75 49 76 53 77
REMARK SMILES IDX 56 78 50 79 51 80 54 81 52 82 78 83 79 84 87 85 80 86 81 87
REMARK SMILES IDX 85 88 88 89 82 90 83 91 86 92 84 93 63 94 64 95 72 96 65 97
REMARK SMILES IDX 66 98 70 99 73 100 67 101 68 102 71 103 69 104
REMARK H PARENT 29 5 17 15 34 38 93 57 61 68
REMARK Flexibility Score: inf
ROOT
ATOM      1  C   UNL A   1      32.518  29.910  26.075  1.00  0.00     0.116 C 
ENDROOT
BRANCH   1   2
ATOM      2  N   UNL A   1      33.415  29.792  24.941  1.00  0.00    -0.356 N 
ATOM      3  C   UNL A   1      33.436  28.893  23.911  1.00  0.00     0.224 C 
ATOM      4  O   UNL A   1      34.404  28.949  23.162  1.00  0.00    -0.275 OA
ATOM      5  H   UNL A   1      34.126  30.473  24.906  1.00  0.00     0.163 HD
BRANCH   3   6
ATOM      6  C   UNL A   1      32.255  27.948  23.746  1.00  0.00     0.094 C 
ATOM      7  C   UNL A   1      32.132  26.616  24.532  1.00  0.00     0.094 C 
ATOM      8  C   UNL A   1      31.756  25.592  23.421  1.00  0.00     0.002 C 
ATOM      9  C   UNL A   1      32.944  25.268  22.503  1.00  0.00     0.005 C 
ATOM     10  C   UNL A   1      30.923  26.458  22.468  1.00  0.00     0.009 C 
ATOM     11  C   UNL A   1      32.039  27.492  22.282  1.00  0.00     0.002 C 
ATOM     12  C   UNL A   1      33.205  26.605  21.798  1.00  0.00     0.005 C 
BRANCH   7  13
ATOM     13  C   UNL A   1      33.271  26.148  25.422  1.00  0.00     0.229 C 
ATOM     14  N   UNL A   1      33.365  24.899  25.955  1.00  0.00    -0.317 N 
ATOM     15  H   UNL A   1      34.072  24.848  26.638  1.00  0.00     0.170 HD
ATOM     16  O   UNL A   1      34.228  26.888  25.673  1.00  0.00    -0.274 OA
BRANCH  14  17
ATOM     17  C   UNL A   1      32.726  23.682  25.789  1.00  0.00     0.110 A 
ATOM     18  C   UNL A   1      33.261  22.585  25.110  1.00  0.00     0.102 A 
ATOM     19  C   UNL A   1      32.326  21.476  25.091  1.00  0.00     0.011 A 
ATOM     20  C   UNL A   1      31.156  21.787  25.752  1.00  0.00     0.076 A 
ATOM     21  S   UNL A   1      31.141  23.392  26.302  1.00  0.00    -0.125 S 
BRANCH  18  22
ATOM     22  C   UNL A   1      34.594  22.631  24.505  1.00  0.00     0.341 C 
ATOM     23  O   UNL A   1      34.772  22.567  23.292  1.00  0.00    -0.246 OA
BRANCH  22  24
ATOM     24  O   UNL A   1      35.603  22.706  25.416  1.00  0.00    -0.465 OA
ATOM     25  C   UNL A   1      36.198  21.452  25.750  1.00  0.00     0.282 C 
ENDBRANCH  22  24
ENDBRANCH  18  22
BRANCH  19  26
ATOM     26  C   UNL A   1      32.507  20.141  24.524  1.00  0.00     0.002 A 
ATOM     27  C   UNL A   1      32.910  19.101  25.376  1.00  0.00     0.010 A 
ATOM     28  C   UNL A   1      32.305  19.864  23.160  1.00  0.00     0.048 A 
ATOM     29  C   UNL A   1      33.112  17.812  24.878  1.00  0.00     0.001 A 
ATOM     30  C   UNL A   1      32.497  18.568  22.669  1.00  0.00     0.021 A 
ATOM     31  Cl  UNL A   1      31.838  21.080  22.021  1.00  0.00    -0.084 Cl
ATOM     32  C   UNL A   1      32.903  17.545  23.526  1.00  0.00     0.002 A 
ENDBRANCH  19  26
ENDBRANCH  14  17
ENDBRANCH   7  13
ENDBRANCH   3   6
ENDBRANCH   1   2
BRANCH   1  33
ATOM     33  C   UNL A   1      31.336  30.830  25.764  1.00  0.00     0.023 C 
BRANCH  33  34
ATOM     34  C   UNL A   1      31.187  32.039  26.700  1.00  0.00     0.023 C 
BRANCH  34  35
ATOM     35  C   UNL A   1      32.488  32.670  27.190  1.00  0.00     0.116 C 
BRANCH  35  36
ATOM     36  N   UNL A   1      32.328  34.046  27.626  1.00  0.00    -0.352 N 
ATOM     37  C   UNL A   1      33.047  34.767  28.548  1.00  0.00     0.251 C 
ATOM     38  H   UNL A   1      31.591  34.537  27.194  1.00  0.00     0.163 HD
ATOM     39  O   UNL A   1      32.680  35.900  28.848  1.00  0.00    -0.269 OA
BRANCH  37  40
ATOM     40  C   UNL A   1      34.235  34.184  29.214  1.00  0.00     0.039 A 
ATOM     41  C   UNL A   1      34.028  33.342  30.312  1.00  0.00     0.014 A 
ATOM     42  C   UNL A   1      35.538  34.473  28.799  1.00  0.00     0.014 A 
ATOM     43  C   UNL A   1      35.118  32.742  30.949  1.00  0.00     0.010 A 
ATOM     44  C   UNL A   1      36.623  33.828  29.398  1.00  0.00     0.010 A 
ATOM     45  C   UNL A   1      36.423  32.953  30.475  1.00  0.00    -0.014 A 
BRANCH  45  46
ATOM     46  C   UNL A   1      37.574  32.236  31.086  1.00  0.00     0.031 A 
ATOM     47  C   UNL A   1      38.062  32.595  32.462  1.00  0.00     0.074 A 
ATOM     48  C   UNL A   1      38.204  31.277  30.380  1.00  0.00     0.049 A 
ATOM     49  N   UNL A   1      39.059  32.087  33.144  1.00  0.00    -0.248 NA
ATOM     50  C   UNL A   1      37.352  33.679  33.157  1.00  0.00     0.031 C 
ATOM     51  C   UNL A   1      37.858  30.866  29.018  1.00  0.00     0.029 A 
ATOM     52  N   UNL A   1      39.268  30.474  30.708  1.00  0.00    -0.354 N 
ATOM     53  C   UNL A   1      39.095  32.786  34.343  1.00  0.00     0.074 A 
ATOM     54  C   UNL A   1      38.052  33.788  34.278  1.00  0.00     0.031 C 
ATOM     55  C   UNL A   1      38.679  29.875  28.635  1.00  0.00     0.029 A 
ATOM     56  C   UNL A   1      39.626  29.598  29.711  1.00  0.00     0.049 A 
ATOM     57  H   UNL A   1      39.732  30.521  31.575  1.00  0.00     0.167 HD
ATOM     58  C   UNL A   1      39.909  32.595  35.409  1.00  0.00     0.037 A 
ATOM     59  C   UNL A   1      40.606  28.677  29.670  1.00  0.00     0.037 A 
ATOM     60  C   UNL A   1      40.936  31.589  35.484  1.00  0.00     0.049 A 
ATOM     61  C   UNL A   1      41.494  28.489  30.869  1.00  0.00     0.074 A 
ATOM     62  C   UNL A   1      41.783  31.296  36.540  1.00  0.00     0.029 A 
ATOM     63  N   UNL A   1      41.257  30.711  34.461  1.00  0.00    -0.354 N 
ATOM     64  N   UNL A   1      41.474  29.115  32.021  1.00  0.00    -0.248 NA
ATOM     65  C   UNL A   1      42.536  27.457  30.766  1.00  0.00     0.031 C 
ATOM     66  C   UNL A   1      42.637  30.262  36.144  1.00  0.00     0.029 A 
ATOM     67  C   UNL A   1      42.298  29.883  34.856  1.00  0.00     0.049 A 
ATOM     68  H   UNL A   1      40.813  30.678  33.583  1.00  0.00     0.167 HD
ATOM     69  C   UNL A   1      42.479  28.537  32.784  1.00  0.00     0.074 A 
ATOM     70  C   UNL A   1      43.076  27.497  31.975  1.00  0.00     0.031 C 
ATOM     71  C   UNL A   1      42.875  28.847  34.043  1.00  0.00     0.037 A 
BRANCH  58  72
ATOM     72  C   UNL A   1      39.711  33.484  36.601  1.00  0.00     0.064 A 
ATOM     73  C   UNL A   1      40.349  34.731  36.695  1.00  0.00     0.173 A 
ATOM     74  C   UNL A   1      38.827  33.121  37.628  1.00  0.00     0.173 A 
ATOM     75  F   UNL A   1      41.211  35.120  35.743  1.00  0.00    -0.203 F 
ATOM     76  C   UNL A   1      40.122  35.572  37.780  1.00  0.00     0.198 A 
ATOM     77  C   UNL A   1      38.583  33.976  38.699  1.00  0.00     0.198 A 
ATOM     78  F   UNL A   1      38.186  31.943  37.583  1.00  0.00    -0.203 F 
ATOM     79  F   UNL A   1      40.768  36.743  37.864  1.00  0.00    -0.200 F 
ATOM     80  C   UNL A   1      39.234  35.199  38.777  1.00  0.00     0.200 A 
ATOM     81  F   UNL A   1      37.715  33.620  39.657  1.00  0.00    -0.200 F 
ATOM     82  F   UNL A   1      39.006  36.016  39.815  1.00  0.00    -0.200 F 
ENDBRANCH  58  72
BRANCH  59  83
ATOM     83  C   UNL A   1      40.792  27.839  28.457  1.00  0.00     0.064 A 
ATOM     84  C   UNL A   1      41.604  28.275  27.400  1.00  0.00     0.173 A 
ATOM     85  C   UNL A   1      40.144  26.604  28.316  1.00  0.00     0.173 A 
ATOM     86  F   UNL A   1      42.227  29.461  27.479  1.00  0.00    -0.203 F 
ATOM     87  C   UNL A   1      41.738  27.520  26.236  1.00  0.00     0.198 A 
ATOM     88  C   UNL A   1      40.300  25.836  27.164  1.00  0.00     0.198 A 
ATOM     89  F   UNL A   1      39.359  26.141  29.301  1.00  0.00    -0.203 F 
ATOM     90  F   UNL A   1      42.476  27.986  25.220  1.00  0.00    -0.200 F 
ATOM     91  C   UNL A   1      41.089  26.300  26.121  1.00  0.00     0.200 A 
ATOM     92  F   UNL A   1      39.681  24.653  27.060  1.00  0.00    -0.200 F 
ATOM     93  F   UNL A   1      41.214  25.576  25.001  1.00  0.00    -0.200 F 
ENDBRANCH  59  83
BRANCH  71  94
ATOM     94  C   UNL A   1      43.988  28.027  34.628  1.00  0.00     0.064 A 
ATOM     95  C   UNL A   1      45.328  28.432  34.532  1.00  0.00     0.173 A 
ATOM     96  C   UNL A   1      43.709  26.832  35.308  1.00  0.00     0.173 A 
ATOM     97  F   UNL A   1      45.646  29.559  33.877  1.00  0.00    -0.203 F 
ATOM     98  C   UNL A   1      46.351  27.653  35.066  1.00  0.00     0.198 A 
ATOM     99  C   UNL A   1      44.732  26.069  35.865  1.00  0.00     0.198 A 
ATOM    100  F   UNL A   1      42.444  26.404  35.433  1.00  0.00    -0.203 F 
ATOM    101  F   UNL A   1      47.627  28.031  34.914  1.00  0.00    -0.200 F 
ATOM    102  C   UNL A   1      46.051  26.476  35.736  1.00  0.00     0.200 A 
ATOM    103  F   UNL A   1      44.441  24.938  36.521  1.00  0.00    -0.200 F 
ATOM    104  F   UNL A   1      47.038  25.727  36.248  1.00  0.00    -0.200 F 
ENDBRANCH  71  94
ENDBRANCH  45  46
ENDBRANCH  37  40
ENDBRANCH  35  36
ENDBRANCH  34  35
ENDBRANCH  33  34
ENDBRANCH   1  33
TORSDOF 16
ENDMDL
MODEL 2
REMARK VINA RESULT:     -13.1      4.962     10.545
REMARK SMILES COC(=O)c1c(-c2ccccc2Cl)csc1NC(=O)[C@@H]1[C@@H]2CC[C@@H](C2)[C@@H]1C(=O)NCCCCNC(=O)c1ccc(-c2c3nc(c(-c4c(F)c(F)c(F)c(F)c4F)c4ccc([nH]4)c(-c4c(F)c(F)c(F)c(F)c4F)c4nc(c(-c5c(F)c(F)c(F)c(F)c5F)c5ccc2[nH]5)C=C4)C=C3)cc1
REMARK SMILES IDX 30 1 29 2 27 3 28 4 26 6 20 7 21 8 22 9 25 10 24 11 23 12
REMARK SMILES IDX 18 13 17 14 19 16 16 17 5 18 6 19 14 20 15 21 3 22 4 23 2 24
REMARK SMILES IDX 1 25 7 26 8 27 12 28 9 29 11 30 13 31 10 32 31 33 32 34
REMARK SMILES IDX 33 35 34 36 35 37 36 39 37 40 38 41 99 42 39 43 98 44 40 45
REMARK SMILES IDX 41 46 42 47 92 48 43 49 97 50 91 51 93 52 44 53 96 54 90 55
REMARK SMILES IDX 89 56 45 58 77 59 57 60 76 61 58 62 61 63 75 64 94 65 59 66
REMARK SMILES IDX 60 67 74 69 95 70 62 71 46 72 47 73 55 74 48 75 49 76 53 77
REMARK SMILES IDX 56 78 50 79 51 80 54 81 52 82 78 83 79 84 87 85 80 86 81 87
REMARK SMILES IDX 85 88 88 89 82 90 83 91 86 92 84 93 63 94 64 95 72 96 65 97
REMARK SMILES IDX 66 98 70 99 73 100 67 101 68 102 71 103 69 104
REMARK H PARENT 29 5 17 15 34 38 93 57 61 68
REMARK Flexibility Score: inf
ROOT
ATOM      1  C   UNL A   1      36.932  21.632  25.497  1.00  0.00     0.116 C 
ENDROOT
BRANCH   1   2
ATOM      2  N   UNL A   1      35.880  21.412  26.472  1.00  0.00    -0.356 N 
ATOM      3  C   UNL A   1      34.523  21.536  26.362  1.00  0.00     0.224 C 
ATOM      4  O   UNL A   1      33.883  21.421  27.400  1.00  0.00    -0.275 OA
ATOM      5  H   UNL A   1      36.196  21.125  27.360  1.00  0.00     0.163 HD
BRANCH   3   6
ATOM      6  C   UNL A   1      33.921  21.750  24.981  1.00  0.00     0.094 C 
ATOM      7  C   UNL A   1      33.745  23.157  24.353  1.00  0.00     0.094 C 
ATOM      8  C   UNL A   1      32.278  23.123  23.832  1.00  0.00     0.002 C 
ATOM      9  C   UNL A   1      31.254  23.195  24.975  1.00  0.00     0.005 C 
ATOM     10  C   UNL A   1      32.121  21.648  23.438  1.00  0.00     0.009 C 
ATOM     11  C   UNL A   1      32.506  21.138  24.832  1.00  0.00     0.002 C 
ATOM     12  C   UNL A   1      31.485  21.877  25.723  1.00  0.00     0.005 C 
BRANCH   7  13
ATOM     13  C   UNL A   1      34.067  24.401  25.165  1.00  0.00     0.229 C 
ATOM     14  N   UNL A   1      33.699  25.663  24.813  1.00  0.00    -0.317 N 
ATOM     15  H   UNL A   1      34.150  26.340  25.368  1.00  0.00     0.170 HD
ATOM     16  O   UNL A   1      34.652  24.319  26.249  1.00  0.00    -0.274 OA
BRANCH  14  17
ATOM     17  C   UNL A   1      32.859  26.245  23.878  1.00  0.00     0.110 A 
ATOM     18  C   UNL A   1      31.744  27.028  24.183  1.00  0.00     0.102 A 
ATOM     19  C   UNL A   1      31.064  27.460  22.978  1.00  0.00     0.011 A 
ATOM     20  C   UNL A   1      31.694  26.992  21.843  1.00  0.00     0.076 A 
ATOM     21  S   UNL A   1      33.013  25.990  22.213  1.00  0.00    -0.125 S 
BRANCH  18  22
ATOM     22  C   UNL A   1      31.364  27.317  25.568  1.00  0.00     0.341 C 
ATOM     23  O   UNL A   1      30.924  26.457  26.326  1.00  0.00    -0.246 OA
BRANCH  22  24
ATOM     24  O   UNL A   1      31.505  28.627  25.909  1.00  0.00    -0.465 OA
ATOM     25  C   UNL A   1      31.742  28.861  27.297  1.00  0.00     0.282 C 
ENDBRANCH  22  24
ENDBRANCH  18  22
BRANCH  19  26
ATOM     26  C   UNL A   1      29.888  28.319  22.854  1.00  0.00     0.002 A 
ATOM     27  C   UNL A   1      30.056  29.612  22.333  1.00  0.00     0.010 A 
ATOM     28  C   UNL A   1      28.601  27.905  23.245  1.00  0.00     0.048 A 
ATOM     29  C   UNL A   1      28.965  30.476  22.210  1.00  0.00     0.001 A 
ATOM     30  C   UNL A   1      27.511  28.771  23.108  1.00  0.00     0.021 A 
ATOM     31  Cl  UNL A   1      28.292  26.344  23.925  1.00  0.00    -0.084 Cl
ATOM     32  C   UNL A   1      27.694  30.055  22.595  1.00  0.00     0.002 A 
ENDBRANCH  19  26
ENDBRANCH  14  17
ENDBRANCH   7  13
ENDBRANCH   3   6
ENDBRANCH   1   2
BRANCH   1  33
ATOM     33  C   UNL A   1      37.092  20.432  24.562  1.00  0.00     0.023 C 
BRANCH  33  34
ATOM     34  C   UNL A   1      38.111  19.378  25.023  1.00  0.00     0.023 C 
BRANCH  34  35
ATOM     35  C   UNL A   1      39.321  19.908  25.789  1.00  0.00     0.116 C 
BRANCH  35  36
ATOM     36  N   UNL A   1      40.432  18.974  25.818  1.00  0.00    -0.352 N 
ATOM     37  C   UNL A   1      41.759  19.194  26.102  1.00  0.00     0.251 C 
ATOM     38  H   UNL A   1      40.200  18.042  25.603  1.00  0.00     0.163 HD
ATOM     39  O   UNL A   1      42.564  18.275  25.970  1.00  0.00    -0.269 OA
BRANCH  37  40
ATOM     40  C   UNL A   1      42.239  20.529  26.524  1.00  0.00     0.039 A 
ATOM     41  C   UNL A   1      42.732  21.394  25.540  1.00  0.00     0.014 A 
ATOM     42  C   UNL A   1      42.239  20.932  27.862  1.00  0.00     0.014 A 
ATOM     43  C   UNL A   1      43.162  22.678  25.888  1.00  0.00     0.010 A 
ATOM     44  C   UNL A   1      42.614  22.234  28.202  1.00  0.00     0.010 A 
ATOM     45  C   UNL A   1      43.075  23.121  27.218  1.00  0.00    -0.014 A 
BRANCH  45  46
ATOM     46  C   UNL A   1      43.435  24.518  27.574  1.00  0.00     0.031 A 
ATOM     47  C   UNL A   1      44.873  24.955  27.620  1.00  0.00     0.074 A 
ATOM     48  C   UNL A   1      42.459  25.392  27.889  1.00  0.00     0.049 A 
ATOM     49  N   UNL A   1      45.372  26.128  27.924  1.00  0.00    -0.248 NA
ATOM     50  C   UNL A   1      45.886  23.938  27.302  1.00  0.00     0.031 C 
ATOM     51  C   UNL A   1      41.029  25.082  27.928  1.00  0.00     0.029 A 
ATOM     52  N   UNL A   1      42.520  26.718  28.241  1.00  0.00    -0.354 N 
ATOM     53  C   UNL A   1      46.750  25.990  27.835  1.00  0.00     0.074 A 
ATOM     54  C   UNL A   1      47.014  24.608  27.496  1.00  0.00     0.031 C 
ATOM     55  C   UNL A   1      40.347  26.190  28.261  1.00  0.00     0.029 A 
ATOM     56  C   UNL A   1      41.291  27.281  28.487  1.00  0.00     0.049 A 
ATOM     57  H   UNL A   1      43.365  27.218  28.311  1.00  0.00     0.167 HD
ATOM     58  C   UNL A   1      47.707  26.935  27.999  1.00  0.00     0.037 A 
ATOM     59  C   UNL A   1      40.962  28.533  28.854  1.00  0.00     0.037 A 
ATOM     60  C   UNL A   1      47.448  28.314  28.320  1.00  0.00     0.049 A 
ATOM     61  C   UNL A   1      42.047  29.560  29.029  1.00  0.00     0.074 A 
ATOM     62  C   UNL A   1      48.353  29.352  28.465  1.00  0.00     0.029 A 
ATOM     63  N   UNL A   1      46.189  28.849  28.545  1.00  0.00    -0.354 N 
ATOM     64  N   UNL A   1      43.343  29.430  28.878  1.00  0.00    -0.248 NA
ATOM     65  C   UNL A   1      41.622  30.913  29.416  1.00  0.00     0.031 C 
ATOM     66  C   UNL A   1      47.645  30.508  28.811  1.00  0.00     0.029 A 
ATOM     67  C   UNL A   1      46.295  30.200  28.841  1.00  0.00     0.049 A 
ATOM     68  H   UNL A   1      45.345  28.346  28.501  1.00  0.00     0.167 HD
ATOM     69  C   UNL A   1      43.882  30.685  29.126  1.00  0.00     0.074 A 
ATOM     70  C   UNL A   1      42.773  31.568  29.415  1.00  0.00     0.031 C 
ATOM     71  C   UNL A   1      45.182  31.068  29.119  1.00  0.00     0.037 A 
BRANCH  58  72
ATOM     72  C   UNL A   1      49.136  26.515  27.814  1.00  0.00     0.064 A 
ATOM     73  C   UNL A   1      49.706  26.411  26.536  1.00  0.00     0.173 A 
ATOM     74  C   UNL A   1      49.963  26.280  28.923  1.00  0.00     0.173 A 
ATOM     75  F   UNL A   1      48.955  26.617  25.443  1.00  0.00    -0.203 F 
ATOM     76  C   UNL A   1      51.045  26.070  26.374  1.00  0.00     0.198 A 
ATOM     77  C   UNL A   1      51.308  25.963  28.758  1.00  0.00     0.198 A 
ATOM     78  F   UNL A   1      49.468  26.374  30.166  1.00  0.00    -0.203 F 
ATOM     79  F   UNL A   1      51.559  25.943  25.143  1.00  0.00    -0.200 F 
ATOM     80  C   UNL A   1      51.848  25.854  27.485  1.00  0.00     0.200 A 
ATOM     81  F   UNL A   1      52.087  25.767  29.832  1.00  0.00    -0.200 F 
ATOM     82  F   UNL A   1      53.141  25.538  27.328  1.00  0.00    -0.200 F 
ENDBRANCH  58  72
BRANCH  59  83
ATOM     83  C   UNL A   1      39.537  28.901  29.061  1.00  0.00     0.064 A 
ATOM     84  C   UNL A   1      38.941  28.781  30.324  1.00  0.00     0.173 A 
ATOM     85  C   UNL A   1      38.738  29.351  28.001  1.00  0.00     0.173 A 
ATOM     86  F   UNL A   1      39.659  28.332  31.364  1.00  0.00    -0.203 F 
ATOM     87  C   UNL A   1      37.591  29.070  30.512  1.00  0.00     0.198 A 
ATOM     88  C   UNL A   1      37.396  29.667  28.196  1.00  0.00     0.198 A 
ATOM     89  F   UNL A   1      39.263  29.486  26.774  1.00  0.00    -0.203 F 
ATOM     90  F   UNL A   1      37.033  28.894  31.718  1.00  0.00    -0.200 F 
ATOM     91  C   UNL A   1      36.821  29.516  29.449  1.00  0.00     0.200 A 
ATOM     92  F   UNL A   1      36.657  30.108  27.169  1.00  0.00    -0.200 F 
ATOM     93  F   UNL A   1      35.522  29.791  29.630  1.00  0.00    -0.200 F 
ENDBRANCH  59  83
BRANCH  71  94
ATOM     94  C   UNL A   1      45.468  32.513  29.405  1.00  0.00     0.064 A 
ATOM     95  C   UNL A   1      45.510  33.471  28.380  1.00  0.00     0.173 A 
ATOM     96  C   UNL A   1      45.685  32.948  30.721  1.00  0.00     0.173 A 
ATOM     97  F   UNL A   1      45.325  33.101  27.104  1.00  0.00    -0.203 F 
ATOM     98  C   UNL A   1      45.793  34.805  28.660  1.00  0.00     0.198 A 
ATOM     99  C   UNL A   1      45.939  34.288  31.000  1.00  0.00     0.198 A 
ATOM    100  F   UNL A   1      45.650  32.073  31.737  1.00  0.00    -0.203 F 
ATOM    101  F   UNL A   1      45.882  35.692  27.660  1.00  0.00    -0.200 F 
ATOM    102  C   UNL A   1      46.002  35.213  29.969  1.00  0.00     0.200 A 
ATOM    103  F   UNL A   1      46.131  34.683  32.266  1.00  0.00    -0.200 F 
ATOM    104  F   UNL A   1      46.274  36.498  30.235  1.00  0.00    -0.200 F 
ENDBRANCH  71  94
ENDBRANCH  45  46
ENDBRANCH  37  40
ENDBRANCH  35  36
ENDBRANCH  34  35
ENDBRANCH  33  34
ENDBRANCH   1  33
TORSDOF 16
ENDMDL
MODEL 3
REMARK VINA RESULT:     -13.1      0.801      6.967
REMARK SMILES COC(=O)c1c(-c2ccccc2Cl)csc1NC(=O)[C@@H]1[C@@H]2CC[C@@H](C2)[C@@H]1C(=O)NCCCCNC(=O)c1ccc(-c2c3nc(c(-c4c(F)c(F)c(F)c(F)c4F)c4ccc([nH]4)c(-c4c(F)c(F)c(F)c(F)c4F)c4nc(c(-c5c(F)c(F)c(F)c(F)c5F)c5ccc2[nH]5)C=C4)C=C3)cc1
REMARK SMILES IDX 30 1 29 2 27 3 28 4 26 6 20 7 21 8 22 9 25 10 24 11 23 12
REMARK SMILES IDX 18 13 17 14 19 16 16 17 5 18 6 19 14 20 15 21 3 22 4 23 2 24
REMARK SMILES IDX 1 25 7 26 8 27 12 28 9 29 11 30 13 31 10 32 31 33 32 34
REMARK SMILES IDX 33 35 34 36 35 37 36 39 37 40 38 41 99 42 39 43 98 44 40 45
REMARK SMILES IDX 41 46 42 47 92 48 43 49 97 50 91 51 93 52 44 53 96 54 90 55
REMARK SMILES IDX 89 56 45 58 77 59 57 60 76 61 58 62 61 63 75 64 94 65 59 66
REMARK SMILES IDX 60 67 74 69 95 70 62 71 46 72 47 73 55 74 48 75 49 76 53 77
REMARK SMILES IDX 56 78 50 79 51 80 54 81 52 82 78 83 79 84 87 85 80 86 81 87
REMARK SMILES IDX 85 88 88 89 82 90 83 91 86 92 84 93 63 94 64 95 72 96 65 97
REMARK SMILES IDX 66 98 70 99 73 100 67 101 68 102 71 103 69 104
REMARK H PARENT 29 5 17 15 34 38 93 57 61 68
REMARK Flexibility Score: inf
ROOT
ATOM      1  C   UNL A   1      32.677  29.989  26.229  1.00  0.00     0.116 C 
ENDROOT
BRANCH   1   2
ATOM      2  N   UNL A   1      32.973  29.910  24.811  1.00  0.00    -0.356 N 
ATOM      3  C   UNL A   1      32.561  29.014  23.864  1.00  0.00     0.224 C 
ATOM      4  O   UNL A   1      33.087  29.111  22.762  1.00  0.00    -0.275 OA
ATOM      5  H   UNL A   1      33.568  30.619  24.475  1.00  0.00     0.163 HD
BRANCH   3   6
ATOM      6  C   UNL A   1      31.466  28.022  24.228  1.00  0.00     0.094 C 
ATOM      7  C   UNL A   1      31.761  26.662  24.912  1.00  0.00     0.094 C 
ATOM      8  C   UNL A   1      30.931  25.658  24.060  1.00  0.00     0.002 C 
ATOM      9  C   UNL A   1      31.553  25.417  22.676  1.00  0.00     0.005 C 
ATOM     10  C   UNL A   1      29.725  26.515  23.655  1.00  0.00     0.009 C 
ATOM     11  C   UNL A   1      30.595  27.605  23.017  1.00  0.00     0.002 C 
ATOM     12  C   UNL A   1      31.416  26.786  21.999  1.00  0.00     0.005 C 
BRANCH   7  13
ATOM     13  C   UNL A   1      33.197  26.218  25.137  1.00  0.00     0.229 C 
ATOM     14  N   UNL A   1      33.566  24.947  25.455  1.00  0.00    -0.317 N 
ATOM     15  H   UNL A   1      34.510  24.901  25.732  1.00  0.00     0.170 HD
ATOM     16  O   UNL A   1      34.138  27.004  24.986  1.00  0.00    -0.274 OA
BRANCH  14  17
ATOM     17  C   UNL A   1      32.962  23.701  25.493  1.00  0.00     0.110 A 
ATOM     18  C   UNL A   1      33.360  22.597  24.737  1.00  0.00     0.102 A 
ATOM     19  C   UNL A   1      32.502  21.455  24.988  1.00  0.00     0.011 A 
ATOM     20  C   UNL A   1      31.518  21.752  25.909  1.00  0.00     0.076 A 
ATOM     21  S   UNL A   1      31.568  23.377  26.394  1.00  0.00    -0.125 S 
BRANCH  18  22
ATOM     22  C   UNL A   1      34.498  22.665  23.818  1.00  0.00     0.341 C 
ATOM     23  O   UNL A   1      34.487  23.355  22.803  1.00  0.00    -0.246 OA
BRANCH  22  24
ATOM     24  O   UNL A   1      35.536  21.861  24.176  1.00  0.00    -0.465 OA
ATOM     25  C   UNL A   1      36.415  22.420  25.153  1.00  0.00     0.282 C 
ENDBRANCH  22  24
ENDBRANCH  18  22
BRANCH  19  26
ATOM     26  C   UNL A   1      32.596  20.105  24.437  1.00  0.00     0.002 A 
ATOM     27  C   UNL A   1      33.006  19.063  25.284  1.00  0.00     0.010 A 
ATOM     28  C   UNL A   1      32.304  19.813  23.092  1.00  0.00     0.048 A 
ATOM     29  C   UNL A   1      33.128  17.759  24.799  1.00  0.00     0.001 A 
ATOM     30  C   UNL A   1      32.417  18.503  22.616  1.00  0.00     0.021 A 
ATOM     31  Cl  UNL A   1      31.821  21.029  21.959  1.00  0.00    -0.084 Cl
ATOM     32  C   UNL A   1      32.831  17.478  23.468  1.00  0.00     0.002 A 
ENDBRANCH  19  26
ENDBRANCH  14  17
ENDBRANCH   7  13
ENDBRANCH   3   6
ENDBRANCH   1   2
BRANCH   1  33
ATOM     33  C   UNL A   1      31.340  30.687  26.487  1.00  0.00     0.023 C 
BRANCH  33  34
ATOM     34  C   UNL A   1      31.395  32.222  26.492  1.00  0.00     0.023 C 
BRANCH  34  35
ATOM     35  C   UNL A   1      32.590  32.845  27.210  1.00  0.00     0.116 C 
BRANCH  35  36
ATOM     36  N   UNL A   1      32.350  34.212  27.639  1.00  0.00    -0.352 N 
ATOM     37  C   UNL A   1      32.990  34.958  28.599  1.00  0.00     0.251 C 
ATOM     38  H   UNL A   1      31.619  34.674  27.169  1.00  0.00     0.163 HD
ATOM     39  O   UNL A   1      32.560  36.074  28.881  1.00  0.00    -0.269 OA
BRANCH  37  40
ATOM     40  C   UNL A   1      34.163  34.423  29.327  1.00  0.00     0.039 A 
ATOM     41  C   UNL A   1      33.945  33.794  30.558  1.00  0.00     0.014 A 
ATOM     42  C   UNL A   1      35.466  34.553  28.838  1.00  0.00     0.014 A 
ATOM     43  C   UNL A   1      35.019  33.242  31.262  1.00  0.00     0.010 A 
ATOM     44  C   UNL A   1      36.531  33.952  29.512  1.00  0.00     0.010 A 
ATOM     45  C   UNL A   1      36.317  33.286  30.729  1.00  0.00    -0.014 A 
BRANCH  45  46
ATOM     46  C   UNL A   1      37.443  32.612  31.425  1.00  0.00     0.031 A 
ATOM     47  C   UNL A   1      38.175  31.468  30.780  1.00  0.00     0.074 A 
ATOM     48  C   UNL A   1      37.787  33.013  32.665  1.00  0.00     0.049 A 
ATOM     49  N   UNL A   1      39.170  30.754  31.246  1.00  0.00    -0.248 NA
ATOM     50  C   UNL A   1      37.719  31.059  29.443  1.00  0.00     0.031 C 
ATOM     51  C   UNL A   1      37.127  34.078  33.422  1.00  0.00     0.029 A 
ATOM     52  N   UNL A   1      38.775  32.570  33.510  1.00  0.00    -0.354 N 
ATOM     53  C   UNL A   1      39.458  29.815  30.264  1.00  0.00     0.074 A 
ATOM     54  C   UNL A   1      38.502  30.017  29.196  1.00  0.00     0.031 C 
ATOM     55  C   UNL A   1      37.740  34.221  34.607  1.00  0.00     0.029 A 
ATOM     56  C   UNL A   1      38.818  33.242  34.708  1.00  0.00     0.049 A 
ATOM     57  H   UNL A   1      39.394  31.840  33.280  1.00  0.00     0.167 HD
ATOM     58  C   UNL A   1      40.443  28.885  30.245  1.00  0.00     0.037 A 
ATOM     59  C   UNL A   1      39.634  33.086  35.767  1.00  0.00     0.037 A 
ATOM     60  C   UNL A   1      41.405  28.693  31.299  1.00  0.00     0.049 A 
ATOM     61  C   UNL A   1      40.718  32.044  35.717  1.00  0.00     0.074 A 
ATOM     62  C   UNL A   1      42.464  27.802  31.349  1.00  0.00     0.029 A 
ATOM     63  N   UNL A   1      41.426  29.404  32.488  1.00  0.00    -0.354 N 
ATOM     64  N   UNL A   1      41.018  31.206  34.754  1.00  0.00    -0.248 NA
ATOM     65  C   UNL A   1      41.584  31.933  36.899  1.00  0.00     0.031 C 
ATOM     66  C   UNL A   1      43.106  27.951  32.583  1.00  0.00     0.029 A 
ATOM     67  C   UNL A   1      42.473  28.963  33.285  1.00  0.00     0.049 A 
ATOM     68  H   UNL A   1      40.793  30.117  32.733  1.00  0.00     0.167 HD
ATOM     69  C   UNL A   1      42.118  30.490  35.203  1.00  0.00     0.074 A 
ATOM     70  C   UNL A   1      42.447  31.004  36.515  1.00  0.00     0.031 C 
ATOM     71  C   UNL A   1      42.793  29.490  34.585  1.00  0.00     0.037 A 
BRANCH  58  72
ATOM     72  C   UNL A   1      40.546  28.008  29.033  1.00  0.00     0.064 A 
ATOM     73  C   UNL A   1      39.801  26.824  28.924  1.00  0.00     0.173 A 
ATOM     74  C   UNL A   1      41.344  28.385  27.942  1.00  0.00     0.173 A 
ATOM     75  F   UNL A   1      39.030  26.416  29.943  1.00  0.00    -0.203 F 
ATOM     76  C   UNL A   1      39.864  26.041  27.775  1.00  0.00     0.198 A 
ATOM     77  C   UNL A   1      41.386  27.611  26.785  1.00  0.00     0.198 A 
ATOM     78  F   UNL A   1      42.071  29.511  27.993  1.00  0.00    -0.203 F 
ATOM     79  F   UNL A   1      39.169  24.897  27.707  1.00  0.00    -0.200 F 
ATOM     80  C   UNL A   1      40.650  26.438  26.703  1.00  0.00     0.200 A 
ATOM     81  F   UNL A   1      42.135  28.003  25.744  1.00  0.00    -0.200 F 
ATOM     82  F   UNL A   1      40.699  25.690  25.593  1.00  0.00    -0.200 F 
ENDBRANCH  58  72
BRANCH  59  83
ATOM     83  C   UNL A   1      39.477  33.951  36.965  1.00  0.00     0.064 A 
ATOM     84  C   UNL A   1      40.062  35.225  37.013  1.00  0.00     0.173 A 
ATOM     85  C   UNL A   1      38.766  33.516  38.092  1.00  0.00     0.173 A 
ATOM     86  F   UNL A   1      40.771  35.675  35.967  1.00  0.00    -0.203 F 
ATOM     87  C   UNL A   1      39.967  36.018  38.154  1.00  0.00     0.198 A 
ATOM     88  C   UNL A   1      38.648  34.321  39.222  1.00  0.00     0.198 A 
ATOM     89  F   UNL A   1      38.185  32.307  38.094  1.00  0.00    -0.203 F 
ATOM     90  F   UNL A   1      40.582  37.207  38.193  1.00  0.00    -0.200 F 
ATOM     91  C   UNL A   1      39.257  35.567  39.256  1.00  0.00     0.200 A 
ATOM     92  F   UNL A   1      37.951  33.887  40.282  1.00  0.00    -0.200 F 
ATOM     93  F   UNL A   1      39.169  36.328  40.355  1.00  0.00    -0.200 F 
ENDBRANCH  59  83
BRANCH  71  94
ATOM     94  C   UNL A   1      43.971  28.911  35.311  1.00  0.00     0.064 A 
ATOM     95  C   UNL A   1      45.266  29.421  35.134  1.00  0.00     0.173 A 
ATOM     96  C   UNL A   1      43.800  27.844  36.207  1.00  0.00     0.173 A 
ATOM     97  F   UNL A   1      45.483  30.429  34.276  1.00  0.00    -0.203 F 
ATOM     98  C   UNL A   1      46.352  28.863  35.803  1.00  0.00     0.198 A 
ATOM     99  C   UNL A   1      44.884  27.307  36.895  1.00  0.00     0.198 A 
ATOM    100  F   UNL A   1      42.582  27.324  36.415  1.00  0.00    -0.203 F 
ATOM    101  F   UNL A   1      47.587  29.331  35.578  1.00  0.00    -0.200 F 
ATOM    102  C   UNL A   1      46.160  27.811  36.686  1.00  0.00     0.200 A 
ATOM    103  F   UNL A   1      44.697  26.297  37.756  1.00  0.00    -0.200 F 
ATOM    104  F   UNL A   1      47.207  27.274  37.328  1.00  0.00    -0.200 F 
ENDBRANCH  71  94
ENDBRANCH  45  46
ENDBRANCH  37  40
ENDBRANCH  35  36
ENDBRANCH  34  35
ENDBRANCH  33  34
ENDBRANCH   1  33
TORSDOF 16
ENDMDL
