MODEL 1
REMARK VINA RESULT:     -11.1      0.000      0.000
REMARK SMILES O=C(COc1ccc(Br)cc1/C=N/Nc1ncccc1[N+](=O)[O-])NCCCCNC(=O)c1ccc(-c2c3nc(c(-c4c(F)c(F)c(F)c(F)c4F)c4ccc([nH]4)c(-c4c(F)c(F)c(F)c(F)c4F)c4nc(c(-c5c(F)c(F)c(F)c(F)c5F)c5ccc2[nH]5)C=C4)C=C3)cc1
REMARK SMILES IDX 1 1 2 2 24 3 3 5 4 6 5 7 6 8 11 9 7 10 10 11 8 12 9 13 12 14
REMARK SMILES IDX 13 15 14 16 15 18 16 19 20 20 17 21 19 22 18 23 21 24 22 25
REMARK SMILES IDX 23 26 25 27 26 28 27 29 28 30 29 31 30 32 31 34 32 35 33 36
REMARK SMILES IDX 94 37 34 38 93 39 35 40 36 41 37 42 87 43 38 44 92 45 86 46
REMARK SMILES IDX 88 47 39 48 91 49 85 50 84 51 40 53 72 54 52 55 71 56 53 57
REMARK SMILES IDX 56 58 70 59 89 60 54 61 55 62 69 64 90 65 57 66 41 67 42 68
REMARK SMILES IDX 50 69 43 70 44 71 48 72 51 73 45 74 46 75 49 76 47 77 73 78
REMARK SMILES IDX 74 79 82 80 75 81 76 82 80 83 83 84 77 85 78 86 81 87 79 88
REMARK SMILES IDX 58 89 59 90 67 91 60 92 61 93 65 94 68 95 62 96 63 97 66 98
REMARK SMILES IDX 64 99
REMARK H PARENT 24 4 14 17 29 33 88 52 56 63
REMARK Flexibility Score: inf
ROOT
ATOM      1  O   UNL A   1      39.496  24.813  26.516  1.00  0.00    -0.271 OA
ATOM      2  C   UNL A   1      38.798  23.806  26.578  1.00  0.00     0.257 C 
ATOM      3  N   UNL A   1      39.250  22.600  27.081  1.00  0.00    -0.353 N 
ATOM      4  H   UNL A   1      38.597  21.892  27.284  1.00  0.00     0.163 HD
ENDROOT
BRANCH   2   5
ATOM      5  C   UNL A   1      37.351  23.771  26.070  1.00  0.00     0.329 C 
BRANCH   5   6
ATOM      6  O   UNL A   1      37.185  23.255  24.740  1.00  0.00    -0.483 OA
BRANCH   6   7
ATOM      7  C   UNL A   1      36.142  22.366  24.637  1.00  0.00     0.129 A 
ATOM      8  C   UNL A   1      36.297  21.039  25.048  1.00  0.00     0.048 A 
ATOM      9  C   UNL A   1      34.881  22.798  24.202  1.00  0.00     0.038 A 
ATOM     10  C   UNL A   1      35.224  20.146  24.996  1.00  0.00     0.019 A 
ATOM     11  C   UNL A   1      33.807  21.899  24.138  1.00  0.00     0.029 A 
ATOM     12  C   UNL A   1      33.985  20.579  24.540  1.00  0.00     0.018 A 
ATOM     13  Br  UNL A   1      32.530  19.375  24.503  1.00  0.00    -0.051 Br
BRANCH   9  14
ATOM     14  C   UNL A   1      34.639  24.205  23.833  1.00  0.00     0.145 C 
ATOM     15  N   UNL A   1      34.203  25.058  24.710  1.00  0.00    -0.181 NA
BRANCH  15  16
ATOM     16  N   UNL A   1      34.063  26.346  24.317  1.00  0.00    -0.256 N 
ATOM     17  H   UNL A   1      34.894  26.853  24.170  1.00  0.00     0.192 HD
BRANCH  16  18
ATOM     18  C   UNL A   1      32.871  27.034  24.101  1.00  0.00     0.225 A 
ATOM     19  N   UNL A   1      32.427  27.713  25.191  1.00  0.00    -0.232 NA
ATOM     20  C   UNL A   1      32.190  27.141  22.895  1.00  0.00     0.313 A 
ATOM     21  C   UNL A   1      31.366  28.543  25.056  1.00  0.00     0.114 A 
ATOM     22  C   UNL A   1      31.108  28.020  22.756  1.00  0.00     0.091 A 
ATOM     23  C   UNL A   1      30.697  28.748  23.864  1.00  0.00     0.027 A 
BRANCH  20  24
ATOM     24  N   UNL A   1      32.534  26.317  21.766  1.00  0.00     0.066 N 
ATOM     25  O   UNL A   1      31.659  25.575  21.304  1.00  0.00    -0.258 OA
ATOM     26  O   UNL A   1      33.660  26.497  21.275  1.00  0.00    -0.258 OA
ENDBRANCH  20  24
ENDBRANCH  16  18
ENDBRANCH  15  16
ENDBRANCH   9  14
ENDBRANCH   6   7
ENDBRANCH   5   6
ENDBRANCH   2   5
BRANCH   3  27
ATOM     27  C   UNL A   1      40.657  22.348  27.320  1.00  0.00     0.116 C 
BRANCH  27  28
ATOM     28  C   UNL A   1      41.366  21.677  26.150  1.00  0.00     0.023 C 
BRANCH  28  29
ATOM     29  C   UNL A   1      41.285  20.149  26.135  1.00  0.00     0.023 C 
BRANCH  29  30
ATOM     30  C   UNL A   1      42.597  19.416  26.392  1.00  0.00     0.116 C 
BRANCH  30  31
ATOM     31  N   UNL A   1      43.285  19.024  25.172  1.00  0.00    -0.352 N 
ATOM     32  C   UNL A   1      44.153  19.745  24.386  1.00  0.00     0.251 C 
ATOM     33  H   UNL A   1      43.102  18.108  24.863  1.00  0.00     0.163 HD
ATOM     34  O   UNL A   1      44.531  19.286  23.310  1.00  0.00    -0.269 OA
BRANCH  32  35
ATOM     35  C   UNL A   1      44.611  21.088  24.809  1.00  0.00     0.039 A 
ATOM     36  C   UNL A   1      44.367  22.177  23.968  1.00  0.00     0.014 A 
ATOM     37  C   UNL A   1      45.278  21.279  26.021  1.00  0.00     0.014 A 
ATOM     38  C   UNL A   1      44.720  23.466  24.378  1.00  0.00     0.010 A 
ATOM     39  C   UNL A   1      45.557  22.571  26.464  1.00  0.00     0.010 A 
ATOM     40  C   UNL A   1      45.278  23.680  25.649  1.00  0.00    -0.014 A 
BRANCH  40  41
ATOM     41  C   UNL A   1      45.564  25.053  26.145  1.00  0.00     0.031 A 
ATOM     42  C   UNL A   1      44.472  25.884  26.760  1.00  0.00     0.074 A 
ATOM     43  C   UNL A   1      46.796  25.578  25.984  1.00  0.00     0.049 A 
ATOM     44  N   UNL A   1      44.512  27.124  27.183  1.00  0.00    -0.248 NA
ATOM     45  C   UNL A   1      43.153  25.248  26.896  1.00  0.00     0.031 C 
ATOM     46  C   UNL A   1      47.931  24.894  25.363  1.00  0.00     0.029 A 
ATOM     47  N   UNL A   1      47.296  26.812  26.319  1.00  0.00    -0.354 N 
ATOM     48  C   UNL A   1      43.228  27.414  27.626  1.00  0.00     0.074 A 
ATOM     49  C   UNL A   1      42.417  26.245  27.364  1.00  0.00     0.031 C 
ATOM     50  C   UNL A   1      48.998  25.707  25.380  1.00  0.00     0.029 A 
ATOM     51  C   UNL A   1      48.615  26.986  25.971  1.00  0.00     0.049 A 
ATOM     52  H   UNL A   1      46.762  27.507  26.767  1.00  0.00     0.167 HD
ATOM     53  C   UNL A   1      42.772  28.544  28.220  1.00  0.00     0.037 A 
ATOM     54  C   UNL A   1      49.420  28.058  26.099  1.00  0.00     0.037 A 
ATOM     55  C   UNL A   1      43.583  29.702  28.491  1.00  0.00     0.049 A 
ATOM     56  C   UNL A   1      48.881  29.311  26.739  1.00  0.00     0.074 A 
ATOM     57  C   UNL A   1      43.224  30.876  29.131  1.00  0.00     0.029 A 
ATOM     58  N   UNL A   1      44.917  29.836  28.132  1.00  0.00    -0.354 N 
ATOM     59  N   UNL A   1      47.682  29.549  27.212  1.00  0.00    -0.248 NA
ATOM     60  C   UNL A   1      49.811  30.441  26.867  1.00  0.00     0.031 C 
ATOM     61  C   UNL A   1      44.322  31.741  29.108  1.00  0.00     0.029 A 
ATOM     62  C   UNL A   1      45.386  31.083  28.513  1.00  0.00     0.049 A 
ATOM     63  H   UNL A   1      45.450  29.146  27.675  1.00  0.00     0.167 HD
ATOM     64  C   UNL A   1      47.722  30.840  27.722  1.00  0.00     0.074 A 
ATOM     65  C   UNL A   1      49.069  31.328  27.515  1.00  0.00     0.031 C 
ATOM     66  C   UNL A   1      46.732  31.557  28.309  1.00  0.00     0.037 A 
BRANCH  53  67
ATOM     67  C   UNL A   1      41.323  28.582  28.620  1.00  0.00     0.064 A 
ATOM     68  C   UNL A   1      40.318  28.953  27.714  1.00  0.00     0.173 A 
ATOM     69  C   UNL A   1      40.930  28.202  29.913  1.00  0.00     0.173 A 
ATOM     70  F   UNL A   1      40.639  29.335  26.468  1.00  0.00    -0.203 F 
ATOM     71  C   UNL A   1      38.979  28.974  28.096  1.00  0.00     0.198 A 
ATOM     72  C   UNL A   1      39.588  28.190  30.281  1.00  0.00     0.198 A 
ATOM     73  F   UNL A   1      41.848  27.830  30.819  1.00  0.00    -0.203 F 
ATOM     74  F   UNL A   1      38.043  29.382  27.229  1.00  0.00    -0.200 F 
ATOM     75  C   UNL A   1      38.614  28.584  29.376  1.00  0.00     0.200 A 
ATOM     76  F   UNL A   1      39.235  27.797  31.512  1.00  0.00    -0.200 F 
ATOM     77  F   UNL A   1      37.324  28.593  29.738  1.00  0.00    -0.200 F 
ENDBRANCH  53  67
BRANCH  54  78
ATOM     78  C   UNL A   1      50.828  27.994  25.622  1.00  0.00     0.064 A 
ATOM     79  C   UNL A   1      51.133  28.090  24.257  1.00  0.00     0.173 A 
ATOM     80  C   UNL A   1      51.894  27.817  26.516  1.00  0.00     0.173 A 
ATOM     81  F   UNL A   1      50.147  28.236  23.358  1.00  0.00    -0.203 F 
ATOM     82  C   UNL A   1      52.447  27.986  23.803  1.00  0.00     0.198 A 
ATOM     83  C   UNL A   1      53.210  27.749  26.065  1.00  0.00     0.198 A 
ATOM     84  F   UNL A   1      51.658  27.725  27.833  1.00  0.00    -0.203 F 
ATOM     85  F   UNL A   1      52.704  28.025  22.488  1.00  0.00    -0.200 F 
ATOM     86  C   UNL A   1      53.484  27.822  24.707  1.00  0.00     0.200 A 
ATOM     87  F   UNL A   1      54.211  27.606  26.944  1.00  0.00    -0.200 F 
ATOM     88  F   UNL A   1      54.747  27.724  24.271  1.00  0.00    -0.200 F 
ENDBRANCH  54  78
BRANCH  66  89
ATOM     89  C   UNL A   1      47.075  32.931  28.809  1.00  0.00     0.064 A 
ATOM     90  C   UNL A   1      46.902  34.073  28.013  1.00  0.00     0.173 A 
ATOM     91  C   UNL A   1      47.549  33.111  30.119  1.00  0.00     0.173 A 
ATOM     92  F   UNL A   1      46.467  33.956  26.750  1.00  0.00    -0.203 F 
ATOM     93  C   UNL A   1      47.218  35.340  28.499  1.00  0.00     0.198 A 
ATOM     94  C   UNL A   1      47.829  34.381  30.613  1.00  0.00     0.198 A 
ATOM     95  F   UNL A   1      47.726  32.053  30.925  1.00  0.00    -0.203 F 
ATOM     96  F   UNL A   1      47.096  36.411  27.702  1.00  0.00    -0.200 F 
ATOM     97  C   UNL A   1      47.672  35.494  29.800  1.00  0.00     0.200 A 
ATOM     98  F   UNL A   1      48.253  34.529  31.876  1.00  0.00    -0.200 F 
ATOM     99  F   UNL A   1      47.967  36.715  30.269  1.00  0.00    -0.200 F 
ENDBRANCH  66  89
ENDBRANCH  40  41
ENDBRANCH  32  35
ENDBRANCH  30  31
ENDBRANCH  29  30
ENDBRANCH  28  29
ENDBRANCH  27  28
ENDBRANCH   3  27
TORSDOF 17
ENDMDL
MODEL 2
REMARK VINA RESULT:     -11.1      1.107      7.230
REMARK SMILES O=C(COc1ccc(Br)cc1/C=N/Nc1ncccc1[N+](=O)[O-])NCCCCNC(=O)c1ccc(-c2c3nc(c(-c4c(F)c(F)c(F)c(F)c4F)c4ccc([nH]4)c(-c4c(F)c(F)c(F)c(F)c4F)c4nc(c(-c5c(F)c(F)c(F)c(F)c5F)c5ccc2[nH]5)C=C4)C=C3)cc1
REMARK SMILES IDX 1 1 2 2 24 3 3 5 4 6 5 7 6 8 11 9 7 10 10 11 8 12 9 13 12 14
REMARK SMILES IDX 13 15 14 16 15 18 16 19 20 20 17 21 19 22 18 23 21 24 22 25
REMARK SMILES IDX 23 26 25 27 26 28 27 29 28 30 29 31 30 32 31 34 32 35 33 36
REMARK SMILES IDX 94 37 34 38 93 39 35 40 36 41 37 42 87 43 38 44 92 45 86 46
REMARK SMILES IDX 88 47 39 48 91 49 85 50 84 51 40 53 72 54 52 55 71 56 53 57
REMARK SMILES IDX 56 58 70 59 89 60 54 61 55 62 69 64 90 65 57 66 41 67 42 68
REMARK SMILES IDX 50 69 43 70 44 71 48 72 51 73 45 74 46 75 49 76 47 77 73 78
REMARK SMILES IDX 74 79 82 80 75 81 76 82 80 83 83 84 77 85 78 86 81 87 79 88
REMARK SMILES IDX 58 89 59 90 67 91 60 92 61 93 65 94 68 95 62 96 63 97 66 98
REMARK SMILES IDX 64 99
REMARK H PARENT 24 4 14 17 29 33 88 52 56 63
REMARK Flexibility Score: inf
ROOT
ATOM      1  O   UNL A   1      39.172  24.559  27.553  1.00  0.00    -0.271 OA
ATOM      2  C   UNL A   1      38.646  23.655  26.912  1.00  0.00     0.257 C 
ATOM      3  N   UNL A   1      39.192  22.390  26.795  1.00  0.00    -0.353 N 
ATOM      4  H   UNL A   1      38.637  21.661  26.436  1.00  0.00     0.163 HD
ENDROOT
BRANCH   2   5
ATOM      5  C   UNL A   1      37.333  23.845  26.141  1.00  0.00     0.329 C 
BRANCH   5   6
ATOM      6  O   UNL A   1      37.280  23.199  24.860  1.00  0.00    -0.483 OA
BRANCH   6   7
ATOM      7  C   UNL A   1      36.295  22.243  24.782  1.00  0.00     0.129 A 
ATOM      8  C   UNL A   1      36.603  20.890  24.957  1.00  0.00     0.048 A 
ATOM      9  C   UNL A   1      34.955  22.617  24.615  1.00  0.00     0.038 A 
ATOM     10  C   UNL A   1      35.597  19.921  24.933  1.00  0.00     0.019 A 
ATOM     11  C   UNL A   1      33.946  21.644  24.579  1.00  0.00     0.029 A 
ATOM     12  C   UNL A   1      34.274  20.302  24.742  1.00  0.00     0.018 A 
ATOM     13  Br  UNL A   1      32.915  18.990  24.744  1.00  0.00    -0.051 Br
BRANCH   9  14
ATOM     14  C   UNL A   1      34.563  24.035  24.507  1.00  0.00     0.145 C 
ATOM     15  N   UNL A   1      33.385  24.369  24.077  1.00  0.00    -0.181 NA
BRANCH  15  16
ATOM     16  N   UNL A   1      33.072  25.687  24.063  1.00  0.00    -0.256 N 
ATOM     17  H   UNL A   1      32.915  26.091  23.179  1.00  0.00     0.192 HD
BRANCH  16  18
ATOM     18  C   UNL A   1      32.947  26.533  25.162  1.00  0.00     0.225 A 
ATOM     19  N   UNL A   1      33.877  27.524  25.196  1.00  0.00    -0.232 NA
ATOM     20  C   UNL A   1      31.946  26.491  26.124  1.00  0.00     0.313 A 
ATOM     21  C   UNL A   1      33.759  28.498  26.128  1.00  0.00     0.114 A 
ATOM     22  C   UNL A   1      31.817  27.515  27.071  1.00  0.00     0.091 A 
ATOM     23  C   UNL A   1      32.741  28.551  27.062  1.00  0.00     0.027 A 
BRANCH  20  24
ATOM     24  N   UNL A   1      31.045  25.373  26.217  1.00  0.00     0.066 N 
ATOM     25  O   UNL A   1      30.236  25.204  25.296  1.00  0.00    -0.258 OA
ATOM     26  O   UNL A   1      31.224  24.599  27.170  1.00  0.00    -0.258 OA
ENDBRANCH  20  24
ENDBRANCH  16  18
ENDBRANCH  15  16
ENDBRANCH   9  14
ENDBRANCH   6   7
ENDBRANCH   5   6
ENDBRANCH   2   5
BRANCH   3  27
ATOM     27  C   UNL A   1      40.559  22.107  27.185  1.00  0.00     0.116 C 
BRANCH  27  28
ATOM     28  C   UNL A   1      41.403  21.508  26.066  1.00  0.00     0.023 C 
BRANCH  28  29
ATOM     29  C   UNL A   1      41.402  19.980  26.002  1.00  0.00     0.023 C 
BRANCH  29  30
ATOM     30  C   UNL A   1      42.731  19.305  26.324  1.00  0.00     0.116 C 
BRANCH  30  31
ATOM     31  N   UNL A   1      43.488  18.931  25.140  1.00  0.00    -0.352 N 
ATOM     32  C   UNL A   1      44.335  19.690  24.366  1.00  0.00     0.251 C 
ATOM     33  H   UNL A   1      43.379  17.997  24.850  1.00  0.00     0.163 HD
ATOM     34  O   UNL A   1      44.782  19.232  23.317  1.00  0.00    -0.269 OA
BRANCH  32  35
ATOM     35  C   UNL A   1      44.685  21.071  24.769  1.00  0.00     0.039 A 
ATOM     36  C   UNL A   1      44.358  22.125  23.912  1.00  0.00     0.014 A 
ATOM     37  C   UNL A   1      45.333  21.332  25.979  1.00  0.00     0.014 A 
ATOM     38  C   UNL A   1      44.609  23.443  24.303  1.00  0.00     0.010 A 
ATOM     39  C   UNL A   1      45.509  22.649  26.402  1.00  0.00     0.010 A 
ATOM     40  C   UNL A   1      45.146  23.720  25.571  1.00  0.00    -0.014 A 
BRANCH  40  41
ATOM     41  C   UNL A   1      45.323  25.119  26.046  1.00  0.00     0.031 A 
ATOM     42  C   UNL A   1      46.677  25.771  26.008  1.00  0.00     0.074 A 
ATOM     43  C   UNL A   1      44.273  25.782  26.571  1.00  0.00     0.049 A 
ATOM     44  N   UNL A   1      47.040  26.953  26.443  1.00  0.00    -0.248 NA
ATOM     45  C   UNL A   1      47.775  24.983  25.428  1.00  0.00     0.031 C 
ATOM     46  C   UNL A   1      42.917  25.247  26.707  1.00  0.00     0.029 A 
ATOM     47  N   UNL A   1      44.184  27.046  27.101  1.00  0.00    -0.354 N 
ATOM     48  C   UNL A   1      48.404  27.044  26.195  1.00  0.00     0.074 A 
ATOM     49  C   UNL A   1      48.816  25.778  25.631  1.00  0.00     0.031 C 
ATOM     50  C   UNL A   1      42.129  26.181  27.261  1.00  0.00     0.029 A 
ATOM     51  C   UNL A   1      42.929  27.364  27.561  1.00  0.00     0.049 A 
ATOM     52  H   UNL A   1      44.948  27.667  27.145  1.00  0.00     0.167 HD
ATOM     53  C   UNL A   1      49.232  28.098  26.398  1.00  0.00     0.037 A 
ATOM     54  C   UNL A   1      42.476  28.477  28.172  1.00  0.00     0.037 A 
ATOM     55  C   UNL A   1      48.818  29.362  26.949  1.00  0.00     0.049 A 
ATOM     56  C   UNL A   1      43.424  29.623  28.410  1.00  0.00     0.074 A 
ATOM     57  C   UNL A   1      49.573  30.505  27.149  1.00  0.00     0.029 A 
ATOM     58  N   UNL A   1      47.536  29.648  27.396  1.00  0.00    -0.354 N 
ATOM     59  N   UNL A   1      44.697  29.721  28.111  1.00  0.00    -0.248 NA
ATOM     60  C   UNL A   1      42.869  30.816  29.063  1.00  0.00     0.031 C 
ATOM     61  C   UNL A   1      48.764  31.462  27.768  1.00  0.00     0.029 A 
ATOM     62  C   UNL A   1      47.487  30.940  27.895  1.00  0.00     0.049 A 
ATOM     63  H   UNL A   1      46.774  29.026  27.363  1.00  0.00     0.167 HD
ATOM     64  C   UNL A   1      45.087  30.992  28.509  1.00  0.00     0.074 A 
ATOM     65  C   UNL A   1      43.911  31.636  29.056  1.00  0.00     0.031 C 
ATOM     66  C   UNL A   1      46.308  31.575  28.430  1.00  0.00     0.037 A 
BRANCH  53  67
ATOM     67  C   UNL A   1      50.677  27.928  26.019  1.00  0.00     0.064 A 
ATOM     68  C   UNL A   1      51.658  27.621  26.973  1.00  0.00     0.173 A 
ATOM     69  C   UNL A   1      51.079  28.031  24.678  1.00  0.00     0.173 A 
ATOM     70  F   UNL A   1      51.331  27.521  28.271  1.00  0.00    -0.203 F 
ATOM     71  C   UNL A   1      52.992  27.456  26.605  1.00  0.00     0.198 A 
ATOM     72  C   UNL A   1      52.406  27.830  24.309  1.00  0.00     0.198 A 
ATOM     73  F   UNL A   1      50.182  28.315  23.721  1.00  0.00    -0.203 F 
ATOM     74  F   UNL A   1      53.918  27.216  27.543  1.00  0.00    -0.200 F 
ATOM     75  C   UNL A   1      53.363  27.552  25.273  1.00  0.00     0.200 A 
ATOM     76  F   UNL A   1      52.761  27.908  23.019  1.00  0.00    -0.200 F 
ATOM     77  F   UNL A   1      54.644  27.382  24.919  1.00  0.00    -0.200 F 
ENDBRANCH  53  67
BRANCH  54  78
ATOM     78  C   UNL A   1      41.053  28.568  28.594  1.00  0.00     0.064 A 
ATOM     79  C   UNL A   1      40.063  29.015  27.707  1.00  0.00     0.173 A 
ATOM     80  C   UNL A   1      40.654  28.228  29.895  1.00  0.00     0.173 A 
ATOM     81  F   UNL A   1      40.395  29.375  26.458  1.00  0.00    -0.203 F 
ATOM     82  C   UNL A   1      38.735  29.143  28.113  1.00  0.00     0.198 A 
ATOM     83  C   UNL A   1      39.322  28.323  30.289  1.00  0.00     0.198 A 
ATOM     84  F   UNL A   1      41.560  27.789  30.782  1.00  0.00    -0.203 F 
ATOM     85  F   UNL A   1      37.820  29.626  27.261  1.00  0.00    -0.200 F 
ATOM     86  C   UNL A   1      38.365  28.791  29.401  1.00  0.00     0.200 A 
ATOM     87  F   UNL A   1      38.966  27.966  31.531  1.00  0.00    -0.200 F 
ATOM     88  F   UNL A   1      37.089  28.912  29.791  1.00  0.00    -0.200 F 
ENDBRANCH  54  78
BRANCH  66  89
ATOM     89  C   UNL A   1      46.431  32.995  28.906  1.00  0.00     0.064 A 
ATOM     90  C   UNL A   1      46.212  34.084  28.051  1.00  0.00     0.173 A 
ATOM     91  C   UNL A   1      46.737  33.267  30.250  1.00  0.00     0.173 A 
ATOM     92  F   UNL A   1      45.933  33.880  26.755  1.00  0.00    -0.203 F 
ATOM     93  C   UNL A   1      46.323  35.393  28.514  1.00  0.00     0.198 A 
ATOM     94  C   UNL A   1      46.811  34.575  30.718  1.00  0.00     0.198 A 
ATOM     95  F   UNL A   1      46.949  32.262  31.112  1.00  0.00    -0.203 F 
ATOM     96  F   UNL A   1      46.163  36.418  27.667  1.00  0.00    -0.200 F 
ATOM     97  C   UNL A   1      46.614  35.637  29.848  1.00  0.00     0.200 A 
ATOM     98  F   UNL A   1      47.076  34.809  32.011  1.00  0.00    -0.200 F 
ATOM     99  F   UNL A   1      46.711  36.898  30.295  1.00  0.00    -0.200 F 
ENDBRANCH  66  89
ENDBRANCH  40  41
ENDBRANCH  32  35
ENDBRANCH  30  31
ENDBRANCH  29  30
ENDBRANCH  28  29
ENDBRANCH  27  28
ENDBRANCH   3  27
TORSDOF 17
ENDMDL
MODEL 3
REMARK VINA RESULT:     -11.0      0.753      7.250
REMARK SMILES O=C(COc1ccc(Br)cc1/C=N/Nc1ncccc1[N+](=O)[O-])NCCCCNC(=O)c1ccc(-c2c3nc(c(-c4c(F)c(F)c(F)c(F)c4F)c4ccc([nH]4)c(-c4c(F)c(F)c(F)c(F)c4F)c4nc(c(-c5c(F)c(F)c(F)c(F)c5F)c5ccc2[nH]5)C=C4)C=C3)cc1
REMARK SMILES IDX 1 1 2 2 24 3 3 5 4 6 5 7 6 8 11 9 7 10 10 11 8 12 9 13 12 14
REMARK SMILES IDX 13 15 14 16 15 18 16 19 20 20 17 21 19 22 18 23 21 24 22 25
REMARK SMILES IDX 23 26 25 27 26 28 27 29 28 30 29 31 30 32 31 34 32 35 33 36
REMARK SMILES IDX 94 37 34 38 93 39 35 40 36 41 37 42 87 43 38 44 92 45 86 46
REMARK SMILES IDX 88 47 39 48 91 49 85 50 84 51 40 53 72 54 52 55 71 56 53 57
REMARK SMILES IDX 56 58 70 59 89 60 54 61 55 62 69 64 90 65 57 66 41 67 42 68
REMARK SMILES IDX 50 69 43 70 44 71 48 72 51 73 45 74 46 75 49 76 47 77 73 78
REMARK SMILES IDX 74 79 82 80 75 81 76 82 80 83 83 84 77 85 78 86 81 87 79 88
REMARK SMILES IDX 58 89 59 90 67 91 60 92 61 93 65 94 68 95 62 96 63 97 66 98
REMARK SMILES IDX 64 99
REMARK H PARENT 24 4 14 17 29 33 88 52 56 63
REMARK Flexibility Score: inf
ROOT
ATOM      1  O   UNL A   1      39.537  24.684  26.484  1.00  0.00    -0.271 OA
ATOM      2  C   UNL A   1      38.803  23.702  26.530  1.00  0.00     0.257 C 
ATOM      3  N   UNL A   1      39.231  22.453  26.940  1.00  0.00    -0.353 N 
ATOM      4  H   UNL A   1      38.562  21.760  27.140  1.00  0.00     0.163 HD
ENDROOT
BRANCH   2   5
ATOM      5  C   UNL A   1      37.330  23.751  26.104  1.00  0.00     0.329 C 
BRANCH   5   6
ATOM      6  O   UNL A   1      37.073  23.339  24.753  1.00  0.00    -0.483 OA
BRANCH   6   7
ATOM      7  C   UNL A   1      36.054  22.422  24.657  1.00  0.00     0.129 A 
ATOM      8  C   UNL A   1      36.255  21.093  25.044  1.00  0.00     0.048 A 
ATOM      9  C   UNL A   1      34.772  22.824  24.256  1.00  0.00     0.038 A 
ATOM     10  C   UNL A   1      35.207  20.171  25.001  1.00  0.00     0.019 A 
ATOM     11  C   UNL A   1      33.722  21.896  24.200  1.00  0.00     0.029 A 
ATOM     12  C   UNL A   1      33.947  20.575  24.577  1.00  0.00     0.018 A 
ATOM     13  Br  UNL A   1      32.526  19.331  24.551  1.00  0.00    -0.051 Br
BRANCH   9  14
ATOM     14  C   UNL A   1      34.482  24.229  23.914  1.00  0.00     0.145 C 
ATOM     15  N   UNL A   1      33.773  24.974  24.706  1.00  0.00    -0.181 NA
BRANCH  15  16
ATOM     16  N   UNL A   1      33.600  26.272  24.359  1.00  0.00    -0.256 N 
ATOM     17  H   UNL A   1      34.017  26.560  23.516  1.00  0.00     0.192 HD
BRANCH  16  18
ATOM     18  C   UNL A   1      32.896  27.244  25.067  1.00  0.00     0.225 A 
ATOM     19  N   UNL A   1      32.876  27.033  26.410  1.00  0.00    -0.232 NA
ATOM     20  C   UNL A   1      32.322  28.393  24.539  1.00  0.00     0.313 A 
ATOM     21  C   UNL A   1      32.360  27.992  27.213  1.00  0.00     0.114 A 
ATOM     22  C   UNL A   1      31.811  29.392  25.378  1.00  0.00     0.091 A 
ATOM     23  C   UNL A   1      31.845  29.189  26.750  1.00  0.00     0.027 A 
BRANCH  20  24
ATOM     24  N   UNL A   1      32.182  28.573  23.118  1.00  0.00     0.066 N 
ATOM     25  O   UNL A   1      33.208  28.765  22.455  1.00  0.00    -0.258 OA
ATOM     26  O   UNL A   1      31.043  28.414  22.652  1.00  0.00    -0.258 OA
ENDBRANCH  20  24
ENDBRANCH  16  18
ENDBRANCH  15  16
ENDBRANCH   9  14
ENDBRANCH   6   7
ENDBRANCH   5   6
ENDBRANCH   2   5
BRANCH   3  27
ATOM     27  C   UNL A   1      40.638  22.135  27.084  1.00  0.00     0.116 C 
BRANCH  27  28
ATOM     28  C   UNL A   1      41.209  21.343  25.913  1.00  0.00     0.023 C 
BRANCH  28  29
ATOM     29  C   UNL A   1      41.274  19.830  26.126  1.00  0.00     0.023 C 
BRANCH  29  30
ATOM     30  C   UNL A   1      42.644  19.274  26.501  1.00  0.00     0.116 C 
BRANCH  30  31
ATOM     31  N   UNL A   1      43.420  18.835  25.352  1.00  0.00    -0.352 N 
ATOM     32  C   UNL A   1      44.299  19.542  24.567  1.00  0.00     0.251 C 
ATOM     33  H   UNL A   1      43.297  17.891  25.099  1.00  0.00     0.163 HD
ATOM     34  O   UNL A   1      44.761  19.032  23.549  1.00  0.00    -0.269 OA
BRANCH  32  35
ATOM     35  C   UNL A   1      44.670  20.932  24.920  1.00  0.00     0.039 A 
ATOM     36  C   UNL A   1      44.370  21.957  24.019  1.00  0.00     0.014 A 
ATOM     37  C   UNL A   1      45.309  21.229  26.126  1.00  0.00     0.014 A 
ATOM     38  C   UNL A   1      44.640  23.285  24.361  1.00  0.00     0.010 A 
ATOM     39  C   UNL A   1      45.504  22.558  26.500  1.00  0.00     0.010 A 
ATOM     40  C   UNL A   1      45.169  23.602  25.623  1.00  0.00    -0.014 A 
BRANCH  40  41
ATOM     41  C   UNL A   1      45.365  25.015  26.045  1.00  0.00     0.031 A 
ATOM     42  C   UNL A   1      46.722  25.656  25.957  1.00  0.00     0.074 A 
ATOM     43  C   UNL A   1      44.330  25.704  26.569  1.00  0.00     0.049 A 
ATOM     44  N   UNL A   1      47.102  26.849  26.342  1.00  0.00    -0.248 NA
ATOM     45  C   UNL A   1      47.802  24.840  25.381  1.00  0.00     0.031 C 
ATOM     46  C   UNL A   1      42.975  25.185  26.751  1.00  0.00     0.029 A 
ATOM     47  N   UNL A   1      44.261  26.986  27.055  1.00  0.00    -0.354 N 
ATOM     48  C   UNL A   1      48.461  26.922  26.063  1.00  0.00     0.074 A 
ATOM     49  C   UNL A   1      48.852  25.633  25.534  1.00  0.00     0.031 C 
ATOM     50  C   UNL A   1      42.204  26.143  27.288  1.00  0.00     0.029 A 
ATOM     51  C   UNL A   1      43.018  27.330  27.531  1.00  0.00     0.049 A 
ATOM     52  H   UNL A   1      45.030  27.603  27.062  1.00  0.00     0.167 HD
ATOM     53  C   UNL A   1      49.300  27.975  26.211  1.00  0.00     0.037 A 
ATOM     54  C   UNL A   1      42.586  28.466  28.111  1.00  0.00     0.037 A 
ATOM     55  C   UNL A   1      48.906  29.261  26.727  1.00  0.00     0.049 A 
ATOM     56  C   UNL A   1      43.547  29.613  28.289  1.00  0.00     0.074 A 
ATOM     57  C   UNL A   1      49.674  30.404  26.871  1.00  0.00     0.029 A 
ATOM     58  N   UNL A   1      47.636  29.573  27.189  1.00  0.00    -0.354 N 
ATOM     59  N   UNL A   1      44.813  29.691  27.961  1.00  0.00    -0.248 NA
ATOM     60  C   UNL A   1      43.014  30.833  28.912  1.00  0.00     0.031 C 
ATOM     61  C   UNL A   1      48.884  31.389  27.473  1.00  0.00     0.029 A 
ATOM     62  C   UNL A   1      47.606  30.881  27.644  1.00  0.00     0.049 A 
ATOM     63  H   UNL A   1      46.870  28.955  27.194  1.00  0.00     0.167 HD
ATOM     64  C   UNL A   1      45.220  30.973  28.306  1.00  0.00     0.074 A 
ATOM     65  C   UNL A   1      44.060  31.644  28.854  1.00  0.00     0.031 C 
ATOM     66  C   UNL A   1      46.443  31.543  28.181  1.00  0.00     0.037 A 
BRANCH  53  67
ATOM     67  C   UNL A   1      50.736  27.782  25.808  1.00  0.00     0.064 A 
ATOM     68  C   UNL A   1      51.153  27.928  24.476  1.00  0.00     0.173 A 
ATOM     69  C   UNL A   1      51.714  27.491  26.771  1.00  0.00     0.173 A 
ATOM     70  F   UNL A   1      50.258  28.196  23.513  1.00  0.00    -0.203 F 
ATOM     71  C   UNL A   1      52.489  27.757  24.119  1.00  0.00     0.198 A 
ATOM     72  C   UNL A   1      53.054  27.356  26.416  1.00  0.00     0.198 A 
ATOM     73  F   UNL A   1      51.374  27.349  28.062  1.00  0.00    -0.203 F 
ATOM     74  F   UNL A   1      52.852  27.849  22.833  1.00  0.00    -0.200 F 
ATOM     75  C   UNL A   1      53.439  27.480  25.090  1.00  0.00     0.200 A 
ATOM     76  F   UNL A   1      53.973  27.105  27.358  1.00  0.00    -0.200 F 
ATOM     77  F   UNL A   1      54.724  27.327  24.746  1.00  0.00    -0.200 F 
ENDBRANCH  53  67
BRANCH  54  78
ATOM     78  C   UNL A   1      41.172  28.583  28.559  1.00  0.00     0.064 A 
ATOM     79  C   UNL A   1      40.801  28.258  29.871  1.00  0.00     0.173 A 
ATOM     80  C   UNL A   1      40.162  29.003  27.682  1.00  0.00     0.173 A 
ATOM     81  F   UNL A   1      41.726  27.829  30.743  1.00  0.00    -0.203 F 
ATOM     82  C   UNL A   1      39.470  28.325  30.281  1.00  0.00     0.198 A 
ATOM     83  C   UNL A   1      38.838  29.103  28.102  1.00  0.00     0.198 A 
ATOM     84  F   UNL A   1      40.464  29.331  26.417  1.00  0.00    -0.203 F 
ATOM     85  F   UNL A   1      39.135  27.955  31.525  1.00  0.00    -0.200 F 
ATOM     86  C   UNL A   1      38.491  28.753  29.399  1.00  0.00     0.200 A 
ATOM     87  F   UNL A   1      37.897  29.533  27.250  1.00  0.00    -0.200 F 
ATOM     88  F   UNL A   1      37.212  28.819  29.793  1.00  0.00    -0.200 F 
ENDBRANCH  54  78
BRANCH  66  89
ATOM     89  C   UNL A   1      46.586  32.977  28.605  1.00  0.00     0.064 A 
ATOM     90  C   UNL A   1      46.971  33.330  29.906  1.00  0.00     0.173 A 
ATOM     91  C   UNL A   1      46.370  34.014  27.682  1.00  0.00     0.173 A 
ATOM     92  F   UNL A   1      47.176  32.380  30.831  1.00  0.00    -0.203 F 
ATOM     93  C   UNL A   1      47.106  34.666  30.277  1.00  0.00     0.198 A 
ATOM     94  C   UNL A   1      46.541  35.346  28.045  1.00  0.00     0.198 A 
ATOM     95  F   UNL A   1      46.007  33.732  26.421  1.00  0.00    -0.203 F 
ATOM     96  F   UNL A   1      47.422  34.981  31.540  1.00  0.00    -0.200 F 
ATOM     97  C   UNL A   1      46.900  35.672  29.344  1.00  0.00     0.200 A 
ATOM     98  F   UNL A   1      46.357  36.316  27.138  1.00  0.00    -0.200 F 
ATOM     99  F   UNL A   1      47.039  36.956  29.700  1.00  0.00    -0.200 F 
ENDBRANCH  66  89
ENDBRANCH  40  41
ENDBRANCH  32  35
ENDBRANCH  30  31
ENDBRANCH  29  30
ENDBRANCH  28  29
ENDBRANCH  27  28
ENDBRANCH   3  27
TORSDOF 17
ENDMDL
