MODEL 1
REMARK VINA RESULT:     -12.9      0.000      0.000
REMARK SMILES CC(C)c1ccc(NC(=O)C[C@H]2SC[C@@H](C(=O)NCCCCNC(=O)c3ccc(-c4c5nc(c(-c6c(F)c(F)c(F)c(F)c6F)c6ccc([nH]6)c(-c6c(F)c(F)c(F)c(F)c6F)c6nc(c(-c7c(F)c(F)c(F)c(F)c7F)c7ccc4[nH]7)C=C6)C=C5)cc3)NC2=O)cc1
REMARK SMILES IDX 19 1 18 2 16 3 17 4 15 6 12 7 13 8 90 9 14 10 89 11 91 12
REMARK SMILES IDX 11 14 9 15 8 16 10 18 7 19 4 20 5 21 93 22 6 23 92 24 2 25
REMARK SMILES IDX 1 26 3 27 20 28 21 29 22 30 23 31 24 32 25 34 26 35 27 36
REMARK SMILES IDX 88 37 28 38 87 39 29 40 30 41 31 42 81 43 32 44 86 45 80 46
REMARK SMILES IDX 82 47 33 48 85 49 79 50 78 51 34 53 66 54 46 55 65 56 47 57
REMARK SMILES IDX 50 58 64 59 83 60 48 61 49 62 63 64 84 65 51 66 35 67 36 68
REMARK SMILES IDX 44 69 37 70 38 71 42 72 45 73 39 74 40 75 43 76 41 77 67 78
REMARK SMILES IDX 68 79 76 80 69 81 70 82 74 83 77 84 71 85 72 86 75 87 73 88
REMARK SMILES IDX 52 89 53 90 61 91 54 92 55 93 59 94 62 95 56 96 57 97 60 98
REMARK SMILES IDX 58 99
REMARK H PARENT 18 5 89 13 8 17 23 33 82 52 50 63
REMARK Flexibility Score: inf
ROOT
ATOM      1  C   UNL A   1      35.870  21.031  25.692  1.00  0.00     0.116 C 
ENDROOT
BRANCH   1   2
ATOM      2  N   UNL A   1      34.671  20.957  24.887  1.00  0.00    -0.354 N 
ATOM      3  C   UNL A   1      33.449  21.503  25.159  1.00  0.00     0.243 C 
ATOM      4  O   UNL A   1      32.469  20.963  24.647  1.00  0.00    -0.273 OA
ATOM      5  H   UNL A   1      34.745  20.453  24.044  1.00  0.00     0.163 HD
BRANCH   3   6
ATOM      6  C   UNL A   1      33.399  22.890  25.837  1.00  0.00     0.181 C 
ATOM      7  C   UNL A   1      32.424  24.800  23.658  1.00  0.00     0.145 C 
ATOM      8  S   UNL A   1      31.085  23.916  24.574  1.00  0.00    -0.145 SA
ATOM      9  C   UNL A   1      33.773  24.072  23.728  1.00  0.00     0.234 C 
ATOM     10  C   UNL A   1      31.993  23.426  26.067  1.00  0.00     0.105 C 
ATOM     11  N   UNL A   1      34.230  23.714  24.974  1.00  0.00    -0.343 N 
ATOM     12  O   UNL A   1      34.544  23.881  22.793  1.00  0.00    -0.274 OA
ATOM     13  H   UNL A   1      35.116  24.016  25.282  1.00  0.00     0.164 HD
BRANCH   7  14
ATOM     14  C   UNL A   1      31.875  25.181  22.274  1.00  0.00     0.124 C 
BRANCH  14  15
ATOM     15  C   UNL A   1      32.661  26.117  21.382  1.00  0.00     0.226 C 
ATOM     16  N   UNL A   1      32.939  27.410  21.697  1.00  0.00    -0.326 N 
ATOM     17  H   UNL A   1      33.463  27.883  21.011  1.00  0.00     0.169 HD
ATOM     18  O   UNL A   1      33.076  25.705  20.290  1.00  0.00    -0.275 OA
BRANCH  16  19
ATOM     19  C   UNL A   1      32.624  28.202  22.808  1.00  0.00     0.041 A 
ATOM     20  C   UNL A   1      32.161  29.627  25.197  1.00  0.00    -0.045 A 
ATOM     21  C   UNL A   1      31.113  29.345  24.308  1.00  0.00     0.006 A 
ATOM     22  C   UNL A   1      33.452  29.208  24.857  1.00  0.00     0.006 A 
ATOM     23  C   UNL A   1      31.345  28.649  23.116  1.00  0.00     0.026 A 
ATOM     24  C   UNL A   1      33.683  28.523  23.663  1.00  0.00     0.026 A 
BRANCH  20  25
ATOM     25  C   UNL A   1      31.866  30.353  26.497  1.00  0.00     0.013 C 
ATOM     26  C   UNL A   1      33.131  30.476  27.347  1.00  0.00     0.012 C 
ATOM     27  C   UNL A   1      31.222  31.726  26.279  1.00  0.00     0.012 C 
ENDBRANCH  20  25
ENDBRANCH  16  19
ENDBRANCH  14  15
ENDBRANCH   7  14
ENDBRANCH   3   6
ENDBRANCH   1   2
BRANCH   1  28
ATOM     28  C   UNL A   1      37.090  21.134  24.779  1.00  0.00     0.023 C 
BRANCH  28  29
ATOM     29  C   UNL A   1      38.099  19.994  24.963  1.00  0.00     0.023 C 
BRANCH  29  30
ATOM     30  C   UNL A   1      39.311  20.344  25.819  1.00  0.00     0.116 C 
BRANCH  30  31
ATOM     31  N   UNL A   1      40.277  19.257  25.882  1.00  0.00    -0.352 N 
ATOM     32  C   UNL A   1      41.627  19.313  26.115  1.00  0.00     0.251 C 
ATOM     33  H   UNL A   1      39.910  18.355  25.735  1.00  0.00     0.163 HD
ATOM     34  O   UNL A   1      42.322  18.311  25.971  1.00  0.00    -0.269 OA
BRANCH  32  35
ATOM     35  C   UNL A   1      42.243  20.594  26.512  1.00  0.00     0.039 A 
ATOM     36  C   UNL A   1      42.752  21.432  25.519  1.00  0.00     0.014 A 
ATOM     37  C   UNL A   1      42.289  20.978  27.855  1.00  0.00     0.014 A 
ATOM     38  C   UNL A   1      43.245  22.690  25.866  1.00  0.00     0.010 A 
ATOM     39  C   UNL A   1      42.711  22.259  28.191  1.00  0.00     0.010 A 
ATOM     40  C   UNL A   1      43.190  23.130  27.199  1.00  0.00    -0.014 A 
BRANCH  40  41
ATOM     41  C   UNL A   1      43.611  24.503  27.574  1.00  0.00     0.031 A 
ATOM     42  C   UNL A   1      42.582  25.540  27.923  1.00  0.00     0.074 A 
ATOM     43  C   UNL A   1      44.916  24.831  27.533  1.00  0.00     0.049 A 
ATOM     44  N   UNL A   1      42.746  26.809  28.202  1.00  0.00    -0.248 NA
ATOM     45  C   UNL A   1      41.178  25.101  27.934  1.00  0.00     0.031 C 
ATOM     46  C   UNL A   1      46.006  23.924  27.168  1.00  0.00     0.029 A 
ATOM     47  N   UNL A   1      45.549  26.022  27.790  1.00  0.00    -0.354 N 
ATOM     48  C   UNL A   1      41.471  27.317  28.411  1.00  0.00     0.074 A 
ATOM     49  C   UNL A   1      40.540  26.237  28.172  1.00  0.00     0.031 C 
ATOM     50  C   UNL A   1      47.172  24.584  27.246  1.00  0.00     0.029 A 
ATOM     51  C   UNL A   1      46.912  25.969  27.621  1.00  0.00     0.049 A 
ATOM     52  H   UNL A   1      45.072  26.837  28.067  1.00  0.00     0.167 HD
ATOM     53  C   UNL A   1      41.113  28.566  28.793  1.00  0.00     0.037 A 
ATOM     54  C   UNL A   1      47.843  26.933  27.743  1.00  0.00     0.037 A 
ATOM     55  C   UNL A   1      42.046  29.634  29.043  1.00  0.00     0.049 A 
ATOM     56  C   UNL A   1      47.415  28.322  28.138  1.00  0.00     0.074 A 
ATOM     57  C   UNL A   1      41.786  30.919  29.486  1.00  0.00     0.029 A 
ATOM     58  N   UNL A   1      43.419  29.543  28.866  1.00  0.00    -0.354 N 
ATOM     59  N   UNL A   1      46.213  28.774  28.403  1.00  0.00    -0.248 NA
ATOM     60  C   UNL A   1      48.474  29.333  28.253  1.00  0.00     0.031 C 
ATOM     61  C   UNL A   1      42.995  31.622  29.521  1.00  0.00     0.029 A 
ATOM     62  C   UNL A   1      44.017  30.757  29.162  1.00  0.00     0.049 A 
ATOM     63  H   UNL A   1      43.898  28.733  28.572  1.00  0.00     0.167 HD
ATOM     64  C   UNL A   1      46.375  30.109  28.746  1.00  0.00     0.074 A 
ATOM     65  C   UNL A   1      47.792  30.391  28.670  1.00  0.00     0.031 C 
ATOM     66  C   UNL A   1      45.432  31.021  29.090  1.00  0.00     0.037 A 
BRANCH  53  67
ATOM     67  C   UNL A   1      39.648  28.848  28.964  1.00  0.00     0.064 A 
ATOM     68  C   UNL A   1      39.010  28.704  30.207  1.00  0.00     0.173 A 
ATOM     69  C   UNL A   1      38.877  29.301  27.883  1.00  0.00     0.173 A 
ATOM     70  F   UNL A   1      39.697  28.262  31.271  1.00  0.00    -0.203 F 
ATOM     71  C   UNL A   1      37.653  28.974  30.352  1.00  0.00     0.198 A 
ATOM     72  C   UNL A   1      37.528  29.603  28.040  1.00  0.00     0.198 A 
ATOM     73  F   UNL A   1      39.437  29.463  26.674  1.00  0.00    -0.203 F 
ATOM     74  F   UNL A   1      37.055  28.778  31.536  1.00  0.00    -0.200 F 
ATOM     75  C   UNL A   1      36.914  29.430  29.271  1.00  0.00     0.200 A 
ATOM     76  F   UNL A   1      36.818  30.060  26.998  1.00  0.00    -0.200 F 
ATOM     77  F   UNL A   1      35.609  29.699  29.415  1.00  0.00    -0.200 F 
ENDBRANCH  53  67
BRANCH  54  78
ATOM     78  C   UNL A   1      49.277  26.618  27.507  1.00  0.00     0.064 A 
ATOM     79  C   UNL A   1      49.793  26.544  26.205  1.00  0.00     0.173 A 
ATOM     80  C   UNL A   1      50.158  26.372  28.571  1.00  0.00     0.173 A 
ATOM     81  F   UNL A   1      48.986  26.750  25.153  1.00  0.00    -0.203 F 
ATOM     82  C   UNL A   1      51.126  26.216  25.975  1.00  0.00     0.198 A 
ATOM     83  C   UNL A   1      51.499  26.075  28.341  1.00  0.00     0.198 A 
ATOM     84  F   UNL A   1      49.718  26.434  29.836  1.00  0.00    -0.203 F 
ATOM     85  F   UNL A   1      51.580  26.104  24.720  1.00  0.00    -0.200 F 
ATOM     86  C   UNL A   1      51.981  25.988  27.043  1.00  0.00     0.200 A 
ATOM     87  F   UNL A   1      52.325  25.871  29.376  1.00  0.00    -0.200 F 
ATOM     88  F   UNL A   1      53.265  25.676  26.822  1.00  0.00    -0.200 F 
ENDBRANCH  54  78
BRANCH  66  89
ATOM     89  C   UNL A   1      45.904  32.399  29.453  1.00  0.00     0.064 A 
ATOM     90  C   UNL A   1      45.936  33.440  28.512  1.00  0.00     0.173 A 
ATOM     91  C   UNL A   1      46.285  32.695  30.770  1.00  0.00     0.173 A 
ATOM     92  F   UNL A   1      45.597  33.207  27.235  1.00  0.00    -0.203 F 
ATOM     93  C   UNL A   1      46.356  34.718  28.872  1.00  0.00     0.198 A 
ATOM     94  C   UNL A   1      46.672  33.980  31.135  1.00  0.00     0.198 A 
ATOM     95  F   UNL A   1      46.266  31.738  31.711  1.00  0.00    -0.203 F 
ATOM     96  F   UNL A   1      46.427  35.683  27.946  1.00  0.00    -0.200 F 
ATOM     97  C   UNL A   1      46.716  34.989  30.184  1.00  0.00     0.200 A 
ATOM     98  F   UNL A   1      47.003  34.245  32.406  1.00  0.00    -0.200 F 
ATOM     99  F   UNL A   1      47.109  36.222  30.532  1.00  0.00    -0.200 F 
ENDBRANCH  66  89
ENDBRANCH  40  41
ENDBRANCH  32  35
ENDBRANCH  30  31
ENDBRANCH  29  30
ENDBRANCH  28  29
ENDBRANCH   1  28
TORSDOF 15
ENDMDL
MODEL 2
REMARK VINA RESULT:     -12.9      0.765      2.083
REMARK SMILES CC(C)c1ccc(NC(=O)C[C@H]2SC[C@@H](C(=O)NCCCCNC(=O)c3ccc(-c4c5nc(c(-c6c(F)c(F)c(F)c(F)c6F)c6ccc([nH]6)c(-c6c(F)c(F)c(F)c(F)c6F)c6nc(c(-c7c(F)c(F)c(F)c(F)c7F)c7ccc4[nH]7)C=C6)C=C5)cc3)NC2=O)cc1
REMARK SMILES IDX 19 1 18 2 16 3 17 4 15 6 12 7 13 8 90 9 14 10 89 11 91 12
REMARK SMILES IDX 11 14 9 15 8 16 10 18 7 19 4 20 5 21 93 22 6 23 92 24 2 25
REMARK SMILES IDX 1 26 3 27 20 28 21 29 22 30 23 31 24 32 25 34 26 35 27 36
REMARK SMILES IDX 88 37 28 38 87 39 29 40 30 41 31 42 81 43 32 44 86 45 80 46
REMARK SMILES IDX 82 47 33 48 85 49 79 50 78 51 34 53 66 54 46 55 65 56 47 57
REMARK SMILES IDX 50 58 64 59 83 60 48 61 49 62 63 64 84 65 51 66 35 67 36 68
REMARK SMILES IDX 44 69 37 70 38 71 42 72 45 73 39 74 40 75 43 76 41 77 67 78
REMARK SMILES IDX 68 79 76 80 69 81 70 82 74 83 77 84 71 85 72 86 75 87 73 88
REMARK SMILES IDX 52 89 53 90 61 91 54 92 55 93 59 94 62 95 56 96 57 97 60 98
REMARK SMILES IDX 58 99
REMARK H PARENT 18 5 89 13 8 17 23 33 82 52 50 63
REMARK Flexibility Score: inf
ROOT
ATOM      1  C   UNL A   1      35.891  21.084  25.631  1.00  0.00     0.116 C 
ENDROOT
BRANCH   1   2
ATOM      2  N   UNL A   1      34.683  20.886  24.863  1.00  0.00    -0.354 N 
ATOM      3  C   UNL A   1      33.429  21.350  25.146  1.00  0.00     0.243 C 
ATOM      4  O   UNL A   1      32.481  20.717  24.684  1.00  0.00    -0.273 OA
ATOM      5  H   UNL A   1      34.774  20.354  24.039  1.00  0.00     0.163 HD
BRANCH   3   6
ATOM      6  C   UNL A   1      33.291  22.757  25.769  1.00  0.00     0.181 C 
ATOM      7  C   UNL A   1      32.427  24.563  23.458  1.00  0.00     0.145 C 
ATOM      8  S   UNL A   1      31.050  23.670  24.304  1.00  0.00    -0.145 SA
ATOM      9  C   UNL A   1      33.787  23.879  23.652  1.00  0.00     0.234 C 
ATOM     10  C   UNL A   1      31.858  23.258  25.877  1.00  0.00     0.105 C 
ATOM     11  N   UNL A   1      34.161  23.577  24.941  1.00  0.00    -0.343 N 
ATOM     12  O   UNL A   1      34.630  23.680  22.783  1.00  0.00    -0.274 OA
ATOM     13  H   UNL A   1      35.013  23.915  25.301  1.00  0.00     0.164 HD
BRANCH   7  14
ATOM     14  C   UNL A   1      31.973  24.881  22.025  1.00  0.00     0.124 C 
BRANCH  14  15
ATOM     15  C   UNL A   1      32.738  25.889  21.196  1.00  0.00     0.226 C 
ATOM     16  N   UNL A   1      33.028  27.150  21.614  1.00  0.00    -0.326 N 
ATOM     17  H   UNL A   1      33.536  27.679  20.957  1.00  0.00     0.169 HD
ATOM     18  O   UNL A   1      33.122  25.572  20.062  1.00  0.00    -0.275 OA
BRANCH  16  19
ATOM     19  C   UNL A   1      32.746  27.844  22.796  1.00  0.00     0.041 A 
ATOM     20  C   UNL A   1      32.320  29.037  25.316  1.00  0.00    -0.045 A 
ATOM     21  C   UNL A   1      31.294  28.977  24.361  1.00  0.00     0.006 A 
ATOM     22  C   UNL A   1      33.574  28.515  24.979  1.00  0.00     0.006 A 
ATOM     23  C   UNL A   1      31.509  28.396  23.106  1.00  0.00     0.026 A 
ATOM     24  C   UNL A   1      33.788  27.945  23.722  1.00  0.00     0.026 A 
BRANCH  20  25
ATOM     25  C   UNL A   1      32.040  29.642  26.679  1.00  0.00     0.013 C 
ATOM     26  C   UNL A   1      31.602  28.563  27.671  1.00  0.00     0.012 C 
ATOM     27  C   UNL A   1      33.226  30.437  27.232  1.00  0.00     0.012 C 
ENDBRANCH  20  25
ENDBRANCH  16  19
ENDBRANCH  14  15
ENDBRANCH   7  14
ENDBRANCH   3   6
ENDBRANCH   1   2
BRANCH   1  28
ATOM     28  C   UNL A   1      37.100  21.043  24.697  1.00  0.00     0.023 C 
BRANCH  28  29
ATOM     29  C   UNL A   1      38.060  19.882  24.978  1.00  0.00     0.023 C 
BRANCH  29  30
ATOM     30  C   UNL A   1      39.284  20.249  25.810  1.00  0.00     0.116 C 
BRANCH  30  31
ATOM     31  N   UNL A   1      40.240  19.155  25.903  1.00  0.00    -0.352 N 
ATOM     32  C   UNL A   1      41.596  19.207  26.102  1.00  0.00     0.251 C 
ATOM     33  H   UNL A   1      39.860  18.252  25.808  1.00  0.00     0.163 HD
ATOM     34  O   UNL A   1      42.276  18.192  25.990  1.00  0.00    -0.269 OA
BRANCH  32  35
ATOM     35  C   UNL A   1      42.234  20.498  26.421  1.00  0.00     0.039 A 
ATOM     36  C   UNL A   1      42.772  21.259  25.382  1.00  0.00     0.014 A 
ATOM     37  C   UNL A   1      42.272  20.969  27.737  1.00  0.00     0.014 A 
ATOM     38  C   UNL A   1      43.288  22.527  25.652  1.00  0.00     0.010 A 
ATOM     39  C   UNL A   1      42.718  22.260  27.994  1.00  0.00     0.010 A 
ATOM     40  C   UNL A   1      43.227  23.054  26.953  1.00  0.00    -0.014 A 
BRANCH  40  41
ATOM     41  C   UNL A   1      43.672  24.440  27.242  1.00  0.00     0.031 A 
ATOM     42  C   UNL A   1      42.691  25.461  27.742  1.00  0.00     0.074 A 
ATOM     43  C   UNL A   1      44.947  24.793  26.989  1.00  0.00     0.049 A 
ATOM     44  N   UNL A   1      42.869  26.736  27.979  1.00  0.00    -0.248 NA
ATOM     45  C   UNL A   1      41.316  24.994  27.983  1.00  0.00     0.031 C 
ATOM     46  C   UNL A   1      45.983  23.904  26.462  1.00  0.00     0.029 A 
ATOM     47  N   UNL A   1      45.587  26.000  27.129  1.00  0.00    -0.354 N 
ATOM     48  C   UNL A   1      41.634  27.221  28.385  1.00  0.00     0.074 A 
ATOM     49  C   UNL A   1      40.701  26.120  28.308  1.00  0.00     0.031 C 
ATOM     50  C   UNL A   1      47.132  24.587  26.346  1.00  0.00     0.029 A 
ATOM     51  C   UNL A   1      46.906  25.972  26.745  1.00  0.00     0.049 A 
ATOM     52  H   UNL A   1      45.143  26.809  27.472  1.00  0.00     0.167 HD
ATOM     53  C   UNL A   1      41.316  28.468  28.808  1.00  0.00     0.037 A 
ATOM     54  C   UNL A   1      47.824  26.956  26.707  1.00  0.00     0.037 A 
ATOM     55  C   UNL A   1      42.253  29.557  28.895  1.00  0.00     0.049 A 
ATOM     56  C   UNL A   1      47.434  28.341  27.152  1.00  0.00     0.074 A 
ATOM     57  C   UNL A   1      42.040  30.843  29.361  1.00  0.00     0.029 A 
ATOM     58  N   UNL A   1      43.581  29.491  28.500  1.00  0.00    -0.354 N 
ATOM     59  N   UNL A   1      46.281  28.772  27.602  1.00  0.00    -0.248 NA
ATOM     60  C   UNL A   1      48.476  29.374  27.085  1.00  0.00     0.031 C 
ATOM     61  C   UNL A   1      43.223  31.570  29.195  1.00  0.00     0.029 A 
ATOM     62  C   UNL A   1      44.192  30.721  28.685  1.00  0.00     0.049 A 
ATOM     63  H   UNL A   1      44.024  28.688  28.141  1.00  0.00     0.167 HD
ATOM     64  C   UNL A   1      46.466  30.114  27.901  1.00  0.00     0.074 A 
ATOM     65  C   UNL A   1      47.847  30.423  27.596  1.00  0.00     0.031 C 
ATOM     66  C   UNL A   1      45.571  31.011  28.385  1.00  0.00     0.037 A 
BRANCH  53  67
ATOM     67  C   UNL A   1      39.890  28.723  29.209  1.00  0.00     0.064 A 
ATOM     68  C   UNL A   1      38.932  29.168  28.285  1.00  0.00     0.173 A 
ATOM     69  C   UNL A   1      39.467  28.485  30.526  1.00  0.00     0.173 A 
ATOM     70  F   UNL A   1      39.286  29.422  27.015  1.00  0.00    -0.203 F 
ATOM     71  C   UNL A   1      37.614  29.393  28.670  1.00  0.00     0.198 A 
ATOM     72  C   UNL A   1      38.141  28.680  30.900  1.00  0.00     0.198 A 
ATOM     73  F   UNL A   1      40.340  28.054  31.450  1.00  0.00    -0.203 F 
ATOM     74  F   UNL A   1      36.730  29.868  27.781  1.00  0.00    -0.200 F 
ATOM     75  C   UNL A   1      37.217  29.143  29.974  1.00  0.00     0.200 A 
ATOM     76  F   UNL A   1      37.755  28.422  32.157  1.00  0.00    -0.200 F 
ATOM     77  F   UNL A   1      35.945  29.351  30.341  1.00  0.00    -0.200 F 
ENDBRANCH  53  67
BRANCH  54  78
ATOM     78  C   UNL A   1      49.207  26.665  26.246  1.00  0.00     0.064 A 
ATOM     79  C   UNL A   1      50.171  26.167  27.134  1.00  0.00     0.173 A 
ATOM     80  C   UNL A   1      49.600  26.889  24.918  1.00  0.00     0.173 A 
ATOM     81  F   UNL A   1      49.851  25.956  28.420  1.00  0.00    -0.203 F 
ATOM     82  C   UNL A   1      51.478  25.924  26.719  1.00  0.00     0.198 A 
ATOM     83  C   UNL A   1      50.899  26.616  24.495  1.00  0.00     0.198 A 
ATOM     84  F   UNL A   1      48.716  27.360  24.027  1.00  0.00    -0.203 F 
ATOM     85  F   UNL A   1      52.391  25.495  27.600  1.00  0.00    -0.200 F 
ATOM     86  C   UNL A   1      51.840  26.142  25.398  1.00  0.00     0.200 A 
ATOM     87  F   UNL A   1      51.240  26.813  23.215  1.00  0.00    -0.200 F 
ATOM     88  F   UNL A   1      53.096  25.905  24.997  1.00  0.00    -0.200 F 
ENDBRANCH  54  78
BRANCH  66  89
ATOM     89  C   UNL A   1      46.066  32.404  28.653  1.00  0.00     0.064 A 
ATOM     90  C   UNL A   1      46.639  32.759  29.884  1.00  0.00     0.173 A 
ATOM     91  C   UNL A   1      46.009  33.382  27.649  1.00  0.00     0.173 A 
ATOM     92  F   UNL A   1      46.704  31.865  30.882  1.00  0.00    -0.203 F 
ATOM     93  C   UNL A   1      47.113  34.050  30.106  1.00  0.00     0.198 A 
ATOM     94  C   UNL A   1      46.514  34.661  27.863  1.00  0.00     0.198 A 
ATOM     95  F   UNL A   1      45.478  33.093  26.451  1.00  0.00    -0.203 F 
ATOM     96  F   UNL A   1      47.610  34.382  31.305  1.00  0.00    -0.200 F 
ATOM     97  C   UNL A   1      47.057  34.997  29.094  1.00  0.00     0.200 A 
ATOM     98  F   UNL A   1      46.475  35.570  26.879  1.00  0.00    -0.200 F 
ATOM     99  F   UNL A   1      47.524  36.235  29.306  1.00  0.00    -0.200 F 
ENDBRANCH  66  89
ENDBRANCH  40  41
ENDBRANCH  32  35
ENDBRANCH  30  31
ENDBRANCH  29  30
ENDBRANCH  28  29
ENDBRANCH   1  28
TORSDOF 15
ENDMDL
MODEL 3
REMARK VINA RESULT:     -12.6      0.710      7.221
REMARK SMILES CC(C)c1ccc(NC(=O)C[C@H]2SC[C@@H](C(=O)NCCCCNC(=O)c3ccc(-c4c5nc(c(-c6c(F)c(F)c(F)c(F)c6F)c6ccc([nH]6)c(-c6c(F)c(F)c(F)c(F)c6F)c6nc(c(-c7c(F)c(F)c(F)c(F)c7F)c7ccc4[nH]7)C=C6)C=C5)cc3)NC2=O)cc1
REMARK SMILES IDX 19 1 18 2 16 3 17 4 15 6 12 7 13 8 90 9 14 10 89 11 91 12
REMARK SMILES IDX 11 14 9 15 8 16 10 18 7 19 4 20 5 21 93 22 6 23 92 24 2 25
REMARK SMILES IDX 1 26 3 27 20 28 21 29 22 30 23 31 24 32 25 34 26 35 27 36
REMARK SMILES IDX 88 37 28 38 87 39 29 40 30 41 31 42 81 43 32 44 86 45 80 46
REMARK SMILES IDX 82 47 33 48 85 49 79 50 78 51 34 53 66 54 46 55 65 56 47 57
REMARK SMILES IDX 50 58 64 59 83 60 48 61 49 62 63 64 84 65 51 66 35 67 36 68
REMARK SMILES IDX 44 69 37 70 38 71 42 72 45 73 39 74 40 75 43 76 41 77 67 78
REMARK SMILES IDX 68 79 76 80 69 81 70 82 74 83 77 84 71 85 72 86 75 87 73 88
REMARK SMILES IDX 52 89 53 90 61 91 54 92 55 93 59 94 62 95 56 96 57 97 60 98
REMARK SMILES IDX 58 99
REMARK H PARENT 18 5 89 13 8 17 23 33 82 52 50 63
REMARK Flexibility Score: inf
ROOT
ATOM      1  C   UNL A   1      36.179  21.336  25.466  1.00  0.00     0.116 C 
ENDROOT
BRANCH   1   2
ATOM      2  N   UNL A   1      34.978  21.129  24.689  1.00  0.00    -0.354 N 
ATOM      3  C   UNL A   1      33.702  21.497  25.011  1.00  0.00     0.243 C 
ATOM      4  O   UNL A   1      32.788  20.849  24.504  1.00  0.00    -0.273 OA
ATOM      5  H   UNL A   1      35.093  20.670  23.825  1.00  0.00     0.163 HD
BRANCH   3   6
ATOM      6  C   UNL A   1      33.488  22.840  25.743  1.00  0.00     0.181 C 
ATOM      7  C   UNL A   1      32.407  24.741  23.607  1.00  0.00     0.145 C 
ATOM      8  S   UNL A   1      31.131  23.689  24.429  1.00  0.00    -0.145 SA
ATOM      9  C   UNL A   1      33.819  24.148  23.702  1.00  0.00     0.234 C 
ATOM     10  C   UNL A   1      32.028  23.224  25.937  1.00  0.00     0.105 C 
ATOM     11  N   UNL A   1      34.263  23.781  24.950  1.00  0.00    -0.343 N 
ATOM     12  O   UNL A   1      34.639  24.076  22.792  1.00  0.00    -0.274 OA
ATOM     13  H   UNL A   1      35.102  24.154  25.306  1.00  0.00     0.164 HD
BRANCH   7  14
ATOM     14  C   UNL A   1      31.874  25.128  22.218  1.00  0.00     0.124 C 
BRANCH  14  15
ATOM     15  C   UNL A   1      32.678  26.054  21.331  1.00  0.00     0.226 C 
ATOM     16  N   UNL A   1      33.003  27.332  21.666  1.00  0.00    -0.326 N 
ATOM     17  H   UNL A   1      33.533  27.799  20.981  1.00  0.00     0.169 HD
ATOM     18  O   UNL A   1      33.064  25.648  20.227  1.00  0.00    -0.275 OA
BRANCH  16  19
ATOM     19  C   UNL A   1      32.729  28.113  22.795  1.00  0.00     0.041 A 
ATOM     20  C   UNL A   1      32.319  29.491  25.221  1.00  0.00    -0.045 A 
ATOM     21  C   UNL A   1      31.293  29.379  24.270  1.00  0.00     0.006 A 
ATOM     22  C   UNL A   1      33.564  28.925  24.926  1.00  0.00     0.006 A 
ATOM     23  C   UNL A   1      31.501  28.706  23.061  1.00  0.00     0.026 A 
ATOM     24  C   UNL A   1      33.772  28.263  23.714  1.00  0.00     0.026 A 
BRANCH  20  25
ATOM     25  C   UNL A   1      32.046  30.197  26.537  1.00  0.00     0.013 C 
ATOM     26  C   UNL A   1      33.345  30.406  27.317  1.00  0.00     0.012 C 
ATOM     27  C   UNL A   1      31.301  31.522  26.358  1.00  0.00     0.012 C 
ENDBRANCH  20  25
ENDBRANCH  16  19
ENDBRANCH  14  15
ENDBRANCH   7  14
ENDBRANCH   3   6
ENDBRANCH   1   2
BRANCH   1  28
ATOM     28  C   UNL A   1      37.403  21.072  24.591  1.00  0.00     0.023 C 
BRANCH  28  29
ATOM     29  C   UNL A   1      38.219  19.848  25.022  1.00  0.00     0.023 C 
BRANCH  29  30
ATOM     30  C   UNL A   1      39.317  20.137  26.041  1.00  0.00     0.116 C 
BRANCH  30  31
ATOM     31  N   UNL A   1      40.372  19.135  26.017  1.00  0.00    -0.352 N 
ATOM     32  C   UNL A   1      41.730  19.308  26.089  1.00  0.00     0.251 C 
ATOM     33  H   UNL A   1      40.068  18.201  25.938  1.00  0.00     0.163 HD
ATOM     34  O   UNL A   1      42.486  18.362  25.889  1.00  0.00    -0.269 OA
BRANCH  32  35
ATOM     35  C   UNL A   1      42.277  20.648  26.377  1.00  0.00     0.039 A 
ATOM     36  C   UNL A   1      42.609  21.484  25.308  1.00  0.00     0.014 A 
ATOM     37  C   UNL A   1      42.432  21.088  27.695  1.00  0.00     0.014 A 
ATOM     38  C   UNL A   1      43.030  22.790  25.561  1.00  0.00     0.010 A 
ATOM     39  C   UNL A   1      42.781  22.410  27.943  1.00  0.00     0.010 A 
ATOM     40  C   UNL A   1      43.079  23.276  26.879  1.00  0.00    -0.014 A 
BRANCH  40  41
ATOM     41  C   UNL A   1      43.423  24.692  27.163  1.00  0.00     0.031 A 
ATOM     42  C   UNL A   1      44.824  25.188  26.947  1.00  0.00     0.074 A 
ATOM     43  C   UNL A   1      42.487  25.511  27.679  1.00  0.00     0.049 A 
ATOM     44  N   UNL A   1      45.335  26.364  27.207  1.00  0.00    -0.248 NA
ATOM     45  C   UNL A   1      45.787  24.226  26.388  1.00  0.00     0.031 C 
ATOM     46  C   UNL A   1      41.103  25.134  27.975  1.00  0.00     0.029 A 
ATOM     47  N   UNL A   1      42.560  26.827  28.061  1.00  0.00    -0.354 N 
ATOM     48  C   UNL A   1      46.675  26.280  26.853  1.00  0.00     0.074 A 
ATOM     49  C   UNL A   1      46.913  24.923  26.415  1.00  0.00     0.031 C 
ATOM     50  C   UNL A   1      40.453  26.200  28.468  1.00  0.00     0.029 A 
ATOM     51  C   UNL A   1      41.382  27.321  28.568  1.00  0.00     0.049 A 
ATOM     52  H   UNL A   1      43.379  27.368  27.980  1.00  0.00     0.167 HD
ATOM     53  C   UNL A   1      47.615  27.255  26.871  1.00  0.00     0.037 A 
ATOM     54  C   UNL A   1      41.089  28.536  29.068  1.00  0.00     0.037 A 
ATOM     55  C   UNL A   1      47.370  28.608  27.295  1.00  0.00     0.049 A 
ATOM     56  C   UNL A   1      42.162  29.592  29.105  1.00  0.00     0.074 A 
ATOM     57  C   UNL A   1      48.242  29.682  27.299  1.00  0.00     0.029 A 
ATOM     58  N   UNL A   1      46.163  29.072  27.799  1.00  0.00    -0.354 N 
ATOM     59  N   UNL A   1      43.407  29.522  28.702  1.00  0.00    -0.248 NA
ATOM     60  C   UNL A   1      41.786  30.897  29.665  1.00  0.00     0.031 C 
ATOM     61  C   UNL A   1      47.581  30.780  27.858  1.00  0.00     0.029 A 
ATOM     62  C   UNL A   1      46.277  30.410  28.144  1.00  0.00     0.049 A 
ATOM     63  H   UNL A   1      45.346  28.530  27.898  1.00  0.00     0.167 HD
ATOM     64  C   UNL A   1      43.953  30.777  28.930  1.00  0.00     0.074 A 
ATOM     65  C   UNL A   1      42.899  31.595  29.492  1.00  0.00     0.031 C 
ATOM     66  C   UNL A   1      45.216  31.214  28.695  1.00  0.00     0.037 A 
BRANCH  53  67
ATOM     67  C   UNL A   1      49.001  26.893  26.416  1.00  0.00     0.064 A 
ATOM     68  C   UNL A   1      49.952  26.363  27.302  1.00  0.00     0.173 A 
ATOM     69  C   UNL A   1      49.372  27.042  25.072  1.00  0.00     0.173 A 
ATOM     70  F   UNL A   1      49.654  26.210  28.601  1.00  0.00    -0.203 F 
ATOM     71  C   UNL A   1      51.230  26.026  26.866  1.00  0.00     0.198 A 
ATOM     72  C   UNL A   1      50.639  26.673  24.631  1.00  0.00     0.198 A 
ATOM     73  F   UNL A   1      48.500  27.538  24.180  1.00  0.00    -0.203 F 
ATOM     74  F   UNL A   1      52.137  25.572  27.741  1.00  0.00    -0.200 F 
ATOM     75  C   UNL A   1      51.571  26.174  25.530  1.00  0.00     0.200 A 
ATOM     76  F   UNL A   1      50.962  26.801  23.337  1.00  0.00    -0.200 F 
ATOM     77  F   UNL A   1      52.799  25.841  25.109  1.00  0.00    -0.200 F 
ENDBRANCH  53  67
BRANCH  54  78
ATOM     78  C   UNL A   1      39.717  28.827  29.559  1.00  0.00     0.064 A 
ATOM     79  C   UNL A   1      39.351  28.547  30.884  1.00  0.00     0.173 A 
ATOM     80  C   UNL A   1      38.739  29.379  28.718  1.00  0.00     0.173 A 
ATOM     81  F   UNL A   1      40.244  27.999  31.723  1.00  0.00    -0.203 F 
ATOM     82  C   UNL A   1      38.058  28.786  31.342  1.00  0.00     0.198 A 
ATOM     83  C   UNL A   1      37.455  29.648  29.185  1.00  0.00     0.198 A 
ATOM     84  F   UNL A   1      39.038  29.671  27.444  1.00  0.00    -0.203 F 
ATOM     85  F   UNL A   1      37.723  28.463  32.597  1.00  0.00    -0.200 F 
ATOM     86  C   UNL A   1      37.112  29.343  30.494  1.00  0.00     0.200 A 
ATOM     87  F   UNL A   1      36.548  30.201  28.367  1.00  0.00    -0.200 F 
ATOM     88  F   UNL A   1      35.869  29.577  30.935  1.00  0.00    -0.200 F 
ENDBRANCH  54  78
BRANCH  66  89
ATOM     89  C   UNL A   1      45.518  32.651  29.006  1.00  0.00     0.064 A 
ATOM     90  C   UNL A   1      46.056  33.041  30.242  1.00  0.00     0.173 A 
ATOM     91  C   UNL A   1      45.311  33.645  28.038  1.00  0.00     0.173 A 
ATOM     92  F   UNL A   1      46.260  32.132  31.208  1.00  0.00    -0.203 F 
ATOM     93  C   UNL A   1      46.352  34.377  30.504  1.00  0.00     0.198 A 
ATOM     94  C   UNL A   1      45.639  34.973  28.291  1.00  0.00     0.198 A 
ATOM     95  F   UNL A   1      44.806  33.325  26.837  1.00  0.00    -0.203 F 
ATOM     96  F   UNL A   1      46.818  34.734  31.708  1.00  0.00    -0.200 F 
ATOM     97  C   UNL A   1      46.151  35.340  29.526  1.00  0.00     0.200 A 
ATOM     98  F   UNL A   1      45.460  35.900  27.340  1.00  0.00    -0.200 F 
ATOM     99  F   UNL A   1      46.446  36.623  29.776  1.00  0.00    -0.200 F 
ENDBRANCH  66  89
ENDBRANCH  40  41
ENDBRANCH  32  35
ENDBRANCH  30  31
ENDBRANCH  29  30
ENDBRANCH  28  29
ENDBRANCH   1  28
TORSDOF 15
ENDMDL
