MODEL 1
REMARK VINA RESULT:     -13.7      0.000      0.000
REMARK SMILES COc1ccc(CCN2/C(=[NH+]/C(=O)CCC(=O)NCCCCNC(=O)c3ccc(-c4c5nc(c(-c6c(F)c(F)c(F)c(F)c6F)c6ccc([nH]6)c(-c6c(F)c(F)c(F)c(F)c6F)c6nc(c(-c7c(F)c(F)c(F)c(F)c7F)c7ccc4[nH]7)C=C6)C=C5)cc3)S[C@@H]3CS(=O)(=O)C[C@@H]32)cc1
REMARK SMILES IDX 16 1 17 2 18 3 15 5 14 6 12 7 9 8 10 9 96 10 11 11 89 12
REMARK SMILES IDX 90 13 95 14 91 16 92 17 13 18 93 19 94 20 8 21 7 22 6 23
REMARK SMILES IDX 3 24 4 25 98 26 5 27 97 28 2 29 1 30 19 31 20 32 21 33 22 34
REMARK SMILES IDX 23 35 24 36 25 38 26 39 27 40 88 41 28 42 87 43 29 44 30 45
REMARK SMILES IDX 31 46 81 47 32 48 86 49 80 50 82 51 33 52 85 53 79 54 78 55
REMARK SMILES IDX 34 57 66 58 46 59 65 60 47 61 50 62 64 63 83 64 48 65 49 66
REMARK SMILES IDX 63 68 84 69 51 70 35 71 36 72 44 73 37 74 38 75 42 76 45 77
REMARK SMILES IDX 39 78 40 79 43 80 41 81 67 82 68 83 76 84 69 85 70 86 74 87
REMARK SMILES IDX 77 88 71 89 72 90 75 91 73 92 52 93 53 94 61 95 54 96 55 97
REMARK SMILES IDX 59 98 62 99 56 100 57 101 60 102 58 103
REMARK H PARENT 18 4 11 15 23 37 82 56 50 67
REMARK Flexibility Score: inf
ROOT
ATOM      1  C   UNL A   1      32.740  28.208  26.602  1.00  0.00     0.220 C 
ATOM      2  O   UNL A   1      33.768  28.231  27.280  1.00  0.00    -0.275 OA
ATOM      3  N   UNL A   1      32.777  28.765  25.348  1.00  0.00    -0.356 N 
ATOM      4  H   UNL A   1      33.664  28.976  24.976  1.00  0.00     0.163 HD
ENDROOT
BRANCH   1   5
ATOM      5  C   UNL A   1      31.428  27.609  27.128  1.00  0.00     0.112 C 
BRANCH   5   6
ATOM      6  C   UNL A   1      31.402  26.075  27.032  1.00  0.00     0.138 C 
BRANCH   6   7
ATOM      7  C   UNL A   1      31.794  25.464  25.680  1.00  0.00     0.308 C 
ATOM      8  N   UNL A   1      34.698  23.311  24.792  1.00  0.00    -0.251 N 
ATOM      9  C   UNL A   1      33.503  24.070  24.726  1.00  0.00     0.314 C 
ATOM     10  C   UNL A   1      34.748  22.061  23.969  1.00  0.00     0.206 C 
ATOM     11  N   UNL A   1      33.067  24.882  25.642  1.00  0.00    -0.205 N 
ATOM     12  S   UNL A   1      32.495  23.718  23.275  1.00  0.00    -0.030 SA
ATOM     13  C   UNL A   1      33.294  22.210  22.692  1.00  0.00     0.120 C 
ATOM     14  C   UNL A   1      34.713  20.335  25.027  1.00  0.00     0.187 C 
ATOM     15  H   UNL A   1      33.685  25.107  26.374  1.00  0.00     0.316 HD
ATOM     16  C   UNL A   1      32.106  20.620  22.643  1.00  0.00     0.156 C 
ATOM     17  S   UNL A   1      32.905  18.994  24.071  1.00  0.00     0.155 S 
ATOM     18  O   UNL A   1      30.940  25.462  24.795  1.00  0.00    -0.247 OA
ATOM     19  O   UNL A   1      31.882  18.575  25.014  1.00  0.00    -0.229 OA
ATOM     20  O   UNL A   1      33.291  17.904  23.187  1.00  0.00    -0.229 OA
BRANCH   8  21
ATOM     21  C   UNL A   1      35.801  23.333  25.783  1.00  0.00     0.242 C 
BRANCH  21  22
ATOM     22  C   UNL A   1      37.287  23.432  25.436  1.00  0.00     0.081 C 
BRANCH  22  23
ATOM     23  C   UNL A   1      38.204  22.270  25.661  1.00  0.00    -0.044 A 
ATOM     24  C   UNL A   1      39.894  20.068  25.938  1.00  0.00     0.118 A 
ATOM     25  C   UNL A   1      38.759  19.966  25.140  1.00  0.00     0.046 A 
ATOM     26  C   UNL A   1      40.182  21.247  26.628  1.00  0.00     0.046 A 
ATOM     27  C   UNL A   1      37.907  21.059  25.019  1.00  0.00     0.007 A 
ATOM     28  C   UNL A   1      39.335  22.351  26.488  1.00  0.00     0.007 A 
BRANCH  24  29
ATOM     29  O   UNL A   1      40.869  19.115  25.812  1.00  0.00    -0.497 OA
ATOM     30  C   UNL A   1      42.151  19.642  26.119  1.00  0.00     0.278 C 
ENDBRANCH  24  29
ENDBRANCH  22  23
ENDBRANCH  21  22
ENDBRANCH   8  21
ENDBRANCH   6   7
ENDBRANCH   5   6
ENDBRANCH   1   5
BRANCH   3  31
ATOM     31  C   UNL A   1      31.629  29.071  24.523  1.00  0.00     0.116 C 
BRANCH  31  32
ATOM     32  C   UNL A   1      31.067  30.399  24.984  1.00  0.00     0.023 C 
BRANCH  32  33
ATOM     33  C   UNL A   1      31.814  31.068  26.096  1.00  0.00     0.023 C 
BRANCH  33  34
ATOM     34  C   UNL A   1      31.107  32.344  26.475  1.00  0.00     0.116 C 
BRANCH  34  35
ATOM     35  N   UNL A   1      32.055  33.589  27.278  1.00  0.00    -0.352 N 
ATOM     36  C   UNL A   1      33.874  33.930  27.889  1.00  0.00     0.251 C 
ATOM     37  H   UNL A   1      31.482  34.362  27.486  1.00  0.00     0.163 HD
ATOM     38  O   UNL A   1      34.347  35.032  28.204  1.00  0.00    -0.269 OA
BRANCH  36  39
ATOM     39  C   UNL A   1      35.209  32.847  28.140  1.00  0.00     0.039 A 
ATOM     40  C   UNL A   1      36.490  33.417  28.225  1.00  0.00     0.014 A 
ATOM     41  C   UNL A   1      35.120  31.458  28.466  1.00  0.00     0.014 A 
ATOM     42  C   UNL A   1      37.567  32.682  28.767  1.00  0.00     0.010 A 
ATOM     43  C   UNL A   1      36.121  30.803  29.140  1.00  0.00     0.010 A 
ATOM     44  C   UNL A   1      37.363  31.397  29.294  1.00  0.00    -0.014 A 
BRANCH  44  45
ATOM     45  C   UNL A   1      38.336  30.603  30.079  1.00  0.00     0.031 A 
ATOM     46  C   UNL A   1      38.525  30.910  31.548  1.00  0.00     0.074 A 
ATOM     47  C   UNL A   1      39.235  29.847  29.420  1.00  0.00     0.049 A 
ATOM     48  N   UNL A   1      39.468  30.512  32.362  1.00  0.00    -0.248 NA
ATOM     49  C   UNL A   1      37.586  31.876  32.153  1.00  0.00     0.031 C 
ATOM     50  C   UNL A   1      39.270  29.630  27.971  1.00  0.00     0.029 A 
ATOM     51  N   UNL A   1      40.325  29.156  29.882  1.00  0.00    -0.354 N 
ATOM     52  C   UNL A   1      39.252  31.205  33.548  1.00  0.00     0.074 A 
ATOM     53  C   UNL A   1      38.168  32.129  33.313  1.00  0.00     0.031 C 
ATOM     54  C   UNL A   1      40.299  28.821  27.671  1.00  0.00     0.029 A 
ATOM     55  C   UNL A   1      41.010  28.485  28.899  1.00  0.00     0.049 A 
ATOM     56  H   UNL A   1      40.592  29.140  30.830  1.00  0.00     0.167 HD
ATOM     57  C   UNL A   1      39.866  31.045  34.745  1.00  0.00     0.037 A 
ATOM     58  C   UNL A   1      42.080  27.674  28.991  1.00  0.00     0.037 A 
ATOM     59  C   UNL A   1      40.895  30.070  34.975  1.00  0.00     0.049 A 
ATOM     60  C   UNL A   1      42.685  27.429  30.347  1.00  0.00     0.074 A 
ATOM     61  C   UNL A   1      41.477  29.692  36.170  1.00  0.00     0.029 A 
ATOM     62  N   UNL A   1      41.491  29.312  33.977  1.00  0.00    -0.354 N 
ATOM     63  N   UNL A   1      42.358  27.948  31.506  1.00  0.00    -0.248 NA
ATOM     64  C   UNL A   1      43.797  26.471  30.410  1.00  0.00     0.031 C 
ATOM     65  C   UNL A   1      42.459  28.737  35.889  1.00  0.00     0.029 A 
ATOM     66  C   UNL A   1      42.453  28.486  34.525  1.00  0.00     0.049 A 
ATOM     67  H   UNL A   1      41.262  29.358  33.021  1.00  0.00     0.167 HD
ATOM     68  C   UNL A   1      43.198  27.357  32.439  1.00  0.00     0.074 A 
ATOM     69  C   UNL A   1      44.041  26.430  31.712  1.00  0.00     0.031 C 
ATOM     70  C   UNL A   1      43.269  27.562  33.778  1.00  0.00     0.037 A 
BRANCH  57  71
ATOM     71  C   UNL A   1      39.401  31.897  35.893  1.00  0.00     0.064 A 
ATOM     72  C   UNL A   1      39.973  33.153  36.157  1.00  0.00     0.173 A 
ATOM     73  C   UNL A   1      38.359  31.469  36.728  1.00  0.00     0.173 A 
ATOM     74  F   UNL A   1      40.975  33.613  35.394  1.00  0.00    -0.203 F 
ATOM     75  C   UNL A   1      39.553  33.924  37.237  1.00  0.00     0.198 A 
ATOM     76  C   UNL A   1      37.914  32.261  37.785  1.00  0.00     0.198 A 
ATOM     77  F   UNL A   1      37.767  30.283  36.521  1.00  0.00    -0.203 F 
ATOM     78  F   UNL A   1      40.163  35.087  37.504  1.00  0.00    -0.200 F 
ATOM     79  C   UNL A   1      38.519  33.481  38.047  1.00  0.00     0.200 A 
ATOM     80  F   UNL A   1      36.902  31.839  38.557  1.00  0.00    -0.200 F 
ATOM     81  F   UNL A   1      38.110  34.227  39.082  1.00  0.00    -0.200 F 
ENDBRANCH  57  71
BRANCH  58  82
ATOM     82  C   UNL A   1      42.574  26.954  27.790  1.00  0.00     0.064 A 
ATOM     83  C   UNL A   1      42.127  25.653  27.516  1.00  0.00     0.173 A 
ATOM     84  C   UNL A   1      43.478  27.534  26.891  1.00  0.00     0.173 A 
ATOM     85  F   UNL A   1      41.266  25.053  28.353  1.00  0.00    -0.203 F 
ATOM     86  C   UNL A   1      42.587  24.947  26.407  1.00  0.00     0.198 A 
ATOM     87  C   UNL A   1      43.919  26.837  25.765  1.00  0.00     0.198 A 
ATOM     88  F   UNL A   1      43.920  28.783  27.093  1.00  0.00    -0.203 F 
ATOM     89  F   UNL A   1      42.176  23.690  26.198  1.00  0.00    -0.200 F 
ATOM     90  C   UNL A   1      43.481  25.541  25.531  1.00  0.00     0.200 A 
ATOM     91  F   UNL A   1      44.768  27.420  24.908  1.00  0.00    -0.200 F 
ATOM     92  F   UNL A   1      43.922  24.865  24.461  1.00  0.00    -0.200 F 
ENDBRANCH  58  82
BRANCH  70  93
ATOM     93  C   UNL A   1      44.265  26.748  34.547  1.00  0.00     0.064 A 
ATOM     94  C   UNL A   1      43.950  25.472  35.033  1.00  0.00     0.173 A 
ATOM     95  C   UNL A   1      45.570  27.226  34.744  1.00  0.00     0.173 A 
ATOM     96  F   UNL A   1      42.712  24.979  34.881  1.00  0.00    -0.203 F 
ATOM     97  C   UNL A   1      44.901  24.710  35.705  1.00  0.00     0.198 A 
ATOM     98  C   UNL A   1      46.527  26.449  35.388  1.00  0.00     0.198 A 
ATOM     99  F   UNL A   1      45.922  28.439  34.290  1.00  0.00    -0.203 F 
ATOM    100  F   UNL A   1      44.567  23.509  36.199  1.00  0.00    -0.200 F 
ATOM    101  C   UNL A   1      46.190  25.195  35.873  1.00  0.00     0.200 A 
ATOM    102  F   UNL A   1      47.776  26.912  35.534  1.00  0.00    -0.200 F 
ATOM    103  F   UNL A   1      47.108  24.453  36.508  1.00  0.00    -0.200 F 
ENDBRANCH  70  93
ENDBRANCH  44  45
ENDBRANCH  36  39
ENDBRANCH  34  35
ENDBRANCH  33  34
ENDBRANCH  32  33
ENDBRANCH  31  32
ENDBRANCH   3  31
TORSDOF 17
ENDMDL
MODEL 2
REMARK VINA RESULT:     -13.3      4.711      9.901
REMARK SMILES COc1ccc(CCN2/C(=[NH+]/C(=O)CCC(=O)NCCCCNC(=O)c3ccc(-c4c5nc(c(-c6c(F)c(F)c(F)c(F)c6F)c6ccc([nH]6)c(-c6c(F)c(F)c(F)c(F)c6F)c6nc(c(-c7c(F)c(F)c(F)c(F)c7F)c7ccc4[nH]7)C=C6)C=C5)cc3)S[C@@H]3CS(=O)(=O)C[C@@H]32)cc1
REMARK SMILES IDX 16 1 17 2 18 3 15 5 14 6 12 7 9 8 10 9 96 10 11 11 89 12
REMARK SMILES IDX 90 13 95 14 91 16 92 17 13 18 93 19 94 20 8 21 7 22 6 23
REMARK SMILES IDX 3 24 4 25 98 26 5 27 97 28 2 29 1 30 19 31 20 32 21 33 22 34
REMARK SMILES IDX 23 35 24 36 25 38 26 39 27 40 88 41 28 42 87 43 29 44 30 45
REMARK SMILES IDX 31 46 81 47 32 48 86 49 80 50 82 51 33 52 85 53 79 54 78 55
REMARK SMILES IDX 34 57 66 58 46 59 65 60 47 61 50 62 64 63 83 64 48 65 49 66
REMARK SMILES IDX 63 68 84 69 51 70 35 71 36 72 44 73 37 74 38 75 42 76 45 77
REMARK SMILES IDX 39 78 40 79 43 80 41 81 67 82 68 83 76 84 69 85 70 86 74 87
REMARK SMILES IDX 77 88 71 89 72 90 75 91 73 92 52 93 53 94 61 95 54 96 55 97
REMARK SMILES IDX 59 98 62 99 56 100 57 101 60 102 58 103
REMARK H PARENT 18 4 11 15 23 37 82 56 50 67
REMARK Flexibility Score: inf
ROOT
ATOM      1  C   UNL A   1      32.832  20.696  24.706  1.00  0.00     0.220 C 
ATOM      2  O   UNL A   1      32.133  19.689  24.595  1.00  0.00    -0.275 OA
ATOM      3  N   UNL A   1      34.159  20.535  25.015  1.00  0.00    -0.356 N 
ATOM      4  H   UNL A   1      34.531  19.626  24.938  1.00  0.00     0.163 HD
ENDROOT
BRANCH   1   5
ATOM      5  C   UNL A   1      32.258  22.111  24.541  1.00  0.00     0.112 C 
BRANCH   5   6
ATOM      6  C   UNL A   1      32.013  22.478  23.069  1.00  0.00     0.138 C 
BRANCH   6   7
ATOM      7  C   UNL A   1      32.403  23.899  22.642  1.00  0.00     0.308 C 
ATOM      8  N   UNL A   1      30.726  27.145  23.361  1.00  0.00    -0.251 N 
ATOM      9  C   UNL A   1      31.634  26.163  22.893  1.00  0.00     0.314 C 
ATOM     10  C   UNL A   1      31.314  28.450  23.801  1.00  0.00     0.206 C 
ATOM     11  N   UNL A   1      31.435  24.879  22.899  1.00  0.00    -0.205 N 
ATOM     12  S   UNL A   1      33.231  26.828  22.388  1.00  0.00    -0.030 SA
ATOM     13  C   UNL A   1      33.115  28.491  23.079  1.00  0.00     0.120 C 
ATOM     14  C   UNL A   1      31.241  28.795  25.795  1.00  0.00     0.187 C 
ATOM     15  H   UNL A   1      30.524  24.567  23.102  1.00  0.00     0.316 HD
ATOM     16  C   UNL A   1      34.509  28.916  24.428  1.00  0.00     0.156 C 
ATOM     17  S   UNL A   1      33.524  29.359  26.467  1.00  0.00     0.155 S 
ATOM     18  O   UNL A   1      33.539  24.064  22.202  1.00  0.00    -0.247 OA
ATOM     19  O   UNL A   1      34.085  28.521  27.512  1.00  0.00    -0.229 OA
ATOM     20  O   UNL A   1      33.812  30.766  26.701  1.00  0.00    -0.229 OA
BRANCH   8  21
ATOM     21  C   UNL A   1      29.322  27.019  23.819  1.00  0.00     0.242 C 
BRANCH  21  22
ATOM     22  C   UNL A   1      28.125  27.720  23.174  1.00  0.00     0.081 C 
BRANCH  22  23
ATOM     23  C   UNL A   1      28.166  29.189  22.883  1.00  0.00    -0.044 A 
ATOM     24  C   UNL A   1      28.218  31.893  22.198  1.00  0.00     0.118 A 
ATOM     25  C   UNL A   1      28.794  30.956  21.344  1.00  0.00     0.046 A 
ATOM     26  C   UNL A   1      27.643  31.500  23.408  1.00  0.00     0.046 A 
ATOM     27  C   UNL A   1      28.785  29.611  21.697  1.00  0.00     0.007 A 
ATOM     28  C   UNL A   1      27.616  30.145  23.751  1.00  0.00     0.007 A 
BRANCH  24  29
ATOM     29  O   UNL A   1      27.962  33.148  21.714  1.00  0.00    -0.497 OA
ATOM     30  C   UNL A   1      27.606  33.110  20.340  1.00  0.00     0.278 C 
ENDBRANCH  24  29
ENDBRANCH  22  23
ENDBRANCH  21  22
ENDBRANCH   8  21
ENDBRANCH   6   7
ENDBRANCH   5   6
ENDBRANCH   1   5
BRANCH   3  31
ATOM     31  C   UNL A   1      35.063  21.581  25.444  1.00  0.00     0.116 C 
BRANCH  31  32
ATOM     32  C   UNL A   1      35.901  21.988  24.252  1.00  0.00     0.023 C 
BRANCH  32  33
ATOM     33  C   UNL A   1      37.372  21.750  24.382  1.00  0.00     0.023 C 
BRANCH  33  34
ATOM     34  C   UNL A   1      37.629  20.834  25.552  1.00  0.00     0.116 C 
BRANCH  34  35
ATOM     35  N   UNL A   1      38.963  19.697  25.415  1.00  0.00    -0.352 N 
ATOM     36  C   UNL A   1      40.843  19.522  25.903  1.00  0.00     0.251 C 
ATOM     37  H   UNL A   1      38.665  18.889  24.938  1.00  0.00     0.163 HD
ATOM     38  O   UNL A   1      41.502  18.472  25.913  1.00  0.00    -0.269 OA
BRANCH  36  39
ATOM     39  C   UNL A   1      42.000  20.715  26.409  1.00  0.00     0.039 A 
ATOM     40  C   UNL A   1      42.684  21.412  25.400  1.00  0.00     0.014 A 
ATOM     41  C   UNL A   1      42.186  21.200  27.740  1.00  0.00     0.014 A 
ATOM     42  C   UNL A   1      43.364  22.614  25.694  1.00  0.00     0.010 A 
ATOM     43  C   UNL A   1      42.705  22.445  27.996  1.00  0.00     0.010 A 
ATOM     44  C   UNL A   1      43.311  23.170  26.982  1.00  0.00    -0.014 A 
BRANCH  44  45
ATOM     45  C   UNL A   1      43.785  24.515  27.380  1.00  0.00     0.031 A 
ATOM     46  C   UNL A   1      42.781  25.545  27.845  1.00  0.00     0.074 A 
ATOM     47  C   UNL A   1      45.034  24.887  27.038  1.00  0.00     0.049 A 
ATOM     48  N   UNL A   1      42.934  26.833  28.017  1.00  0.00    -0.248 NA
ATOM     49  C   UNL A   1      41.393  25.080  28.044  1.00  0.00     0.031 C 
ATOM     50  C   UNL A   1      46.037  24.029  26.402  1.00  0.00     0.029 A 
ATOM     51  N   UNL A   1      45.658  26.103  27.137  1.00  0.00    -0.354 N 
ATOM     52  C   UNL A   1      41.664  27.323  28.303  1.00  0.00     0.074 A 
ATOM     53  C   UNL A   1      40.740  26.223  28.168  1.00  0.00     0.031 C 
ATOM     54  C   UNL A   1      47.165  24.733  26.213  1.00  0.00     0.029 A 
ATOM     55  C   UNL A   1      46.955  26.097  26.687  1.00  0.00     0.049 A 
ATOM     56  H   UNL A   1      45.218  26.908  27.498  1.00  0.00     0.167 HD
ATOM     57  C   UNL A   1      41.309  28.569  28.698  1.00  0.00     0.037 A 
ATOM     58  C   UNL A   1      47.873  27.080  26.681  1.00  0.00     0.037 A 
ATOM     59  C   UNL A   1      42.256  29.631  28.895  1.00  0.00     0.049 A 
ATOM     60  C   UNL A   1      47.486  28.431  27.221  1.00  0.00     0.074 A 
ATOM     61  C   UNL A   1      42.052  30.880  29.449  1.00  0.00     0.029 A 
ATOM     62  N   UNL A   1      43.596  29.557  28.542  1.00  0.00    -0.354 N 
ATOM     63  N   UNL A   1      46.324  28.844  27.666  1.00  0.00    -0.248 NA
ATOM     64  C   UNL A   1      48.545  29.449  27.273  1.00  0.00     0.031 C 
ATOM     65  C   UNL A   1      43.262  31.580  29.390  1.00  0.00     0.029 A 
ATOM     66  C   UNL A   1      44.228  30.749  28.843  1.00  0.00     0.049 A 
ATOM     67  H   UNL A   1      44.031  28.773  28.136  1.00  0.00     0.167 HD
ATOM     68  C   UNL A   1      46.518  30.153  28.082  1.00  0.00     0.074 A 
ATOM     69  C   UNL A   1      47.913  30.462  27.847  1.00  0.00     0.031 C 
ATOM     70  C   UNL A   1      45.623  31.024  28.611  1.00  0.00     0.037 A 
BRANCH  57  71
ATOM     71  C   UNL A   1      39.858  28.824  28.996  1.00  0.00     0.064 A 
ATOM     72  C   UNL A   1      39.323  28.619  30.279  1.00  0.00     0.173 A 
ATOM     73  C   UNL A   1      38.993  29.301  28.000  1.00  0.00     0.173 A 
ATOM     74  F   UNL A   1      40.101  28.162  31.271  1.00  0.00    -0.203 F 
ATOM     75  C   UNL A   1      37.973  28.835  30.540  1.00  0.00     0.198 A 
ATOM     76  C   UNL A   1      37.650  29.553  28.275  1.00  0.00     0.198 A 
ATOM     77  F   UNL A   1      39.448  29.524  26.758  1.00  0.00    -0.203 F 
ATOM     78  F   UNL A   1      37.477  28.566  31.756  1.00  0.00    -0.200 F 
ATOM     79  C   UNL A   1      37.138  29.309  29.540  1.00  0.00     0.200 A 
ATOM     80  F   UNL A   1      36.848  30.027  27.311  1.00  0.00    -0.200 F 
ATOM     81  F   UNL A   1      35.840  29.522  29.794  1.00  0.00    -0.200 F 
ENDBRANCH  57  71
BRANCH  58  82
ATOM     82  C   UNL A   1      49.267  26.797  26.253  1.00  0.00     0.064 A 
ATOM     83  C   UNL A   1      50.198  26.298  27.176  1.00  0.00     0.173 A 
ATOM     84  C   UNL A   1      49.698  26.997  24.936  1.00  0.00     0.173 A 
ATOM     85  F   UNL A   1      49.832  26.096  28.451  1.00  0.00    -0.203 F 
ATOM     86  C   UNL A   1      51.516  26.040  26.807  1.00  0.00     0.198 A 
ATOM     87  C   UNL A   1      51.012  26.714  24.559  1.00  0.00     0.198 A 
ATOM     88  F   UNL A   1      48.844  27.451  24.008  1.00  0.00    -0.203 F 
ATOM     89  F   UNL A   1      52.393  25.607  27.722  1.00  0.00    -0.200 F 
ATOM     90  C   UNL A   1      51.921  26.245  25.497  1.00  0.00     0.200 A 
ATOM     91  F   UNL A   1      51.397  26.894  23.289  1.00  0.00    -0.200 F 
ATOM     92  F   UNL A   1      53.188  25.994  25.140  1.00  0.00    -0.200 F 
ENDBRANCH  58  82
BRANCH  70  93
ATOM     93  C   UNL A   1      46.130  32.380  29.001  1.00  0.00     0.064 A 
ATOM     94  C   UNL A   1      46.068  33.468  28.121  1.00  0.00     0.173 A 
ATOM     95  C   UNL A   1      46.626  32.604  30.295  1.00  0.00     0.173 A 
ATOM     96  F   UNL A   1      45.614  33.298  26.869  1.00  0.00    -0.203 F 
ATOM     97  C   UNL A   1      46.501  34.730  28.515  1.00  0.00     0.198 A 
ATOM     98  C   UNL A   1      47.028  33.874  30.696  1.00  0.00     0.198 A 
ATOM     99  F   UNL A   1      46.699  31.595  31.177  1.00  0.00    -0.203 F 
ATOM    100  F   UNL A   1      46.471  35.748  27.644  1.00  0.00    -0.200 F 
ATOM    101  C   UNL A   1      46.971  34.934  29.804  1.00  0.00     0.200 A 
ATOM    102  F   UNL A   1      47.466  34.072  31.947  1.00  0.00    -0.200 F 
ATOM    103  F   UNL A   1      47.373  36.154  30.187  1.00  0.00    -0.200 F 
ENDBRANCH  70  93
ENDBRANCH  44  45
ENDBRANCH  36  39
ENDBRANCH  34  35
ENDBRANCH  33  34
ENDBRANCH  32  33
ENDBRANCH  31  32
ENDBRANCH   3  31
TORSDOF 17
ENDMDL
MODEL 3
REMARK VINA RESULT:     -12.5      3.270      9.754
REMARK SMILES COc1ccc(CCN2/C(=[NH+]/C(=O)CCC(=O)NCCCCNC(=O)c3ccc(-c4c5nc(c(-c6c(F)c(F)c(F)c(F)c6F)c6ccc([nH]6)c(-c6c(F)c(F)c(F)c(F)c6F)c6nc(c(-c7c(F)c(F)c(F)c(F)c7F)c7ccc4[nH]7)C=C6)C=C5)cc3)S[C@@H]3CS(=O)(=O)C[C@@H]32)cc1
REMARK SMILES IDX 16 1 17 2 18 3 15 5 14 6 12 7 9 8 10 9 96 10 11 11 89 12
REMARK SMILES IDX 90 13 95 14 91 16 92 17 13 18 93 19 94 20 8 21 7 22 6 23
REMARK SMILES IDX 3 24 4 25 98 26 5 27 97 28 2 29 1 30 19 31 20 32 21 33 22 34
REMARK SMILES IDX 23 35 24 36 25 38 26 39 27 40 88 41 28 42 87 43 29 44 30 45
REMARK SMILES IDX 31 46 81 47 32 48 86 49 80 50 82 51 33 52 85 53 79 54 78 55
REMARK SMILES IDX 34 57 66 58 46 59 65 60 47 61 50 62 64 63 83 64 48 65 49 66
REMARK SMILES IDX 63 68 84 69 51 70 35 71 36 72 44 73 37 74 38 75 42 76 45 77
REMARK SMILES IDX 39 78 40 79 43 80 41 81 67 82 68 83 76 84 69 85 70 86 74 87
REMARK SMILES IDX 77 88 71 89 72 90 75 91 73 92 52 93 53 94 61 95 54 96 55 97
REMARK SMILES IDX 59 98 62 99 56 100 57 101 60 102 58 103
REMARK H PARENT 18 4 11 15 23 37 82 56 50 67
REMARK Flexibility Score: inf
ROOT
ATOM      1  C   UNL A   1      33.036  20.184  24.272  1.00  0.00     0.220 C 
ATOM      2  O   UNL A   1      32.260  19.327  23.851  1.00  0.00    -0.275 OA
ATOM      3  N   UNL A   1      34.252  19.777  24.762  1.00  0.00    -0.356 N 
ATOM      4  H   UNL A   1      34.523  18.849  24.573  1.00  0.00     0.163 HD
ENDROOT
BRANCH   1   5
ATOM      5  C   UNL A   1      32.672  21.676  24.291  1.00  0.00     0.112 C 
BRANCH   5   6
ATOM      6  C   UNL A   1      32.043  22.145  22.969  1.00  0.00     0.138 C 
BRANCH   6   7
ATOM      7  C   UNL A   1      32.376  23.573  22.519  1.00  0.00     0.308 C 
ATOM      8  N   UNL A   1      30.689  26.786  23.350  1.00  0.00    -0.251 N 
ATOM      9  C   UNL A   1      31.583  25.822  22.822  1.00  0.00     0.314 C 
ATOM     10  C   UNL A   1      31.279  28.102  23.751  1.00  0.00     0.206 C 
ATOM     11  N   UNL A   1      31.409  24.534  22.840  1.00  0.00    -0.205 N 
ATOM     12  S   UNL A   1      33.130  26.517  22.214  1.00  0.00    -0.030 SA
ATOM     13  C   UNL A   1      33.028  28.177  22.913  1.00  0.00     0.120 C 
ATOM     14  C   UNL A   1      31.331  28.447  25.747  1.00  0.00     0.187 C 
ATOM     15  H   UNL A   1      30.520  24.204  23.102  1.00  0.00     0.316 HD
ATOM     16  C   UNL A   1      34.498  28.630  24.168  1.00  0.00     0.156 C 
ATOM     17  S   UNL A   1      33.641  29.055  26.267  1.00  0.00     0.155 S 
ATOM     18  O   UNL A   1      33.478  23.759  22.006  1.00  0.00    -0.247 OA
ATOM     19  O   UNL A   1      34.286  28.228  27.273  1.00  0.00    -0.229 OA
ATOM     20  O   UNL A   1      33.917  30.467  26.484  1.00  0.00    -0.229 OA
BRANCH   8  21
ATOM     21  C   UNL A   1      29.320  26.633  23.899  1.00  0.00     0.242 C 
BRANCH  21  22
ATOM     22  C   UNL A   1      28.083  27.371  23.384  1.00  0.00     0.081 C 
BRANCH  22  23
ATOM     23  C   UNL A   1      28.137  28.839  23.089  1.00  0.00    -0.044 A 
ATOM     24  C   UNL A   1      28.233  31.539  22.395  1.00  0.00     0.118 A 
ATOM     25  C   UNL A   1      28.942  30.610  21.639  1.00  0.00     0.046 A 
ATOM     26  C   UNL A   1      27.500  31.142  23.515  1.00  0.00     0.046 A 
ATOM     27  C   UNL A   1      28.908  29.267  21.999  1.00  0.00     0.007 A 
ATOM     28  C   UNL A   1      27.452  29.789  23.862  1.00  0.00     0.007 A 
BRANCH  24  29
ATOM     29  O   UNL A   1      28.024  32.786  21.869  1.00  0.00    -0.497 OA
ATOM     30  C   UNL A   1      27.754  32.722  20.477  1.00  0.00     0.278 C 
ENDBRANCH  24  29
ENDBRANCH  22  23
ENDBRANCH  21  22
ENDBRANCH   8  21
ENDBRANCH   6   7
ENDBRANCH   5   6
ENDBRANCH   1   5
BRANCH   3  31
ATOM     31  C   UNL A   1      35.170  20.587  25.532  1.00  0.00     0.116 C 
BRANCH  31  32
ATOM     32  C   UNL A   1      36.545  20.440  24.918  1.00  0.00     0.023 C 
BRANCH  32  33
ATOM     33  C   UNL A   1      37.220  21.717  24.525  1.00  0.00     0.023 C 
BRANCH  33  34
ATOM     34  C   UNL A   1      37.588  22.491  25.766  1.00  0.00     0.116 C 
BRANCH  34  35
ATOM     35  N   UNL A   1      39.273  22.953  25.963  1.00  0.00    -0.352 N 
ATOM     36  C   UNL A   1      40.371  24.261  26.904  1.00  0.00     0.251 C 
ATOM     37  H   UNL A   1      39.846  22.362  25.424  1.00  0.00     0.163 HD
ATOM     38  O   UNL A   1      41.597  24.201  27.075  1.00  0.00    -0.269 OA
BRANCH  36  39
ATOM     39  C   UNL A   1      39.940  25.752  27.685  1.00  0.00     0.039 A 
ATOM     40  C   UNL A   1      39.027  25.677  28.750  1.00  0.00     0.014 A 
ATOM     41  C   UNL A   1      40.567  27.021  27.488  1.00  0.00     0.014 A 
ATOM     42  C   UNL A   1      38.890  26.754  29.653  1.00  0.00     0.010 A 
ATOM     43  C   UNL A   1      40.555  27.997  28.453  1.00  0.00     0.010 A 
ATOM     44  C   UNL A   1      39.711  27.887  29.547  1.00  0.00    -0.014 A 
BRANCH  44  45
ATOM     45  C   UNL A   1      39.831  28.983  30.534  1.00  0.00     0.031 A 
ATOM     46  C   UNL A   1      40.804  28.840  31.683  1.00  0.00     0.074 A 
ATOM     47  C   UNL A   1      38.874  29.932  30.567  1.00  0.00     0.049 A 
ATOM     48  N   UNL A   1      40.908  29.553  32.775  1.00  0.00    -0.248 NA
ATOM     49  C   UNL A   1      41.713  27.677  31.644  1.00  0.00     0.031 C 
ATOM     50  C   UNL A   1      37.764  30.058  29.618  1.00  0.00     0.029 A 
ATOM     51  N   UNL A   1      38.657  30.946  31.463  1.00  0.00    -0.354 N 
ATOM     52  C   UNL A   1      41.858  28.902  33.554  1.00  0.00     0.074 A 
ATOM     53  C   UNL A   1      42.213  27.683  32.869  1.00  0.00     0.031 C 
ATOM     54  C   UNL A   1      37.014  31.119  29.956  1.00  0.00     0.029 A 
ATOM     55  C   UNL A   1      37.571  31.728  31.158  1.00  0.00     0.049 A 
ATOM     56  H   UNL A   1      39.227  31.100  32.252  1.00  0.00     0.167 HD
ATOM     57  C   UNL A   1      42.425  29.314  34.713  1.00  0.00     0.037 A 
ATOM     58  C   UNL A   1      37.097  32.827  31.774  1.00  0.00     0.037 A 
ATOM     59  C   UNL A   1      42.108  30.566  35.343  1.00  0.00     0.049 A 
ATOM     60  C   UNL A   1      37.807  33.327  33.004  1.00  0.00     0.074 A 
ATOM     61  C   UNL A   1      42.726  31.174  36.418  1.00  0.00     0.029 A 
ATOM     62  N   UNL A   1      41.078  31.403  34.939  1.00  0.00    -0.354 N 
ATOM     63  N   UNL A   1      38.829  32.807  33.639  1.00  0.00    -0.248 NA
ATOM     64  C   UNL A   1      37.306  34.577  33.592  1.00  0.00     0.031 C 
ATOM     65  C   UNL A   1      42.039  32.361  36.695  1.00  0.00     0.029 A 
ATOM     66  C   UNL A   1      41.025  32.513  35.761  1.00  0.00     0.049 A 
ATOM     67  H   UNL A   1      40.474  31.231  34.182  1.00  0.00     0.167 HD
ATOM     68  C   UNL A   1      39.116  33.680  34.679  1.00  0.00     0.074 A 
ATOM     69  C   UNL A   1      38.167  34.770  34.581  1.00  0.00     0.031 C 
ATOM     70  C   UNL A   1      40.077  33.590  35.632  1.00  0.00     0.037 A 
BRANCH  57  71
ATOM     71  C   UNL A   1      43.477  28.435  35.332  1.00  0.00     0.064 A 
ATOM     72  C   UNL A   1      44.836  28.572  35.002  1.00  0.00     0.173 A 
ATOM     73  C   UNL A   1      43.132  27.462  36.280  1.00  0.00     0.173 A 
ATOM     74  F   UNL A   1      45.225  29.484  34.100  1.00  0.00    -0.203 F 
ATOM     75  C   UNL A   1      45.801  27.737  35.561  1.00  0.00     0.198 A 
ATOM     76  C   UNL A   1      44.106  26.654  36.867  1.00  0.00     0.198 A 
ATOM     77  F   UNL A   1      41.853  27.291  36.642  1.00  0.00    -0.203 F 
ATOM     78  F   UNL A   1      47.080  27.846  35.177  1.00  0.00    -0.200 F 
ATOM     79  C   UNL A   1      45.436  26.784  36.499  1.00  0.00     0.200 A 
ATOM     80  F   UNL A   1      43.754  25.744  37.786  1.00  0.00    -0.200 F 
ATOM     81  F   UNL A   1      46.366  25.986  37.041  1.00  0.00    -0.200 F 
ENDBRANCH  57  71
BRANCH  58  82
ATOM     82  C   UNL A   1      35.968  33.586  31.179  1.00  0.00     0.064 A 
ATOM     83  C   UNL A   1      36.057  34.066  29.864  1.00  0.00     0.173 A 
ATOM     84  C   UNL A   1      34.784  33.838  31.885  1.00  0.00     0.173 A 
ATOM     85  F   UNL A   1      37.175  33.854  29.151  1.00  0.00    -0.203 F 
ATOM     86  C   UNL A   1      35.021  34.796  29.288  1.00  0.00     0.198 A 
ATOM     87  C   UNL A   1      33.735  34.547  31.299  1.00  0.00     0.198 A 
ATOM     88  F   UNL A   1      34.637  33.383  33.137  1.00  0.00    -0.203 F 
ATOM     89  F   UNL A   1      35.155  35.279  28.045  1.00  0.00    -0.200 F 
ATOM     90  C   UNL A   1      33.859  35.033  30.005  1.00  0.00     0.200 A 
ATOM     91  F   UNL A   1      32.605  34.758  31.986  1.00  0.00    -0.200 F 
ATOM     92  F   UNL A   1      32.859  35.732  29.449  1.00  0.00    -0.200 F 
ENDBRANCH  58  82
BRANCH  70  93
ATOM     93  C   UNL A   1      40.172  34.712  36.621  1.00  0.00     0.064 A 
ATOM     94  C   UNL A   1      39.313  34.792  37.725  1.00  0.00     0.173 A 
ATOM     95  C   UNL A   1      41.178  35.683  36.495  1.00  0.00     0.173 A 
ATOM     96  F   UNL A   1      38.328  33.894  37.879  1.00  0.00    -0.203 F 
ATOM     97  C   UNL A   1      39.445  35.815  38.659  1.00  0.00     0.198 A 
ATOM     98  C   UNL A   1      41.327  36.686  37.448  1.00  0.00     0.198 A 
ATOM     99  F   UNL A   1      42.030  35.645  35.459  1.00  0.00    -0.203 F 
ATOM    100  F   UNL A   1      38.586  35.897  39.685  1.00  0.00    -0.200 F 
ATOM    101  C   UNL A   1      40.457  36.754  38.525  1.00  0.00     0.200 A 
ATOM    102  F   UNL A   1      42.316  37.582  37.326  1.00  0.00    -0.200 F 
ATOM    103  F   UNL A   1      40.591  37.730  39.435  1.00  0.00    -0.200 F 
ENDBRANCH  70  93
ENDBRANCH  44  45
ENDBRANCH  36  39
ENDBRANCH  34  35
ENDBRANCH  33  34
ENDBRANCH  32  33
ENDBRANCH  31  32
ENDBRANCH   3  31
TORSDOF 17
ENDMDL
