MODEL 1
REMARK VINA RESULT:     -12.5      0.000      0.000
REMARK SMILES COC(=O)C[C@H](c1ccc(C(=O)NCCCCNC(=O)c2ccc(-c3c4nc(c(-c5c(F)c(F)c(F)c(F)c5F)c5ccc([nH]5)c(-c5c(F)c(F)c(F)c(F)c5F)c5nc(c(-c6c(F)c(F)c(F)c(F)c6F)c6ccc3[nH]6)C=C5)C=C4)cc2)cc1)c1c(O)n[nH]c1C
REMARK SMILES IDX 14 1 13 2 11 3 12 4 10 6 7 7 8 8 85 9 9 10 84 11 6 12 5 13
REMARK SMILES IDX 3 14 4 15 2 16 1 17 86 18 87 19 91 20 89 21 90 22 92 23
REMARK SMILES IDX 88 25 15 27 16 28 17 29 18 30 19 31 20 33 21 34 22 35 83 36
REMARK SMILES IDX 23 37 82 38 24 39 25 40 26 41 76 42 27 43 81 44 75 45 77 46
REMARK SMILES IDX 28 47 80 48 74 49 73 50 29 52 61 53 41 54 60 55 42 56 45 57
REMARK SMILES IDX 59 58 78 59 43 60 44 61 58 63 79 64 46 65 30 66 31 67 39 68
REMARK SMILES IDX 32 69 33 70 37 71 40 72 34 73 35 74 38 75 36 76 62 77 63 78
REMARK SMILES IDX 71 79 64 80 65 81 69 82 72 83 66 84 67 85 70 86 68 87 47 88
REMARK SMILES IDX 48 89 56 90 49 91 50 92 54 93 57 94 51 95 52 96 55 97 53 98
REMARK H PARENT 13 5 90 24 88 26 18 32 77 51 45 62
REMARK Flexibility Score: inf
ROOT
ATOM      1  C   UNL A   1      35.495  20.503  25.018  1.00  0.00     0.116 C 
ENDROOT
BRANCH   1   2
ATOM      2  N   UNL A   1      34.422  19.545  25.203  1.00  0.00    -0.352 N 
ATOM      3  C   UNL A   1      33.058  19.667  25.098  1.00  0.00     0.251 C 
ATOM      4  O   UNL A   1      32.383  18.658  25.297  1.00  0.00    -0.269 OA
ATOM      5  H   UNL A   1      34.728  18.642  25.448  1.00  0.00     0.163 HD
BRANCH   3   6
ATOM      6  C   UNL A   1      32.383  20.932  24.692  1.00  0.00     0.039 A 
ATOM      7  C   UNL A   1      31.318  23.386  23.777  1.00  0.00    -0.040 A 
ATOM      8  C   UNL A   1      31.820  22.444  22.867  1.00  0.00     0.005 A 
ATOM      9  C   UNL A   1      31.267  23.038  25.134  1.00  0.00     0.005 A 
ATOM     10  C   UNL A   1      32.369  21.241  23.325  1.00  0.00     0.014 A 
ATOM     11  C   UNL A   1      31.757  21.810  25.576  1.00  0.00     0.014 A 
BRANCH   7  12
ATOM     12  C   UNL A   1      30.860  24.775  23.360  1.00  0.00     0.068 C 
BRANCH  12  13
ATOM     13  C   UNL A   1      30.089  25.547  24.450  1.00  0.00     0.136 C 
BRANCH  13  14
ATOM     14  C   UNL A   1      29.243  26.712  24.002  1.00  0.00     0.306 C 
ATOM     15  O   UNL A   1      28.026  26.636  23.870  1.00  0.00    -0.252 OA
BRANCH  14  16
ATOM     16  O   UNL A   1      29.978  27.833  23.772  1.00  0.00    -0.469 OA
ATOM     17  C   UNL A   1      29.384  28.694  22.796  1.00  0.00     0.282 C 
ENDBRANCH  14  16
ENDBRANCH  13  14
ENDBRANCH  12  13
BRANCH  12  18
ATOM     18  C   UNL A   1      32.078  25.486  22.786  1.00  0.00     0.044 A 
ATOM     19  C   UNL A   1      32.283  25.969  21.470  1.00  0.00     0.234 A 
ATOM     20  C   UNL A   1      33.237  25.933  23.425  1.00  0.00     0.040 A 
ATOM     21  N   UNL A   1      33.447  26.555  21.251  1.00  0.00    -0.137 NA
ATOM     22  N   UNL A   1      34.029  26.496  22.454  1.00  0.00    -0.279 N 
ATOM     23  C   UNL A   1      33.702  25.911  24.833  1.00  0.00     0.066 C 
ATOM     24  H   UNL A   1      34.940  26.827  22.627  1.00  0.00     0.190 HD
BRANCH  19  25
ATOM     25  O   UNL A   1      31.486  25.952  20.405  1.00  0.00    -0.492 OA
ATOM     26  H   UNL A   1      30.558  26.011  20.515  1.00  0.00     0.295 HD
ENDBRANCH  19  25
ENDBRANCH  12  18
ENDBRANCH   7  12
ENDBRANCH   3   6
ENDBRANCH   1   2
BRANCH   1  27
ATOM     27  C   UNL A   1      36.852  19.793  25.002  1.00  0.00     0.023 C 
BRANCH  27  28
ATOM     28  C   UNL A   1      38.052  20.737  24.922  1.00  0.00     0.023 C 
BRANCH  28  29
ATOM     29  C   UNL A   1      39.018  20.643  26.096  1.00  0.00     0.116 C 
BRANCH  29  30
ATOM     30  N   UNL A   1      39.897  19.486  26.025  1.00  0.00    -0.352 N 
ATOM     31  C   UNL A   1      41.268  19.446  26.131  1.00  0.00     0.251 C 
ATOM     32  H   UNL A   1      39.454  18.618  25.883  1.00  0.00     0.163 HD
ATOM     33  O   UNL A   1      41.880  18.405  25.953  1.00  0.00    -0.269 OA
BRANCH  31  34
ATOM     34  C   UNL A   1      41.994  20.700  26.418  1.00  0.00     0.039 A 
ATOM     35  C   UNL A   1      42.370  21.513  25.346  1.00  0.00     0.014 A 
ATOM     36  C   UNL A   1      42.242  21.095  27.734  1.00  0.00     0.014 A 
ATOM     37  C   UNL A   1      42.925  22.768  25.601  1.00  0.00     0.010 A 
ATOM     38  C   UNL A   1      42.736  22.371  27.986  1.00  0.00     0.010 A 
ATOM     39  C   UNL A   1      43.068  23.222  26.922  1.00  0.00    -0.014 A 
BRANCH  39  40
ATOM     40  C   UNL A   1      43.527  24.602  27.209  1.00  0.00     0.031 A 
ATOM     41  C   UNL A   1      42.564  25.627  27.734  1.00  0.00     0.074 A 
ATOM     42  C   UNL A   1      44.797  24.947  26.922  1.00  0.00     0.049 A 
ATOM     43  N   UNL A   1      42.760  26.897  27.978  1.00  0.00    -0.248 NA
ATOM     44  C   UNL A   1      41.190  25.169  27.995  1.00  0.00     0.031 C 
ATOM     45  C   UNL A   1      45.809  24.052  26.357  1.00  0.00     0.029 A 
ATOM     46  N   UNL A   1      45.451  26.147  27.052  1.00  0.00    -0.354 N 
ATOM     47  C   UNL A   1      41.538  27.391  28.412  1.00  0.00     0.074 A 
ATOM     48  C   UNL A   1      40.593  26.297  28.353  1.00  0.00     0.031 C 
ATOM     49  C   UNL A   1      46.959  24.727  26.205  1.00  0.00     0.029 A 
ATOM     50  C   UNL A   1      46.758  26.109  26.629  1.00  0.00     0.049 A 
ATOM     51  H   UNL A   1      45.025  26.956  27.414  1.00  0.00     0.167 HD
ATOM     52  C   UNL A   1      41.240  28.639  28.843  1.00  0.00     0.037 A 
ATOM     53  C   UNL A   1      47.684  27.084  26.580  1.00  0.00     0.037 A 
ATOM     54  C   UNL A   1      42.189  29.719  28.920  1.00  0.00     0.049 A 
ATOM     55  C   UNL A   1      47.322  28.464  27.060  1.00  0.00     0.074 A 
ATOM     56  C   UNL A   1      41.999  31.001  29.403  1.00  0.00     0.029 A 
ATOM     57  N   UNL A   1      43.509  29.641  28.500  1.00  0.00    -0.354 N 
ATOM     58  N   UNL A   1      46.183  28.900  27.538  1.00  0.00    -0.248 NA
ATOM     59  C   UNL A   1      48.378  29.483  26.997  1.00  0.00     0.031 C 
ATOM     60  C   UNL A   1      43.193  31.713  29.236  1.00  0.00     0.029 A 
ATOM     61  C   UNL A   1      44.138  30.860  28.690  1.00  0.00     0.049 A 
ATOM     62  H   UNL A   1      43.934  28.837  28.121  1.00  0.00     0.167 HD
ATOM     63  C   UNL A   1      46.390  30.236  27.854  1.00  0.00     0.074 A 
ATOM     64  C   UNL A   1      47.769  30.533  27.530  1.00  0.00     0.031 C 
ATOM     65  C   UNL A   1      45.514  31.136  28.364  1.00  0.00     0.037 A 
BRANCH  52  66
ATOM     66  C   UNL A   1      39.828  28.905  29.273  1.00  0.00     0.064 A 
ATOM     67  C   UNL A   1      38.860  29.362  28.364  1.00  0.00     0.173 A 
ATOM     68  C   UNL A   1      39.425  28.659  30.593  1.00  0.00     0.173 A 
ATOM     69  F   UNL A   1      39.199  29.625  27.093  1.00  0.00    -0.203 F 
ATOM     70  C   UNL A   1      37.546  29.583  28.769  1.00  0.00     0.198 A 
ATOM     71  C   UNL A   1      38.104  28.855  30.987  1.00  0.00     0.198 A 
ATOM     72  F   UNL A   1      40.310  28.218  31.500  1.00  0.00    -0.203 F 
ATOM     73  F   UNL A   1      36.649  30.059  27.894  1.00  0.00    -0.200 F 
ATOM     74  C   UNL A   1      37.168  29.322  30.077  1.00  0.00     0.200 A 
ATOM     75  F   UNL A   1      37.736  28.592  32.249  1.00  0.00    -0.200 F 
ATOM     76  F   UNL A   1      35.900  29.526  30.462  1.00  0.00    -0.200 F 
ENDBRANCH  52  66
BRANCH  53  77
ATOM     77  C   UNL A   1      49.049  26.788  26.077  1.00  0.00     0.064 A 
ATOM     78  C   UNL A   1      50.043  26.300  26.937  1.00  0.00     0.173 A 
ATOM     79  C   UNL A   1      49.392  26.992  24.732  1.00  0.00     0.173 A 
ATOM     80  F   UNL A   1      49.767  26.109  28.235  1.00  0.00    -0.203 F 
ATOM     81  C   UNL A   1      51.333  26.048  26.477  1.00  0.00     0.198 A 
ATOM     82  C   UNL A   1      50.676  26.713  24.266  1.00  0.00     0.198 A 
ATOM     83  F   UNL A   1      48.476  27.453  23.867  1.00  0.00    -0.203 F 
ATOM     84  F   UNL A   1      52.276  25.626  27.331  1.00  0.00    -0.200 F 
ATOM     85  C   UNL A   1      51.647  26.249  25.142  1.00  0.00     0.200 A 
ATOM     86  F   UNL A   1      50.972  26.897  22.974  1.00  0.00    -0.200 F 
ATOM     87  F   UNL A   1      52.888  26.005  24.699  1.00  0.00    -0.200 F 
ENDBRANCH  53  77
BRANCH  65  88
ATOM     88  C   UNL A   1      46.030  32.521  28.623  1.00  0.00     0.064 A 
ATOM     89  C   UNL A   1      46.628  32.863  29.844  1.00  0.00     0.173 A 
ATOM     90  C   UNL A   1      45.955  33.505  27.626  1.00  0.00     0.173 A 
ATOM     91  F   UNL A   1      46.708  31.960  30.833  1.00  0.00    -0.203 F 
ATOM     92  C   UNL A   1      47.113  34.149  30.067  1.00  0.00     0.198 A 
ATOM     93  C   UNL A   1      46.465  34.782  27.843  1.00  0.00     0.198 A 
ATOM     94  F   UNL A   1      45.395  33.226  26.440  1.00  0.00    -0.203 F 
ATOM     95  F   UNL A   1      47.640  34.468  31.257  1.00  0.00    -0.200 F 
ATOM     96  C   UNL A   1      47.037  35.105  29.063  1.00  0.00     0.200 A 
ATOM     97  F   UNL A   1      46.401  35.701  26.869  1.00  0.00    -0.200 F 
ATOM     98  F   UNL A   1      47.509  36.341  29.278  1.00  0.00    -0.200 F 
ENDBRANCH  65  88
ENDBRANCH  39  40
ENDBRANCH  31  34
ENDBRANCH  29  30
ENDBRANCH  28  29
ENDBRANCH  27  28
ENDBRANCH   1  27
TORSDOF 17
ENDMDL
MODEL 2
REMARK VINA RESULT:     -12.5      0.168      1.575
REMARK SMILES COC(=O)C[C@H](c1ccc(C(=O)NCCCCNC(=O)c2ccc(-c3c4nc(c(-c5c(F)c(F)c(F)c(F)c5F)c5ccc([nH]5)c(-c5c(F)c(F)c(F)c(F)c5F)c5nc(c(-c6c(F)c(F)c(F)c(F)c6F)c6ccc3[nH]6)C=C5)C=C4)cc2)cc1)c1c(O)n[nH]c1C
REMARK SMILES IDX 14 1 13 2 11 3 12 4 10 6 7 7 8 8 85 9 9 10 84 11 6 12 5 13
REMARK SMILES IDX 3 14 4 15 2 16 1 17 86 18 87 19 91 20 89 21 90 22 92 23
REMARK SMILES IDX 88 25 15 27 16 28 17 29 18 30 19 31 20 33 21 34 22 35 83 36
REMARK SMILES IDX 23 37 82 38 24 39 25 40 26 41 76 42 27 43 81 44 75 45 77 46
REMARK SMILES IDX 28 47 80 48 74 49 73 50 29 52 61 53 41 54 60 55 42 56 45 57
REMARK SMILES IDX 59 58 78 59 43 60 44 61 58 63 79 64 46 65 30 66 31 67 39 68
REMARK SMILES IDX 32 69 33 70 37 71 40 72 34 73 35 74 38 75 36 76 62 77 63 78
REMARK SMILES IDX 71 79 64 80 65 81 69 82 72 83 66 84 67 85 70 86 68 87 47 88
REMARK SMILES IDX 48 89 56 90 49 91 50 92 54 93 57 94 51 95 52 96 55 97 53 98
REMARK H PARENT 13 5 90 24 88 26 18 32 77 51 45 62
REMARK Flexibility Score: inf
ROOT
ATOM      1  C   UNL A   1      35.523  20.470  24.947  1.00  0.00     0.116 C 
ENDROOT
BRANCH   1   2
ATOM      2  N   UNL A   1      34.459  19.519  25.201  1.00  0.00    -0.352 N 
ATOM      3  C   UNL A   1      33.092  19.638  25.144  1.00  0.00     0.251 C 
ATOM      4  O   UNL A   1      32.424  18.635  25.397  1.00  0.00    -0.269 OA
ATOM      5  H   UNL A   1      34.774  18.623  25.459  1.00  0.00     0.163 HD
BRANCH   3   6
ATOM      6  C   UNL A   1      32.400  20.891  24.728  1.00  0.00     0.039 A 
ATOM      7  C   UNL A   1      31.305  23.324  23.793  1.00  0.00    -0.040 A 
ATOM      8  C   UNL A   1      31.817  22.379  22.891  1.00  0.00     0.005 A 
ATOM      9  C   UNL A   1      31.261  22.987  25.153  1.00  0.00     0.005 A 
ATOM     10  C   UNL A   1      32.380  21.188  23.359  1.00  0.00     0.014 A 
ATOM     11  C   UNL A   1      31.766  21.770  25.606  1.00  0.00     0.014 A 
BRANCH   7  12
ATOM     12  C   UNL A   1      30.830  24.704  23.365  1.00  0.00     0.068 C 
BRANCH  12  13
ATOM     13  C   UNL A   1      30.053  25.478  24.450  1.00  0.00     0.136 C 
BRANCH  13  14
ATOM     14  C   UNL A   1      29.272  26.689  24.007  1.00  0.00     0.306 C 
ATOM     15  O   UNL A   1      28.056  26.670  23.844  1.00  0.00    -0.252 OA
BRANCH  14  16
ATOM     16  O   UNL A   1      30.061  27.780  23.819  1.00  0.00    -0.469 OA
ATOM     17  C   UNL A   1      29.677  28.552  22.678  1.00  0.00     0.282 C 
ENDBRANCH  14  16
ENDBRANCH  13  14
ENDBRANCH  12  13
BRANCH  12  18
ATOM     18  C   UNL A   1      32.038  25.424  22.780  1.00  0.00     0.044 A 
ATOM     19  C   UNL A   1      32.215  25.938  21.472  1.00  0.00     0.234 A 
ATOM     20  C   UNL A   1      33.214  25.849  23.403  1.00  0.00     0.040 A 
ATOM     21  N   UNL A   1      33.376  26.524  21.240  1.00  0.00    -0.137 NA
ATOM     22  N   UNL A   1      33.986  26.432  22.428  1.00  0.00    -0.279 N 
ATOM     23  C   UNL A   1      33.711  25.789  24.799  1.00  0.00     0.066 C 
ATOM     24  H   UNL A   1      34.902  26.754  22.587  1.00  0.00     0.190 HD
BRANCH  19  25
ATOM     25  O   UNL A   1      31.393  25.952  20.426  1.00  0.00    -0.492 OA
ATOM     26  H   UNL A   1      31.738  26.050  19.561  1.00  0.00     0.295 HD
ENDBRANCH  19  25
ENDBRANCH  12  18
ENDBRANCH   7  12
ENDBRANCH   3   6
ENDBRANCH   1   2
BRANCH   1  27
ATOM     27  C   UNL A   1      36.887  19.777  25.001  1.00  0.00     0.023 C 
BRANCH  27  28
ATOM     28  C   UNL A   1      38.079  20.733  24.953  1.00  0.00     0.023 C 
BRANCH  28  29
ATOM     29  C   UNL A   1      39.054  20.596  26.116  1.00  0.00     0.116 C 
BRANCH  29  30
ATOM     30  N   UNL A   1      39.941  19.451  25.989  1.00  0.00    -0.352 N 
ATOM     31  C   UNL A   1      41.315  19.419  26.070  1.00  0.00     0.251 C 
ATOM     32  H   UNL A   1      39.503  18.585  25.825  1.00  0.00     0.163 HD
ATOM     33  O   UNL A   1      41.932  18.391  25.845  1.00  0.00    -0.269 OA
BRANCH  31  34
ATOM     34  C   UNL A   1      42.035  20.669  26.387  1.00  0.00     0.039 A 
ATOM     35  C   UNL A   1      42.431  21.496  25.334  1.00  0.00     0.014 A 
ATOM     36  C   UNL A   1      42.258  21.046  27.713  1.00  0.00     0.014 A 
ATOM     37  C   UNL A   1      42.982  22.747  25.616  1.00  0.00     0.010 A 
ATOM     38  C   UNL A   1      42.748  22.318  27.992  1.00  0.00     0.010 A 
ATOM     39  C   UNL A   1      43.100  23.184  26.945  1.00  0.00    -0.014 A 
BRANCH  39  40
ATOM     40  C   UNL A   1      43.553  24.559  27.260  1.00  0.00     0.031 A 
ATOM     41  C   UNL A   1      42.580  25.578  27.778  1.00  0.00     0.074 A 
ATOM     42  C   UNL A   1      44.829  24.907  27.003  1.00  0.00     0.049 A 
ATOM     43  N   UNL A   1      42.772  26.844  28.043  1.00  0.00    -0.248 NA
ATOM     44  C   UNL A   1      41.201  25.117  28.005  1.00  0.00     0.031 C 
ATOM     45  C   UNL A   1      45.853  24.018  26.448  1.00  0.00     0.029 A 
ATOM     46  N   UNL A   1      45.481  26.104  27.163  1.00  0.00    -0.354 N 
ATOM     47  C   UNL A   1      41.542  27.334  28.458  1.00  0.00     0.074 A 
ATOM     48  C   UNL A   1      40.598  26.241  28.364  1.00  0.00     0.031 C 
ATOM     49  C   UNL A   1      47.005  24.695  26.329  1.00  0.00     0.029 A 
ATOM     50  C   UNL A   1      46.796  26.071  26.766  1.00  0.00     0.049 A 
ATOM     51  H   UNL A   1      45.048  26.909  27.526  1.00  0.00     0.167 HD
ATOM     52  C   UNL A   1      41.236  28.577  28.898  1.00  0.00     0.037 A 
ATOM     53  C   UNL A   1      47.724  27.046  26.749  1.00  0.00     0.037 A 
ATOM     54  C   UNL A   1      42.183  29.654  29.009  1.00  0.00     0.049 A 
ATOM     55  C   UNL A   1      47.353  28.419  27.239  1.00  0.00     0.074 A 
ATOM     56  C   UNL A   1      41.984  30.931  29.504  1.00  0.00     0.029 A 
ATOM     57  N   UNL A   1      43.511  29.581  28.615  1.00  0.00    -0.354 N 
ATOM     58  N   UNL A   1      46.204  28.851  27.699  1.00  0.00    -0.248 NA
ATOM     59  C   UNL A   1      48.410  29.439  27.212  1.00  0.00     0.031 C 
ATOM     60  C   UNL A   1      43.181  31.643  29.371  1.00  0.00     0.029 A 
ATOM     61  C   UNL A   1      44.138  30.797  28.834  1.00  0.00     0.049 A 
ATOM     62  H   UNL A   1      43.944  28.782  28.235  1.00  0.00     0.167 HD
ATOM     63  C   UNL A   1      46.405  30.182  28.036  1.00  0.00     0.074 A 
ATOM     64  C   UNL A   1      47.792  30.483  27.745  1.00  0.00     0.031 C 
ATOM     65  C   UNL A   1      45.520  31.076  28.540  1.00  0.00     0.037 A 
BRANCH  52  66
ATOM     66  C   UNL A   1      39.815  28.839  29.302  1.00  0.00     0.064 A 
ATOM     67  C   UNL A   1      39.379  28.631  30.620  1.00  0.00     0.173 A 
ATOM     68  C   UNL A   1      38.891  29.345  28.377  1.00  0.00     0.173 A 
ATOM     69  F   UNL A   1      40.221  28.136  31.540  1.00  0.00    -0.203 F 
ATOM     70  C   UNL A   1      38.064  28.901  30.990  1.00  0.00     0.198 A 
ATOM     71  C   UNL A   1      37.584  29.639  28.757  1.00  0.00     0.198 A 
ATOM     72  F   UNL A   1      39.259  29.565  27.105  1.00  0.00    -0.203 F 
ATOM     73  F   UNL A   1      37.659  28.655  32.244  1.00  0.00    -0.200 F 
ATOM     74  C   UNL A   1      37.171  29.411  30.061  1.00  0.00     0.200 A 
ATOM     75  F   UNL A   1      36.724  30.143  27.861  1.00  0.00    -0.200 F 
ATOM     76  F   UNL A   1      35.907  29.678  30.421  1.00  0.00    -0.200 F 
ENDBRANCH  52  66
BRANCH  53  77
ATOM     77  C   UNL A   1      49.099  26.755  26.270  1.00  0.00     0.064 A 
ATOM     78  C   UNL A   1      50.074  26.255  27.144  1.00  0.00     0.173 A 
ATOM     79  C   UNL A   1      49.470  26.977  24.935  1.00  0.00     0.173 A 
ATOM     80  F   UNL A   1      49.771  26.045  28.433  1.00  0.00    -0.203 F 
ATOM     81  C   UNL A   1      51.374  26.007  26.708  1.00  0.00     0.198 A 
ATOM     82  C   UNL A   1      50.763  26.703  24.493  1.00  0.00     0.198 A 
ATOM     83  F   UNL A   1      48.573  27.451  24.059  1.00  0.00    -0.203 F 
ATOM     84  F   UNL A   1      52.298  25.572  27.575  1.00  0.00    -0.200 F 
ATOM     85  C   UNL A   1      51.715  26.226  25.382  1.00  0.00     0.200 A 
ATOM     86  F   UNL A   1      51.086  26.905  23.210  1.00  0.00    -0.200 F 
ATOM     87  F   UNL A   1      52.965  25.986  24.962  1.00  0.00    -0.200 F 
ENDBRANCH  53  77
BRANCH  65  88
ATOM     88  C   UNL A   1      46.031  32.457  28.828  1.00  0.00     0.064 A 
ATOM     89  C   UNL A   1      45.964  33.478  27.869  1.00  0.00     0.173 A 
ATOM     90  C   UNL A   1      46.561  32.770  30.089  1.00  0.00     0.173 A 
ATOM     91  F   UNL A   1      45.481  33.223  26.644  1.00  0.00    -0.203 F 
ATOM     92  C   UNL A   1      46.432  34.758  28.155  1.00  0.00     0.198 A 
ATOM     93  C   UNL A   1      47.001  34.058  30.379  1.00  0.00     0.198 A 
ATOM     94  F   UNL A   1      46.642  31.829  31.041  1.00  0.00    -0.203 F 
ATOM     95  F   UNL A   1      46.401  35.707  27.209  1.00  0.00    -0.200 F 
ATOM     96  C   UNL A   1      46.943  35.048  29.411  1.00  0.00     0.200 A 
ATOM     97  F   UNL A   1      47.485  34.339  31.597  1.00  0.00    -0.200 F 
ATOM     98  F   UNL A   1      47.388  36.282  29.686  1.00  0.00    -0.200 F 
ENDBRANCH  65  88
ENDBRANCH  39  40
ENDBRANCH  31  34
ENDBRANCH  29  30
ENDBRANCH  28  29
ENDBRANCH  27  28
ENDBRANCH   1  27
TORSDOF 17
ENDMDL
MODEL 3
REMARK VINA RESULT:     -12.4      4.616      8.528
REMARK SMILES COC(=O)C[C@H](c1ccc(C(=O)NCCCCNC(=O)c2ccc(-c3c4nc(c(-c5c(F)c(F)c(F)c(F)c5F)c5ccc([nH]5)c(-c5c(F)c(F)c(F)c(F)c5F)c5nc(c(-c6c(F)c(F)c(F)c(F)c6F)c6ccc3[nH]6)C=C5)C=C4)cc2)cc1)c1c(O)n[nH]c1C
REMARK SMILES IDX 14 1 13 2 11 3 12 4 10 6 7 7 8 8 85 9 9 10 84 11 6 12 5 13
REMARK SMILES IDX 3 14 4 15 2 16 1 17 86 18 87 19 91 20 89 21 90 22 92 23
REMARK SMILES IDX 88 25 15 27 16 28 17 29 18 30 19 31 20 33 21 34 22 35 83 36
REMARK SMILES IDX 23 37 82 38 24 39 25 40 26 41 76 42 27 43 81 44 75 45 77 46
REMARK SMILES IDX 28 47 80 48 74 49 73 50 29 52 61 53 41 54 60 55 42 56 45 57
REMARK SMILES IDX 59 58 78 59 43 60 44 61 58 63 79 64 46 65 30 66 31 67 39 68
REMARK SMILES IDX 32 69 33 70 37 71 40 72 34 73 35 74 38 75 36 76 62 77 63 78
REMARK SMILES IDX 71 79 64 80 65 81 69 82 72 83 66 84 67 85 70 86 68 87 47 88
REMARK SMILES IDX 48 89 56 90 49 91 50 92 54 93 57 94 51 95 52 96 55 97 53 98
REMARK H PARENT 13 5 90 24 88 26 18 32 77 51 45 62
REMARK Flexibility Score: inf
ROOT
ATOM      1  C   UNL A   1      31.079  26.548  25.552  1.00  0.00     0.116 C 
ENDROOT
BRANCH   1   2
ATOM      2  N   UNL A   1      30.219  25.685  26.338  1.00  0.00    -0.352 N 
ATOM      3  C   UNL A   1      30.242  24.330  26.562  1.00  0.00     0.251 C 
ATOM      4  O   UNL A   1      29.378  23.865  27.306  1.00  0.00    -0.269 OA
ATOM      5  H   UNL A   1      29.486  26.157  26.795  1.00  0.00     0.163 HD
BRANCH   3   6
ATOM      6  C   UNL A   1      31.292  23.430  26.008  1.00  0.00     0.039 A 
ATOM      7  C   UNL A   1      33.087  21.563  24.875  1.00  0.00    -0.040 A 
ATOM      8  C   UNL A   1      32.018  22.071  24.122  1.00  0.00     0.005 A 
ATOM      9  C   UNL A   1      33.298  22.079  26.161  1.00  0.00     0.005 A 
ATOM     10  C   UNL A   1      31.118  22.976  24.693  1.00  0.00     0.014 A 
ATOM     11  C   UNL A   1      32.433  23.029  26.701  1.00  0.00     0.014 A 
BRANCH   7  12
ATOM     12  C   UNL A   1      34.002  20.458  24.370  1.00  0.00     0.068 C 
BRANCH  12  13
ATOM     13  C   UNL A   1      35.404  20.446  25.013  1.00  0.00     0.136 C 
BRANCH  13  14
ATOM     14  C   UNL A   1      36.292  21.637  24.753  1.00  0.00     0.306 C 
ATOM     15  O   UNL A   1      36.315  22.224  23.676  1.00  0.00    -0.252 OA
BRANCH  14  16
ATOM     16  O   UNL A   1      37.043  21.974  25.835  1.00  0.00    -0.469 OA
ATOM     17  C   UNL A   1      37.644  23.267  25.712  1.00  0.00     0.282 C 
ENDBRANCH  14  16
ENDBRANCH  13  14
ENDBRANCH  12  13
BRANCH  12  18
ATOM     18  C   UNL A   1      33.219  19.156  24.475  1.00  0.00     0.044 A 
ATOM     19  C   UNL A   1      32.793  18.471  25.640  1.00  0.00     0.234 A 
ATOM     20  C   UNL A   1      32.638  18.377  23.471  1.00  0.00     0.040 A 
ATOM     21  N   UNL A   1      32.119  17.353  25.431  1.00  0.00    -0.137 NA
ATOM     22  N   UNL A   1      32.061  17.298  24.096  1.00  0.00    -0.279 N 
ATOM     23  C   UNL A   1      32.543  18.513  21.998  1.00  0.00     0.066 C 
ATOM     24  H   UNL A   1      31.643  16.553  23.607  1.00  0.00     0.190 HD
BRANCH  19  25
ATOM     25  O   UNL A   1      32.937  18.774  26.927  1.00  0.00    -0.492 OA
ATOM     26  H   UNL A   1      33.147  19.651  27.181  1.00  0.00     0.295 HD
ENDBRANCH  19  25
ENDBRANCH  12  18
ENDBRANCH   7  12
ENDBRANCH   3   6
ENDBRANCH   1   2
BRANCH   1  27
ATOM     27  C   UNL A   1      31.634  27.684  26.416  1.00  0.00     0.023 C 
BRANCH  27  28
ATOM     28  C   UNL A   1      31.663  29.045  25.720  1.00  0.00     0.023 C 
BRANCH  28  29
ATOM     29  C   UNL A   1      32.920  29.866  25.976  1.00  0.00     0.116 C 
BRANCH  29  30
ATOM     30  N   UNL A   1      32.641  31.213  26.448  1.00  0.00    -0.352 N 
ATOM     31  C   UNL A   1      33.378  31.986  27.316  1.00  0.00     0.251 C 
ATOM     32  H   UNL A   1      31.817  31.627  26.102  1.00  0.00     0.163 HD
ATOM     33  O   UNL A   1      32.963  33.069  27.697  1.00  0.00    -0.269 OA
BRANCH  31  34
ATOM     34  C   UNL A   1      34.663  31.459  27.818  1.00  0.00     0.039 A 
ATOM     35  C   UNL A   1      35.691  32.362  28.095  1.00  0.00     0.014 A 
ATOM     36  C   UNL A   1      34.823  30.095  28.072  1.00  0.00     0.014 A 
ATOM     37  C   UNL A   1      36.859  31.903  28.706  1.00  0.00     0.010 A 
ATOM     38  C   UNL A   1      35.961  29.651  28.738  1.00  0.00     0.010 A 
ATOM     39  C   UNL A   1      36.981  30.553  29.073  1.00  0.00    -0.014 A 
BRANCH  39  40
ATOM     40  C   UNL A   1      38.153  30.074  29.845  1.00  0.00     0.031 A 
ATOM     41  C   UNL A   1      38.391  30.564  31.243  1.00  0.00     0.074 A 
ATOM     42  C   UNL A   1      39.042  29.255  29.250  1.00  0.00     0.049 A 
ATOM     43  N   UNL A   1      39.393  30.314  32.046  1.00  0.00    -0.248 NA
ATOM     44  C   UNL A   1      37.382  31.476  31.804  1.00  0.00     0.031 C 
ATOM     45  C   UNL A   1      38.945  28.756  27.876  1.00  0.00     0.029 A 
ATOM     46  N   UNL A   1      40.210  28.709  29.720  1.00  0.00    -0.354 N 
ATOM     47  C   UNL A   1      39.140  31.042  33.200  1.00  0.00     0.074 A 
ATOM     48  C   UNL A   1      37.917  31.781  32.977  1.00  0.00     0.031 C 
ATOM     49  C   UNL A   1      39.998  27.965  27.620  1.00  0.00     0.029 A 
ATOM     50  C   UNL A   1      40.861  27.927  28.797  1.00  0.00     0.049 A 
ATOM     51  H   UNL A   1      40.548  28.862  30.631  1.00  0.00     0.167 HD
ATOM     52  C   UNL A   1      39.855  31.071  34.351  1.00  0.00     0.037 A 
ATOM     53  C   UNL A   1      42.028  27.263  28.888  1.00  0.00     0.037 A 
ATOM     54  C   UNL A   1      41.060  30.317  34.575  1.00  0.00     0.049 A 
ATOM     55  C   UNL A   1      42.804  27.318  30.177  1.00  0.00     0.074 A 
ATOM     56  C   UNL A   1      41.821  30.230  35.728  1.00  0.00     0.029 A 
ATOM     57  N   UNL A   1      41.682  29.522  33.624  1.00  0.00    -0.354 N 
ATOM     58  N   UNL A   1      42.517  27.951  31.288  1.00  0.00    -0.248 NA
ATOM     59  C   UNL A   1      44.062  26.562  30.224  1.00  0.00     0.031 C 
ATOM     60  C   UNL A   1      42.926  29.415  35.462  1.00  0.00     0.029 A 
ATOM     61  C   UNL A   1      42.831  28.959  34.157  1.00  0.00     0.049 A 
ATOM     62  H   UNL A   1      41.356  29.379  32.706  1.00  0.00     0.167 HD
ATOM     63  C   UNL A   1      43.544  27.653  32.172  1.00  0.00     0.074 A 
ATOM     64  C   UNL A   1      44.453  26.767  31.473  1.00  0.00     0.031 C 
ATOM     65  C   UNL A   1      43.721  28.077  33.446  1.00  0.00     0.037 A 
BRANCH  52  66
ATOM     66  C   UNL A   1      39.347  31.942  35.461  1.00  0.00     0.064 A 
ATOM     67  C   UNL A   1      38.476  31.443  36.443  1.00  0.00     0.173 A 
ATOM     68  C   UNL A   1      39.768  33.275  35.572  1.00  0.00     0.173 A 
ATOM     69  F   UNL A   1      38.035  30.179  36.373  1.00  0.00    -0.203 F 
ATOM     70  C   UNL A   1      38.030  32.255  37.483  1.00  0.00     0.198 A 
ATOM     71  C   UNL A   1      39.341  34.075  36.629  1.00  0.00     0.198 A 
ATOM     72  F   UNL A   1      40.603  33.799  34.662  1.00  0.00    -0.203 F 
ATOM     73  F   UNL A   1      37.167  31.769  38.385  1.00  0.00    -0.200 F 
ATOM     74  C   UNL A   1      38.469  33.566  37.579  1.00  0.00     0.200 A 
ATOM     75  F   UNL A   1      39.774  35.340  36.728  1.00  0.00    -0.200 F 
ATOM     76  F   UNL A   1      38.045  34.343  38.586  1.00  0.00    -0.200 F 
ENDBRANCH  52  66
BRANCH  53  77
ATOM     77  C   UNL A   1      42.527  26.472  27.734  1.00  0.00     0.064 A 
ATOM     78  C   UNL A   1      43.448  27.020  26.831  1.00  0.00     0.173 A 
ATOM     79  C   UNL A   1      42.090  25.159  27.505  1.00  0.00     0.173 A 
ATOM     80  F   UNL A   1      43.879  28.280  26.998  1.00  0.00    -0.203 F 
ATOM     81  C   UNL A   1      43.897  26.294  25.730  1.00  0.00     0.198 A 
ATOM     82  C   UNL A   1      42.561  24.423  26.420  1.00  0.00     0.198 A 
ATOM     83  F   UNL A   1      41.213  24.587  28.343  1.00  0.00    -0.203 F 
ATOM     84  F   UNL A   1      44.742  26.859  24.857  1.00  0.00    -0.200 F 
ATOM     85  C   UNL A   1      43.458  24.995  25.529  1.00  0.00     0.200 A 
ATOM     86  F   UNL A   1      42.144  23.165  26.234  1.00  0.00    -0.200 F 
ATOM     87  F   UNL A   1      43.891  24.296  24.471  1.00  0.00    -0.200 F 
ENDBRANCH  53  77
BRANCH  65  88
ATOM     88  C   UNL A   1      44.931  27.569  34.175  1.00  0.00     0.064 A 
ATOM     89  C   UNL A   1      46.137  28.283  34.179  1.00  0.00     0.173 A 
ATOM     90  C   UNL A   1      44.870  26.373  34.906  1.00  0.00     0.173 A 
ATOM     91  F   UNL A   1      46.248  29.424  33.481  1.00  0.00    -0.203 F 
ATOM     92  C   UNL A   1      47.248  27.806  34.869  1.00  0.00     0.198 A 
ATOM     93  C   UNL A   1      45.974  25.914  35.617  1.00  0.00     0.198 A 
ATOM     94  F   UNL A   1      43.737  25.656  34.937  1.00  0.00    -0.203 F 
ATOM     95  F   UNL A   1      48.405  28.481  34.822  1.00  0.00    -0.200 F 
ATOM     96  C   UNL A   1      47.163  26.625  35.593  1.00  0.00     0.200 A 
ATOM     97  F   UNL A   1      45.888  24.779  36.325  1.00  0.00    -0.200 F 
ATOM     98  F   UNL A   1      48.232  26.170  36.261  1.00  0.00    -0.200 F 
ENDBRANCH  65  88
ENDBRANCH  39  40
ENDBRANCH  31  34
ENDBRANCH  29  30
ENDBRANCH  28  29
ENDBRANCH  27  28
ENDBRANCH   1  27
TORSDOF 17
ENDMDL
