MODEL 1
REMARK VINA RESULT:     -13.9      0.000      0.000
REMARK SMILES Cc1cccc(Cn2c(=O)c3sccc3n(CC(=O)NCCCCNC(=O)c3ccc(-c4c5nc(c(-c6c(F)c(F)c(F)c(F)c6F)c6ccc([nH]6)c(-c6c(F)c(F)c(F)c(F)c6F)c6nc(c(-c7c(F)c(F)c(F)c(F)c7F)c7ccc4[nH]7)C=C6)C=C5)cc3)c2=O)c1
REMARK SMILES IDX 22 1 21 2 20 3 18 4 19 5 17 7 16 8 8 9 9 10 91 11 10 12
REMARK SMILES IDX 11 13 92 14 12 15 15 16 13 17 14 18 7 19 6 20 1 21 2 22 3 23
REMARK SMILES IDX 93 24 4 25 5 26 23 27 24 28 25 29 26 30 27 32 28 33 29 34
REMARK SMILES IDX 90 35 30 36 89 37 31 38 32 39 33 40 83 41 34 42 88 43 82 44
REMARK SMILES IDX 84 45 35 46 87 47 81 48 80 49 36 51 68 52 48 53 67 54 49 55
REMARK SMILES IDX 52 56 66 57 85 58 50 59 51 60 65 62 86 63 53 64 37 65 38 66
REMARK SMILES IDX 46 67 39 68 40 69 44 70 47 71 41 72 42 73 45 74 43 75 69 76
REMARK SMILES IDX 70 77 78 78 71 79 72 80 76 81 79 82 73 83 74 84 77 85 75 86
REMARK SMILES IDX 54 87 55 88 63 89 56 90 57 91 61 92 64 93 58 94 59 95 62 96
REMARK SMILES IDX 60 97
REMARK H PARENT 20 6 25 31 84 50 52 61
REMARK Flexibility Score: inf
ROOT
ATOM      1  C   UNL A   1      32.024  29.492  26.558  1.00  0.00     0.023 C 
ENDROOT
BRANCH   1   2
ATOM      2  C   UNL A   1      31.713  29.559  25.055  1.00  0.00     0.116 C 
BRANCH   2   3
ATOM      3  N   UNL A   1      32.884  29.423  24.211  1.00  0.00    -0.355 N 
ATOM      4  C   UNL A   1      33.138  28.575  23.174  1.00  0.00     0.240 C 
ATOM      5  O   UNL A   1      34.157  28.788  22.510  1.00  0.00    -0.273 OA
ATOM      6  H   UNL A   1      33.617  30.047  24.421  1.00  0.00     0.163 HD
BRANCH   4   7
ATOM      7  C   UNL A   1      32.167  27.466  22.763  1.00  0.00     0.227 C 
BRANCH   7   8
ATOM      8  N   UNL A   1      32.381  26.184  23.441  1.00  0.00    -0.283 N 
ATOM      9  N   UNL A   1      33.615  24.138  23.627  1.00  0.00    -0.254 N 
ATOM     10  C   UNL A   1      32.825  23.643  24.671  1.00  0.00     0.274 A 
ATOM     11  C   UNL A   1      33.419  25.368  22.991  1.00  0.00     0.332 A 
ATOM     12  O   UNL A   1      32.996  22.534  25.169  1.00  0.00    -0.268 OA
ATOM     13  C   UNL A   1      31.767  24.539  25.062  1.00  0.00     0.116 A 
ATOM     14  O   UNL A   1      34.093  25.709  22.016  1.00  0.00    -0.247 OA
ATOM     15  S   UNL A   1      30.620  24.169  26.259  1.00  0.00    -0.136 S 
ATOM     16  C   UNL A   1      31.554  25.761  24.482  1.00  0.00     0.070 A 
ATOM     17  C   UNL A   1      29.820  25.667  26.027  1.00  0.00     0.068 A 
ATOM     18  C   UNL A   1      30.433  26.430  25.055  1.00  0.00     0.039 A 
BRANCH   9  19
ATOM     19  C   UNL A   1      34.630  23.248  23.064  1.00  0.00     0.166 C 
BRANCH  19  20
ATOM     20  C   UNL A   1      35.774  22.927  24.006  1.00  0.00    -0.028 A 
ATOM     21  C   UNL A   1      38.002  19.983  24.975  1.00  0.00     0.044 C 
ATOM     22  C   UNL A   1      37.389  21.350  24.927  1.00  0.00    -0.051 A 
ATOM     23  C   UNL A   1      37.914  22.365  25.736  1.00  0.00     0.003 A 
ATOM     24  C   UNL A   1      36.298  21.630  24.088  1.00  0.00     0.009 A 
ATOM     25  C   UNL A   1      37.400  23.654  25.667  1.00  0.00     0.001 A 
ATOM     26  C   UNL A   1      36.356  23.936  24.790  1.00  0.00     0.005 A 
ENDBRANCH  19  20
ENDBRANCH   9  19
ENDBRANCH   7   8
ENDBRANCH   4   7
ENDBRANCH   2   3
ENDBRANCH   1   2
BRANCH   1  27
ATOM     27  C   UNL A   1      32.790  30.692  27.128  1.00  0.00     0.023 C 
BRANCH  27  28
ATOM     28  C   UNL A   1      34.210  30.366  27.562  1.00  0.00     0.116 C 
BRANCH  28  29
ATOM     29  N   UNL A   1      34.777  31.244  28.574  1.00  0.00    -0.352 N 
ATOM     30  C   UNL A   1      35.863  31.034  29.415  1.00  0.00     0.251 C 
ATOM     31  H   UNL A   1      34.325  32.112  28.678  1.00  0.00     0.163 HD
ATOM     32  O   UNL A   1      36.111  31.832  30.298  1.00  0.00    -0.269 OA
BRANCH  30  33
ATOM     33  C   UNL A   1      36.802  29.909  29.145  1.00  0.00     0.039 A 
ATOM     34  C   UNL A   1      37.151  29.075  30.216  1.00  0.00     0.014 A 
ATOM     35  C   UNL A   1      37.476  29.795  27.934  1.00  0.00     0.014 A 
ATOM     36  C   UNL A   1      38.328  28.330  30.152  1.00  0.00     0.010 A 
ATOM     37  C   UNL A   1      38.699  29.157  27.908  1.00  0.00     0.010 A 
ATOM     38  C   UNL A   1      39.155  28.476  29.039  1.00  0.00    -0.014 A 
BRANCH  38  39
ATOM     39  C   UNL A   1      40.545  28.043  29.005  1.00  0.00     0.031 A 
ATOM     40  C   UNL A   1      40.908  26.715  28.472  1.00  0.00     0.074 A 
ATOM     41  C   UNL A   1      41.516  28.912  29.366  1.00  0.00     0.049 A 
ATOM     42  N   UNL A   1      41.968  26.065  28.818  1.00  0.00    -0.248 NA
ATOM     43  C   UNL A   1      40.084  25.999  27.505  1.00  0.00     0.031 C 
ATOM     44  C   UNL A   1      42.955  28.765  29.160  1.00  0.00     0.029 A 
ATOM     45  N   UNL A   1      41.395  30.054  30.176  1.00  0.00    -0.354 N 
ATOM     46  C   UNL A   1      42.110  25.008  27.949  1.00  0.00     0.074 A 
ATOM     47  C   UNL A   1      40.884  24.976  27.186  1.00  0.00     0.031 C 
ATOM     48  C   UNL A   1      43.599  29.548  30.040  1.00  0.00     0.029 A 
ATOM     49  C   UNL A   1      42.597  30.119  30.921  1.00  0.00     0.049 A 
ATOM     50  H   UNL A   1      40.636  30.678  30.217  1.00  0.00     0.167 HD
ATOM     51  C   UNL A   1      43.308  24.357  27.873  1.00  0.00     0.037 A 
ATOM     52  C   UNL A   1      42.596  30.009  32.281  1.00  0.00     0.037 A 
ATOM     53  C   UNL A   1      44.278  24.919  28.805  1.00  0.00     0.049 A 
ATOM     54  C   UNL A   1      43.394  28.837  32.799  1.00  0.00     0.074 A 
ATOM     55  C   UNL A   1      45.289  25.853  28.644  1.00  0.00     0.029 A 
ATOM     56  N   UNL A   1      44.074  24.791  30.175  1.00  0.00    -0.354 N 
ATOM     57  N   UNL A   1      43.746  27.819  32.065  1.00  0.00    -0.248 NA
ATOM     58  C   UNL A   1      43.834  28.703  34.185  1.00  0.00     0.031 C 
ATOM     59  C   UNL A   1      45.663  26.324  29.925  1.00  0.00     0.029 A 
ATOM     60  C   UNL A   1      44.893  25.664  30.866  1.00  0.00     0.049 A 
ATOM     61  H   UNL A   1      43.438  24.168  30.592  1.00  0.00     0.167 HD
ATOM     62  C   UNL A   1      44.418  26.907  32.835  1.00  0.00     0.074 A 
ATOM     63  C   UNL A   1      44.463  27.514  34.152  1.00  0.00     0.031 C 
ATOM     64  C   UNL A   1      44.870  25.726  32.319  1.00  0.00     0.037 A 
BRANCH  51  65
ATOM     65  C   UNL A   1      43.668  23.426  26.740  1.00  0.00     0.064 A 
ATOM     66  C   UNL A   1      43.194  22.096  26.705  1.00  0.00     0.173 A 
ATOM     67  C   UNL A   1      44.521  23.779  25.678  1.00  0.00     0.173 A 
ATOM     68  F   UNL A   1      42.294  21.648  27.588  1.00  0.00    -0.203 F 
ATOM     69  C   UNL A   1      43.638  21.167  25.761  1.00  0.00     0.198 A 
ATOM     70  C   UNL A   1      45.008  22.836  24.766  1.00  0.00     0.198 A 
ATOM     71  F   UNL A   1      44.878  25.055  25.475  1.00  0.00    -0.203 F 
ATOM     72  F   UNL A   1      43.162  19.913  25.787  1.00  0.00    -0.200 F 
ATOM     73  C   UNL A   1      44.576  21.526  24.816  1.00  0.00     0.200 A 
ATOM     74  F   UNL A   1      45.905  23.207  23.841  1.00  0.00    -0.200 F 
ATOM     75  F   UNL A   1      45.044  20.621  23.946  1.00  0.00    -0.200 F 
ENDBRANCH  51  65
BRANCH  52  76
ATOM     76  C   UNL A   1      41.368  30.567  32.903  1.00  0.00     0.064 A 
ATOM     77  C   UNL A   1      41.196  31.965  32.876  1.00  0.00     0.173 A 
ATOM     78  C   UNL A   1      40.232  29.779  33.123  1.00  0.00     0.173 A 
ATOM     79  F   UNL A   1      42.254  32.764  32.668  1.00  0.00    -0.203 F 
ATOM     80  C   UNL A   1      39.929  32.541  32.932  1.00  0.00     0.198 A 
ATOM     81  C   UNL A   1      38.964  30.363  33.198  1.00  0.00     0.198 A 
ATOM     82  F   UNL A   1      40.328  28.442  33.141  1.00  0.00    -0.203 F 
ATOM     83  F   UNL A   1      39.789  33.866  32.775  1.00  0.00    -0.200 F 
ATOM     84  C   UNL A   1      38.811  31.736  33.063  1.00  0.00     0.200 A 
ATOM     85  F   UNL A   1      37.879  29.583  33.305  1.00  0.00    -0.200 F 
ATOM     86  F   UNL A   1      37.586  32.278  33.015  1.00  0.00    -0.200 F 
ENDBRANCH  52  76
BRANCH  64  87
ATOM     87  C   UNL A   1      45.426  24.559  33.100  1.00  0.00     0.064 A 
ATOM     88  C   UNL A   1      46.703  24.541  33.681  1.00  0.00     0.173 A 
ATOM     89  C   UNL A   1      44.597  23.453  33.415  1.00  0.00     0.173 A 
ATOM     90  F   UNL A   1      47.541  25.578  33.557  1.00  0.00    -0.203 F 
ATOM     91  C   UNL A   1      47.141  23.472  34.469  1.00  0.00     0.198 A 
ATOM     92  C   UNL A   1      45.017  22.417  34.249  1.00  0.00     0.198 A 
ATOM     93  F   UNL A   1      43.345  23.356  32.945  1.00  0.00    -0.203 F 
ATOM     94  F   UNL A   1      48.385  23.483  34.968  1.00  0.00    -0.200 F 
ATOM     95  C   UNL A   1      46.295  22.418  34.764  1.00  0.00     0.200 A 
ATOM     96  F   UNL A   1      44.164  21.432  34.568  1.00  0.00    -0.200 F 
ATOM     97  F   UNL A   1      46.703  21.421  35.559  1.00  0.00    -0.200 F 
ENDBRANCH  64  87
ENDBRANCH  38  39
ENDBRANCH  30  33
ENDBRANCH  28  29
ENDBRANCH  27  28
ENDBRANCH   1  27
TORSDOF 14
ENDMDL
MODEL 2
REMARK VINA RESULT:     -13.6      3.571     10.121
REMARK SMILES Cc1cccc(Cn2c(=O)c3sccc3n(CC(=O)NCCCCNC(=O)c3ccc(-c4c5nc(c(-c6c(F)c(F)c(F)c(F)c6F)c6ccc([nH]6)c(-c6c(F)c(F)c(F)c(F)c6F)c6nc(c(-c7c(F)c(F)c(F)c(F)c7F)c7ccc4[nH]7)C=C6)C=C5)cc3)c2=O)c1
REMARK SMILES IDX 22 1 21 2 20 3 18 4 19 5 17 7 16 8 8 9 9 10 91 11 10 12
REMARK SMILES IDX 11 13 92 14 12 15 15 16 13 17 14 18 7 19 6 20 1 21 2 22 3 23
REMARK SMILES IDX 93 24 4 25 5 26 23 27 24 28 25 29 26 30 27 32 28 33 29 34
REMARK SMILES IDX 90 35 30 36 89 37 31 38 32 39 33 40 83 41 34 42 88 43 82 44
REMARK SMILES IDX 84 45 35 46 87 47 81 48 80 49 36 51 68 52 48 53 67 54 49 55
REMARK SMILES IDX 52 56 66 57 85 58 50 59 51 60 65 62 86 63 53 64 37 65 38 66
REMARK SMILES IDX 46 67 39 68 40 69 44 70 47 71 41 72 42 73 45 74 43 75 69 76
REMARK SMILES IDX 70 77 78 78 71 79 72 80 76 81 79 82 73 83 74 84 77 85 75 86
REMARK SMILES IDX 54 87 55 88 63 89 56 90 57 91 61 92 64 93 58 94 59 95 62 96
REMARK SMILES IDX 60 97
REMARK H PARENT 20 6 25 31 84 50 52 61
REMARK Flexibility Score: inf
ROOT
ATOM      1  C   UNL A   1      36.327  21.632  25.552  1.00  0.00     0.023 C 
ENDROOT
BRANCH   1   2
ATOM      2  C   UNL A   1      35.636  22.924  26.016  1.00  0.00     0.116 C 
BRANCH   2   3
ATOM      3  N   UNL A   1      34.782  22.745  27.174  1.00  0.00    -0.355 N 
ATOM      4  C   UNL A   1      33.448  22.481  27.260  1.00  0.00     0.240 C 
ATOM      5  O   UNL A   1      33.000  22.203  28.378  1.00  0.00    -0.273 OA
ATOM      6  H   UNL A   1      35.242  22.829  28.041  1.00  0.00     0.163 HD
BRANCH   4   7
ATOM      7  C   UNL A   1      32.541  22.418  26.029  1.00  0.00     0.227 C 
BRANCH   7   8
ATOM      8  N   UNL A   1      32.381  23.692  25.322  1.00  0.00    -0.283 N 
ATOM      9  N   UNL A   1      31.680  25.983  25.350  1.00  0.00    -0.254 N 
ATOM     10  C   UNL A   1      31.981  26.193  23.999  1.00  0.00     0.274 A 
ATOM     11  C   UNL A   1      31.848  24.771  26.026  1.00  0.00     0.332 A 
ATOM     12  O   UNL A   1      31.770  27.258  23.426  1.00  0.00    -0.268 OA
ATOM     13  C   UNL A   1      32.510  25.024  23.343  1.00  0.00     0.116 A 
ATOM     14  O   UNL A   1      31.479  24.624  27.194  1.00  0.00    -0.247 OA
ATOM     15  S   UNL A   1      32.903  24.974  21.691  1.00  0.00    -0.136 S 
ATOM     16  C   UNL A   1      32.711  23.826  23.974  1.00  0.00     0.070 A 
ATOM     17  C   UNL A   1      33.371  23.330  21.801  1.00  0.00     0.068 A 
ATOM     18  C   UNL A   1      33.231  22.841  23.083  1.00  0.00     0.039 A 
BRANCH   9  19
ATOM     19  C   UNL A   1      31.011  27.066  26.071  1.00  0.00     0.166 C 
BRANCH  19  20
ATOM     20  C   UNL A   1      31.918  28.218  26.454  1.00  0.00    -0.028 A 
ATOM     21  C   UNL A   1      31.779  32.010  26.876  1.00  0.00     0.044 C 
ATOM     22  C   UNL A   1      32.284  30.599  26.832  1.00  0.00    -0.051 A 
ATOM     23  C   UNL A   1      33.609  30.334  27.199  1.00  0.00     0.003 A 
ATOM     24  C   UNL A   1      31.453  29.540  26.431  1.00  0.00     0.009 A 
ATOM     25  C   UNL A   1      34.083  29.028  27.221  1.00  0.00     0.001 A 
ATOM     26  C   UNL A   1      33.235  27.979  26.876  1.00  0.00     0.005 A 
ENDBRANCH  19  20
ENDBRANCH   9  19
ENDBRANCH   7   8
ENDBRANCH   4   7
ENDBRANCH   2   3
ENDBRANCH   1   2
BRANCH   1  27
ATOM     27  C   UNL A   1      37.858  21.635  25.638  1.00  0.00     0.023 C 
BRANCH  27  28
ATOM     28  C   UNL A   1      38.450  22.985  26.013  1.00  0.00     0.116 C 
BRANCH  28  29
ATOM     29  N   UNL A   1      39.846  22.968  26.420  1.00  0.00    -0.352 N 
ATOM     30  C   UNL A   1      40.655  24.017  26.841  1.00  0.00     0.251 C 
ATOM     31  H   UNL A   1      40.282  22.086  26.393  1.00  0.00     0.163 HD
ATOM     32  O   UNL A   1      41.844  23.837  27.013  1.00  0.00    -0.269 OA
BRANCH  30  33
ATOM     33  C   UNL A   1      40.038  25.322  27.214  1.00  0.00     0.039 A 
ATOM     34  C   UNL A   1      40.453  26.466  26.518  1.00  0.00     0.014 A 
ATOM     35  C   UNL A   1      39.235  25.455  28.341  1.00  0.00     0.014 A 
ATOM     36  C   UNL A   1      40.283  27.723  27.097  1.00  0.00     0.010 A 
ATOM     37  C   UNL A   1      39.170  26.678  28.975  1.00  0.00     0.010 A 
ATOM     38  C   UNL A   1      39.749  27.803  28.383  1.00  0.00    -0.014 A 
BRANCH  38  39
ATOM     39  C   UNL A   1      39.845  28.988  29.223  1.00  0.00     0.031 A 
ATOM     40  C   UNL A   1      38.808  30.038  29.165  1.00  0.00     0.074 A 
ATOM     41  C   UNL A   1      40.835  29.069  30.140  1.00  0.00     0.049 A 
ATOM     42  N   UNL A   1      39.018  31.274  29.472  1.00  0.00    -0.248 NA
ATOM     43  C   UNL A   1      37.440  29.776  28.735  1.00  0.00     0.031 C 
ATOM     44  C   UNL A   1      40.951  30.031  31.233  1.00  0.00     0.029 A 
ATOM     45  N   UNL A   1      42.060  28.381  30.150  1.00  0.00    -0.354 N 
ATOM     46  C   UNL A   1      37.795  31.898  29.546  1.00  0.00     0.074 A 
ATOM     47  C   UNL A   1      36.848  30.940  29.024  1.00  0.00     0.031 C 
ATOM     48  C   UNL A   1      42.239  30.107  31.606  1.00  0.00     0.029 A 
ATOM     49  C   UNL A   1      43.003  29.295  30.678  1.00  0.00     0.049 A 
ATOM     50  H   UNL A   1      42.228  27.459  29.853  1.00  0.00     0.167 HD
ATOM     51  C   UNL A   1      37.694  33.108  30.169  1.00  0.00     0.037 A 
ATOM     52  C   UNL A   1      44.056  29.740  29.932  1.00  0.00     0.037 A 
ATOM     53  C   UNL A   1      38.990  33.566  30.655  1.00  0.00     0.049 A 
ATOM     54  C   UNL A   1      44.069  31.235  29.724  1.00  0.00     0.074 A 
ATOM     55  C   UNL A   1      39.599  33.485  31.897  1.00  0.00     0.029 A 
ATOM     56  N   UNL A   1      39.990  33.897  29.747  1.00  0.00    -0.354 N 
ATOM     57  N   UNL A   1      43.027  32.000  29.900  1.00  0.00    -0.248 NA
ATOM     58  C   UNL A   1      45.239  31.983  29.276  1.00  0.00     0.031 C 
ATOM     59  C   UNL A   1      40.983  33.725  31.727  1.00  0.00     0.029 A 
ATOM     60  C   UNL A   1      41.214  33.968  30.385  1.00  0.00     0.049 A 
ATOM     61  H   UNL A   1      39.847  34.059  28.787  1.00  0.00     0.167 HD
ATOM     62  C   UNL A   1      43.350  33.294  29.588  1.00  0.00     0.074 A 
ATOM     63  C   UNL A   1      44.752  33.236  29.220  1.00  0.00     0.031 C 
ATOM     64  C   UNL A   1      42.426  34.299  29.653  1.00  0.00     0.037 A 
BRANCH  51  65
ATOM     65  C   UNL A   1      36.374  33.708  30.595  1.00  0.00     0.064 A 
ATOM     66  C   UNL A   1      35.452  34.200  29.644  1.00  0.00     0.173 A 
ATOM     67  C   UNL A   1      35.984  33.868  31.937  1.00  0.00     0.173 A 
ATOM     68  F   UNL A   1      35.638  34.026  28.331  1.00  0.00    -0.203 F 
ATOM     69  C   UNL A   1      34.302  34.903  30.011  1.00  0.00     0.198 A 
ATOM     70  C   UNL A   1      34.862  34.619  32.304  1.00  0.00     0.198 A 
ATOM     71  F   UNL A   1      36.661  33.270  32.928  1.00  0.00    -0.203 F 
ATOM     72  F   UNL A   1      33.471  35.358  29.062  1.00  0.00    -0.200 F 
ATOM     73  C   UNL A   1      34.027  35.148  31.340  1.00  0.00     0.200 A 
ATOM     74  F   UNL A   1      34.599  34.830  33.602  1.00  0.00    -0.200 F 
ATOM     75  F   UNL A   1      32.955  35.870  31.689  1.00  0.00    -0.200 F 
ENDBRANCH  51  65
BRANCH  52  76
ATOM     76  C   UNL A   1      44.546  28.724  28.965  1.00  0.00     0.064 A 
ATOM     77  C   UNL A   1      45.282  27.636  29.473  1.00  0.00     0.173 A 
ATOM     78  C   UNL A   1      43.975  28.583  27.694  1.00  0.00     0.173 A 
ATOM     79  F   UNL A   1      45.849  27.722  30.687  1.00  0.00    -0.203 F 
ATOM     80  C   UNL A   1      45.332  26.417  28.801  1.00  0.00     0.198 A 
ATOM     81  C   UNL A   1      44.044  27.363  27.015  1.00  0.00     0.198 A 
ATOM     82  F   UNL A   1      43.247  29.576  27.164  1.00  0.00    -0.203 F 
ATOM     83  F   UNL A   1      45.933  25.363  29.372  1.00  0.00    -0.200 F 
ATOM     84  C   UNL A   1      44.686  26.273  27.585  1.00  0.00     0.200 A 
ATOM     85  F   UNL A   1      43.403  27.217  25.846  1.00  0.00    -0.200 F 
ATOM     86  F   UNL A   1      44.647  25.075  26.986  1.00  0.00    -0.200 F 
ENDBRANCH  52  76
BRANCH  64  87
ATOM     87  C   UNL A   1      42.595  35.708  29.135  1.00  0.00     0.064 A 
ATOM     88  C   UNL A   1      41.938  36.211  28.002  1.00  0.00     0.173 A 
ATOM     89  C   UNL A   1      43.334  36.659  29.884  1.00  0.00     0.173 A 
ATOM     90  F   UNL A   1      41.116  35.445  27.274  1.00  0.00    -0.203 F 
ATOM     91  C   UNL A   1      42.059  37.549  27.611  1.00  0.00     0.198 A 
ATOM     92  C   UNL A   1      43.403  38.003  29.525  1.00  0.00     0.198 A 
ATOM     93  F   UNL A   1      43.990  36.316  31.003  1.00  0.00    -0.203 F 
ATOM     94  F   UNL A   1      41.445  37.971  26.497  1.00  0.00    -0.200 F 
ATOM     95  C   UNL A   1      42.779  38.446  28.379  1.00  0.00     0.200 A 
ATOM     96  F   UNL A   1      44.060  38.870  30.310  1.00  0.00    -0.200 F 
ATOM     97  F   UNL A   1      42.850  39.737  28.027  1.00  0.00    -0.200 F 
ENDBRANCH  64  87
ENDBRANCH  38  39
ENDBRANCH  30  33
ENDBRANCH  28  29
ENDBRANCH  27  28
ENDBRANCH   1  27
TORSDOF 14
ENDMDL
MODEL 3
REMARK VINA RESULT:     -13.4      1.685      2.200
REMARK SMILES Cc1cccc(Cn2c(=O)c3sccc3n(CC(=O)NCCCCNC(=O)c3ccc(-c4c5nc(c(-c6c(F)c(F)c(F)c(F)c6F)c6ccc([nH]6)c(-c6c(F)c(F)c(F)c(F)c6F)c6nc(c(-c7c(F)c(F)c(F)c(F)c7F)c7ccc4[nH]7)C=C6)C=C5)cc3)c2=O)c1
REMARK SMILES IDX 22 1 21 2 20 3 18 4 19 5 17 7 16 8 8 9 9 10 91 11 10 12
REMARK SMILES IDX 11 13 92 14 12 15 15 16 13 17 14 18 7 19 6 20 1 21 2 22 3 23
REMARK SMILES IDX 93 24 4 25 5 26 23 27 24 28 25 29 26 30 27 32 28 33 29 34
REMARK SMILES IDX 90 35 30 36 89 37 31 38 32 39 33 40 83 41 34 42 88 43 82 44
REMARK SMILES IDX 84 45 35 46 87 47 81 48 80 49 36 51 68 52 48 53 67 54 49 55
REMARK SMILES IDX 52 56 66 57 85 58 50 59 51 60 65 62 86 63 53 64 37 65 38 66
REMARK SMILES IDX 46 67 39 68 40 69 44 70 47 71 41 72 42 73 45 74 43 75 69 76
REMARK SMILES IDX 70 77 78 78 71 79 72 80 76 81 79 82 73 83 74 84 77 85 75 86
REMARK SMILES IDX 54 87 55 88 63 89 56 90 57 91 61 92 64 93 58 94 59 95 62 96
REMARK SMILES IDX 60 97
REMARK H PARENT 20 6 25 31 84 50 52 61
REMARK Flexibility Score: inf
ROOT
ATOM      1  C   UNL A   1      31.901  30.228  25.738  1.00  0.00     0.023 C 
ENDROOT
BRANCH   1   2
ATOM      2  C   UNL A   1      32.389  28.775  25.846  1.00  0.00     0.116 C 
BRANCH   2   3
ATOM      3  N   UNL A   1      31.338  27.830  26.169  1.00  0.00    -0.355 N 
ATOM      4  C   UNL A   1      31.378  26.477  26.328  1.00  0.00     0.240 C 
ATOM      5  O   UNL A   1      30.363  25.932  26.775  1.00  0.00    -0.273 OA
ATOM      6  H   UNL A   1      30.447  28.232  26.293  1.00  0.00     0.163 HD
BRANCH   4   7
ATOM      7  C   UNL A   1      32.646  25.657  26.075  1.00  0.00     0.227 C 
BRANCH   7   8
ATOM      8  N   UNL A   1      32.521  24.650  25.018  1.00  0.00    -0.283 N 
ATOM      9  N   UNL A   1      32.120  22.374  24.385  1.00  0.00    -0.254 N 
ATOM     10  C   UNL A   1      32.321  22.615  23.020  1.00  0.00     0.274 A 
ATOM     11  C   UNL A   1      32.224  23.339  25.391  1.00  0.00     0.332 A 
ATOM     12  O   UNL A   1      32.273  21.730  22.172  1.00  0.00    -0.268 OA
ATOM     13  C   UNL A   1      32.640  23.989  22.724  1.00  0.00     0.116 A 
ATOM     14  O   UNL A   1      32.125  23.045  26.584  1.00  0.00    -0.247 OA
ATOM     15  S   UNL A   1      32.995  24.552  21.162  1.00  0.00    -0.136 S 
ATOM     16  C   UNL A   1      32.730  24.969  23.676  1.00  0.00     0.070 A 
ATOM     17  C   UNL A   1      33.261  26.143  21.741  1.00  0.00     0.068 A 
ATOM     18  C   UNL A   1      33.072  26.230  23.105  1.00  0.00     0.039 A 
BRANCH   9  19
ATOM     19  C   UNL A   1      31.926  20.986  24.805  1.00  0.00     0.166 C 
BRANCH  19  20
ATOM     20  C   UNL A   1      33.174  20.129  24.730  1.00  0.00    -0.028 A 
ATOM     21  C   UNL A   1      34.218  16.599  23.719  1.00  0.00     0.044 C 
ATOM     22  C   UNL A   1      34.270  18.013  24.213  1.00  0.00    -0.051 A 
ATOM     23  C   UNL A   1      35.505  18.569  24.569  1.00  0.00     0.003 A 
ATOM     24  C   UNL A   1      33.104  18.788  24.326  1.00  0.00     0.009 A 
ATOM     25  C   UNL A   1      35.586  19.895  24.975  1.00  0.00     0.001 A 
ATOM     26  C   UNL A   1      34.433  20.673  25.030  1.00  0.00     0.005 A 
ENDBRANCH  19  20
ENDBRANCH   9  19
ENDBRANCH   7   8
ENDBRANCH   4   7
ENDBRANCH   2   3
ENDBRANCH   1   2
BRANCH   1  27
ATOM     27  C   UNL A   1      32.379  31.169  26.852  1.00  0.00     0.023 C 
BRANCH  27  28
ATOM     28  C   UNL A   1      33.596  30.658  27.607  1.00  0.00     0.116 C 
BRANCH  28  29
ATOM     29  N   UNL A   1      34.195  31.597  28.543  1.00  0.00    -0.352 N 
ATOM     30  C   UNL A   1      35.324  31.449  29.339  1.00  0.00     0.251 C 
ATOM     31  H   UNL A   1      33.734  32.463  28.624  1.00  0.00     0.163 HD
ATOM     32  O   UNL A   1      35.601  32.296  30.166  1.00  0.00    -0.269 OA
BRANCH  30  33
ATOM     33  C   UNL A   1      36.269  30.325  29.082  1.00  0.00     0.039 A 
ATOM     34  C   UNL A   1      36.652  29.529  30.170  1.00  0.00     0.014 A 
ATOM     35  C   UNL A   1      36.916  30.180  27.860  1.00  0.00     0.014 A 
ATOM     36  C   UNL A   1      37.835  28.794  30.101  1.00  0.00     0.010 A 
ATOM     37  C   UNL A   1      38.145  29.554  27.825  1.00  0.00     0.010 A 
ATOM     38  C   UNL A   1      38.634  28.913  28.965  1.00  0.00    -0.014 A 
BRANCH  38  39
ATOM     39  C   UNL A   1      40.028  28.494  28.912  1.00  0.00     0.031 A 
ATOM     40  C   UNL A   1      40.386  27.121  28.502  1.00  0.00     0.074 A 
ATOM     41  C   UNL A   1      41.001  29.405  29.136  1.00  0.00     0.049 A 
ATOM     42  N   UNL A   1      41.471  26.522  28.864  1.00  0.00    -0.248 NA
ATOM     43  C   UNL A   1      39.531  26.301  27.653  1.00  0.00     0.031 C 
ATOM     44  C   UNL A   1      42.431  29.253  28.880  1.00  0.00     0.029 A 
ATOM     45  N   UNL A   1      40.899  30.624  29.829  1.00  0.00    -0.354 N 
ATOM     46  C   UNL A   1      41.590  25.383  28.102  1.00  0.00     0.074 A 
ATOM     47  C   UNL A   1      40.331  25.259  27.405  1.00  0.00     0.031 C 
ATOM     48  C   UNL A   1      43.102  30.130  29.643  1.00  0.00     0.029 A 
ATOM     49  C   UNL A   1      42.132  30.778  30.506  1.00  0.00     0.049 A 
ATOM     50  H   UNL A   1      40.133  31.241  29.840  1.00  0.00     0.167 HD
ATOM     51  C   UNL A   1      42.792  24.740  28.039  1.00  0.00     0.037 A 
ATOM     52  C   UNL A   1      42.194  30.810  31.869  1.00  0.00     0.037 A 
ATOM     53  C   UNL A   1      43.795  25.405  28.862  1.00  0.00     0.049 A 
ATOM     54  C   UNL A   1      43.032  29.706  32.468  1.00  0.00     0.074 A 
ATOM     55  C   UNL A   1      44.784  26.327  28.560  1.00  0.00     0.029 A 
ATOM     56  N   UNL A   1      43.654  25.417  30.246  1.00  0.00    -0.354 N 
ATOM     57  N   UNL A   1      43.366  28.621  31.827  1.00  0.00    -0.248 NA
ATOM     58  C   UNL A   1      43.535  29.721  33.838  1.00  0.00     0.031 C 
ATOM     59  C   UNL A   1      45.208  26.932  29.767  1.00  0.00     0.029 A 
ATOM     60  C   UNL A   1      44.491  26.365  30.805  1.00  0.00     0.049 A 
ATOM     61  H   UNL A   1      43.047  24.834  30.754  1.00  0.00     0.167 HD
ATOM     62  C   UNL A   1      44.086  27.801  32.655  1.00  0.00     0.074 A 
ATOM     63  C   UNL A   1      44.181  28.542  33.899  1.00  0.00     0.031 C 
ATOM     64  C   UNL A   1      44.532  26.578  32.243  1.00  0.00     0.037 A 
BRANCH  51  65
ATOM     65  C   UNL A   1      43.115  23.700  26.992  1.00  0.00     0.064 A 
ATOM     66  C   UNL A   1      42.768  22.343  27.175  1.00  0.00     0.173 A 
ATOM     67  C   UNL A   1      43.813  23.978  25.802  1.00  0.00     0.173 A 
ATOM     68  F   UNL A   1      42.015  21.944  28.206  1.00  0.00    -0.203 F 
ATOM     69  C   UNL A   1      43.194  21.337  26.304  1.00  0.00     0.198 A 
ATOM     70  C   UNL A   1      44.286  22.965  24.960  1.00  0.00     0.198 A 
ATOM     71  F   UNL A   1      44.024  25.241  25.405  1.00  0.00    -0.203 F 
ATOM     72  F   UNL A   1      42.844  20.063  26.539  1.00  0.00    -0.200 F 
ATOM     73  C   UNL A   1      43.988  21.643  25.219  1.00  0.00     0.200 A 
ATOM     74  F   UNL A   1      45.040  23.283  23.897  1.00  0.00    -0.200 F 
ATOM     75  F   UNL A   1      44.443  20.672  24.416  1.00  0.00    -0.200 F 
ENDBRANCH  51  65
BRANCH  52  76
ATOM     76  C   UNL A   1      40.987  31.416  32.486  1.00  0.00     0.064 A 
ATOM     77  C   UNL A   1      40.810  32.808  32.354  1.00  0.00     0.173 A 
ATOM     78  C   UNL A   1      39.861  30.649  32.808  1.00  0.00     0.173 A 
ATOM     79  F   UNL A   1      41.859  33.587  32.046  1.00  0.00    -0.203 F 
ATOM     80  C   UNL A   1      39.545  33.387  32.407  1.00  0.00     0.198 A 
ATOM     81  C   UNL A   1      38.595  31.238  32.880  1.00  0.00     0.198 A 
ATOM     82  F   UNL A   1      39.960  29.317  32.930  1.00  0.00    -0.203 F 
ATOM     83  F   UNL A   1      39.397  34.695  32.150  1.00  0.00    -0.200 F 
ATOM     84  C   UNL A   1      38.434  32.596  32.640  1.00  0.00     0.200 A 
ATOM     85  F   UNL A   1      37.516  30.470  33.086  1.00  0.00    -0.200 F 
ATOM     86  F   UNL A   1      37.207  33.132  32.591  1.00  0.00    -0.200 F 
ENDBRANCH  52  76
BRANCH  64  87
ATOM     87  C   UNL A   1      45.140  25.503  33.113  1.00  0.00     0.064 A 
ATOM     88  C   UNL A   1      46.509  25.196  33.139  1.00  0.00     0.173 A 
ATOM     89  C   UNL A   1      44.348  24.839  34.084  1.00  0.00     0.173 A 
ATOM     90  F   UNL A   1      47.383  25.838  32.354  1.00  0.00    -0.203 F 
ATOM     91  C   UNL A   1      47.038  24.252  34.025  1.00  0.00     0.198 A 
ATOM     92  C   UNL A   1      44.888  23.943  35.005  1.00  0.00     0.198 A 
ATOM     93  F   UNL A   1      43.028  25.059  34.185  1.00  0.00    -0.203 F 
ATOM     94  F   UNL A   1      48.346  23.963  33.982  1.00  0.00    -0.200 F 
ATOM     95  C   UNL A   1      46.231  23.637  34.966  1.00  0.00     0.200 A 
ATOM     96  F   UNL A   1      44.102  23.397  35.944  1.00  0.00    -0.200 F 
ATOM     97  F   UNL A   1      46.752  22.770  35.844  1.00  0.00    -0.200 F 
ENDBRANCH  64  87
ENDBRANCH  38  39
ENDBRANCH  30  33
ENDBRANCH  28  29
ENDBRANCH  27  28
ENDBRANCH   1  27
TORSDOF 14
ENDMDL
