MODEL 1
REMARK VINA RESULT:     -11.8      0.000      0.000
REMARK SMILES CC[C@](O)(C(=O)NCCCCNC(=O)c1ccc(-c2c3nc(c(-c4c(F)c(F)c(F)c(F)c4F)c4ccc([nH]4)c(-c4c(F)c(F)c(F)c(F)c4F)c4nc(c(-c5c(F)c(F)c(F)c(F)c5F)c5ccc2[nH]5)C=C4)C=C3)cc1)[C@@H](C)c1ccc(C)s1
REMARK SMILES IDX 9 1 8 2 7 3 5 4 6 5 3 7 2 8 1 9 78 10 79 11 80 12 81 13
REMARK SMILES IDX 85 14 82 15 83 16 84 17 4 18 10 20 11 21 12 22 13 23 14 25
REMARK SMILES IDX 15 26 16 27 77 28 17 29 76 30 18 31 19 32 20 33 70 34 21 35
REMARK SMILES IDX 75 36 69 37 71 38 22 39 74 40 68 41 67 42 23 44 55 45 35 46
REMARK SMILES IDX 54 47 36 48 39 49 53 50 72 51 37 52 38 53 52 55 73 56 40 57
REMARK SMILES IDX 24 58 25 59 33 60 26 61 27 62 31 63 34 64 28 65 29 66 32 67
REMARK SMILES IDX 30 68 56 69 57 70 65 71 58 72 59 73 63 74 66 75 60 76 61 77
REMARK SMILES IDX 64 78 62 79 41 80 42 81 50 82 43 83 44 84 48 85 51 86 45 87
REMARK SMILES IDX 46 88 49 89 47 90
REMARK H PARENT 7 6 4 19 12 24 71 43 39 54
REMARK Flexibility Score: inf
ROOT
ATOM      1  C   UNL A   1      31.804  30.462  26.847  1.00  0.00     0.023 C 
ENDROOT
BRANCH   1   2
ATOM      2  C   UNL A   1      32.142  29.944  25.455  1.00  0.00     0.116 C 
BRANCH   2   3
ATOM      3  N   UNL A   1      31.039  30.069  24.522  1.00  0.00    -0.354 N 
ATOM      4  C   UNL A   1      30.686  29.250  23.477  1.00  0.00     0.252 C 
ATOM      5  O   UNL A   1      29.624  29.502  22.905  1.00  0.00    -0.272 OA
ATOM      6  H   UNL A   1      30.460  30.855  24.657  1.00  0.00     0.163 HD
BRANCH   4   7
ATOM      7  C   UNL A   1      31.568  28.002  23.127  1.00  0.00     0.150 C 
BRANCH   7   8
ATOM      8  C   UNL A   1      33.047  28.526  23.165  1.00  0.00     0.043 C 
ATOM      9  C   UNL A   1      33.964  28.247  21.980  1.00  0.00     0.007 C 
ENDBRANCH   7   8
BRANCH   7  10
ATOM     10  C   UNL A   1      31.328  26.862  24.182  1.00  0.00     0.068 C 
ATOM     11  C   UNL A   1      30.128  25.958  23.825  1.00  0.00     0.017 C 
BRANCH  10  12
ATOM     12  C   UNL A   1      32.543  25.954  24.390  1.00  0.00     0.011 A 
ATOM     13  C   UNL A   1      33.504  25.969  25.385  1.00  0.00     0.016 A 
ATOM     14  S   UNL A   1      32.912  24.750  23.217  1.00  0.00    -0.145 S 
ATOM     15  C   UNL A   1      34.509  24.981  25.202  1.00  0.00     0.015 A 
ATOM     16  C   UNL A   1      34.350  24.294  24.020  1.00  0.00     0.002 A 
ATOM     17  C   UNL A   1      35.261  23.271  23.434  1.00  0.00     0.056 C 
ENDBRANCH  10  12
ENDBRANCH   7  10
BRANCH   7  18
ATOM     18  O   UNL A   1      31.114  27.536  21.846  1.00  0.00    -0.379 OA
ATOM     19  H   UNL A   1      30.801  26.622  21.927  1.00  0.00     0.212 HD
ENDBRANCH   7  18
ENDBRANCH   4   7
ENDBRANCH   2   3
ENDBRANCH   1   2
BRANCH   1  20
ATOM     20  C   UNL A   1      31.547  31.966  26.918  1.00  0.00     0.023 C 
BRANCH  20  21
ATOM     21  C   UNL A   1      32.745  32.812  27.334  1.00  0.00     0.116 C 
BRANCH  21  22
ATOM     22  N   UNL A   1      32.403  34.193  27.639  1.00  0.00    -0.352 N 
ATOM     23  C   UNL A   1      32.969  35.041  28.562  1.00  0.00     0.251 C 
ATOM     24  H   UNL A   1      31.665  34.574  27.109  1.00  0.00     0.163 HD
ATOM     25  O   UNL A   1      32.494  36.149  28.764  1.00  0.00    -0.269 OA
BRANCH  23  26
ATOM     26  C   UNL A   1      34.138  34.580  29.342  1.00  0.00     0.039 A 
ATOM     27  C   UNL A   1      33.923  34.003  30.595  1.00  0.00     0.014 A 
ATOM     28  C   UNL A   1      35.428  34.676  28.816  1.00  0.00     0.014 A 
ATOM     29  C   UNL A   1      35.000  33.448  31.289  1.00  0.00     0.010 A 
ATOM     30  C   UNL A   1      36.486  34.054  29.473  1.00  0.00     0.010 A 
ATOM     31  C   UNL A   1      36.281  33.431  30.715  1.00  0.00    -0.014 A 
BRANCH  31  32
ATOM     32  C   UNL A   1      37.419  32.758  31.391  1.00  0.00     0.031 A 
ATOM     33  C   UNL A   1      38.109  31.599  30.731  1.00  0.00     0.074 A 
ATOM     34  C   UNL A   1      37.780  33.145  32.629  1.00  0.00     0.049 A 
ATOM     35  N   UNL A   1      39.072  30.838  31.188  1.00  0.00    -0.248 NA
ATOM     36  C   UNL A   1      37.638  31.226  29.388  1.00  0.00     0.031 C 
ATOM     37  C   UNL A   1      37.151  34.220  33.397  1.00  0.00     0.029 A 
ATOM     38  N   UNL A   1      38.759  32.669  33.466  1.00  0.00    -0.354 N 
ATOM     39  C   UNL A   1      39.308  29.893  30.199  1.00  0.00     0.074 A 
ATOM     40  C   UNL A   1      38.353  30.139  29.142  1.00  0.00     0.031 C 
ATOM     41  C   UNL A   1      37.773  34.338  34.581  1.00  0.00     0.029 A 
ATOM     42  C   UNL A   1      38.818  33.322  34.673  1.00  0.00     0.049 A 
ATOM     43  H   UNL A   1      39.361  31.928  33.225  1.00  0.00     0.167 HD
ATOM     44  C   UNL A   1      40.253  28.924  30.166  1.00  0.00     0.037 A 
ATOM     45  C   UNL A   1      39.620  33.121  35.735  1.00  0.00     0.037 A 
ATOM     46  C   UNL A   1      41.218  28.698  31.209  1.00  0.00     0.049 A 
ATOM     47  C   UNL A   1      40.659  32.032  35.674  1.00  0.00     0.074 A 
ATOM     48  C   UNL A   1      42.258  27.786  31.241  1.00  0.00     0.029 A 
ATOM     49  N   UNL A   1      41.258  29.393  32.410  1.00  0.00    -0.354 N 
ATOM     50  N   UNL A   1      40.924  31.194  34.702  1.00  0.00    -0.248 NA
ATOM     51  C   UNL A   1      41.515  31.868  36.858  1.00  0.00     0.031 C 
ATOM     52  C   UNL A   1      42.899  27.895  32.480  1.00  0.00     0.029 A 
ATOM     53  C   UNL A   1      42.291  28.912  33.200  1.00  0.00     0.049 A 
ATOM     54  H   UNL A   1      40.645  30.120  32.664  1.00  0.00     0.167 HD
ATOM     55  C   UNL A   1      41.990  30.422  35.144  1.00  0.00     0.074 A 
ATOM     56  C   UNL A   1      42.335  30.904  36.464  1.00  0.00     0.031 C 
ATOM     57  C   UNL A   1      42.625  29.405  34.511  1.00  0.00     0.037 A 
BRANCH  44  58
ATOM     58  C   UNL A   1      40.291  28.035  28.956  1.00  0.00     0.064 A 
ATOM     59  C   UNL A   1      41.024  28.382  27.812  1.00  0.00     0.173 A 
ATOM     60  C   UNL A   1      39.614  26.806  28.953  1.00  0.00     0.173 A 
ATOM     61  F   UNL A   1      41.681  29.551  27.758  1.00  0.00    -0.203 F 
ATOM     62  C   UNL A   1      41.052  27.547  26.697  1.00  0.00     0.198 A 
ATOM     63  C   UNL A   1      39.669  25.960  27.850  1.00  0.00     0.198 A 
ATOM     64  F   UNL A   1      38.903  26.423  30.024  1.00  0.00    -0.203 F 
ATOM     65  F   UNL A   1      41.716  27.924  25.595  1.00  0.00    -0.200 F 
ATOM     66  C   UNL A   1      40.381  26.334  26.720  1.00  0.00     0.200 A 
ATOM     67  F   UNL A   1      39.031  24.781  27.877  1.00  0.00    -0.200 F 
ATOM     68  F   UNL A   1      40.414  25.529  25.649  1.00  0.00    -0.200 F 
ENDBRANCH  44  58
BRANCH  45  69
ATOM     69  C   UNL A   1      39.491  33.982  36.939  1.00  0.00     0.064 A 
ATOM     70  C   UNL A   1      40.122  35.233  36.998  1.00  0.00     0.173 A 
ATOM     71  C   UNL A   1      38.744  33.575  38.053  1.00  0.00     0.173 A 
ATOM     72  F   UNL A   1      40.865  35.657  35.966  1.00  0.00    -0.203 F 
ATOM     73  C   UNL A   1      40.026  36.034  38.134  1.00  0.00     0.198 A 
ATOM     74  C   UNL A   1      38.626  34.390  39.177  1.00  0.00     0.198 A 
ATOM     75  F   UNL A   1      38.118  32.389  38.045  1.00  0.00    -0.203 F 
ATOM     76  F   UNL A   1      40.677  37.205  38.182  1.00  0.00    -0.200 F 
ATOM     77  C   UNL A   1      39.274  35.615  39.221  1.00  0.00     0.200 A 
ATOM     78  F   UNL A   1      37.887  33.986  40.219  1.00  0.00    -0.200 F 
ATOM     79  F   UNL A   1      39.180  36.387  40.311  1.00  0.00    -0.200 F 
ENDBRANCH  45  69
BRANCH  57  80
ATOM     80  C   UNL A   1      43.778  28.764  35.226  1.00  0.00     0.064 A 
ATOM     81  C   UNL A   1      43.596  27.664  36.079  1.00  0.00     0.173 A 
ATOM     82  C   UNL A   1      45.087  29.231  35.027  1.00  0.00     0.173 A 
ATOM     83  F   UNL A   1      42.365  27.190  36.315  1.00  0.00    -0.203 F 
ATOM     84  C   UNL A   1      44.679  27.073  36.723  1.00  0.00     0.198 A 
ATOM     85  C   UNL A   1      46.170  28.617  35.647  1.00  0.00     0.198 A 
ATOM     86  F   UNL A   1      45.315  30.276  34.216  1.00  0.00    -0.203 F 
ATOM     87  F   UNL A   1      44.477  26.053  37.570  1.00  0.00    -0.200 F 
ATOM     88  C   UNL A   1      45.965  27.544  36.501  1.00  0.00     0.200 A 
ATOM     89  F   UNL A   1      47.412  29.064  35.421  1.00  0.00    -0.200 F 
ATOM     90  F   UNL A   1      47.007  26.967  37.116  1.00  0.00    -0.200 F 
ENDBRANCH  57  80
ENDBRANCH  31  32
ENDBRANCH  23  26
ENDBRANCH  21  22
ENDBRANCH  20  21
ENDBRANCH   1  20
TORSDOF 15
ENDMDL
MODEL 2
REMARK VINA RESULT:     -11.7      0.562      7.499
REMARK SMILES CC[C@](O)(C(=O)NCCCCNC(=O)c1ccc(-c2c3nc(c(-c4c(F)c(F)c(F)c(F)c4F)c4ccc([nH]4)c(-c4c(F)c(F)c(F)c(F)c4F)c4nc(c(-c5c(F)c(F)c(F)c(F)c5F)c5ccc2[nH]5)C=C4)C=C3)cc1)[C@@H](C)c1ccc(C)s1
REMARK SMILES IDX 9 1 8 2 7 3 5 4 6 5 3 7 2 8 1 9 78 10 79 11 80 12 81 13
REMARK SMILES IDX 85 14 82 15 83 16 84 17 4 18 10 20 11 21 12 22 13 23 14 25
REMARK SMILES IDX 15 26 16 27 77 28 17 29 76 30 18 31 19 32 20 33 70 34 21 35
REMARK SMILES IDX 75 36 69 37 71 38 22 39 74 40 68 41 67 42 23 44 55 45 35 46
REMARK SMILES IDX 54 47 36 48 39 49 53 50 72 51 37 52 38 53 52 55 73 56 40 57
REMARK SMILES IDX 24 58 25 59 33 60 26 61 27 62 31 63 34 64 28 65 29 66 32 67
REMARK SMILES IDX 30 68 56 69 57 70 65 71 58 72 59 73 63 74 66 75 60 76 61 77
REMARK SMILES IDX 64 78 62 79 41 80 42 81 50 82 43 83 44 84 48 85 51 86 45 87
REMARK SMILES IDX 46 88 49 89 47 90
REMARK H PARENT 7 6 4 19 12 24 71 43 39 54
REMARK Flexibility Score: inf
ROOT
ATOM      1  C   UNL A   1      31.725  30.524  26.860  1.00  0.00     0.023 C 
ENDROOT
BRANCH   1   2
ATOM      2  C   UNL A   1      32.035  29.867  25.522  1.00  0.00     0.116 C 
BRANCH   2   3
ATOM      3  N   UNL A   1      30.975  30.039  24.548  1.00  0.00    -0.354 N 
ATOM      4  C   UNL A   1      30.659  29.264  23.459  1.00  0.00     0.252 C 
ATOM      5  O   UNL A   1      29.625  29.550  22.852  1.00  0.00    -0.272 OA
ATOM      6  H   UNL A   1      30.399  30.827  24.687  1.00  0.00     0.163 HD
BRANCH   4   7
ATOM      7  C   UNL A   1      31.542  28.019  23.100  1.00  0.00     0.150 C 
BRANCH   7   8
ATOM      8  C   UNL A   1      33.021  28.544  23.145  1.00  0.00     0.043 C 
ATOM      9  C   UNL A   1      33.956  28.225  21.984  1.00  0.00     0.007 C 
ENDBRANCH   7   8
BRANCH   7  10
ATOM     10  C   UNL A   1      31.301  26.871  24.147  1.00  0.00     0.068 C 
ATOM     11  C   UNL A   1      30.109  25.963  23.776  1.00  0.00     0.017 C 
BRANCH  10  12
ATOM     12  C   UNL A   1      32.521  25.969  24.357  1.00  0.00     0.011 A 
ATOM     13  C   UNL A   1      33.484  25.994  25.349  1.00  0.00     0.016 A 
ATOM     14  S   UNL A   1      32.889  24.758  23.193  1.00  0.00    -0.145 S 
ATOM     15  C   UNL A   1      34.492  25.009  25.170  1.00  0.00     0.015 A 
ATOM     16  C   UNL A   1      34.332  24.312  23.994  1.00  0.00     0.002 A 
ATOM     17  C   UNL A   1      35.244  23.288  23.412  1.00  0.00     0.056 C 
ENDBRANCH  10  12
ENDBRANCH   7  10
BRANCH   7  18
ATOM     18  O   UNL A   1      31.090  27.563  21.816  1.00  0.00    -0.379 OA
ATOM     19  H   UNL A   1      30.754  28.315  21.304  1.00  0.00     0.212 HD
ENDBRANCH   7  18
ENDBRANCH   4   7
ENDBRANCH   2   3
ENDBRANCH   1   2
BRANCH   1  20
ATOM     20  C   UNL A   1      31.538  32.039  26.795  1.00  0.00     0.023 C 
BRANCH  20  21
ATOM     21  C   UNL A   1      32.763  32.862  27.176  1.00  0.00     0.116 C 
BRANCH  21  22
ATOM     22  N   UNL A   1      32.442  34.213  27.612  1.00  0.00    -0.352 N 
ATOM     23  C   UNL A   1      33.017  34.958  28.615  1.00  0.00     0.251 C 
ATOM     24  H   UNL A   1      31.712  34.655  27.119  1.00  0.00     0.163 HD
ATOM     25  O   UNL A   1      32.558  36.048  28.923  1.00  0.00    -0.269 OA
BRANCH  23  26
ATOM     26  C   UNL A   1      34.174  34.404  29.350  1.00  0.00     0.039 A 
ATOM     27  C   UNL A   1      33.939  33.626  30.485  1.00  0.00     0.014 A 
ATOM     28  C   UNL A   1      35.477  34.615  28.892  1.00  0.00     0.014 A 
ATOM     29  C   UNL A   1      35.010  32.992  31.117  1.00  0.00     0.010 A 
ATOM     30  C   UNL A   1      36.532  33.920  29.476  1.00  0.00     0.010 A 
ATOM     31  C   UNL A   1      36.308  33.099  30.592  1.00  0.00    -0.014 A 
BRANCH  31  32
ATOM     32  C   UNL A   1      37.444  32.352  31.189  1.00  0.00     0.031 A 
ATOM     33  C   UNL A   1      37.951  32.720  32.554  1.00  0.00     0.074 A 
ATOM     34  C   UNL A   1      38.062  31.395  30.473  1.00  0.00     0.049 A 
ATOM     35  N   UNL A   1      38.973  32.237  33.216  1.00  0.00    -0.248 NA
ATOM     36  C   UNL A   1      37.233  33.793  33.260  1.00  0.00     0.031 C 
ATOM     37  C   UNL A   1      37.698  30.985  29.116  1.00  0.00     0.029 A 
ATOM     38  N   UNL A   1      39.137  30.599  30.782  1.00  0.00    -0.354 N 
ATOM     39  C   UNL A   1      39.027  32.954  34.404  1.00  0.00     0.074 A 
ATOM     40  C   UNL A   1      37.972  33.943  34.349  1.00  0.00     0.031 C 
ATOM     41  C   UNL A   1      38.518  30.000  28.718  1.00  0.00     0.029 A 
ATOM     42  C   UNL A   1      39.490  29.734  29.775  1.00  0.00     0.049 A 
ATOM     43  H   UNL A   1      39.610  30.643  31.643  1.00  0.00     0.167 HD
ATOM     44  C   UNL A   1      39.864  32.786  35.454  1.00  0.00     0.037 A 
ATOM     45  C   UNL A   1      40.489  28.833  29.708  1.00  0.00     0.037 A 
ATOM     46  C   UNL A   1      40.896  31.785  35.515  1.00  0.00     0.049 A 
ATOM     47  C   UNL A   1      41.410  28.671  30.889  1.00  0.00     0.074 A 
ATOM     48  C   UNL A   1      41.752  31.490  36.561  1.00  0.00     0.029 A 
ATOM     49  N   UNL A   1      41.212  30.915  34.482  1.00  0.00    -0.354 N 
ATOM     50  N   UNL A   1      41.403  29.303  32.037  1.00  0.00    -0.248 NA
ATOM     51  C   UNL A   1      42.473  27.663  30.765  1.00  0.00     0.031 C 
ATOM     52  C   UNL A   1      42.619  30.475  36.145  1.00  0.00     0.029 A 
ATOM     53  C   UNL A   1      42.268  30.099  34.857  1.00  0.00     0.049 A 
ATOM     54  H   UNL A   1      40.755  30.881  33.611  1.00  0.00     0.167 HD
ATOM     55  C   UNL A   1      42.439  28.755  32.780  1.00  0.00     0.074 A 
ATOM     56  C   UNL A   1      43.043  27.726  31.960  1.00  0.00     0.031 C 
ATOM     57  C   UNL A   1      42.854  29.075  34.030  1.00  0.00     0.037 A 
BRANCH  44  58
ATOM     58  C   UNL A   1      39.695  33.707  36.629  1.00  0.00     0.064 A 
ATOM     59  C   UNL A   1      40.326  34.959  36.678  1.00  0.00     0.173 A 
ATOM     60  C   UNL A   1      38.865  33.349  37.701  1.00  0.00     0.173 A 
ATOM     61  F   UNL A   1      41.139  35.346  35.683  1.00  0.00    -0.203 F 
ATOM     62  C   UNL A   1      40.158  35.804  37.772  1.00  0.00     0.198 A 
ATOM     63  C   UNL A   1      38.675  34.209  38.779  1.00  0.00     0.198 A 
ATOM     64  F   UNL A   1      38.233  32.166  37.702  1.00  0.00    -0.203 F 
ATOM     65  F   UNL A   1      40.814  36.973  37.821  1.00  0.00    -0.200 F 
ATOM     66  C   UNL A   1      39.328  35.432  38.817  1.00  0.00     0.200 A 
ATOM     67  F   UNL A   1      37.861  33.854  39.783  1.00  0.00    -0.200 F 
ATOM     68  F   UNL A   1      39.163  36.249  39.867  1.00  0.00    -0.200 F 
ENDBRANCH  44  58
BRANCH  45  69
ATOM     69  C   UNL A   1      40.658  27.999  28.491  1.00  0.00     0.064 A 
ATOM     70  C   UNL A   1      40.048  26.740  28.393  1.00  0.00     0.173 A 
ATOM     71  C   UNL A   1      41.434  28.434  27.407  1.00  0.00     0.173 A 
ATOM     72  F   UNL A   1      39.313  26.271  29.412  1.00  0.00    -0.203 F 
ATOM     73  C   UNL A   1      40.224  25.940  27.266  1.00  0.00     0.198 A 
ATOM     74  C   UNL A   1      41.586  27.645  26.269  1.00  0.00     0.198 A 
ATOM     75  F   UNL A   1      42.035  29.631  27.450  1.00  0.00    -0.203 F 
ATOM     76  F   UNL A   1      39.667  24.722  27.217  1.00  0.00    -0.200 F 
ATOM     77  C   UNL A   1      40.988  26.396  26.202  1.00  0.00     0.200 A 
ATOM     78  F   UNL A   1      42.314  28.095  25.238  1.00  0.00    -0.200 F 
ATOM     79  F   UNL A   1      41.154  25.628  25.117  1.00  0.00    -0.200 F 
ENDBRANCH  45  69
BRANCH  57  80
ATOM     80  C   UNL A   1      43.996  28.286  34.600  1.00  0.00     0.064 A 
ATOM     81  C   UNL A   1      43.788  27.081  35.288  1.00  0.00     0.173 A 
ATOM     82  C   UNL A   1      45.319  28.721  34.422  1.00  0.00     0.173 A 
ATOM     83  F   UNL A   1      42.543  26.631  35.498  1.00  0.00    -0.203 F 
ATOM     84  C   UNL A   1      44.861  26.354  35.798  1.00  0.00     0.198 A 
ATOM     85  C   UNL A   1      46.390  27.976  34.906  1.00  0.00     0.198 A 
ATOM     86  F   UNL A   1      45.573  29.863  33.766  1.00  0.00    -0.203 F 
ATOM     87  F   UNL A   1      44.635  25.231  36.493  1.00  0.00    -0.200 F 
ATOM     88  C   UNL A   1      46.160  26.798  35.600  1.00  0.00     0.200 A 
ATOM     89  F   UNL A   1      47.645  28.398  34.701  1.00  0.00    -0.200 F 
ATOM     90  F   UNL A   1      47.192  26.092  36.084  1.00  0.00    -0.200 F 
ENDBRANCH  57  80
ENDBRANCH  31  32
ENDBRANCH  23  26
ENDBRANCH  21  22
ENDBRANCH  20  21
ENDBRANCH   1  20
TORSDOF 15
ENDMDL
MODEL 3
REMARK VINA RESULT:     -11.7      0.892      1.905
REMARK SMILES CC[C@](O)(C(=O)NCCCCNC(=O)c1ccc(-c2c3nc(c(-c4c(F)c(F)c(F)c(F)c4F)c4ccc([nH]4)c(-c4c(F)c(F)c(F)c(F)c4F)c4nc(c(-c5c(F)c(F)c(F)c(F)c5F)c5ccc2[nH]5)C=C4)C=C3)cc1)[C@@H](C)c1ccc(C)s1
REMARK SMILES IDX 9 1 8 2 7 3 5 4 6 5 3 7 2 8 1 9 78 10 79 11 80 12 81 13
REMARK SMILES IDX 85 14 82 15 83 16 84 17 4 18 10 20 11 21 12 22 13 23 14 25
REMARK SMILES IDX 15 26 16 27 77 28 17 29 76 30 18 31 19 32 20 33 70 34 21 35
REMARK SMILES IDX 75 36 69 37 71 38 22 39 74 40 68 41 67 42 23 44 55 45 35 46
REMARK SMILES IDX 54 47 36 48 39 49 53 50 72 51 37 52 38 53 52 55 73 56 40 57
REMARK SMILES IDX 24 58 25 59 33 60 26 61 27 62 31 63 34 64 28 65 29 66 32 67
REMARK SMILES IDX 30 68 56 69 57 70 65 71 58 72 59 73 63 74 66 75 60 76 61 77
REMARK SMILES IDX 64 78 62 79 41 80 42 81 50 82 43 83 44 84 48 85 51 86 45 87
REMARK SMILES IDX 46 88 49 89 47 90
REMARK H PARENT 7 6 4 19 12 24 71 43 39 54
REMARK Flexibility Score: inf
ROOT
ATOM      1  C   UNL A   1      31.752  30.353  26.921  1.00  0.00     0.023 C 
ENDROOT
BRANCH   1   2
ATOM      2  C   UNL A   1      31.824  29.497  25.663  1.00  0.00     0.116 C 
BRANCH   2   3
ATOM      3  N   UNL A   1      31.050  30.042  24.564  1.00  0.00    -0.354 N 
ATOM      4  C   UNL A   1      30.594  29.419  23.428  1.00  0.00     0.252 C 
ATOM      5  O   UNL A   1      29.842  30.069  22.699  1.00  0.00    -0.272 OA
ATOM      6  H   UNL A   1      30.819  30.997  24.644  1.00  0.00     0.163 HD
BRANCH   4   7
ATOM      7  C   UNL A   1      30.950  27.916  23.161  1.00  0.00     0.150 C 
BRANCH   7   8
ATOM      8  C   UNL A   1      32.484  27.801  23.473  1.00  0.00     0.043 C 
ATOM      9  C   UNL A   1      33.402  27.143  22.449  1.00  0.00     0.007 C 
ENDBRANCH   7   8
BRANCH   7  10
ATOM     10  C   UNL A   1      30.096  26.987  24.098  1.00  0.00     0.068 C 
ATOM     11  C   UNL A   1      28.609  26.925  23.687  1.00  0.00     0.017 C 
BRANCH  10  12
ATOM     12  C   UNL A   1      30.615  25.548  24.172  1.00  0.00     0.011 A 
ATOM     13  C   UNL A   1      30.610  24.551  23.214  1.00  0.00     0.016 A 
ATOM     14  S   UNL A   1      31.246  24.951  25.657  1.00  0.00    -0.145 S 
ATOM     15  C   UNL A   1      31.148  23.323  23.685  1.00  0.00     0.015 A 
ATOM     16  C   UNL A   1      31.467  23.378  25.023  1.00  0.00     0.002 A 
ATOM     17  C   UNL A   1      31.945  22.266  25.890  1.00  0.00     0.056 C 
ENDBRANCH  10  12
ENDBRANCH   7  10
BRANCH   7  18
ATOM     18  O   UNL A   1      30.578  27.650  21.800  1.00  0.00    -0.379 OA
ATOM     19  H   UNL A   1      31.194  28.101  21.202  1.00  0.00     0.212 HD
ENDBRANCH   7  18
ENDBRANCH   4   7
ENDBRANCH   2   3
ENDBRANCH   1   2
BRANCH   1  20
ATOM     20  C   UNL A   1      31.691  31.857  26.662  1.00  0.00     0.023 C 
BRANCH  20  21
ATOM     21  C   UNL A   1      32.819  32.671  27.287  1.00  0.00     0.116 C 
BRANCH  21  22
ATOM     22  N   UNL A   1      32.439  34.038  27.608  1.00  0.00    -0.352 N 
ATOM     23  C   UNL A   1      32.978  34.888  28.545  1.00  0.00     0.251 C 
ATOM     24  H   UNL A   1      31.693  34.406  27.080  1.00  0.00     0.163 HD
ATOM     25  O   UNL A   1      32.473  35.980  28.761  1.00  0.00    -0.269 OA
BRANCH  23  26
ATOM     26  C   UNL A   1      34.156  34.447  29.324  1.00  0.00     0.039 A 
ATOM     27  C   UNL A   1      33.952  33.847  30.567  1.00  0.00     0.014 A 
ATOM     28  C   UNL A   1      35.446  34.586  28.806  1.00  0.00     0.014 A 
ATOM     29  C   UNL A   1      35.040  33.311  31.259  1.00  0.00     0.010 A 
ATOM     30  C   UNL A   1      36.517  33.984  29.459  1.00  0.00     0.010 A 
ATOM     31  C   UNL A   1      36.324  33.337  30.690  1.00  0.00    -0.014 A 
BRANCH  31  32
ATOM     32  C   UNL A   1      37.477  32.686  31.362  1.00  0.00     0.031 A 
ATOM     33  C   UNL A   1      38.192  31.546  30.695  1.00  0.00     0.074 A 
ATOM     34  C   UNL A   1      37.831  33.075  32.602  1.00  0.00     0.049 A 
ATOM     35  N   UNL A   1      39.171  30.804  31.148  1.00  0.00    -0.248 NA
ATOM     36  C   UNL A   1      37.727  31.169  29.351  1.00  0.00     0.031 C 
ATOM     37  C   UNL A   1      37.180  34.132  33.376  1.00  0.00     0.029 A 
ATOM     38  N   UNL A   1      38.821  32.616  33.435  1.00  0.00    -0.354 N 
ATOM     39  C   UNL A   1      39.426  29.869  30.154  1.00  0.00     0.074 A 
ATOM     40  C   UNL A   1      38.465  30.100  29.098  1.00  0.00     0.031 C 
ATOM     41  C   UNL A   1      37.800  34.257  34.560  1.00  0.00     0.029 A 
ATOM     42  C   UNL A   1      38.867  33.264  34.645  1.00  0.00     0.049 A 
ATOM     43  H   UNL A   1      39.438  31.890  33.189  1.00  0.00     0.167 HD
ATOM     44  C   UNL A   1      40.393  28.921  30.115  1.00  0.00     0.037 A 
ATOM     45  C   UNL A   1      39.675  33.075  35.706  1.00  0.00     0.037 A 
ATOM     46  C   UNL A   1      41.364  28.711  31.156  1.00  0.00     0.049 A 
ATOM     47  C   UNL A   1      40.737  32.010  35.638  1.00  0.00     0.074 A 
ATOM     48  C   UNL A   1      42.423  27.822  31.181  1.00  0.00     0.029 A 
ATOM     49  N   UNL A   1      41.390  29.400  32.360  1.00  0.00    -0.354 N 
ATOM     50  N   UNL A   1      41.019  31.182  34.661  1.00  0.00    -0.248 NA
ATOM     51  C   UNL A   1      41.598  31.858  36.820  1.00  0.00     0.031 C 
ATOM     52  C   UNL A   1      43.062  27.938  32.420  1.00  0.00     0.029 A 
ATOM     53  C   UNL A   1      42.433  28.937  33.146  1.00  0.00     0.049 A 
ATOM     54  H   UNL A   1      40.761  30.112  32.618  1.00  0.00     0.167 HD
ATOM     55  C   UNL A   1      42.101  30.432  35.098  1.00  0.00     0.074 A 
ATOM     56  C   UNL A   1      42.438  30.914  36.421  1.00  0.00     0.031 C 
ATOM     57  C   UNL A   1      42.758  29.432  34.460  1.00  0.00     0.037 A 
BRANCH  44  58
ATOM     58  C   UNL A   1      40.448  28.039  28.900  1.00  0.00     0.064 A 
ATOM     59  C   UNL A   1      39.745  26.827  28.839  1.00  0.00     0.173 A 
ATOM     60  C   UNL A   1      41.186  28.426  27.772  1.00  0.00     0.173 A 
ATOM     61  F   UNL A   1      39.033  26.404  29.895  1.00  0.00    -0.203 F 
ATOM     62  C   UNL A   1      39.803  26.020  27.705  1.00  0.00     0.198 A 
ATOM     63  C   UNL A   1      41.218  27.632  26.629  1.00  0.00     0.198 A 
ATOM     64  F   UNL A   1      41.873  29.578  27.775  1.00  0.00    -0.203 F 
ATOM     65  F   UNL A   1      39.165  24.841  27.690  1.00  0.00    -0.200 F 
ATOM     66  C   UNL A   1      40.533  26.426  26.600  1.00  0.00     0.200 A 
ATOM     67  F   UNL A   1      41.913  28.032  25.555  1.00  0.00    -0.200 F 
ATOM     68  F   UNL A   1      40.584  25.651  25.507  1.00  0.00    -0.200 F 
ENDBRANCH  44  58
BRANCH  45  69
ATOM     69  C   UNL A   1      39.528  33.927  36.914  1.00  0.00     0.064 A 
ATOM     70  C   UNL A   1      38.768  33.494  38.010  1.00  0.00     0.173 A 
ATOM     71  C   UNL A   1      40.135  35.188  36.997  1.00  0.00     0.173 A 
ATOM     72  F   UNL A   1      38.151  32.304  37.968  1.00  0.00    -0.203 F 
ATOM     73  C   UNL A   1      38.604  34.299  39.135  1.00  0.00     0.198 A 
ATOM     74  C   UNL A   1      39.993  35.981  38.135  1.00  0.00     0.198 A 
ATOM     75  F   UNL A   1      40.875  35.647  35.978  1.00  0.00    -0.203 F 
ATOM     76  F   UNL A   1      37.835  33.881  40.150  1.00  0.00    -0.200 F 
ATOM     77  C   UNL A   1      39.221  35.540  39.199  1.00  0.00     0.200 A 
ATOM     78  F   UNL A   1      40.603  37.172  38.199  1.00  0.00    -0.200 F 
ATOM     79  F   UNL A   1      39.066  36.312  40.283  1.00  0.00    -0.200 F 
ENDBRANCH  45  69
BRANCH  57  80
ATOM     80  C   UNL A   1      43.926  28.812  35.171  1.00  0.00     0.064 A 
ATOM     81  C   UNL A   1      43.771  27.697  36.008  1.00  0.00     0.173 A 
ATOM     82  C   UNL A   1      45.222  29.316  34.981  1.00  0.00     0.173 A 
ATOM     83  F   UNL A   1      42.551  27.188  36.235  1.00  0.00    -0.203 F 
ATOM     84  C   UNL A   1      44.867  27.126  36.648  1.00  0.00     0.198 A 
ATOM     85  C   UNL A   1      46.320  28.723  35.598  1.00  0.00     0.198 A 
ATOM     86  F   UNL A   1      45.425  30.376  34.184  1.00  0.00    -0.203 F 
ATOM     87  F   UNL A   1      44.689  26.091  37.482  1.00  0.00    -0.200 F 
ATOM     88  C   UNL A   1      46.140  27.634  36.437  1.00  0.00     0.200 A 
ATOM     89  F   UNL A   1      47.550  29.206  35.381  1.00  0.00    -0.200 F 
ATOM     90  F   UNL A   1      47.196  27.077  37.048  1.00  0.00    -0.200 F 
ENDBRANCH  57  80
ENDBRANCH  31  32
ENDBRANCH  23  26
ENDBRANCH  21  22
ENDBRANCH  20  21
ENDBRANCH   1  20
TORSDOF 15
ENDMDL
