MODEL 1
REMARK VINA RESULT:     -14.8      0.000      0.000
REMARK SMILES O=C(NCCCCNC(=O)c1ccc([C@@H]2CC(O)=Nc3c2ncn3-c2cccc(Cl)c2)cc1)c1ccc(-c2c3nc(c(-c4c(F)c(F)c(F)c(F)c4F)c4ccc([nH]4)c(-c4c(F)c(F)c(F)c(F)c4F)c4nc(c(-c5c(F)c(F)c(F)c(F)c5F)c5ccc2[nH]5)C=C4)C=C3)cc1
REMARK SMILES IDX 5 1 4 2 3 3 1 4 2 5 34 7 35 8 96 9 36 10 95 11 37 12 38 13
REMARK SMILES IDX 39 14 89 15 40 16 94 17 88 18 90 19 41 20 93 21 87 22 86 23
REMARK SMILES IDX 42 25 74 26 54 27 73 28 55 29 58 30 72 31 91 32 56 33 57 34
REMARK SMILES IDX 71 36 92 37 59 38 43 39 44 40 52 41 45 42 46 43 50 44 53 45
REMARK SMILES IDX 47 46 48 47 51 48 49 49 75 50 76 51 84 52 77 53 78 54 82 55
REMARK SMILES IDX 85 56 79 57 80 58 83 59 81 60 60 61 61 62 69 63 62 64 63 65
REMARK SMILES IDX 67 66 70 67 64 68 65 69 68 70 66 71 6 72 7 73 8 74 9 75
REMARK SMILES IDX 10 77 11 78 12 79 33 80 13 81 32 82 14 83 15 84 16 85 21 86
REMARK SMILES IDX 17 87 20 88 22 89 19 90 24 91 23 92 18 93 25 95 26 96 31 97
REMARK SMILES IDX 27 98 29 99 28 100 30 101
REMARK H PARENT 3 6 90 24 58 35 8 76 18 94
REMARK Flexibility Score: inf
ROOT
ATOM      1  C   UNL A   1      32.136  30.552  26.507  1.00  0.00     0.023 C 
ENDROOT
BRANCH   1   2
ATOM      2  C   UNL A   1      33.365  30.475  27.411  1.00  0.00     0.116 C 
BRANCH   2   3
ATOM      3  N   UNL A   1      34.028  31.740  27.651  1.00  0.00    -0.352 N 
ATOM      4  O   UNL A   1      35.527  33.355  27.792  1.00  0.00    -0.269 OA
ATOM      5  C   UNL A   1      35.328  32.136  27.807  1.00  0.00     0.251 C 
ATOM      6  H   UNL A   1      33.395  32.491  27.718  1.00  0.00     0.163 HD
BRANCH   5   7
ATOM      7  C   UNL A   1      36.486  31.234  28.061  1.00  0.00     0.039 A 
ATOM      8  C   UNL A   1      36.615  29.918  27.623  1.00  0.00     0.014 A 
ATOM      9  C   UNL A   1      37.527  31.786  28.836  1.00  0.00     0.014 A 
ATOM     10  C   UNL A   1      37.715  29.150  28.015  1.00  0.00     0.010 A 
ATOM     11  C   UNL A   1      38.628  31.029  29.227  1.00  0.00     0.010 A 
ATOM     12  C   UNL A   1      38.709  29.698  28.837  1.00  0.00    -0.014 A 
BRANCH  12  13
ATOM     13  C   UNL A   1      39.913  28.906  29.094  1.00  0.00     0.031 A 
ATOM     14  C   UNL A   1      40.208  28.717  30.541  1.00  0.00     0.074 A 
ATOM     15  C   UNL A   1      40.649  28.273  28.157  1.00  0.00     0.049 A 
ATOM     16  N   UNL A   1      41.224  29.163  31.206  1.00  0.00    -0.248 NA
ATOM     17  C   UNL A   1      39.200  28.046  31.375  1.00  0.00     0.031 C 
ATOM     18  C   UNL A   1      40.343  28.095  26.737  1.00  0.00     0.029 A 
ATOM     19  N   UNL A   1      41.814  27.571  28.308  1.00  0.00    -0.354 N 
ATOM     20  C   UNL A   1      41.074  28.694  32.508  1.00  0.00     0.074 A 
ATOM     21  C   UNL A   1      39.750  28.133  32.588  1.00  0.00     0.031 C 
ATOM     22  C   UNL A   1      41.181  27.172  26.209  1.00  0.00     0.029 A 
ATOM     23  C   UNL A   1      42.164  26.791  27.210  1.00  0.00     0.049 A 
ATOM     24  H   UNL A   1      42.359  27.614  29.127  1.00  0.00     0.167 HD
ATOM     25  C   UNL A   1      42.135  28.620  33.358  1.00  0.00     0.037 A 
ATOM     26  C   UNL A   1      43.164  25.873  27.145  1.00  0.00     0.037 A 
ATOM     27  C   UNL A   1      43.234  29.420  32.887  1.00  0.00     0.049 A 
ATOM     28  C   UNL A   1      44.120  26.169  28.238  1.00  0.00     0.074 A 
ATOM     29  C   UNL A   1      43.439  30.764  32.648  1.00  0.00     0.029 A 
ATOM     30  N   UNL A   1      44.263  28.768  32.258  1.00  0.00    -0.354 N 
ATOM     31  N   UNL A   1      44.904  27.208  28.263  1.00  0.00    -0.248 NA
ATOM     32  C   UNL A   1      43.923  25.502  29.515  1.00  0.00     0.031 C 
ATOM     33  C   UNL A   1      44.294  30.812  31.509  1.00  0.00     0.029 A 
ATOM     34  C   UNL A   1      44.609  29.499  31.156  1.00  0.00     0.049 A 
ATOM     35  H   UNL A   1      44.678  27.923  32.547  1.00  0.00     0.167 HD
ATOM     36  C   UNL A   1      44.919  27.595  29.592  1.00  0.00     0.074 A 
ATOM     37  C   UNL A   1      44.401  26.446  30.329  1.00  0.00     0.031 C 
ATOM     38  C   UNL A   1      45.082  28.907  29.928  1.00  0.00     0.037 A 
BRANCH  25  39
ATOM     39  C   UNL A   1      42.339  27.535  34.392  1.00  0.00     0.064 A 
ATOM     40  C   UNL A   1      42.849  26.284  33.979  1.00  0.00     0.173 A 
ATOM     41  C   UNL A   1      41.753  27.557  35.675  1.00  0.00     0.173 A 
ATOM     42  F   UNL A   1      43.415  26.142  32.771  1.00  0.00    -0.203 F 
ATOM     43  C   UNL A   1      42.692  25.130  34.751  1.00  0.00     0.198 A 
ATOM     44  C   UNL A   1      41.645  26.413  36.465  1.00  0.00     0.198 A 
ATOM     45  F   UNL A   1      41.156  28.648  36.167  1.00  0.00    -0.203 F 
ATOM     46  F   UNL A   1      43.063  23.942  34.254  1.00  0.00    -0.200 F 
ATOM     47  C   UNL A   1      42.081  25.194  35.989  1.00  0.00     0.200 A 
ATOM     48  F   UNL A   1      41.033  26.490  37.655  1.00  0.00    -0.200 F 
ATOM     49  F   UNL A   1      41.865  24.080  36.700  1.00  0.00    -0.200 F 
ENDBRANCH  25  39
BRANCH  26  50
ATOM     50  C   UNL A   1      43.243  24.598  26.387  1.00  0.00     0.064 A 
ATOM     51  C   UNL A   1      44.070  24.474  25.254  1.00  0.00     0.173 A 
ATOM     52  C   UNL A   1      42.755  23.399  26.936  1.00  0.00     0.173 A 
ATOM     53  F   UNL A   1      44.615  25.563  24.692  1.00  0.00    -0.203 F 
ATOM     54  C   UNL A   1      44.418  23.224  24.729  1.00  0.00     0.198 A 
ATOM     55  C   UNL A   1      43.098  22.152  26.407  1.00  0.00     0.198 A 
ATOM     56  F   UNL A   1      42.021  23.406  28.057  1.00  0.00    -0.203 F 
ATOM     57  F   UNL A   1      45.268  23.145  23.695  1.00  0.00    -0.200 F 
ATOM     58  C   UNL A   1      43.943  22.064  25.315  1.00  0.00     0.200 A 
ATOM     59  F   UNL A   1      42.663  21.035  27.006  1.00  0.00    -0.200 F 
ATOM     60  F   UNL A   1      44.330  20.865  24.858  1.00  0.00    -0.200 F 
ENDBRANCH  26  50
BRANCH  38  61
ATOM     61  C   UNL A   1      45.583  29.844  28.868  1.00  0.00     0.064 A 
ATOM     62  C   UNL A   1      44.763  30.514  27.943  1.00  0.00     0.173 A 
ATOM     63  C   UNL A   1      46.947  30.166  28.874  1.00  0.00     0.173 A 
ATOM     64  F   UNL A   1      43.434  30.337  27.938  1.00  0.00    -0.203 F 
ATOM     65  C   UNL A   1      45.299  31.426  27.035  1.00  0.00     0.198 A 
ATOM     66  C   UNL A   1      47.471  31.107  27.995  1.00  0.00     0.198 A 
ATOM     67  F   UNL A   1      47.768  29.594  29.768  1.00  0.00    -0.203 F 
ATOM     68  F   UNL A   1      44.502  32.039  26.148  1.00  0.00    -0.200 F 
ATOM     69  C   UNL A   1      46.651  31.728  27.068  1.00  0.00     0.200 A 
ATOM     70  F   UNL A   1      48.769  31.432  28.066  1.00  0.00    -0.200 F 
ATOM     71  F   UNL A   1      47.159  32.636  26.223  1.00  0.00    -0.200 F 
ENDBRANCH  38  61
ENDBRANCH  12  13
ENDBRANCH   5   7
ENDBRANCH   2   3
ENDBRANCH   1   2
BRANCH   1  72
ATOM     72  C   UNL A   1      31.780  29.262  25.761  1.00  0.00     0.023 C 
BRANCH  72  73
ATOM     73  C   UNL A   1      31.628  29.381  24.246  1.00  0.00     0.116 C 
BRANCH  73  74
ATOM     74  N   UNL A   1      30.258  29.200  23.796  1.00  0.00    -0.352 N 
ATOM     75  C   UNL A   1      29.579  28.039  23.502  1.00  0.00     0.251 C 
ATOM     76  H   UNL A   1      29.740  30.029  23.685  1.00  0.00     0.163 HD
ATOM     77  O   UNL A   1      28.461  28.091  23.014  1.00  0.00    -0.269 OA
BRANCH  75  78
ATOM     78  C   UNL A   1      30.209  26.723  23.757  1.00  0.00     0.039 A 
ATOM     79  C   UNL A   1      30.103  26.172  25.035  1.00  0.00     0.014 A 
ATOM     80  C   UNL A   1      30.923  26.051  22.760  1.00  0.00     0.014 A 
ATOM     81  C   UNL A   1      30.654  24.916  25.296  1.00  0.00     0.005 A 
ATOM     82  C   UNL A   1      31.461  24.788  23.018  1.00  0.00     0.005 A 
ATOM     83  C   UNL A   1      31.325  24.199  24.287  1.00  0.00    -0.038 A 
BRANCH  83  84
ATOM     84  C   UNL A   1      31.919  22.840  24.615  1.00  0.00     0.081 C 
ATOM     85  C   UNL A   1      31.625  22.404  26.068  1.00  0.00     0.111 C 
ATOM     86  C   UNL A   1      33.380  22.930  24.357  1.00  0.00     0.093 A 
ATOM     87  C   UNL A   1      32.833  22.370  26.990  1.00  0.00     0.188 C 
ATOM     88  C   UNL A   1      34.301  22.682  25.350  1.00  0.00     0.164 A 
ATOM     89  N   UNL A   1      33.987  23.283  23.182  1.00  0.00    -0.238 NA
ATOM     90  N   UNL A   1      34.083  22.442  26.664  1.00  0.00    -0.198 NA
ATOM     91  N   UNL A   1      35.535  22.872  24.759  1.00  0.00    -0.283 N 
ATOM     92  C   UNL A   1      35.275  23.286  23.467  1.00  0.00     0.206 A 
BRANCH  87  93
ATOM     93  O   UNL A   1      32.526  22.203  28.291  1.00  0.00    -0.496 OA
ATOM     94  H   UNL A   1      32.332  22.947  28.825  1.00  0.00     0.294 HD
ENDBRANCH  87  93
BRANCH  91  95
ATOM     95  C   UNL A   1      36.803  22.681  25.351  1.00  0.00     0.050 A 
ATOM     96  C   UNL A   1      37.503  21.486  25.151  1.00  0.00     0.027 A 
ATOM     97  C   UNL A   1      37.358  23.706  26.129  1.00  0.00     0.047 A 
ATOM     98  C   UNL A   1      38.782  21.340  25.696  1.00  0.00     0.004 A 
ATOM     99  C   UNL A   1      38.611  23.526  26.709  1.00  0.00     0.043 A 
ATOM    100  C   UNL A   1      39.332  22.356  26.482  1.00  0.00     0.020 A 
ATOM    101  Cl  UNL A   1      39.265  24.750  27.727  1.00  0.00    -0.084 Cl
ENDBRANCH  91  95
ENDBRANCH  83  84
ENDBRANCH  75  78
ENDBRANCH  73  74
ENDBRANCH  72  73
ENDBRANCH   1  72
TORSDOF 14
ENDMDL
MODEL 2
REMARK VINA RESULT:     -14.7      3.029      8.636
REMARK SMILES O=C(NCCCCNC(=O)c1ccc([C@@H]2CC(O)=Nc3c2ncn3-c2cccc(Cl)c2)cc1)c1ccc(-c2c3nc(c(-c4c(F)c(F)c(F)c(F)c4F)c4ccc([nH]4)c(-c4c(F)c(F)c(F)c(F)c4F)c4nc(c(-c5c(F)c(F)c(F)c(F)c5F)c5ccc2[nH]5)C=C4)C=C3)cc1
REMARK SMILES IDX 5 1 4 2 3 3 1 4 2 5 34 7 35 8 96 9 36 10 95 11 37 12 38 13
REMARK SMILES IDX 39 14 89 15 40 16 94 17 88 18 90 19 41 20 93 21 87 22 86 23
REMARK SMILES IDX 42 25 74 26 54 27 73 28 55 29 58 30 72 31 91 32 56 33 57 34
REMARK SMILES IDX 71 36 92 37 59 38 43 39 44 40 52 41 45 42 46 43 50 44 53 45
REMARK SMILES IDX 47 46 48 47 51 48 49 49 75 50 76 51 84 52 77 53 78 54 82 55
REMARK SMILES IDX 85 56 79 57 80 58 83 59 81 60 60 61 61 62 69 63 62 64 63 65
REMARK SMILES IDX 67 66 70 67 64 68 65 69 68 70 66 71 6 72 7 73 8 74 9 75
REMARK SMILES IDX 10 77 11 78 12 79 33 80 13 81 32 82 14 83 15 84 16 85 21 86
REMARK SMILES IDX 17 87 20 88 22 89 19 90 24 91 23 92 18 93 25 95 26 96 31 97
REMARK SMILES IDX 27 98 29 99 28 100 30 101
REMARK H PARENT 3 6 90 24 58 35 8 76 18 94
REMARK Flexibility Score: inf
ROOT
ATOM      1  C   UNL A   1      36.256  22.589  25.996  1.00  0.00     0.023 C 
ENDROOT
BRANCH   1   2
ATOM      2  C   UNL A   1      37.430  22.410  25.037  1.00  0.00     0.116 C 
BRANCH   2   3
ATOM      3  N   UNL A   1      38.602  21.785  25.614  1.00  0.00    -0.352 N 
ATOM      4  O   UNL A   1      40.291  21.260  26.935  1.00  0.00    -0.269 OA
ATOM      5  C   UNL A   1      39.540  22.156  26.537  1.00  0.00     0.251 C 
ATOM      6  H   UNL A   1      38.761  20.881  25.259  1.00  0.00     0.163 HD
BRANCH   5   7
ATOM      7  C   UNL A   1      39.769  23.542  27.034  1.00  0.00     0.039 A 
ATOM      8  C   UNL A   1      39.006  24.665  26.719  1.00  0.00     0.014 A 
ATOM      9  C   UNL A   1      40.879  23.706  27.889  1.00  0.00     0.014 A 
ATOM     10  C   UNL A   1      39.390  25.928  27.179  1.00  0.00     0.010 A 
ATOM     11  C   UNL A   1      41.263  24.960  28.356  1.00  0.00     0.010 A 
ATOM     12  C   UNL A   1      40.532  26.079  27.978  1.00  0.00    -0.014 A 
BRANCH  12  13
ATOM     13  C   UNL A   1      40.804  27.393  28.559  1.00  0.00     0.031 A 
ATOM     14  C   UNL A   1      42.035  28.042  28.026  1.00  0.00     0.074 A 
ATOM     15  C   UNL A   1      39.990  28.062  29.401  1.00  0.00     0.049 A 
ATOM     16  N   UNL A   1      43.122  28.324  28.667  1.00  0.00    -0.248 NA
ATOM     17  C   UNL A   1      42.109  28.309  26.582  1.00  0.00     0.031 C 
ATOM     18  C   UNL A   1      38.620  27.723  29.792  1.00  0.00     0.029 A 
ATOM     19  N   UNL A   1      40.200  29.258  30.034  1.00  0.00    -0.354 N 
ATOM     20  C   UNL A   1      43.962  28.953  27.752  1.00  0.00     0.074 A 
ATOM     21  C   UNL A   1      43.347  28.794  26.460  1.00  0.00     0.031 C 
ATOM     22  C   UNL A   1      38.057  28.782  30.419  1.00  0.00     0.029 A 
ATOM     23  C   UNL A   1      39.058  29.822  30.595  1.00  0.00     0.049 A 
ATOM     24  H   UNL A   1      41.086  29.683  30.087  1.00  0.00     0.167 HD
ATOM     25  C   UNL A   1      44.994  29.738  28.167  1.00  0.00     0.037 A 
ATOM     26  C   UNL A   1      38.939  31.066  31.129  1.00  0.00     0.037 A 
ATOM     27  C   UNL A   1      45.310  29.493  29.549  1.00  0.00     0.049 A 
ATOM     28  C   UNL A   1      40.301  31.546  31.462  1.00  0.00     0.074 A 
ATOM     29  C   UNL A   1      45.758  28.409  30.277  1.00  0.00     0.029 A 
ATOM     30  N   UNL A   1      44.842  30.394  30.471  1.00  0.00    -0.354 N 
ATOM     31  N   UNL A   1      41.030  31.065  32.427  1.00  0.00    -0.248 NA
ATOM     32  C   UNL A   1      41.018  32.313  30.457  1.00  0.00     0.031 C 
ATOM     33  C   UNL A   1      45.107  28.517  31.541  1.00  0.00     0.029 A 
ATOM     34  C   UNL A   1      44.348  29.687  31.532  1.00  0.00     0.049 A 
ATOM     35  H   UNL A   1      44.857  31.374  30.383  1.00  0.00     0.167 HD
ATOM     36  C   UNL A   1      42.317  31.064  31.916  1.00  0.00     0.074 A 
ATOM     37  C   UNL A   1      42.267  31.949  30.756  1.00  0.00     0.031 C 
ATOM     38  C   UNL A   1      43.220  30.123  32.318  1.00  0.00     0.037 A 
BRANCH  25  39
ATOM     39  C   UNL A   1      45.460  30.994  27.465  1.00  0.00     0.064 A 
ATOM     40  C   UNL A   1      46.829  31.131  27.147  1.00  0.00     0.173 A 
ATOM     41  C   UNL A   1      44.700  32.181  27.398  1.00  0.00     0.173 A 
ATOM     42  F   UNL A   1      47.651  30.072  27.191  1.00  0.00    -0.203 F 
ATOM     43  C   UNL A   1      47.406  32.376  26.883  1.00  0.00     0.198 A 
ATOM     44  C   UNL A   1      45.271  33.413  27.082  1.00  0.00     0.198 A 
ATOM     45  F   UNL A   1      43.411  32.222  27.750  1.00  0.00    -0.203 F 
ATOM     46  F   UNL A   1      48.734  32.474  26.728  1.00  0.00    -0.200 F 
ATOM     47  C   UNL A   1      46.627  33.517  26.860  1.00  0.00     0.200 A 
ATOM     48  F   UNL A   1      44.503  34.513  27.084  1.00  0.00    -0.200 F 
ATOM     49  F   UNL A   1      47.188  34.720  26.678  1.00  0.00    -0.200 F 
ENDBRANCH  25  39
BRANCH  26  50
ATOM     50  C   UNL A   1      37.779  31.993  31.142  1.00  0.00     0.064 A 
ATOM     51  C   UNL A   1      37.335  32.622  29.963  1.00  0.00     0.173 A 
ATOM     52  C   UNL A   1      36.899  32.035  32.239  1.00  0.00     0.173 A 
ATOM     53  F   UNL A   1      38.090  32.592  28.855  1.00  0.00    -0.203 F 
ATOM     54  C   UNL A   1      36.073  33.221  29.878  1.00  0.00     0.198 A 
ATOM     55  C   UNL A   1      35.642  32.639  32.154  1.00  0.00     0.198 A 
ATOM     56  F   UNL A   1      37.198  31.403  33.382  1.00  0.00    -0.203 F 
ATOM     57  F   UNL A   1      35.656  33.744  28.715  1.00  0.00    -0.200 F 
ATOM     58  C   UNL A   1      35.223  33.216  30.969  1.00  0.00     0.200 A 
ATOM     59  F   UNL A   1      34.813  32.594  33.206  1.00  0.00    -0.200 F 
ATOM     60  F   UNL A   1      33.987  33.727  30.870  1.00  0.00    -0.200 F 
ENDBRANCH  26  50
BRANCH  38  61
ATOM     61  C   UNL A   1      42.902  29.331  33.553  1.00  0.00     0.064 A 
ATOM     62  C   UNL A   1      42.110  28.168  33.572  1.00  0.00     0.173 A 
ATOM     63  C   UNL A   1      43.531  29.704  34.748  1.00  0.00     0.173 A 
ATOM     64  F   UNL A   1      41.556  27.688  32.451  1.00  0.00    -0.203 F 
ATOM     65  C   UNL A   1      41.923  27.446  34.750  1.00  0.00     0.198 A 
ATOM     66  C   UNL A   1      43.375  28.958  35.911  1.00  0.00     0.198 A 
ATOM     67  F   UNL A   1      44.337  30.777  34.775  1.00  0.00    -0.203 F 
ATOM     68  F   UNL A   1      41.148  26.352  34.751  1.00  0.00    -0.200 F 
ATOM     69  C   UNL A   1      42.561  27.838  35.915  1.00  0.00     0.200 A 
ATOM     70  F   UNL A   1      44.035  29.313  37.021  1.00  0.00    -0.200 F 
ATOM     71  F   UNL A   1      42.414  27.119  37.038  1.00  0.00    -0.200 F 
ENDBRANCH  38  61
ENDBRANCH  12  13
ENDBRANCH   5   7
ENDBRANCH   2   3
ENDBRANCH   1   2
BRANCH   1  72
ATOM     72  C   UNL A   1      35.307  21.391  26.113  1.00  0.00     0.023 C 
BRANCH  72  73
ATOM     73  C   UNL A   1      35.408  20.342  25.008  1.00  0.00     0.116 C 
BRANCH  73  74
ATOM     74  N   UNL A   1      34.301  19.400  25.014  1.00  0.00    -0.352 N 
ATOM     75  C   UNL A   1      32.960  19.624  24.794  1.00  0.00     0.251 C 
ATOM     76  H   UNL A   1      34.545  18.466  25.205  1.00  0.00     0.163 HD
ATOM     77  O   UNL A   1      32.154  18.723  24.965  1.00  0.00    -0.269 OA
BRANCH  75  78
ATOM     78  C   UNL A   1      32.488  20.961  24.368  1.00  0.00     0.039 A 
ATOM     79  C   UNL A   1      31.708  21.704  25.255  1.00  0.00     0.014 A 
ATOM     80  C   UNL A   1      32.781  21.468  23.098  1.00  0.00     0.014 A 
ATOM     81  C   UNL A   1      31.280  22.984  24.897  1.00  0.00     0.005 A 
ATOM     82  C   UNL A   1      32.365  22.754  22.747  1.00  0.00     0.005 A 
ATOM     83  C   UNL A   1      31.616  23.533  23.645  1.00  0.00    -0.038 A 
BRANCH  83  84
ATOM     84  C   UNL A   1      31.122  24.925  23.290  1.00  0.00     0.081 C 
ATOM     85  C   UNL A   1      31.881  25.530  22.088  1.00  0.00     0.111 C 
ATOM     86  C   UNL A   1      31.272  25.764  24.508  1.00  0.00     0.093 A 
ATOM     87  C   UNL A   1      32.789  26.703  22.419  1.00  0.00     0.188 C 
ATOM     88  C   UNL A   1      32.042  26.905  24.504  1.00  0.00     0.164 A 
ATOM     89  N   UNL A   1      30.731  25.524  25.743  1.00  0.00    -0.238 NA
ATOM     90  N   UNL A   1      32.835  27.385  23.518  1.00  0.00    -0.198 NA
ATOM     91  N   UNL A   1      31.960  27.405  25.789  1.00  0.00    -0.283 N 
ATOM     92  C   UNL A   1      31.201  26.497  26.500  1.00  0.00     0.206 A 
BRANCH  87  93
ATOM     93  O   UNL A   1      33.601  27.072  21.410  1.00  0.00    -0.496 OA
ATOM     94  H   UNL A   1      33.721  26.504  20.675  1.00  0.00     0.294 HD
ENDBRANCH  87  93
BRANCH  91  95
ATOM     95  C   UNL A   1      32.534  28.600  26.278  1.00  0.00     0.050 A 
ATOM     96  C   UNL A   1      31.780  29.779  26.321  1.00  0.00     0.027 A 
ATOM     97  C   UNL A   1      33.860  28.590  26.730  1.00  0.00     0.047 A 
ATOM     98  C   UNL A   1      32.347  30.935  26.864  1.00  0.00     0.004 A 
ATOM     99  C   UNL A   1      34.428  29.763  27.218  1.00  0.00     0.043 A 
ATOM    100  C   UNL A   1      33.673  30.930  27.304  1.00  0.00     0.020 A 
ATOM    101  Cl  UNL A   1      36.079  29.775  27.705  1.00  0.00    -0.084 Cl
ENDBRANCH  91  95
ENDBRANCH  83  84
ENDBRANCH  75  78
ENDBRANCH  73  74
ENDBRANCH  72  73
ENDBRANCH   1  72
TORSDOF 14
ENDMDL
MODEL 3
REMARK VINA RESULT:     -14.7      2.176      2.757
REMARK SMILES O=C(NCCCCNC(=O)c1ccc([C@@H]2CC(O)=Nc3c2ncn3-c2cccc(Cl)c2)cc1)c1ccc(-c2c3nc(c(-c4c(F)c(F)c(F)c(F)c4F)c4ccc([nH]4)c(-c4c(F)c(F)c(F)c(F)c4F)c4nc(c(-c5c(F)c(F)c(F)c(F)c5F)c5ccc2[nH]5)C=C4)C=C3)cc1
REMARK SMILES IDX 5 1 4 2 3 3 1 4 2 5 34 7 35 8 96 9 36 10 95 11 37 12 38 13
REMARK SMILES IDX 39 14 89 15 40 16 94 17 88 18 90 19 41 20 93 21 87 22 86 23
REMARK SMILES IDX 42 25 74 26 54 27 73 28 55 29 58 30 72 31 91 32 56 33 57 34
REMARK SMILES IDX 71 36 92 37 59 38 43 39 44 40 52 41 45 42 46 43 50 44 53 45
REMARK SMILES IDX 47 46 48 47 51 48 49 49 75 50 76 51 84 52 77 53 78 54 82 55
REMARK SMILES IDX 85 56 79 57 80 58 83 59 81 60 60 61 61 62 69 63 62 64 63 65
REMARK SMILES IDX 67 66 70 67 64 68 65 69 68 70 66 71 6 72 7 73 8 74 9 75
REMARK SMILES IDX 10 77 11 78 12 79 33 80 13 81 32 82 14 83 15 84 16 85 21 86
REMARK SMILES IDX 17 87 20 88 22 89 19 90 24 91 23 92 18 93 25 95 26 96 31 97
REMARK SMILES IDX 27 98 29 99 28 100 30 101
REMARK H PARENT 3 6 90 24 58 35 8 76 18 94
REMARK Flexibility Score: inf
ROOT
ATOM      1  C   UNL A   1      32.515  30.015  27.036  1.00  0.00     0.023 C 
ENDROOT
BRANCH   1   2
ATOM      2  C   UNL A   1      33.816  30.789  27.239  1.00  0.00     0.116 C 
BRANCH   2   3
ATOM      3  N   UNL A   1      33.899  31.533  28.478  1.00  0.00    -0.352 N 
ATOM      4  O   UNL A   1      34.625  32.699  30.206  1.00  0.00    -0.269 OA
ATOM      5  C   UNL A   1      34.905  31.861  29.344  1.00  0.00     0.251 C 
ATOM      6  H   UNL A   1      33.026  31.886  28.765  1.00  0.00     0.163 HD
BRANCH   5   7
ATOM      7  C   UNL A   1      36.261  31.245  29.371  1.00  0.00     0.039 A 
ATOM      8  C   UNL A   1      37.473  31.927  29.467  1.00  0.00     0.014 A 
ATOM      9  C   UNL A   1      36.293  29.838  29.272  1.00  0.00     0.014 A 
ATOM     10  C   UNL A   1      38.681  31.229  29.385  1.00  0.00     0.010 A 
ATOM     11  C   UNL A   1      37.493  29.136  29.195  1.00  0.00     0.010 A 
ATOM     12  C   UNL A   1      38.691  29.838  29.225  1.00  0.00    -0.014 A 
BRANCH  12  13
ATOM     13  C   UNL A   1      39.975  29.139  29.298  1.00  0.00     0.031 A 
ATOM     14  C   UNL A   1      40.454  28.908  30.689  1.00  0.00     0.074 A 
ATOM     15  C   UNL A   1      40.643  28.615  28.249  1.00  0.00     0.049 A 
ATOM     16  N   UNL A   1      41.503  29.406  31.258  1.00  0.00    -0.248 NA
ATOM     17  C   UNL A   1      39.607  28.115  31.593  1.00  0.00     0.031 C 
ATOM     18  C   UNL A   1      40.186  28.479  26.865  1.00  0.00     0.029 A 
ATOM     19  N   UNL A   1      41.869  28.007  28.226  1.00  0.00    -0.354 N 
ATOM     20  C   UNL A   1      41.545  28.865  32.540  1.00  0.00     0.074 A 
ATOM     21  C   UNL A   1      40.288  28.192  32.738  1.00  0.00     0.031 C 
ATOM     22  C   UNL A   1      41.025  27.655  26.194  1.00  0.00     0.029 A 
ATOM     23  C   UNL A   1      42.147  27.312  27.053  1.00  0.00     0.049 A 
ATOM     24  H   UNL A   1      42.502  28.058  28.978  1.00  0.00     0.167 HD
ATOM     25  C   UNL A   1      42.702  28.841  33.257  1.00  0.00     0.037 A 
ATOM     26  C   UNL A   1      43.201  26.486  26.823  1.00  0.00     0.037 A 
ATOM     27  C   UNL A   1      43.672  29.753  32.711  1.00  0.00     0.049 A 
ATOM     28  C   UNL A   1      44.253  26.811  27.815  1.00  0.00     0.074 A 
ATOM     29  C   UNL A   1      43.740  31.118  32.526  1.00  0.00     0.029 A 
ATOM     30  N   UNL A   1      44.667  29.220  31.932  1.00  0.00    -0.354 N 
ATOM     31  N   UNL A   1      44.951  27.909  27.808  1.00  0.00    -0.248 NA
ATOM     32  C   UNL A   1      44.262  26.070  29.065  1.00  0.00     0.031 C 
ATOM     33  C   UNL A   1      44.449  31.292  31.301  1.00  0.00     0.029 A 
ATOM     34  C   UNL A   1      44.821  30.029  30.841  1.00  0.00     0.049 A 
ATOM     35  H   UNL A   1      45.178  28.401  32.123  1.00  0.00     0.167 HD
ATOM     36  C   UNL A   1      45.092  28.233  29.147  1.00  0.00     0.074 A 
ATOM     37  C   UNL A   1      44.757  27.012  29.871  1.00  0.00     0.031 C 
ATOM     38  C   UNL A   1      45.190  29.537  29.536  1.00  0.00     0.037 A 
BRANCH  25  39
ATOM     39  C   UNL A   1      43.111  27.730  34.198  1.00  0.00     0.064 A 
ATOM     40  C   UNL A   1      43.442  26.467  33.661  1.00  0.00     0.173 A 
ATOM     41  C   UNL A   1      42.871  27.754  35.588  1.00  0.00     0.173 A 
ATOM     42  F   UNL A   1      43.676  26.322  32.348  1.00  0.00    -0.203 F 
ATOM     43  C   UNL A   1      43.432  25.307  34.440  1.00  0.00     0.198 A 
ATOM     44  C   UNL A   1      42.915  26.601  36.372  1.00  0.00     0.198 A 
ATOM     45  F   UNL A   1      42.469  28.860  36.223  1.00  0.00    -0.203 F 
ATOM     46  F   UNL A   1      43.611  24.113  33.857  1.00  0.00    -0.200 F 
ATOM     47  C   UNL A   1      43.160  25.374  35.793  1.00  0.00     0.200 A 
ATOM     48  F   UNL A   1      42.628  26.683  37.679  1.00  0.00    -0.200 F 
ATOM     49  F   UNL A   1      43.079  24.257  36.528  1.00  0.00    -0.200 F 
ENDBRANCH  25  39
BRANCH  26  50
ATOM     50  C   UNL A   1      43.289  25.260  25.989  1.00  0.00     0.064 A 
ATOM     51  C   UNL A   1      44.403  25.020  25.162  1.00  0.00     0.173 A 
ATOM     52  C   UNL A   1      42.439  24.164  26.223  1.00  0.00     0.173 A 
ATOM     53  F   UNL A   1      45.290  25.996  24.922  1.00  0.00    -0.203 F 
ATOM     54  C   UNL A   1      44.669  23.750  24.635  1.00  0.00     0.198 A 
ATOM     55  C   UNL A   1      42.702  22.900  25.691  1.00  0.00     0.198 A 
ATOM     56  F   UNL A   1      41.394  24.272  27.054  1.00  0.00    -0.203 F 
ATOM     57  F   UNL A   1      45.780  23.544  23.914  1.00  0.00    -0.200 F 
ATOM     58  C   UNL A   1      43.826  22.689  24.912  1.00  0.00     0.200 A 
ATOM     59  F   UNL A   1      41.900  21.871  25.997  1.00  0.00    -0.200 F 
ATOM     60  F   UNL A   1      44.115  21.458  24.467  1.00  0.00    -0.200 F 
ENDBRANCH  26  50
BRANCH  38  61
ATOM     61  C   UNL A   1      45.488  30.562  28.480  1.00  0.00     0.064 A 
ATOM     62  C   UNL A   1      44.520  31.157  27.651  1.00  0.00     0.173 A 
ATOM     63  C   UNL A   1      46.800  31.047  28.392  1.00  0.00     0.173 A 
ATOM     64  F   UNL A   1      43.226  30.821  27.743  1.00  0.00    -0.203 F 
ATOM     65  C   UNL A   1      44.868  32.157  26.743  1.00  0.00     0.198 A 
ATOM     66  C   UNL A   1      47.134  32.073  27.516  1.00  0.00     0.198 A 
ATOM     67  F   UNL A   1      47.754  30.550  29.195  1.00  0.00    -0.203 F 
ATOM     68  F   UNL A   1      43.933  32.697  25.947  1.00  0.00    -0.200 F 
ATOM     69  C   UNL A   1      46.172  32.619  26.683  1.00  0.00     0.200 A 
ATOM     70  F   UNL A   1      48.386  32.550  27.498  1.00  0.00    -0.200 F 
ATOM     71  F   UNL A   1      46.498  33.609  25.840  1.00  0.00    -0.200 F 
ENDBRANCH  38  61
ENDBRANCH  12  13
ENDBRANCH   5   7
ENDBRANCH   2   3
ENDBRANCH   1   2
BRANCH   1  72
ATOM     72  C   UNL A   1      31.743  30.339  25.753  1.00  0.00     0.023 C 
BRANCH  72  73
ATOM     73  C   UNL A   1      31.451  29.159  24.827  1.00  0.00     0.116 C 
BRANCH  73  74
ATOM     74  N   UNL A   1      32.150  29.247  23.556  1.00  0.00    -0.352 N 
ATOM     75  C   UNL A   1      33.156  28.453  23.054  1.00  0.00     0.251 C 
ATOM     76  H   UNL A   1      31.862  29.982  22.968  1.00  0.00     0.163 HD
ATOM     77  O   UNL A   1      33.712  28.757  22.010  1.00  0.00    -0.269 OA
BRANCH  75  78
ATOM     78  C   UNL A   1      33.582  27.238  23.786  1.00  0.00     0.039 A 
ATOM     79  C   UNL A   1      33.820  27.338  25.157  1.00  0.00     0.014 A 
ATOM     80  C   UNL A   1      33.777  26.020  23.127  1.00  0.00     0.014 A 
ATOM     81  C   UNL A   1      34.186  26.202  25.882  1.00  0.00     0.005 A 
ATOM     82  C   UNL A   1      34.130  24.882  23.856  1.00  0.00     0.005 A 
ATOM     83  C   UNL A   1      34.330  24.955  25.245  1.00  0.00    -0.038 A 
BRANCH  83  84
ATOM     84  C   UNL A   1      34.739  23.746  26.067  1.00  0.00     0.081 C 
ATOM     85  C   UNL A   1      36.243  23.418  25.924  1.00  0.00     0.111 C 
ATOM     86  C   UNL A   1      33.889  22.611  25.624  1.00  0.00     0.093 A 
ATOM     87  C   UNL A   1      36.556  22.133  25.174  1.00  0.00     0.188 C 
ATOM     88  C   UNL A   1      34.440  21.454  25.120  1.00  0.00     0.164 A 
ATOM     89  N   UNL A   1      32.520  22.561  25.620  1.00  0.00    -0.238 NA
ATOM     90  N   UNL A   1      35.738  21.188  24.843  1.00  0.00    -0.198 NA
ATOM     91  N   UNL A   1      33.366  20.645  24.805  1.00  0.00    -0.283 N 
ATOM     92  C   UNL A   1      32.237  21.392  25.079  1.00  0.00     0.206 A 
BRANCH  87  93
ATOM     93  O   UNL A   1      37.860  21.979  24.870  1.00  0.00    -0.496 OA
ATOM     94  H   UNL A   1      38.506  22.023  25.546  1.00  0.00     0.294 HD
ENDBRANCH  87  93
BRANCH  91  95
ATOM     95  C   UNL A   1      33.410  19.324  24.307  1.00  0.00     0.050 A 
ATOM     96  C   UNL A   1      32.607  18.952  23.222  1.00  0.00     0.027 A 
ATOM     97  C   UNL A   1      34.273  18.394  24.902  1.00  0.00     0.047 A 
ATOM     98  C   UNL A   1      32.708  17.657  22.706  1.00  0.00     0.004 A 
ATOM     99  C   UNL A   1      34.324  17.092  24.410  1.00  0.00     0.043 A 
ATOM    100  C   UNL A   1      33.559  16.725  23.305  1.00  0.00     0.020 A 
ATOM    101  Cl  UNL A   1      35.325  15.926  25.183  1.00  0.00    -0.084 Cl
ENDBRANCH  91  95
ENDBRANCH  83  84
ENDBRANCH  75  78
ENDBRANCH  73  74
ENDBRANCH  72  73
ENDBRANCH   1  72
TORSDOF 14
ENDMDL
