MODEL 1
REMARK VINA RESULT:     -12.1      0.000      0.000
REMARK SMILES CSc1ncccc1C(=O)N1CSC[C@H]1C(=O)NCCCCNC(=O)c1ccc(-c2c3nc(c(-c4c(F)c(F)c(F)c(F)c4F)c4ccc([nH]4)c(-c4c(F)c(F)c(F)c(F)c4F)c4nc(c(-c5c(F)c(F)c(F)c(F)c5F)c5ccc2[nH]5)C=C4)C=C3)cc1
REMARK SMILES IDX 20 1 19 2 18 3 16 4 17 5 15 7 11 8 12 9 13 10 14 11 9 12
REMARK SMILES IDX 10 13 8 14 3 15 4 16 5 17 7 18 6 19 2 20 1 21 21 22 22 23
REMARK SMILES IDX 23 24 24 25 25 27 26 28 27 29 88 30 28 31 87 32 29 33 30 34
REMARK SMILES IDX 31 35 81 36 32 37 86 38 80 39 82 40 33 41 85 42 79 43 78 44
REMARK SMILES IDX 34 46 66 47 46 48 65 49 47 50 50 51 64 52 83 53 48 54 49 55
REMARK SMILES IDX 63 57 84 58 51 59 35 60 36 61 44 62 37 63 38 64 42 65 45 66
REMARK SMILES IDX 39 67 40 68 43 69 41 70 67 71 68 72 76 73 69 74 70 75 74 76
REMARK SMILES IDX 77 77 71 78 72 79 75 80 73 81 52 82 53 83 61 84 54 85 55 86
REMARK SMILES IDX 59 87 62 88 56 89 57 90 60 91 58 92
REMARK H PARENT 18 6 23 26 82 45 50 56
REMARK Flexibility Score: inf
ROOT
ATOM      1  C   UNL A   1      32.058  30.406  26.696  1.00  0.00     0.023 C 
ENDROOT
BRANCH   1   2
ATOM      2  C   UNL A   1      31.570  29.795  25.388  1.00  0.00     0.116 C 
BRANCH   2   3
ATOM      3  N   UNL A   1      32.621  29.604  24.417  1.00  0.00    -0.354 N 
ATOM      4  C   UNL A   1      32.830  28.581  23.541  1.00  0.00     0.243 C 
ATOM      5  O   UNL A   1      33.639  28.788  22.629  1.00  0.00    -0.273 OA
ATOM      6  H   UNL A   1      33.292  30.324  24.383  1.00  0.00     0.163 HD
BRANCH   4   7
ATOM      7  C   UNL A   1      31.982  27.286  23.539  1.00  0.00     0.185 C 
ATOM      8  N   UNL A   1      31.822  26.564  24.811  1.00  0.00    -0.316 N 
ATOM      9  C   UNL A   1      30.469  26.441  25.301  1.00  0.00     0.190 C 
ATOM     10  S   UNL A   1      29.406  26.590  23.857  1.00  0.00    -0.138 SA
ATOM     11  C   UNL A   1      30.620  27.544  22.899  1.00  0.00     0.106 C 
BRANCH   8  12
ATOM     12  C   UNL A   1      32.983  26.040  25.363  1.00  0.00     0.257 C 
ATOM     13  O   UNL A   1      33.607  26.754  26.142  1.00  0.00    -0.269 OA
BRANCH  12  14
ATOM     14  C   UNL A   1      33.544  24.718  24.930  1.00  0.00     0.072 A 
ATOM     15  C   UNL A   1      33.199  23.508  25.557  1.00  0.00     0.108 A 
ATOM     16  N   UNL A   1      33.730  22.309  25.176  1.00  0.00    -0.249 NA
ATOM     17  C   UNL A   1      34.647  22.290  24.193  1.00  0.00     0.112 A 
ATOM     18  C   UNL A   1      34.565  24.651  23.964  1.00  0.00     0.018 A 
ATOM     19  C   UNL A   1      35.104  23.429  23.570  1.00  0.00     0.021 A 
BRANCH  15  20
ATOM     20  S   UNL A   1      32.108  23.306  26.957  1.00  0.00    -0.109 SA
ATOM     21  C   UNL A   1      30.633  22.712  26.075  1.00  0.00     0.092 C 
ENDBRANCH  15  20
ENDBRANCH  12  14
ENDBRANCH   8  12
ENDBRANCH   4   7
ENDBRANCH   2   3
ENDBRANCH   1   2
BRANCH   1  22
ATOM     22  C   UNL A   1      31.692  31.876  26.899  1.00  0.00     0.023 C 
BRANCH  22  23
ATOM     23  C   UNL A   1      32.850  32.794  27.279  1.00  0.00     0.116 C 
BRANCH  23  24
ATOM     24  N   UNL A   1      32.437  34.144  27.631  1.00  0.00    -0.352 N 
ATOM     25  C   UNL A   1      32.976  34.988  28.577  1.00  0.00     0.251 C 
ATOM     26  H   UNL A   1      31.671  34.501  27.126  1.00  0.00     0.163 HD
ATOM     27  O   UNL A   1      32.463  36.069  28.811  1.00  0.00    -0.269 OA
BRANCH  25  28
ATOM     28  C   UNL A   1      34.162  34.545  29.340  1.00  0.00     0.039 A 
ATOM     29  C   UNL A   1      33.973  33.992  30.609  1.00  0.00     0.014 A 
ATOM     30  C   UNL A   1      35.441  34.636  28.788  1.00  0.00     0.014 A 
ATOM     31  C   UNL A   1      35.064  33.457  31.295  1.00  0.00     0.010 A 
ATOM     32  C   UNL A   1      36.517  34.050  29.446  1.00  0.00     0.010 A 
ATOM     33  C   UNL A   1      36.336  33.446  30.701  1.00  0.00    -0.014 A 
BRANCH  33  34
ATOM     34  C   UNL A   1      37.490  32.793  31.363  1.00  0.00     0.031 A 
ATOM     35  C   UNL A   1      38.178  31.634  30.701  1.00  0.00     0.074 A 
ATOM     36  C   UNL A   1      37.858  33.187  32.597  1.00  0.00     0.049 A 
ATOM     37  N   UNL A   1      39.133  30.866  31.160  1.00  0.00    -0.248 NA
ATOM     38  C   UNL A   1      37.709  31.272  29.355  1.00  0.00     0.031 C 
ATOM     39  C   UNL A   1      37.230  34.265  33.362  1.00  0.00     0.029 A 
ATOM     40  N   UNL A   1      38.837  32.712  33.433  1.00  0.00    -0.354 N 
ATOM     41  C   UNL A   1      39.360  29.917  30.174  1.00  0.00     0.074 A 
ATOM     42  C   UNL A   1      38.420  30.181  29.106  1.00  0.00     0.031 C 
ATOM     43  C   UNL A   1      37.847  34.377  34.550  1.00  0.00     0.029 A 
ATOM     44  C   UNL A   1      38.889  33.360  34.643  1.00  0.00     0.049 A 
ATOM     45  H   UNL A   1      39.444  31.976  33.188  1.00  0.00     0.167 HD
ATOM     46  C   UNL A   1      40.282  28.927  30.156  1.00  0.00     0.037 A 
ATOM     47  C   UNL A   1      39.683  33.149  35.708  1.00  0.00     0.037 A 
ATOM     48  C   UNL A   1      41.242  28.693  31.201  1.00  0.00     0.049 A 
ATOM     49  C   UNL A   1      40.714  32.054  35.651  1.00  0.00     0.074 A 
ATOM     50  C   UNL A   1      42.273  27.772  31.237  1.00  0.00     0.029 A 
ATOM     51  N   UNL A   1      41.289  29.394  32.398  1.00  0.00    -0.354 N 
ATOM     52  N   UNL A   1      40.970  31.210  34.683  1.00  0.00    -0.248 NA
ATOM     53  C   UNL A   1      41.568  31.886  36.836  1.00  0.00     0.031 C 
ATOM     54  C   UNL A   1      42.923  27.891  32.470  1.00  0.00     0.029 A 
ATOM     55  C   UNL A   1      42.320  28.911  33.187  1.00  0.00     0.049 A 
ATOM     56  H   UNL A   1      40.679  30.126  32.648  1.00  0.00     0.167 HD
ATOM     57  C   UNL A   1      42.026  30.429  35.127  1.00  0.00     0.074 A 
ATOM     58  C   UNL A   1      42.372  30.905  36.451  1.00  0.00     0.031 C 
ATOM     59  C   UNL A   1      42.654  29.406  34.496  1.00  0.00     0.037 A 
BRANCH  46  60
ATOM     60  C   UNL A   1      40.301  28.019  28.962  1.00  0.00     0.064 A 
ATOM     61  C   UNL A   1      41.055  28.326  27.820  1.00  0.00     0.173 A 
ATOM     62  C   UNL A   1      39.584  26.813  28.975  1.00  0.00     0.173 A 
ATOM     63  F   UNL A   1      41.746  29.473  27.756  1.00  0.00    -0.203 F 
ATOM     64  C   UNL A   1      41.073  27.468  26.724  1.00  0.00     0.198 A 
ATOM     65  C   UNL A   1      39.624  25.947  27.886  1.00  0.00     0.198 A 
ATOM     66  F   UNL A   1      38.851  26.473  30.045  1.00  0.00    -0.203 F 
ATOM     67  F   UNL A   1      41.766  27.801  25.626  1.00  0.00    -0.200 F 
ATOM     68  C   UNL A   1      40.363  26.277  26.759  1.00  0.00     0.200 A 
ATOM     69  F   UNL A   1      38.945  24.791  27.925  1.00  0.00    -0.200 F 
ATOM     70  F   UNL A   1      40.385  25.451  25.705  1.00  0.00    -0.200 F 
ENDBRANCH  46  60
BRANCH  47  71
ATOM     71  C   UNL A   1      39.554  34.007  36.912  1.00  0.00     0.064 A 
ATOM     72  C   UNL A   1      40.219  35.239  36.988  1.00  0.00     0.173 A 
ATOM     73  C   UNL A   1      38.772  33.618  38.008  1.00  0.00     0.173 A 
ATOM     74  F   UNL A   1      40.995  35.643  35.971  1.00  0.00    -0.203 F 
ATOM     75  C   UNL A   1      40.120  36.041  38.121  1.00  0.00     0.198 A 
ATOM     76  C   UNL A   1      38.656  34.432  39.133  1.00  0.00     0.198 A 
ATOM     77  F   UNL A   1      38.115  32.448  37.982  1.00  0.00    -0.203 F 
ATOM     78  F   UNL A   1      40.798  37.196  38.185  1.00  0.00    -0.200 F 
ATOM     79  C   UNL A   1      39.336  35.639  39.192  1.00  0.00     0.200 A 
ATOM     80  F   UNL A   1      37.890  34.044  40.162  1.00  0.00    -0.200 F 
ATOM     81  F   UNL A   1      39.241  36.410  40.283  1.00  0.00    -0.200 F 
ENDBRANCH  47  71
BRANCH  59  82
ATOM     82  C   UNL A   1      43.796  28.755  35.217  1.00  0.00     0.064 A 
ATOM     83  C   UNL A   1      43.589  27.691  36.105  1.00  0.00     0.173 A 
ATOM     84  C   UNL A   1      45.114  29.171  34.979  1.00  0.00     0.173 A 
ATOM     85  F   UNL A   1      42.344  27.271  36.376  1.00  0.00    -0.203 F 
ATOM     86  C   UNL A   1      44.662  27.076  36.744  1.00  0.00     0.198 A 
ATOM     87  C   UNL A   1      46.186  28.539  35.601  1.00  0.00     0.198 A 
ATOM     88  F   UNL A   1      45.362  30.182  34.133  1.00  0.00    -0.203 F 
ATOM     89  F   UNL A   1      44.441  26.084  37.617  1.00  0.00    -0.200 F 
ATOM     90  C   UNL A   1      45.960  27.495  36.486  1.00  0.00     0.200 A 
ATOM     91  F   UNL A   1      47.439  28.938  35.344  1.00  0.00    -0.200 F 
ATOM     92  F   UNL A   1      46.991  26.898  37.096  1.00  0.00    -0.200 F 
ENDBRANCH  59  82
ENDBRANCH  33  34
ENDBRANCH  25  28
ENDBRANCH  23  24
ENDBRANCH  22  23
ENDBRANCH   1  22
TORSDOF 14
ENDMDL
MODEL 2
REMARK VINA RESULT:     -12.0      1.395      3.016
REMARK SMILES CSc1ncccc1C(=O)N1CSC[C@H]1C(=O)NCCCCNC(=O)c1ccc(-c2c3nc(c(-c4c(F)c(F)c(F)c(F)c4F)c4ccc([nH]4)c(-c4c(F)c(F)c(F)c(F)c4F)c4nc(c(-c5c(F)c(F)c(F)c(F)c5F)c5ccc2[nH]5)C=C4)C=C3)cc1
REMARK SMILES IDX 20 1 19 2 18 3 16 4 17 5 15 7 11 8 12 9 13 10 14 11 9 12
REMARK SMILES IDX 10 13 8 14 3 15 4 16 5 17 7 18 6 19 2 20 1 21 21 22 22 23
REMARK SMILES IDX 23 24 24 25 25 27 26 28 27 29 88 30 28 31 87 32 29 33 30 34
REMARK SMILES IDX 31 35 81 36 32 37 86 38 80 39 82 40 33 41 85 42 79 43 78 44
REMARK SMILES IDX 34 46 66 47 46 48 65 49 47 50 50 51 64 52 83 53 48 54 49 55
REMARK SMILES IDX 63 57 84 58 51 59 35 60 36 61 44 62 37 63 38 64 42 65 45 66
REMARK SMILES IDX 39 67 40 68 43 69 41 70 67 71 68 72 76 73 69 74 70 75 74 76
REMARK SMILES IDX 77 77 71 78 72 79 75 80 73 81 52 82 53 83 61 84 54 85 55 86
REMARK SMILES IDX 59 87 62 88 56 89 57 90 60 91 58 92
REMARK H PARENT 18 6 23 26 82 45 50 56
REMARK Flexibility Score: inf
ROOT
ATOM      1  C   UNL A   1      32.045  30.473  26.760  1.00  0.00     0.023 C 
ENDROOT
BRANCH   1   2
ATOM      2  C   UNL A   1      31.795  29.918  25.363  1.00  0.00     0.116 C 
BRANCH   2   3
ATOM      3  N   UNL A   1      33.007  29.616  24.641  1.00  0.00    -0.354 N 
ATOM      4  C   UNL A   1      33.307  28.559  23.833  1.00  0.00     0.243 C 
ATOM      5  O   UNL A   1      34.306  28.675  23.114  1.00  0.00    -0.273 OA
ATOM      6  H   UNL A   1      33.731  30.275  24.748  1.00  0.00     0.163 HD
BRANCH   4   7
ATOM      7  C   UNL A   1      32.369  27.341  23.656  1.00  0.00     0.185 C 
ATOM      8  N   UNL A   1      31.494  27.310  22.473  1.00  0.00    -0.316 N 
ATOM      9  C   UNL A   1      31.703  26.210  21.562  1.00  0.00     0.190 C 
ATOM     10  S   UNL A   1      32.461  24.900  22.535  1.00  0.00    -0.138 SA
ATOM     11  C   UNL A   1      33.160  26.039  23.765  1.00  0.00     0.106 C 
BRANCH   8  12
ATOM     12  C   UNL A   1      30.535  28.312  22.400  1.00  0.00     0.257 C 
ATOM     13  O   UNL A   1      30.909  29.423  22.035  1.00  0.00    -0.269 OA
BRANCH  12  14
ATOM     14  C   UNL A   1      29.129  28.104  22.879  1.00  0.00     0.072 A 
ATOM     15  C   UNL A   1      28.127  29.079  22.729  1.00  0.00     0.108 A 
ATOM     16  N   UNL A   1      26.854  28.897  23.187  1.00  0.00    -0.249 NA
ATOM     17  C   UNL A   1      26.558  27.761  23.843  1.00  0.00     0.112 A 
ATOM     18  C   UNL A   1      28.788  26.972  23.641  1.00  0.00     0.018 A 
ATOM     19  C   UNL A   1      27.489  26.781  24.104  1.00  0.00     0.021 A 
BRANCH  15  20
ATOM     20  S   UNL A   1      28.319  30.703  22.010  1.00  0.00    -0.109 SA
ATOM     21  C   UNL A   1      27.655  31.693  23.384  1.00  0.00     0.092 C 
ENDBRANCH  15  20
ENDBRANCH  12  14
ENDBRANCH   8  12
ENDBRANCH   4   7
ENDBRANCH   2   3
ENDBRANCH   1   2
BRANCH   1  22
ATOM     22  C   UNL A   1      31.691  31.949  26.942  1.00  0.00     0.023 C 
BRANCH  22  23
ATOM     23  C   UNL A   1      32.852  32.859  27.331  1.00  0.00     0.116 C 
BRANCH  23  24
ATOM     24  N   UNL A   1      32.445  34.208  27.690  1.00  0.00    -0.352 N 
ATOM     25  C   UNL A   1      32.987  35.046  28.640  1.00  0.00     0.251 C 
ATOM     26  H   UNL A   1      31.679  34.571  27.188  1.00  0.00     0.163 HD
ATOM     27  O   UNL A   1      32.479  36.127  28.879  1.00  0.00    -0.269 OA
BRANCH  25  28
ATOM     28  C   UNL A   1      34.172  34.594  29.400  1.00  0.00     0.039 A 
ATOM     29  C   UNL A   1      33.984  34.062  30.678  1.00  0.00     0.014 A 
ATOM     30  C   UNL A   1      35.448  34.657  28.838  1.00  0.00     0.014 A 
ATOM     31  C   UNL A   1      35.071  33.518  31.364  1.00  0.00     0.010 A 
ATOM     32  C   UNL A   1      36.520  34.063  29.496  1.00  0.00     0.010 A 
ATOM     33  C   UNL A   1      36.338  33.480  30.760  1.00  0.00    -0.014 A 
BRANCH  33  34
ATOM     34  C   UNL A   1      37.488  32.818  31.422  1.00  0.00     0.031 A 
ATOM     35  C   UNL A   1      38.160  31.647  30.765  1.00  0.00     0.074 A 
ATOM     36  C   UNL A   1      37.863  33.215  32.653  1.00  0.00     0.049 A 
ATOM     37  N   UNL A   1      39.108  30.871  31.226  1.00  0.00    -0.248 NA
ATOM     38  C   UNL A   1      37.683  31.282  29.422  1.00  0.00     0.031 C 
ATOM     39  C   UNL A   1      37.251  34.304  33.414  1.00  0.00     0.029 A 
ATOM     40  N   UNL A   1      38.840  32.733  33.488  1.00  0.00    -0.354 N 
ATOM     41  C   UNL A   1      39.320  29.913  30.245  1.00  0.00     0.074 A 
ATOM     42  C   UNL A   1      38.381  30.182  29.178  1.00  0.00     0.031 C 
ATOM     43  C   UNL A   1      37.873  34.416  34.599  1.00  0.00     0.029 A 
ATOM     44  C   UNL A   1      38.903  33.387  34.694  1.00  0.00     0.049 A 
ATOM     45  H   UNL A   1      39.437  31.989  33.246  1.00  0.00     0.167 HD
ATOM     46  C   UNL A   1      40.231  28.912  30.230  1.00  0.00     0.037 A 
ATOM     47  C   UNL A   1      39.698  33.174  35.758  1.00  0.00     0.037 A 
ATOM     48  C   UNL A   1      41.192  28.674  31.273  1.00  0.00     0.049 A 
ATOM     49  C   UNL A   1      40.716  32.067  35.705  1.00  0.00     0.074 A 
ATOM     50  C   UNL A   1      42.213  27.741  31.312  1.00  0.00     0.029 A 
ATOM     51  N   UNL A   1      41.251  29.381  32.466  1.00  0.00    -0.354 N 
ATOM     52  N   UNL A   1      40.960  31.214  34.741  1.00  0.00    -0.248 NA
ATOM     53  C   UNL A   1      41.572  31.896  36.889  1.00  0.00     0.031 C 
ATOM     54  C   UNL A   1      42.868  27.860  32.542  1.00  0.00     0.029 A 
ATOM     55  C   UNL A   1      42.278  28.891  33.254  1.00  0.00     0.049 A 
ATOM     56  H   UNL A   1      40.650  30.121  32.714  1.00  0.00     0.167 HD
ATOM     57  C   UNL A   1      42.008  30.424  35.187  1.00  0.00     0.074 A 
ATOM     58  C   UNL A   1      42.364  30.904  36.506  1.00  0.00     0.031 C 
ATOM     59  C   UNL A   1      42.622  29.391  34.560  1.00  0.00     0.037 A 
BRANCH  46  60
ATOM     60  C   UNL A   1      40.236  27.998  29.041  1.00  0.00     0.064 A 
ATOM     61  C   UNL A   1      40.971  28.301  27.886  1.00  0.00     0.173 A 
ATOM     62  C   UNL A   1      39.526  26.788  29.072  1.00  0.00     0.173 A 
ATOM     63  F   UNL A   1      41.655  29.452  27.804  1.00  0.00    -0.203 F 
ATOM     64  C   UNL A   1      40.976  27.437  26.794  1.00  0.00     0.198 A 
ATOM     65  C   UNL A   1      39.553  25.915  27.988  1.00  0.00     0.198 A 
ATOM     66  F   UNL A   1      38.811  26.451  30.156  1.00  0.00    -0.203 F 
ATOM     67  F   UNL A   1      41.650  27.766  25.684  1.00  0.00    -0.200 F 
ATOM     68  C   UNL A   1      40.273  26.243  26.849  1.00  0.00     0.200 A 
ATOM     69  F   UNL A   1      38.881  24.756  28.045  1.00  0.00    -0.200 F 
ATOM     70  F   UNL A   1      40.283  25.410  25.799  1.00  0.00    -0.200 F 
ENDBRANCH  46  60
BRANCH  47  71
ATOM     71  C   UNL A   1      39.583  34.041  36.958  1.00  0.00     0.064 A 
ATOM     72  C   UNL A   1      40.235  35.280  37.011  1.00  0.00     0.173 A 
ATOM     73  C   UNL A   1      38.826  33.652  38.072  1.00  0.00     0.173 A 
ATOM     74  F   UNL A   1      40.987  35.684  35.976  1.00  0.00    -0.203 F 
ATOM     75  C   UNL A   1      40.149  36.090  38.140  1.00  0.00     0.198 A 
ATOM     76  C   UNL A   1      38.722  34.474  39.192  1.00  0.00     0.198 A 
ATOM     77  F   UNL A   1      38.181  32.476  38.067  1.00  0.00    -0.203 F 
ATOM     78  F   UNL A   1      40.816  37.252  38.181  1.00  0.00    -0.200 F 
ATOM     79  C   UNL A   1      39.390  35.689  39.228  1.00  0.00     0.200 A 
ATOM     80  F   UNL A   1      37.980  34.087  40.238  1.00  0.00    -0.200 F 
ATOM     81  F   UNL A   1      39.307  36.468  40.314  1.00  0.00    -0.200 F 
ENDBRANCH  47  71
BRANCH  59  82
ATOM     82  C   UNL A   1      43.759  28.730  35.281  1.00  0.00     0.064 A 
ATOM     83  C   UNL A   1      45.086  29.135  35.081  1.00  0.00     0.173 A 
ATOM     84  C   UNL A   1      43.510  27.712  36.214  1.00  0.00     0.173 A 
ATOM     85  F   UNL A   1      45.372  30.092  34.187  1.00  0.00    -0.203 F 
ATOM     86  C   UNL A   1      46.127  28.532  35.781  1.00  0.00     0.198 A 
ATOM     87  C   UNL A   1      44.552  27.129  36.928  1.00  0.00     0.198 A 
ATOM     88  F   UNL A   1      42.256  27.294  36.440  1.00  0.00    -0.203 F 
ATOM     89  F   UNL A   1      47.393  28.909  35.550  1.00  0.00    -0.200 F 
ATOM     90  C   UNL A   1      45.860  27.535  36.708  1.00  0.00     0.200 A 
ATOM     91  F   UNL A   1      44.291  26.172  37.830  1.00  0.00    -0.200 F 
ATOM     92  F   UNL A   1      46.863  26.962  37.385  1.00  0.00    -0.200 F 
ENDBRANCH  59  82
ENDBRANCH  33  34
ENDBRANCH  25  28
ENDBRANCH  23  24
ENDBRANCH  22  23
ENDBRANCH   1  22
TORSDOF 14
ENDMDL
MODEL 3
REMARK VINA RESULT:     -12.0      0.186      1.970
REMARK SMILES CSc1ncccc1C(=O)N1CSC[C@H]1C(=O)NCCCCNC(=O)c1ccc(-c2c3nc(c(-c4c(F)c(F)c(F)c(F)c4F)c4ccc([nH]4)c(-c4c(F)c(F)c(F)c(F)c4F)c4nc(c(-c5c(F)c(F)c(F)c(F)c5F)c5ccc2[nH]5)C=C4)C=C3)cc1
REMARK SMILES IDX 20 1 19 2 18 3 16 4 17 5 15 7 11 8 12 9 13 10 14 11 9 12
REMARK SMILES IDX 10 13 8 14 3 15 4 16 5 17 7 18 6 19 2 20 1 21 21 22 22 23
REMARK SMILES IDX 23 24 24 25 25 27 26 28 27 29 88 30 28 31 87 32 29 33 30 34
REMARK SMILES IDX 31 35 81 36 32 37 86 38 80 39 82 40 33 41 85 42 79 43 78 44
REMARK SMILES IDX 34 46 66 47 46 48 65 49 47 50 50 51 64 52 83 53 48 54 49 55
REMARK SMILES IDX 63 57 84 58 51 59 35 60 36 61 44 62 37 63 38 64 42 65 45 66
REMARK SMILES IDX 39 67 40 68 43 69 41 70 67 71 68 72 76 73 69 74 70 75 74 76
REMARK SMILES IDX 77 77 71 78 72 79 75 80 73 81 52 82 53 83 61 84 54 85 55 86
REMARK SMILES IDX 59 87 62 88 56 89 57 90 60 91 58 92
REMARK H PARENT 18 6 23 26 82 45 50 56
REMARK Flexibility Score: inf
ROOT
ATOM      1  C   UNL A   1      32.127  30.446  26.814  1.00  0.00     0.023 C 
ENDROOT
BRANCH   1   2
ATOM      2  C   UNL A   1      31.759  29.772  25.497  1.00  0.00     0.116 C 
BRANCH   2   3
ATOM      3  N   UNL A   1      32.877  29.621  24.598  1.00  0.00    -0.354 N 
ATOM      4  C   UNL A   1      33.120  28.670  23.651  1.00  0.00     0.243 C 
ATOM      5  O   UNL A   1      34.007  28.921  22.827  1.00  0.00    -0.273 OA
ATOM      6  H   UNL A   1      33.574  30.311  24.681  1.00  0.00     0.163 HD
BRANCH   4   7
ATOM      7  C   UNL A   1      32.228  27.419  23.466  1.00  0.00     0.185 C 
ATOM      8  N   UNL A   1      31.916  26.612  24.656  1.00  0.00    -0.316 N 
ATOM      9  C   UNL A   1      30.517  26.513  25.002  1.00  0.00     0.190 C 
ATOM     10  S   UNL A   1      29.609  26.817  23.479  1.00  0.00    -0.138 SA
ATOM     11  C   UNL A   1      30.947  27.784  22.720  1.00  0.00     0.106 C 
BRANCH   8  12
ATOM     12  C   UNL A   1      32.996  25.996  25.273  1.00  0.00     0.257 C 
ATOM     13  O   UNL A   1      33.595  26.640  26.130  1.00  0.00    -0.269 OA
BRANCH  12  14
ATOM     14  C   UNL A   1      33.513  24.661  24.828  1.00  0.00     0.072 A 
ATOM     15  C   UNL A   1      33.221  23.469  25.517  1.00  0.00     0.108 A 
ATOM     16  N   UNL A   1      33.712  22.258  25.123  1.00  0.00    -0.249 NA
ATOM     17  C   UNL A   1      34.539  22.207  24.063  1.00  0.00     0.112 A 
ATOM     18  C   UNL A   1      34.443  24.562  23.779  1.00  0.00     0.018 A 
ATOM     19  C   UNL A   1      34.942  23.327  23.372  1.00  0.00     0.021 A 
BRANCH  15  20
ATOM     20  S   UNL A   1      32.259  23.311  27.013  1.00  0.00    -0.109 SA
ATOM     21  C   UNL A   1      30.622  23.054  26.262  1.00  0.00     0.092 C 
ENDBRANCH  15  20
ENDBRANCH  12  14
ENDBRANCH   8  12
ENDBRANCH   4   7
ENDBRANCH   2   3
ENDBRANCH   1   2
BRANCH   1  22
ATOM     22  C   UNL A   1      31.777  31.932  26.899  1.00  0.00     0.023 C 
BRANCH  22  23
ATOM     23  C   UNL A   1      32.921  32.852  27.315  1.00  0.00     0.116 C 
BRANCH  23  24
ATOM     24  N   UNL A   1      32.490  34.191  27.684  1.00  0.00    -0.352 N 
ATOM     25  C   UNL A   1      33.012  35.027  28.647  1.00  0.00     0.251 C 
ATOM     26  H   UNL A   1      31.724  34.548  27.178  1.00  0.00     0.163 HD
ATOM     27  O   UNL A   1      32.486  36.099  28.893  1.00  0.00    -0.269 OA
BRANCH  25  28
ATOM     28  C   UNL A   1      34.197  34.584  29.413  1.00  0.00     0.039 A 
ATOM     29  C   UNL A   1      34.006  34.052  30.691  1.00  0.00     0.014 A 
ATOM     30  C   UNL A   1      35.475  34.656  28.857  1.00  0.00     0.014 A 
ATOM     31  C   UNL A   1      35.094  33.517  31.382  1.00  0.00     0.010 A 
ATOM     32  C   UNL A   1      36.547  34.070  29.521  1.00  0.00     0.010 A 
ATOM     33  C   UNL A   1      36.364  33.487  30.785  1.00  0.00    -0.014 A 
BRANCH  33  34
ATOM     34  C   UNL A   1      37.515  32.834  31.453  1.00  0.00     0.031 A 
ATOM     35  C   UNL A   1      38.205  31.674  30.796  1.00  0.00     0.074 A 
ATOM     36  C   UNL A   1      37.876  33.229  32.689  1.00  0.00     0.049 A 
ATOM     37  N   UNL A   1      39.157  30.906  31.261  1.00  0.00    -0.248 NA
ATOM     38  C   UNL A   1      37.743  31.311  29.447  1.00  0.00     0.031 C 
ATOM     39  C   UNL A   1      37.245  34.308  33.450  1.00  0.00     0.029 A 
ATOM     40  N   UNL A   1      38.851  32.753  33.530  1.00  0.00    -0.354 N 
ATOM     41  C   UNL A   1      39.388  29.955  30.277  1.00  0.00     0.074 A 
ATOM     42  C   UNL A   1      38.454  30.219  29.203  1.00  0.00     0.031 C 
ATOM     43  C   UNL A   1      37.857  34.421  34.641  1.00  0.00     0.029 A 
ATOM     44  C   UNL A   1      38.897  33.402  34.740  1.00  0.00     0.049 A 
ATOM     45  H   UNL A   1      39.458  32.017  33.289  1.00  0.00     0.167 HD
ATOM     46  C   UNL A   1      40.310  28.964  30.264  1.00  0.00     0.037 A 
ATOM     47  C   UNL A   1      39.686  33.192  35.809  1.00  0.00     0.037 A 
ATOM     48  C   UNL A   1      41.264  28.731  31.314  1.00  0.00     0.049 A 
ATOM     49  C   UNL A   1      40.716  32.096  35.759  1.00  0.00     0.074 A 
ATOM     50  C   UNL A   1      42.294  27.809  31.357  1.00  0.00     0.029 A 
ATOM     51  N   UNL A   1      41.306  29.433  32.511  1.00  0.00    -0.354 N 
ATOM     52  N   UNL A   1      40.976  31.251  34.793  1.00  0.00    -0.248 NA
ATOM     53  C   UNL A   1      41.563  31.929  36.948  1.00  0.00     0.031 C 
ATOM     54  C   UNL A   1      42.938  27.928  32.593  1.00  0.00     0.029 A 
ATOM     55  C   UNL A   1      42.332  28.949  33.305  1.00  0.00     0.049 A 
ATOM     56  H   UNL A   1      40.695  30.165  32.757  1.00  0.00     0.167 HD
ATOM     57  C   UNL A   1      42.030  30.470  35.243  1.00  0.00     0.074 A 
ATOM     58  C   UNL A   1      42.369  30.947  36.568  1.00  0.00     0.031 C 
ATOM     59  C   UNL A   1      42.660  29.446  34.616  1.00  0.00     0.037 A 
BRANCH  46  60
ATOM     60  C   UNL A   1      40.334  28.056  29.071  1.00  0.00     0.064 A 
ATOM     61  C   UNL A   1      39.596  26.864  29.042  1.00  0.00     0.173 A 
ATOM     62  C   UNL A   1      41.075  28.401  27.930  1.00  0.00     0.173 A 
ATOM     63  F   UNL A   1      38.883  26.485  30.113  1.00  0.00    -0.203 F 
ATOM     64  C   UNL A   1      39.618  26.036  27.923  1.00  0.00     0.198 A 
ATOM     65  C   UNL A   1      41.075  27.582  26.804  1.00  0.00     0.198 A 
ATOM     66  F   UNL A   1      41.794  29.533  27.907  1.00  0.00    -0.203 F 
ATOM     67  F   UNL A   1      38.941  24.880  27.933  1.00  0.00    -0.200 F 
ATOM     68  C   UNL A   1      40.352  26.399  26.803  1.00  0.00     0.200 A 
ATOM     69  F   UNL A   1      41.776  27.939  25.718  1.00  0.00    -0.200 F 
ATOM     70  F   UNL A   1      40.368  25.603  25.725  1.00  0.00    -0.200 F 
ENDBRANCH  46  60
BRANCH  47  71
ATOM     71  C   UNL A   1      39.551  34.052  37.012  1.00  0.00     0.064 A 
ATOM     72  C   UNL A   1      38.788  33.632  38.110  1.00  0.00     0.173 A 
ATOM     73  C   UNL A   1      40.174  35.305  37.089  1.00  0.00     0.173 A 
ATOM     74  F   UNL A   1      38.156  32.449  38.072  1.00  0.00    -0.203 F 
ATOM     75  C   UNL A   1      38.639  34.441  39.233  1.00  0.00     0.198 A 
ATOM     76  C   UNL A   1      40.043  36.104  38.223  1.00  0.00     0.198 A 
ATOM     77  F   UNL A   1      40.917  35.749  36.064  1.00  0.00    -0.203 F 
ATOM     78  F   UNL A   1      37.870  34.034  40.253  1.00  0.00    -0.200 F 
ATOM     79  C   UNL A   1      39.270  35.674  39.291  1.00  0.00     0.200 A 
ATOM     80  F   UNL A   1      40.662  37.291  38.279  1.00  0.00    -0.200 F 
ATOM     81  F   UNL A   1      39.126  36.453  40.372  1.00  0.00    -0.200 F 
ENDBRANCH  47  71
BRANCH  59  82
ATOM     82  C   UNL A   1      43.797  28.794  35.343  1.00  0.00     0.064 A 
ATOM     83  C   UNL A   1      45.122  29.208  35.149  1.00  0.00     0.173 A 
ATOM     84  C   UNL A   1      43.551  27.776  36.276  1.00  0.00     0.173 A 
ATOM     85  F   UNL A   1      45.406  30.166  34.255  1.00  0.00    -0.203 F 
ATOM     86  C   UNL A   1      46.165  28.613  35.854  1.00  0.00     0.198 A 
ATOM     87  C   UNL A   1      44.594  27.201  36.996  1.00  0.00     0.198 A 
ATOM     88  F   UNL A   1      42.299  27.350  36.498  1.00  0.00    -0.203 F 
ATOM     89  F   UNL A   1      47.429  28.998  35.629  1.00  0.00    -0.200 F 
ATOM     90  C   UNL A   1      45.900  27.615  36.782  1.00  0.00     0.200 A 
ATOM     91  F   UNL A   1      44.335  26.244  37.898  1.00  0.00    -0.200 F 
ATOM     92  F   UNL A   1      46.904  27.050  37.464  1.00  0.00    -0.200 F 
ENDBRANCH  59  82
ENDBRANCH  33  34
ENDBRANCH  25  28
ENDBRANCH  23  24
ENDBRANCH  22  23
ENDBRANCH   1  22
TORSDOF 14
ENDMDL
