MODEL 1
REMARK VINA RESULT:     -14.1      0.000      0.000
REMARK SMILES C[C@@H](Oc1ccc(/C=C2\C(=O)[NH+]=C(NCCCCNC(=O)c3ccc(-c4c5nc(c(-c6c(F)c(F)c(F)c(F)c6F)c6ccc([nH]6)c(-c6c(F)c(F)c(F)c(F)c6F)c6nc(c(-c7c(F)c(F)c(F)c(F)c7F)c7ccc4[nH]7)C=C6)C=C5)cc3)N(c3ccc4c(c3)OCO4)C2=O)cc1)C(=O)[O-]
REMARK SMILES IDX 16 1 15 2 14 3 8 4 9 5 10 6 95 7 11 8 12 9 85 10 96 11 13 12
REMARK SMILES IDX 7 15 4 16 5 17 98 18 6 19 97 20 3 21 2 22 1 23 99 24 100 25
REMARK SMILES IDX 101 26 86 27 87 28 91 29 88 30 90 31 89 32 92 33 94 34 93 35
REMARK SMILES IDX 17 36 18 37 19 38 20 39 21 41 22 42 23 43 84 44 24 45 83 46
REMARK SMILES IDX 25 47 26 48 27 49 77 50 28 51 82 52 76 53 78 54 29 55 81 56
REMARK SMILES IDX 75 57 74 58 30 60 62 61 42 62 61 63 43 64 46 65 60 66 79 67
REMARK SMILES IDX 44 68 45 69 59 71 80 72 47 73 31 74 32 75 40 76 33 77 34 78
REMARK SMILES IDX 38 79 41 80 35 81 36 82 39 83 37 84 63 85 64 86 72 87 65 88
REMARK SMILES IDX 66 89 70 90 73 91 67 92 68 93 71 94 69 95 48 96 49 97 57 98
REMARK SMILES IDX 50 99 51 100 55 101 58 102 52 103 53 104 56 105 54 106
REMARK H PARENT 12 13 14 14 19 40 78 59 46 70
REMARK Flexibility Score: inf
ROOT
ATOM      1  C   UNL A   1      32.606  30.643  27.220  1.00  0.00     0.039 C 
ENDROOT
BRANCH   1   2
ATOM      2  C   UNL A   1      33.081  30.210  25.836  1.00  0.00     0.197 C 
BRANCH   2   3
ATOM      3  N   UNL A   1      31.950  29.999  24.953  1.00  0.00    -0.277 N 
ATOM      4  C   UNL A   1      30.333  25.104  23.646  1.00  0.00     0.031 C 
ATOM      5  C   UNL A   1      30.918  26.314  23.559  1.00  0.00     0.138 C 
ATOM      6  C   UNL A   1      32.328  26.631  23.833  1.00  0.00     0.321 C 
ATOM      7  C   UNL A   1      30.055  27.441  23.156  1.00  0.00     0.328 C 
ATOM      8  O   UNL A   1      33.239  25.861  23.554  1.00  0.00    -0.250 OA
ATOM      9  N   UNL A   1      32.534  27.835  24.438  1.00  0.00    -0.210 N 
ATOM     10  N   UNL A   1      30.522  28.683  23.570  1.00  0.00    -0.162 N 
ATOM     11  O   UNL A   1      29.013  27.250  22.527  1.00  0.00    -0.249 OA
ATOM     12  C   UNL A   1      31.693  28.814  24.306  1.00  0.00     0.366 C 
ATOM     13  H   UNL A   1      33.341  27.964  24.987  1.00  0.00     0.270 HD
ATOM     14  H   UNL A   1      31.328  30.748  24.810  1.00  0.00     0.260 HD
BRANCH   4  15
ATOM     15  C   UNL A   1      30.886  23.816  24.087  1.00  0.00    -0.024 A 
ATOM     16  C   UNL A   1      32.053  21.474  25.109  1.00  0.00     0.120 A 
ATOM     17  C   UNL A   1      32.166  21.776  23.756  1.00  0.00     0.047 A 
ATOM     18  C   UNL A   1      31.402  22.358  25.963  1.00  0.00     0.047 A 
ATOM     19  C   UNL A   1      31.595  22.948  23.248  1.00  0.00     0.012 A 
ATOM     20  C   UNL A   1      30.811  23.515  25.452  1.00  0.00     0.012 A 
BRANCH  16  21
ATOM     21  O   UNL A   1      32.719  20.378  25.577  1.00  0.00    -0.485 OA
BRANCH  21  22
ATOM     22  C   UNL A   1      33.111  19.448  24.558  1.00  0.00     0.216 C 
ATOM     23  C   UNL A   1      32.425  18.094  24.725  1.00  0.00     0.059 C 
BRANCH  22  24
ATOM     24  C   UNL A   1      34.614  19.217  24.674  1.00  0.00     0.082 C 
ATOM     25  O   UNL A   1      35.452  20.074  24.910  1.00  0.00    -0.546 OA
ATOM     26  O   UNL A   1      35.002  17.951  24.406  1.00  0.00    -0.546 OA
ENDBRANCH  22  24
ENDBRANCH  21  22
ENDBRANCH  16  21
ENDBRANCH   4  15
BRANCH  10  27
ATOM     27  C   UNL A   1      29.691  29.795  23.274  1.00  0.00     0.115 A 
ATOM     28  C   UNL A   1      29.615  30.873  24.183  1.00  0.00     0.048 A 
ATOM     29  C   UNL A   1      29.097  29.883  22.008  1.00  0.00     0.094 A 
ATOM     30  C   UNL A   1      28.994  32.069  23.806  1.00  0.00     0.054 A 
ATOM     31  C   UNL A   1      28.506  31.075  21.667  1.00  0.00     0.169 A 
ATOM     32  C   UNL A   1      28.471  32.145  22.532  1.00  0.00     0.166 A 
ATOM     33  O   UNL A   1      27.961  31.367  20.456  1.00  0.00    -0.453 OA
ATOM     34  O   UNL A   1      27.920  33.247  21.955  1.00  0.00    -0.454 OA
ATOM     35  C   UNL A   1      27.796  32.793  20.589  1.00  0.00     0.468 C 
ENDBRANCH  10  27
ENDBRANCH   2   3
ENDBRANCH   1   2
BRANCH   1  36
ATOM     36  C   UNL A   1      32.052  32.069  27.282  1.00  0.00     0.024 C 
BRANCH  36  37
ATOM     37  C   UNL A   1      33.094  33.178  27.192  1.00  0.00     0.116 C 
BRANCH  37  38
ATOM     38  N   UNL A   1      32.640  34.436  27.762  1.00  0.00    -0.352 N 
ATOM     39  C   UNL A   1      33.086  35.096  28.882  1.00  0.00     0.251 C 
ATOM     40  H   UNL A   1      31.908  34.881  27.275  1.00  0.00     0.163 HD
ATOM     41  O   UNL A   1      32.495  36.090  29.289  1.00  0.00    -0.269 OA
BRANCH  39  42
ATOM     42  C   UNL A   1      34.260  34.585  29.621  1.00  0.00     0.039 A 
ATOM     43  C   UNL A   1      34.053  33.905  30.824  1.00  0.00     0.014 A 
ATOM     44  C   UNL A   1      35.557  34.763  29.132  1.00  0.00     0.014 A 
ATOM     45  C   UNL A   1      35.139  33.342  31.500  1.00  0.00     0.010 A 
ATOM     46  C   UNL A   1      36.629  34.138  29.765  1.00  0.00     0.010 A 
ATOM     47  C   UNL A   1      36.432  33.419  30.954  1.00  0.00    -0.014 A 
BRANCH  47  48
ATOM     48  C   UNL A   1      37.583  32.746  31.607  1.00  0.00     0.031 A 
ATOM     49  C   UNL A   1      38.249  31.571  30.945  1.00  0.00     0.074 A 
ATOM     50  C   UNL A   1      37.991  33.153  32.825  1.00  0.00     0.049 A 
ATOM     51  N   UNL A   1      39.215  30.806  31.392  1.00  0.00    -0.248 NA
ATOM     52  C   UNL A   1      37.747  31.188  29.617  1.00  0.00     0.031 C 
ATOM     53  C   UNL A   1      37.401  34.252  33.592  1.00  0.00     0.029 A 
ATOM     54  N   UNL A   1      38.991  32.682  33.641  1.00  0.00    -0.354 N 
ATOM     55  C   UNL A   1      39.426  29.851  30.407  1.00  0.00     0.074 A 
ATOM     56  C   UNL A   1      38.453  30.095  29.364  1.00  0.00     0.031 C 
ATOM     57  C   UNL A   1      38.060  34.383  34.753  1.00  0.00     0.029 A 
ATOM     58  C   UNL A   1      39.091  33.353  34.835  1.00  0.00     0.049 A 
ATOM     59  H   UNL A   1      39.580  31.933  33.393  1.00  0.00     0.167 HD
ATOM     60  C   UNL A   1      40.363  28.874  30.364  1.00  0.00     0.037 A 
ATOM     61  C   UNL A   1      39.913  33.153  35.884  1.00  0.00     0.037 A 
ATOM     62  C   UNL A   1      41.345  28.645  31.392  1.00  0.00     0.049 A 
ATOM     63  C   UNL A   1      40.933  32.047  35.816  1.00  0.00     0.074 A 
ATOM     64  C   UNL A   1      42.367  27.712  31.417  1.00  0.00     0.029 A 
ATOM     65  N   UNL A   1      41.425  29.357  32.580  1.00  0.00    -0.354 N 
ATOM     66  N   UNL A   1      41.165  31.192  34.851  1.00  0.00    -0.248 NA
ATOM     67  C   UNL A   1      41.811  31.884  36.984  1.00  0.00     0.031 C 
ATOM     68  C   UNL A   1      43.035  27.827  32.640  1.00  0.00     0.029 A 
ATOM     69  C   UNL A   1      42.466  28.869  33.354  1.00  0.00     0.049 A 
ATOM     70  H   UNL A   1      40.831  30.100  32.835  1.00  0.00     0.167 HD
ATOM     71  C   UNL A   1      42.234  30.414  35.278  1.00  0.00     0.074 A 
ATOM     72  C   UNL A   1      42.614  30.909  36.583  1.00  0.00     0.031 C 
ATOM     73  C   UNL A   1      42.843  29.381  34.646  1.00  0.00     0.037 A 
BRANCH  60  74
ATOM     74  C   UNL A   1      40.382  27.977  29.159  1.00  0.00     0.064 A 
ATOM     75  C   UNL A   1      39.620  26.799  29.110  1.00  0.00     0.173 A 
ATOM     76  C   UNL A   1      41.123  28.325  28.021  1.00  0.00     0.173 A 
ATOM     77  F   UNL A   1      38.902  26.414  30.176  1.00  0.00    -0.203 F 
ATOM     78  C   UNL A   1      39.622  25.991  27.976  1.00  0.00     0.198 A 
ATOM     79  C   UNL A   1      41.097  27.532  26.877  1.00  0.00     0.198 A 
ATOM     80  F   UNL A   1      41.864  29.444  28.013  1.00  0.00    -0.203 F 
ATOM     81  F   UNL A   1      38.922  24.848  27.969  1.00  0.00    -0.200 F 
ATOM     82  C   UNL A   1      40.353  26.363  26.858  1.00  0.00     0.200 A 
ATOM     83  F   UNL A   1      41.793  27.900  25.792  1.00  0.00    -0.200 F 
ATOM     84  F   UNL A   1      40.342  25.591  25.762  1.00  0.00    -0.200 F 
ENDBRANCH  60  74
BRANCH  61  85
ATOM     85  C   UNL A   1      39.819  34.023  37.086  1.00  0.00     0.064 A 
ATOM     86  C   UNL A   1      38.994  33.676  38.166  1.00  0.00     0.173 A 
ATOM     87  C   UNL A   1      40.526  35.232  37.169  1.00  0.00     0.173 A 
ATOM     88  F   UNL A   1      38.281  32.542  38.125  1.00  0.00    -0.203 F 
ATOM     89  C   UNL A   1      38.858  34.517  39.268  1.00  0.00     0.198 A 
ATOM     90  C   UNL A   1      40.414  36.057  38.286  1.00  0.00     0.198 A 
ATOM     91  F   UNL A   1      41.332  35.610  36.165  1.00  0.00    -0.203 F 
ATOM     92  F   UNL A   1      38.018  34.188  40.259  1.00  0.00    -0.200 F 
ATOM     93  C   UNL A   1      39.571  35.705  39.330  1.00  0.00     0.200 A 
ATOM     94  F   UNL A   1      41.117  37.196  38.348  1.00  0.00    -0.200 F 
ATOM     95  F   UNL A   1      39.439  36.514  40.389  1.00  0.00    -0.200 F 
ENDBRANCH  61  85
BRANCH  73  96
ATOM     96  C   UNL A   1      44.016  28.744  35.337  1.00  0.00     0.064 A 
ATOM     97  C   UNL A   1      43.858  27.659  36.211  1.00  0.00     0.173 A 
ATOM     98  C   UNL A   1      45.318  29.203  35.086  1.00  0.00     0.173 A 
ATOM     99  F   UNL A   1      42.632  27.192  36.495  1.00  0.00    -0.203 F 
ATOM    100  C   UNL A   1      44.959  27.074  36.831  1.00  0.00     0.198 A 
ATOM    101  C   UNL A   1      46.419  28.595  35.683  1.00  0.00     0.198 A 
ATOM    102  F   UNL A   1      45.525  30.233  34.252  1.00  0.00    -0.203 F 
ATOM    103  F   UNL A   1      44.780  26.072  37.702  1.00  0.00    -0.200 F 
ATOM    104  C   UNL A   1      46.238  27.537  36.562  1.00  0.00     0.200 A 
ATOM    105  F   UNL A   1      47.656  29.033  35.408  1.00  0.00    -0.200 F 
ATOM    106  F   UNL A   1      47.297  26.968  37.153  1.00  0.00    -0.200 F 
ENDBRANCH  73  96
ENDBRANCH  47  48
ENDBRANCH  39  42
ENDBRANCH  37  38
ENDBRANCH  36  37
ENDBRANCH   1  36
TORSDOF 15
ENDMDL
MODEL 2
REMARK VINA RESULT:     -13.9      0.681      1.712
REMARK SMILES C[C@@H](Oc1ccc(/C=C2\C(=O)[NH+]=C(NCCCCNC(=O)c3ccc(-c4c5nc(c(-c6c(F)c(F)c(F)c(F)c6F)c6ccc([nH]6)c(-c6c(F)c(F)c(F)c(F)c6F)c6nc(c(-c7c(F)c(F)c(F)c(F)c7F)c7ccc4[nH]7)C=C6)C=C5)cc3)N(c3ccc4c(c3)OCO4)C2=O)cc1)C(=O)[O-]
REMARK SMILES IDX 16 1 15 2 14 3 8 4 9 5 10 6 95 7 11 8 12 9 85 10 96 11 13 12
REMARK SMILES IDX 7 15 4 16 5 17 98 18 6 19 97 20 3 21 2 22 1 23 99 24 100 25
REMARK SMILES IDX 101 26 86 27 87 28 91 29 88 30 90 31 89 32 92 33 94 34 93 35
REMARK SMILES IDX 17 36 18 37 19 38 20 39 21 41 22 42 23 43 84 44 24 45 83 46
REMARK SMILES IDX 25 47 26 48 27 49 77 50 28 51 82 52 76 53 78 54 29 55 81 56
REMARK SMILES IDX 75 57 74 58 30 60 62 61 42 62 61 63 43 64 46 65 60 66 79 67
REMARK SMILES IDX 44 68 45 69 59 71 80 72 47 73 31 74 32 75 40 76 33 77 34 78
REMARK SMILES IDX 38 79 41 80 35 81 36 82 39 83 37 84 63 85 64 86 72 87 65 88
REMARK SMILES IDX 66 89 70 90 73 91 67 92 68 93 71 94 69 95 48 96 49 97 57 98
REMARK SMILES IDX 50 99 51 100 55 101 58 102 52 103 53 104 56 105 54 106
REMARK H PARENT 12 13 14 14 19 40 78 59 46 70
REMARK Flexibility Score: inf
ROOT
ATOM      1  C   UNL A   1      32.715  30.568  27.254  1.00  0.00     0.039 C 
ENDROOT
BRANCH   1   2
ATOM      2  C   UNL A   1      33.174  30.115  25.872  1.00  0.00     0.197 C 
BRANCH   2   3
ATOM      3  N   UNL A   1      32.034  29.921  24.996  1.00  0.00    -0.277 N 
ATOM      4  C   UNL A   1      30.373  25.050  23.653  1.00  0.00     0.031 C 
ATOM      5  C   UNL A   1      30.965  26.257  23.574  1.00  0.00     0.138 C 
ATOM      6  C   UNL A   1      32.380  26.562  23.839  1.00  0.00     0.321 C 
ATOM      7  C   UNL A   1      30.107  27.394  23.189  1.00  0.00     0.328 C 
ATOM      8  O   UNL A   1      33.283  25.789  23.544  1.00  0.00    -0.250 OA
ATOM      9  N   UNL A   1      32.599  27.759  24.454  1.00  0.00    -0.210 N 
ATOM     10  N   UNL A   1      30.586  28.629  23.612  1.00  0.00    -0.162 N 
ATOM     11  O   UNL A   1      29.059  27.216  22.568  1.00  0.00    -0.249 OA
ATOM     12  C   UNL A   1      31.764  28.745  24.339  1.00  0.00     0.366 C 
ATOM     13  H   UNL A   1      33.411  27.877  24.998  1.00  0.00     0.270 HD
ATOM     14  H   UNL A   1      31.416  30.676  24.866  1.00  0.00     0.260 HD
BRANCH   4  15
ATOM     15  C   UNL A   1      30.921  23.755  24.076  1.00  0.00    -0.024 A 
ATOM     16  C   UNL A   1      32.085  21.395  25.061  1.00  0.00     0.120 A 
ATOM     17  C   UNL A   1      32.163  21.697  23.705  1.00  0.00     0.047 A 
ATOM     18  C   UNL A   1      31.473  22.287  25.935  1.00  0.00     0.047 A 
ATOM     19  C   UNL A   1      31.593  22.878  23.216  1.00  0.00     0.012 A 
ATOM     20  C   UNL A   1      30.883  23.453  25.443  1.00  0.00     0.012 A 
BRANCH  16  21
ATOM     21  O   UNL A   1      32.750  20.289  25.508  1.00  0.00    -0.485 OA
BRANCH  21  22
ATOM     22  C   UNL A   1      33.155  19.386  24.470  1.00  0.00     0.216 C 
ATOM     23  C   UNL A   1      32.413  18.054  24.550  1.00  0.00     0.059 C 
BRANCH  22  24
ATOM     24  C   UNL A   1      34.641  19.094  24.644  1.00  0.00     0.082 C 
ATOM     25  O   UNL A   1      35.506  19.916  24.910  1.00  0.00    -0.546 OA
ATOM     26  O   UNL A   1      34.986  17.812  24.395  1.00  0.00    -0.546 OA
ENDBRANCH  22  24
ENDBRANCH  21  22
ENDBRANCH  16  21
ENDBRANCH   4  15
BRANCH  10  27
ATOM     27  C   UNL A   1      29.760  29.750  23.335  1.00  0.00     0.115 A 
ATOM     28  C   UNL A   1      29.689  30.813  24.261  1.00  0.00     0.048 A 
ATOM     29  C   UNL A   1      29.166  29.861  22.070  1.00  0.00     0.094 A 
ATOM     30  C   UNL A   1      29.073  32.018  23.904  1.00  0.00     0.054 A 
ATOM     31  C   UNL A   1      28.581  31.060  21.748  1.00  0.00     0.169 A 
ATOM     32  C   UNL A   1      28.550  32.116  22.631  1.00  0.00     0.166 A 
ATOM     33  O   UNL A   1      28.036  31.375  20.542  1.00  0.00    -0.453 OA
ATOM     34  O   UNL A   1      28.004  33.230  22.072  1.00  0.00    -0.454 OA
ATOM     35  C   UNL A   1      27.878  32.800  20.699  1.00  0.00     0.468 C 
ENDBRANCH  10  27
ENDBRANCH   2   3
ENDBRANCH   1   2
BRANCH   1  36
ATOM     36  C   UNL A   1      31.943  31.890  27.266  1.00  0.00     0.024 C 
BRANCH  36  37
ATOM     37  C   UNL A   1      32.741  33.115  26.830  1.00  0.00     0.116 C 
BRANCH  37  38
ATOM     38  N   UNL A   1      32.474  34.289  27.645  1.00  0.00    -0.352 N 
ATOM     39  C   UNL A   1      33.090  34.703  28.801  1.00  0.00     0.251 C 
ATOM     40  H   UNL A   1      31.750  34.872  27.322  1.00  0.00     0.163 HD
ATOM     41  O   UNL A   1      32.646  35.658  29.429  1.00  0.00    -0.269 OA
BRANCH  39  42
ATOM     42  C   UNL A   1      34.270  33.973  29.312  1.00  0.00     0.039 A 
ATOM     43  C   UNL A   1      35.545  34.435  28.973  1.00  0.00     0.014 A 
ATOM     44  C   UNL A   1      34.127  32.848  30.128  1.00  0.00     0.014 A 
ATOM     45  C   UNL A   1      36.674  33.812  29.509  1.00  0.00     0.010 A 
ATOM     46  C   UNL A   1      35.249  32.275  30.722  1.00  0.00     0.010 A 
ATOM     47  C   UNL A   1      36.535  32.751  30.421  1.00  0.00    -0.014 A 
BRANCH  47  48
ATOM     48  C   UNL A   1      37.719  32.139  31.075  1.00  0.00     0.031 A 
ATOM     49  C   UNL A   1      38.506  31.069  30.370  1.00  0.00     0.074 A 
ATOM     50  C   UNL A   1      38.050  32.501  32.330  1.00  0.00     0.049 A 
ATOM     51  N   UNL A   1      39.520  30.363  30.806  1.00  0.00    -0.248 NA
ATOM     52  C   UNL A   1      38.083  30.729  29.003  1.00  0.00     0.031 C 
ATOM     53  C   UNL A   1      37.341  33.496  33.139  1.00  0.00     0.029 A 
ATOM     54  N   UNL A   1      39.061  32.067  33.154  1.00  0.00    -0.354 N 
ATOM     55  C   UNL A   1      39.846  29.494  29.774  1.00  0.00     0.074 A 
ATOM     56  C   UNL A   1      38.889  29.719  28.712  1.00  0.00     0.031 C 
ATOM     57  C   UNL A   1      37.949  33.609  34.330  1.00  0.00     0.029 A 
ATOM     58  C   UNL A   1      39.063  32.667  34.389  1.00  0.00     0.049 A 
ATOM     59  H   UNL A   1      39.721  31.389  32.883  1.00  0.00     0.167 HD
ATOM     60  C   UNL A   1      40.866  28.605  29.708  1.00  0.00     0.037 A 
ATOM     61  C   UNL A   1      39.864  32.472  35.454  1.00  0.00     0.037 A 
ATOM     62  C   UNL A   1      41.830  28.396  30.757  1.00  0.00     0.049 A 
ATOM     63  C   UNL A   1      40.979  31.464  35.358  1.00  0.00     0.074 A 
ATOM     64  C   UNL A   1      42.928  27.554  30.764  1.00  0.00     0.029 A 
ATOM     65  N   UNL A   1      41.809  29.036  31.987  1.00  0.00    -0.354 N 
ATOM     66  N   UNL A   1      41.317  30.695  34.353  1.00  0.00    -0.248 NA
ATOM     67  C   UNL A   1      41.830  31.303  36.546  1.00  0.00     0.031 C 
ATOM     68  C   UNL A   1      43.544  27.648  32.016  1.00  0.00     0.029 A 
ATOM     69  C   UNL A   1      42.863  28.590  32.770  1.00  0.00     0.049 A 
ATOM     70  H   UNL A   1      41.144  29.707  32.264  1.00  0.00     0.167 HD
ATOM     71  C   UNL A   1      42.435  29.985  34.773  1.00  0.00     0.074 A 
ATOM     72  C   UNL A   1      42.728  30.428  36.118  1.00  0.00     0.031 C 
ATOM     73  C   UNL A   1      43.152  29.050  34.103  1.00  0.00     0.037 A 
BRANCH  60  74
ATOM     74  C   UNL A   1      41.002  27.790  28.453  1.00  0.00     0.064 A 
ATOM     75  C   UNL A   1      40.326  26.571  28.293  1.00  0.00     0.173 A 
ATOM     76  C   UNL A   1      41.771  28.259  27.378  1.00  0.00     0.173 A 
ATOM     77  F   UNL A   1      39.586  26.073  29.295  1.00  0.00    -0.203 F 
ATOM     78  C   UNL A   1      40.436  25.840  27.113  1.00  0.00     0.198 A 
ATOM     79  C   UNL A   1      41.853  27.541  26.187  1.00  0.00     0.198 A 
ATOM     80  F   UNL A   1      42.433  29.421  27.476  1.00  0.00    -0.203 F 
ATOM     81  F   UNL A   1      39.816  24.657  27.000  1.00  0.00    -0.200 F 
ATOM     82  C   UNL A   1      41.191  26.330  26.059  1.00  0.00     0.200 A 
ATOM     83  F   UNL A   1      42.571  28.022  25.164  1.00  0.00    -0.200 F 
ATOM     84  F   UNL A   1      41.284  25.631  24.919  1.00  0.00    -0.200 F 
ENDBRANCH  60  74
BRANCH  61  85
ATOM     85  C   UNL A   1      39.655  33.254  36.701  1.00  0.00     0.064 A 
ATOM     86  C   UNL A   1      40.366  34.440  36.938  1.00  0.00     0.173 A 
ATOM     87  C   UNL A   1      38.764  32.821  37.694  1.00  0.00     0.173 A 
ATOM     88  F   UNL A   1      41.245  34.885  36.029  1.00  0.00    -0.203 F 
ATOM     89  C   UNL A   1      40.216  35.146  38.130  1.00  0.00     0.198 A 
ATOM     90  C   UNL A   1      38.591  33.544  38.872  1.00  0.00     0.198 A 
ATOM     91  F   UNL A   1      38.056  31.695  37.518  1.00  0.00    -0.203 F 
ATOM     92  F   UNL A   1      40.950  36.243  38.354  1.00  0.00    -0.200 F 
ATOM     93  C   UNL A   1      39.325  34.699  39.094  1.00  0.00     0.200 A 
ATOM     94  F   UNL A   1      37.718  33.117  39.795  1.00  0.00    -0.200 F 
ATOM     95  F   UNL A   1      39.182  35.376  40.242  1.00  0.00    -0.200 F 
ENDBRANCH  61  85
BRANCH  73  96
ATOM     96  C   UNL A   1      44.353  28.474  34.798  1.00  0.00     0.064 A 
ATOM     97  C   UNL A   1      45.613  29.085  34.724  1.00  0.00     0.173 A 
ATOM     98  C   UNL A   1      44.229  27.316  35.582  1.00  0.00     0.173 A 
ATOM     99  F   UNL A   1      45.787  30.185  33.976  1.00  0.00    -0.203 F 
ATOM    100  C   UNL A   1      46.711  28.543  35.386  1.00  0.00     0.198 A 
ATOM    101  C   UNL A   1      45.321  26.795  36.269  1.00  0.00     0.198 A 
ATOM    102  F   UNL A   1      43.044  26.697  35.693  1.00  0.00    -0.203 F 
ATOM    103  F   UNL A   1      47.916  29.114  35.259  1.00  0.00    -0.200 F 
ATOM    104  C   UNL A   1      46.564  27.404  36.164  1.00  0.00     0.200 A 
ATOM    105  F   UNL A   1      45.173  25.704  37.033  1.00  0.00    -0.200 F 
ATOM    106  F   UNL A   1      47.619  26.887  36.806  1.00  0.00    -0.200 F 
ENDBRANCH  73  96
ENDBRANCH  47  48
ENDBRANCH  39  42
ENDBRANCH  37  38
ENDBRANCH  36  37
ENDBRANCH   1  36
TORSDOF 15
ENDMDL
MODEL 3
REMARK VINA RESULT:     -13.9      0.654      6.910
REMARK SMILES C[C@@H](Oc1ccc(/C=C2\C(=O)[NH+]=C(NCCCCNC(=O)c3ccc(-c4c5nc(c(-c6c(F)c(F)c(F)c(F)c6F)c6ccc([nH]6)c(-c6c(F)c(F)c(F)c(F)c6F)c6nc(c(-c7c(F)c(F)c(F)c(F)c7F)c7ccc4[nH]7)C=C6)C=C5)cc3)N(c3ccc4c(c3)OCO4)C2=O)cc1)C(=O)[O-]
REMARK SMILES IDX 16 1 15 2 14 3 8 4 9 5 10 6 95 7 11 8 12 9 85 10 96 11 13 12
REMARK SMILES IDX 7 15 4 16 5 17 98 18 6 19 97 20 3 21 2 22 1 23 99 24 100 25
REMARK SMILES IDX 101 26 86 27 87 28 91 29 88 30 90 31 89 32 92 33 94 34 93 35
REMARK SMILES IDX 17 36 18 37 19 38 20 39 21 41 22 42 23 43 84 44 24 45 83 46
REMARK SMILES IDX 25 47 26 48 27 49 77 50 28 51 82 52 76 53 78 54 29 55 81 56
REMARK SMILES IDX 75 57 74 58 30 60 62 61 42 62 61 63 43 64 46 65 60 66 79 67
REMARK SMILES IDX 44 68 45 69 59 71 80 72 47 73 31 74 32 75 40 76 33 77 34 78
REMARK SMILES IDX 38 79 41 80 35 81 36 82 39 83 37 84 63 85 64 86 72 87 65 88
REMARK SMILES IDX 66 89 70 90 73 91 67 92 68 93 71 94 69 95 48 96 49 97 57 98
REMARK SMILES IDX 50 99 51 100 55 101 58 102 52 103 53 104 56 105 54 106
REMARK H PARENT 12 13 14 14 19 40 78 59 46 70
REMARK Flexibility Score: inf
ROOT
ATOM      1  C   UNL A   1      32.473  30.852  27.272  1.00  0.00     0.039 C 
ENDROOT
BRANCH   1   2
ATOM      2  C   UNL A   1      32.992  30.350  25.928  1.00  0.00     0.197 C 
BRANCH   2   3
ATOM      3  N   UNL A   1      31.890  30.102  25.018  1.00  0.00    -0.277 N 
ATOM      4  C   UNL A   1      30.428  25.156  23.722  1.00  0.00     0.031 C 
ATOM      5  C   UNL A   1      30.985  26.379  23.638  1.00  0.00     0.138 C 
ATOM      6  C   UNL A   1      32.379  26.733  23.946  1.00  0.00     0.321 C 
ATOM      7  C   UNL A   1      30.106  27.480  23.199  1.00  0.00     0.328 C 
ATOM      8  O   UNL A   1      33.316  25.983  23.699  1.00  0.00    -0.250 OA
ATOM      9  N   UNL A   1      32.540  27.948  24.542  1.00  0.00    -0.210 N 
ATOM     10  N   UNL A   1      30.532  28.737  23.612  1.00  0.00    -0.162 N 
ATOM     11  O   UNL A   1      29.087  27.257  22.546  1.00  0.00    -0.249 OA
ATOM     12  C   UNL A   1      31.680  28.905  24.377  1.00  0.00     0.366 C 
ATOM     13  H   UNL A   1      33.328  28.102  25.111  1.00  0.00     0.270 HD
ATOM     14  H   UNL A   1      31.254  30.834  24.850  1.00  0.00     0.260 HD
BRANCH   4  15
ATOM     15  C   UNL A   1      31.000  23.887  24.192  1.00  0.00    -0.024 A 
ATOM     16  C   UNL A   1      31.974  21.351  24.911  1.00  0.00     0.120 A 
ATOM     17  C   UNL A   1      31.405  22.179  25.874  1.00  0.00     0.047 A 
ATOM     18  C   UNL A   1      32.016  21.763  23.583  1.00  0.00     0.047 A 
ATOM     19  C   UNL A   1      30.909  23.437  25.514  1.00  0.00     0.012 A 
ATOM     20  C   UNL A   1      31.544  23.028  23.229  1.00  0.00     0.012 A 
BRANCH  16  21
ATOM     21  O   UNL A   1      32.342  20.092  25.288  1.00  0.00    -0.485 OA
BRANCH  21  22
ATOM     22  C   UNL A   1      32.901  19.300  24.230  1.00  0.00     0.216 C 
ATOM     23  C   UNL A   1      32.209  17.945  24.104  1.00  0.00     0.059 C 
BRANCH  22  24
ATOM     24  C   UNL A   1      34.367  19.037  24.554  1.00  0.00     0.082 C 
ATOM     25  O   UNL A   1      34.915  17.945  24.553  1.00  0.00    -0.546 OA
ATOM     26  O   UNL A   1      35.052  20.133  24.946  1.00  0.00    -0.546 OA
ENDBRANCH  22  24
ENDBRANCH  21  22
ENDBRANCH  16  21
ENDBRANCH   4  15
BRANCH  10  27
ATOM     27  C   UNL A   1      29.683  29.826  23.282  1.00  0.00     0.115 A 
ATOM     28  C   UNL A   1      29.518  30.887  24.199  1.00  0.00     0.048 A 
ATOM     29  C   UNL A   1      29.161  29.913  21.985  1.00  0.00     0.094 A 
ATOM     30  C   UNL A   1      28.879  32.068  23.801  1.00  0.00     0.054 A 
ATOM     31  C   UNL A   1      28.551  31.089  21.624  1.00  0.00     0.169 A 
ATOM     32  C   UNL A   1      28.429  32.144  22.499  1.00  0.00     0.166 A 
ATOM     33  O   UNL A   1      28.067  31.380  20.387  1.00  0.00    -0.453 OA
ATOM     34  O   UNL A   1      27.875  33.236  21.905  1.00  0.00    -0.454 OA
ATOM     35  C   UNL A   1      27.847  32.799  20.528  1.00  0.00     0.468 C 
ENDBRANCH  10  27
ENDBRANCH   2   3
ENDBRANCH   1   2
BRANCH   1  36
ATOM     36  C   UNL A   1      31.928  32.283  27.248  1.00  0.00     0.024 C 
BRANCH  36  37
ATOM     37  C   UNL A   1      32.985  33.381  27.193  1.00  0.00     0.116 C 
BRANCH  37  38
ATOM     38  N   UNL A   1      32.593  34.586  27.905  1.00  0.00    -0.352 N 
ATOM     39  C   UNL A   1      33.094  35.108  29.074  1.00  0.00     0.251 C 
ATOM     40  H   UNL A   1      31.866  35.104  27.490  1.00  0.00     0.163 HD
ATOM     41  O   UNL A   1      32.551  36.073  29.601  1.00  0.00    -0.269 OA
BRANCH  39  42
ATOM     42  C   UNL A   1      34.268  34.482  29.719  1.00  0.00     0.039 A 
ATOM     43  C   UNL A   1      34.072  33.717  30.872  1.00  0.00     0.014 A 
ATOM     44  C   UNL A   1      35.552  34.636  29.190  1.00  0.00     0.014 A 
ATOM     45  C   UNL A   1      35.153  33.048  31.453  1.00  0.00     0.010 A 
ATOM     46  C   UNL A   1      36.613  33.910  29.725  1.00  0.00     0.010 A 
ATOM     47  C   UNL A   1      36.425  33.107  30.860  1.00  0.00    -0.014 A 
BRANCH  47  48
ATOM     48  C   UNL A   1      37.565  32.327  31.407  1.00  0.00     0.031 A 
ATOM     49  C   UNL A   1      38.122  32.650  32.766  1.00  0.00     0.074 A 
ATOM     50  C   UNL A   1      38.139  31.368  30.655  1.00  0.00     0.049 A 
ATOM     51  N   UNL A   1      39.159  32.136  33.381  1.00  0.00    -0.248 NA
ATOM     52  C   UNL A   1      37.440  33.710  33.525  1.00  0.00     0.031 C 
ATOM     53  C   UNL A   1      37.721  30.987  29.304  1.00  0.00     0.029 A 
ATOM     54  N   UNL A   1      39.208  30.543  30.913  1.00  0.00    -0.354 N 
ATOM     55  C   UNL A   1      39.256  32.815  34.588  1.00  0.00     0.074 A 
ATOM     56  C   UNL A   1      38.211  33.815  34.598  1.00  0.00     0.031 C 
ATOM     57  C   UNL A   1      38.509  29.995  28.862  1.00  0.00     0.029 A 
ATOM     58  C   UNL A   1      39.515  29.696  29.877  1.00  0.00     0.049 A 
ATOM     59  H   UNL A   1      39.707  30.560  31.762  1.00  0.00     0.167 HD
ATOM     60  C   UNL A   1      40.123  32.605  35.607  1.00  0.00     0.037 A 
ATOM     61  C   UNL A   1      40.502  28.788  29.754  1.00  0.00     0.037 A 
ATOM     62  C   UNL A   1      41.150  31.595  35.606  1.00  0.00     0.049 A 
ATOM     63  C   UNL A   1      41.463  28.590  30.896  1.00  0.00     0.074 A 
ATOM     64  C   UNL A   1      42.045  31.273  36.611  1.00  0.00     0.029 A 
ATOM     65  N   UNL A   1      41.418  30.744  34.544  1.00  0.00    -0.354 N 
ATOM     66  N   UNL A   1      41.505  29.193  32.059  1.00  0.00    -0.248 NA
ATOM     67  C   UNL A   1      42.513  27.577  30.710  1.00  0.00     0.031 C 
ATOM     68  C   UNL A   1      42.886  30.260  36.140  1.00  0.00     0.029 A 
ATOM     69  C   UNL A   1      42.480  29.911  34.862  1.00  0.00     0.049 A 
ATOM     70  H   UNL A   1      40.927  30.732  33.690  1.00  0.00     0.167 HD
ATOM     71  C   UNL A   1      42.558  28.612  32.754  1.00  0.00     0.074 A 
ATOM     72  C   UNL A   1      43.119  27.597  31.888  1.00  0.00     0.031 C 
ATOM     73  C   UNL A   1      43.019  28.896  33.996  1.00  0.00     0.037 A 
BRANCH  60  74
ATOM     74  C   UNL A   1      39.999  33.481  36.821  1.00  0.00     0.064 A 
ATOM     75  C   UNL A   1      39.091  33.185  37.849  1.00  0.00     0.173 A 
ATOM     76  C   UNL A   1      40.833  34.597  36.985  1.00  0.00     0.173 A 
ATOM     77  F   UNL A   1      38.262  32.136  37.738  1.00  0.00    -0.203 F 
ATOM     78  C   UNL A   1      39.006  33.989  38.984  1.00  0.00     0.198 A 
ATOM     79  C   UNL A   1      40.768  35.379  38.135  1.00  0.00     0.198 A 
ATOM     80  F   UNL A   1      41.723  34.921  36.035  1.00  0.00    -0.203 F 
ATOM     81  F   UNL A   1      38.100  33.712  39.932  1.00  0.00    -0.200 F 
ATOM     82  C   UNL A   1      39.851  35.079  39.130  1.00  0.00     0.200 A 
ATOM     83  F   UNL A   1      41.594  36.423  38.281  1.00  0.00    -0.200 F 
ATOM     84  F   UNL A   1      39.776  35.843  40.229  1.00  0.00    -0.200 F 
ENDBRANCH  60  74
BRANCH  61  85
ATOM     85  C   UNL A   1      40.630  27.986  28.508  1.00  0.00     0.064 A 
ATOM     86  C   UNL A   1      40.021  26.727  28.395  1.00  0.00     0.173 A 
ATOM     87  C   UNL A   1      41.384  28.445  27.418  1.00  0.00     0.173 A 
ATOM     88  F   UNL A   1      39.308  26.235  29.417  1.00  0.00    -0.203 F 
ATOM     89  C   UNL A   1      40.186  25.947  27.252  1.00  0.00     0.198 A 
ATOM     90  C   UNL A   1      41.521  27.677  26.263  1.00  0.00     0.198 A 
ATOM     91  F   UNL A   1      41.984  29.643  27.473  1.00  0.00    -0.203 F 
ATOM     92  F   UNL A   1      39.641  24.724  27.194  1.00  0.00    -0.200 F 
ATOM     93  C   UNL A   1      40.932  26.424  26.185  1.00  0.00     0.200 A 
ATOM     94  F   UNL A   1      42.231  28.150  25.229  1.00  0.00    -0.200 F 
ATOM     95  F   UNL A   1      41.091  25.674  25.087  1.00  0.00    -0.200 F 
ENDBRANCH  61  85
BRANCH  73  96
ATOM     96  C   UNL A   1      44.160  28.067  34.515  1.00  0.00     0.064 A 
ATOM     97  C   UNL A   1      45.495  28.475  34.370  1.00  0.00     0.173 A 
ATOM     98  C   UNL A   1      43.910  26.869  35.200  1.00  0.00     0.173 A 
ATOM     99  F   UNL A   1      45.788  29.606  33.710  1.00  0.00    -0.203 F 
ATOM    100  C   UNL A   1      46.537  27.700  34.869  1.00  0.00     0.198 A 
ATOM    101  C   UNL A   1      44.953  26.112  35.727  1.00  0.00     0.198 A 
ATOM    102  F   UNL A   1      42.652  26.437  35.373  1.00  0.00    -0.203 F 
ATOM    103  F   UNL A   1      47.807  28.083  34.675  1.00  0.00    -0.200 F 
ATOM    104  C   UNL A   1      46.267  26.524  35.553  1.00  0.00     0.200 A 
ATOM    105  F   UNL A   1      44.688  24.985  36.401  1.00  0.00    -0.200 F 
ATOM    106  F   UNL A   1      47.271  25.782  36.039  1.00  0.00    -0.200 F 
ENDBRANCH  73  96
ENDBRANCH  47  48
ENDBRANCH  39  42
ENDBRANCH  37  38
ENDBRANCH  36  37
ENDBRANCH   1  36
TORSDOF 15
ENDMDL
