MODEL 1
REMARK VINA RESULT:     -12.2      0.000      0.000
REMARK SMILES C[C@]([NH2+]Cc1noc(C2CC2)n1)(C(=O)NCCCCNC(=O)c1ccc(-c2c3nc(c(-c4c(F)c(F)c(F)c(F)c4F)c4ccc([nH]4)c(-c4c(F)c(F)c(F)c(F)c4F)c4nc(c(-c5c(F)c(F)c(F)c(F)c5F)c5ccc2[nH]5)C=C4)C=C3)cc1)C(F)(F)F
REMARK SMILES IDX 16 1 15 2 13 3 14 4 2 6 1 7 86 8 87 9 88 10 89 11 3 12 4 15
REMARK SMILES IDX 5 16 6 17 12 18 7 19 8 20 9 21 10 22 11 23 17 24 18 25 19 26
REMARK SMILES IDX 20 27 21 28 22 30 23 31 24 32 85 33 25 34 84 35 26 36 27 37
REMARK SMILES IDX 28 38 78 39 29 40 83 41 77 42 79 43 30 44 82 45 76 46 75 47
REMARK SMILES IDX 31 49 63 50 43 51 62 52 44 53 47 54 61 55 80 56 45 57 46 58
REMARK SMILES IDX 60 60 81 61 48 62 32 63 33 64 41 65 34 66 35 67 39 68 42 69
REMARK SMILES IDX 36 70 37 71 40 72 38 73 64 74 65 75 73 76 66 77 67 78 71 79
REMARK SMILES IDX 74 80 68 81 69 82 72 83 70 84 49 85 50 86 58 87 51 88 52 89
REMARK SMILES IDX 56 90 59 91 53 92 54 93 57 94 55 95
REMARK H PARENT 15 5 3 13 3 14 20 29 79 48 47 59
REMARK Flexibility Score: inf
ROOT
ATOM      1  C   UNL A   1      31.407  29.978  25.274  1.00  0.00     0.116 C 
ENDROOT
BRANCH   1   2
ATOM      2  N   UNL A   1      32.510  29.580  24.420  1.00  0.00    -0.350 N 
ATOM      3  C   UNL A   1      33.075  28.365  24.137  1.00  0.00     0.290 C 
ATOM      4  O   UNL A   1      34.041  28.409  23.371  1.00  0.00    -0.267 OA
ATOM      5  H   UNL A   1      32.937  30.333  23.951  1.00  0.00     0.163 HD
BRANCH   3   6
ATOM      6  C   UNL A   1      32.533  27.038  24.734  1.00  0.00     0.268 C 
ATOM      7  C   UNL A   1      33.067  25.842  23.916  1.00  0.00     0.101 C 
BRANCH   6   8
ATOM      8  C   UNL A   1      33.166  26.937  26.158  1.00  0.00     0.453 C 
ATOM      9  F   UNL A   1      34.168  27.818  26.365  1.00  0.00    -0.164 F 
ATOM     10  F   UNL A   1      32.220  27.209  27.103  1.00  0.00    -0.164 F 
ATOM     11  F   UNL A   1      33.616  25.692  26.437  1.00  0.00    -0.164 F 
ENDBRANCH   6   8
BRANCH   6  12
ATOM     12  N   UNL A   1      31.033  27.117  24.695  1.00  0.00    -0.320 N 
ATOM     13  H   UNL A   1      30.760  28.077  24.907  1.00  0.00     0.347 HD
ATOM     14  H   UNL A   1      30.693  26.439  25.376  1.00  0.00     0.347 HD
BRANCH  12  15
ATOM     15  C   UNL A   1      30.426  26.745  23.408  1.00  0.00     0.344 C 
BRANCH  15  16
ATOM     16  C   UNL A   1      29.920  27.987  22.739  1.00  0.00     0.226 A 
ATOM     17  N   UNL A   1      30.561  28.544  21.699  1.00  0.00    -0.056 NA
ATOM     18  N   UNL A   1      28.814  28.674  23.171  1.00  0.00    -0.190 NA
ATOM     19  O   UNL A   1      29.806  29.692  21.444  1.00  0.00    -0.339 OA
ATOM     20  C   UNL A   1      28.791  29.711  22.363  1.00  0.00     0.229 A 
BRANCH  20  21
ATOM     21  C   UNL A   1      27.766  30.832  22.432  1.00  0.00     0.079 C 
ATOM     22  C   UNL A   1      27.310  31.327  23.789  1.00  0.00     0.014 C 
ATOM     23  C   UNL A   1      28.211  32.181  22.964  1.00  0.00     0.014 C 
ENDBRANCH  20  21
ENDBRANCH  15  16
ENDBRANCH  12  15
ENDBRANCH   6  12
ENDBRANCH   3   6
ENDBRANCH   1   2
BRANCH   1  24
ATOM     24  C   UNL A   1      31.891  30.529  26.613  1.00  0.00     0.023 C 
BRANCH  24  25
ATOM     25  C   UNL A   1      31.603  32.016  26.833  1.00  0.00     0.023 C 
BRANCH  25  26
ATOM     26  C   UNL A   1      32.805  32.862  27.243  1.00  0.00     0.116 C 
BRANCH  26  27
ATOM     27  N   UNL A   1      32.450  34.219  27.626  1.00  0.00    -0.352 N 
ATOM     28  C   UNL A   1      32.993  35.013  28.607  1.00  0.00     0.251 C 
ATOM     29  H   UNL A   1      31.718  34.627  27.110  1.00  0.00     0.163 HD
ATOM     30  O   UNL A   1      32.492  36.101  28.871  1.00  0.00    -0.269 OA
BRANCH  28  31
ATOM     31  C   UNL A   1      34.163  34.534  29.375  1.00  0.00     0.039 A 
ATOM     32  C   UNL A   1      33.953  33.962  30.632  1.00  0.00     0.014 A 
ATOM     33  C   UNL A   1      35.454  34.628  28.849  1.00  0.00     0.014 A 
ATOM     34  C   UNL A   1      35.032  33.417  31.331  1.00  0.00     0.010 A 
ATOM     35  C   UNL A   1      36.515  34.021  29.515  1.00  0.00     0.010 A 
ATOM     36  C   UNL A   1      36.315  33.406  30.760  1.00  0.00    -0.014 A 
BRANCH  36  37
ATOM     37  C   UNL A   1      37.457  32.749  31.444  1.00  0.00     0.031 A 
ATOM     38  C   UNL A   1      38.163  31.592  30.796  1.00  0.00     0.074 A 
ATOM     39  C   UNL A   1      37.811  33.149  32.681  1.00  0.00     0.049 A 
ATOM     40  N   UNL A   1      39.130  30.842  31.265  1.00  0.00    -0.248 NA
ATOM     41  C   UNL A   1      37.705  31.206  29.452  1.00  0.00     0.031 C 
ATOM     42  C   UNL A   1      37.173  34.228  33.436  1.00  0.00     0.029 A 
ATOM     43  N   UNL A   1      38.789  32.688  33.527  1.00  0.00    -0.354 N 
ATOM     44  C   UNL A   1      39.381  29.892  30.284  1.00  0.00     0.074 A 
ATOM     45  C   UNL A   1      38.434  30.126  29.216  1.00  0.00     0.031 C 
ATOM     46  C   UNL A   1      37.789  34.360  34.622  1.00  0.00     0.029 A 
ATOM     47  C   UNL A   1      38.838  33.352  34.728  1.00  0.00     0.049 A 
ATOM     48  H   UNL A   1      39.397  31.949  33.294  1.00  0.00     0.167 HD
ATOM     49  C   UNL A   1      40.331  28.927  30.268  1.00  0.00     0.037 A 
ATOM     50  C   UNL A   1      39.635  33.162  35.798  1.00  0.00     0.037 A 
ATOM     51  C   UNL A   1      41.290  28.715  31.320  1.00  0.00     0.049 A 
ATOM     52  C   UNL A   1      40.677  32.077  35.754  1.00  0.00     0.074 A 
ATOM     53  C   UNL A   1      42.335  27.809  31.366  1.00  0.00     0.029 A 
ATOM     54  N   UNL A   1      41.320  29.420  32.515  1.00  0.00    -0.354 N 
ATOM     55  N   UNL A   1      40.956  31.234  34.790  1.00  0.00    -0.248 NA
ATOM     56  C   UNL A   1      41.522  31.923  36.948  1.00  0.00     0.031 C 
ATOM     57  C   UNL A   1      42.965  27.931  32.608  1.00  0.00     0.029 A 
ATOM     58  C   UNL A   1      42.348  28.950  33.315  1.00  0.00     0.049 A 
ATOM     59  H   UNL A   1      40.701  30.146  32.758  1.00  0.00     0.167 HD
ATOM     60  C   UNL A   1      42.023  30.472  35.245  1.00  0.00     0.074 A 
ATOM     61  C   UNL A   1      42.353  30.963  36.566  1.00  0.00     0.031 C 
ATOM     62  C   UNL A   1      42.672  29.458  34.623  1.00  0.00     0.037 A 
BRANCH  49  63
ATOM     63  C   UNL A   1      40.383  28.023  29.070  1.00  0.00     0.064 A 
ATOM     64  C   UNL A   1      39.643  26.832  29.012  1.00  0.00     0.173 A 
ATOM     65  C   UNL A   1      41.149  28.373  27.947  1.00  0.00     0.173 A 
ATOM     66  F   UNL A   1      38.903  26.446  30.063  1.00  0.00    -0.203 F 
ATOM     67  C   UNL A   1      39.690  26.013  27.888  1.00  0.00     0.198 A 
ATOM     68  C   UNL A   1      41.169  27.567  26.812  1.00  0.00     0.198 A 
ATOM     69  F   UNL A   1      41.872  29.504  27.946  1.00  0.00    -0.203 F 
ATOM     70  F   UNL A   1      39.013  24.856  27.876  1.00  0.00    -0.200 F 
ATOM     71  C   UNL A   1      40.445  26.384  26.786  1.00  0.00     0.200 A 
ATOM     72  F   UNL A   1      41.889  27.934  25.744  1.00  0.00    -0.200 F 
ATOM     73  F   UNL A   1      40.483  25.598  25.701  1.00  0.00    -0.200 F 
ENDBRANCH  49  63
BRANCH  50  74
ATOM     74  C   UNL A   1      39.498  34.035  36.994  1.00  0.00     0.064 A 
ATOM     75  C   UNL A   1      40.146  35.276  37.056  1.00  0.00     0.173 A 
ATOM     76  C   UNL A   1      38.732  33.643  38.102  1.00  0.00     0.173 A 
ATOM     77  F   UNL A   1      40.907  35.684  36.030  1.00  0.00    -0.203 F 
ATOM     78  C   UNL A   1      40.054  36.082  38.188  1.00  0.00     0.198 A 
ATOM     79  C   UNL A   1      38.617  34.463  39.222  1.00  0.00     0.198 A 
ATOM     80  F   UNL A   1      38.088  32.467  38.091  1.00  0.00    -0.203 F 
ATOM     81  F   UNL A   1      40.725  37.239  38.240  1.00  0.00    -0.200 F 
ATOM     82  C   UNL A   1      39.285  35.677  39.269  1.00  0.00     0.200 A 
ATOM     83  F   UNL A   1      37.861  34.074  40.259  1.00  0.00    -0.200 F 
ATOM     84  F   UNL A   1      39.196  36.452  40.358  1.00  0.00    -0.200 F 
ENDBRANCH  50  74
BRANCH  62  85
ATOM     85  C   UNL A   1      43.832  28.836  35.347  1.00  0.00     0.064 A 
ATOM     86  C   UNL A   1      45.146  29.290  35.162  1.00  0.00     0.173 A 
ATOM     87  C   UNL A   1      43.618  27.800  36.268  1.00  0.00     0.173 A 
ATOM     88  F   UNL A   1      45.405  30.269  34.282  1.00  0.00    -0.203 F 
ATOM     89  C   UNL A   1      46.207  28.711  35.855  1.00  0.00     0.198 A 
ATOM     90  C   UNL A   1      44.676  27.244  36.982  1.00  0.00     0.198 A 
ATOM     91  F   UNL A   1      42.379  27.334  36.487  1.00  0.00    -0.203 F 
ATOM     92  F   UNL A   1      47.460  29.127  35.625  1.00  0.00    -0.200 F 
ATOM     93  C   UNL A   1      45.971  27.695  36.769  1.00  0.00     0.200 A 
ATOM     94  F   UNL A   1      44.445  26.273  37.875  1.00  0.00    -0.200 F 
ATOM     95  F   UNL A   1      46.992  27.144  37.440  1.00  0.00    -0.200 F 
ENDBRANCH  62  85
ENDBRANCH  36  37
ENDBRANCH  28  31
ENDBRANCH  26  27
ENDBRANCH  25  26
ENDBRANCH  24  25
ENDBRANCH   1  24
TORSDOF 16
ENDMDL
MODEL 2
REMARK VINA RESULT:     -11.9      0.485      2.077
REMARK SMILES C[C@]([NH2+]Cc1noc(C2CC2)n1)(C(=O)NCCCCNC(=O)c1ccc(-c2c3nc(c(-c4c(F)c(F)c(F)c(F)c4F)c4ccc([nH]4)c(-c4c(F)c(F)c(F)c(F)c4F)c4nc(c(-c5c(F)c(F)c(F)c(F)c5F)c5ccc2[nH]5)C=C4)C=C3)cc1)C(F)(F)F
REMARK SMILES IDX 16 1 15 2 13 3 14 4 2 6 1 7 86 8 87 9 88 10 89 11 3 12 4 15
REMARK SMILES IDX 5 16 6 17 12 18 7 19 8 20 9 21 10 22 11 23 17 24 18 25 19 26
REMARK SMILES IDX 20 27 21 28 22 30 23 31 24 32 85 33 25 34 84 35 26 36 27 37
REMARK SMILES IDX 28 38 78 39 29 40 83 41 77 42 79 43 30 44 82 45 76 46 75 47
REMARK SMILES IDX 31 49 63 50 43 51 62 52 44 53 47 54 61 55 80 56 45 57 46 58
REMARK SMILES IDX 60 60 81 61 48 62 32 63 33 64 41 65 34 66 35 67 39 68 42 69
REMARK SMILES IDX 36 70 37 71 40 72 38 73 64 74 65 75 73 76 66 77 67 78 71 79
REMARK SMILES IDX 74 80 68 81 69 82 72 83 70 84 49 85 50 86 58 87 51 88 52 89
REMARK SMILES IDX 56 90 59 91 53 92 54 93 57 94 55 95
REMARK H PARENT 15 5 3 13 3 14 20 29 79 48 47 59
REMARK Flexibility Score: inf
ROOT
ATOM      1  C   UNL A   1      31.413  29.805  25.509  1.00  0.00     0.116 C 
ENDROOT
BRANCH   1   2
ATOM      2  N   UNL A   1      32.486  29.681  24.541  1.00  0.00    -0.350 N 
ATOM      3  C   UNL A   1      33.161  28.602  24.034  1.00  0.00     0.290 C 
ATOM      4  O   UNL A   1      34.055  28.881  23.231  1.00  0.00    -0.267 OA
ATOM      5  H   UNL A   1      32.788  30.543  24.174  1.00  0.00     0.163 HD
BRANCH   3   6
ATOM      6  C   UNL A   1      32.818  27.143  24.440  1.00  0.00     0.268 C 
ATOM      7  C   UNL A   1      33.570  26.156  23.520  1.00  0.00     0.101 C 
BRANCH   6   8
ATOM      8  C   UNL A   1      33.404  26.967  25.877  1.00  0.00     0.453 C 
ATOM      9  F   UNL A   1      32.465  26.975  26.847  1.00  0.00    -0.164 F 
ATOM     10  F   UNL A   1      34.036  25.761  25.971  1.00  0.00    -0.164 F 
ATOM     11  F   UNL A   1      34.343  27.896  26.170  1.00  0.00    -0.164 F 
ENDBRANCH   6   8
BRANCH   6  12
ATOM     12  N   UNL A   1      31.328  26.991  24.324  1.00  0.00    -0.320 N 
ATOM     13  H   UNL A   1      30.891  27.792  24.781  1.00  0.00     0.347 HD
ATOM     14  H   UNL A   1      31.097  26.099  24.760  1.00  0.00     0.347 HD
BRANCH  12  15
ATOM     15  C   UNL A   1      30.818  26.918  22.946  1.00  0.00     0.344 C 
BRANCH  15  16
ATOM     16  C   UNL A   1      29.897  28.078  22.713  1.00  0.00     0.226 A 
ATOM     17  N   UNL A   1      28.610  28.050  23.094  1.00  0.00    -0.056 NA
ATOM     18  N   UNL A   1      30.278  29.214  22.046  1.00  0.00    -0.190 NA
ATOM     19  O   UNL A   1      28.118  29.272  22.626  1.00  0.00    -0.339 OA
ATOM     20  C   UNL A   1      29.161  29.907  22.006  1.00  0.00     0.229 A 
BRANCH  20  21
ATOM     21  C   UNL A   1      29.013  31.263  21.332  1.00  0.00     0.079 C 
ATOM     22  C   UNL A   1      27.674  31.968  21.387  1.00  0.00     0.014 C 
ATOM     23  C   UNL A   1      28.806  32.482  22.208  1.00  0.00     0.014 C 
ENDBRANCH  20  21
ENDBRANCH  15  16
ENDBRANCH  12  15
ENDBRANCH   6  12
ENDBRANCH   3   6
ENDBRANCH   1   2
BRANCH   1  24
ATOM     24  C   UNL A   1      31.872  30.509  26.783  1.00  0.00     0.023 C 
BRANCH  24  25
ATOM     25  C   UNL A   1      31.611  32.017  26.810  1.00  0.00     0.023 C 
BRANCH  25  26
ATOM     26  C   UNL A   1      32.809  32.883  27.185  1.00  0.00     0.116 C 
BRANCH  26  27
ATOM     27  N   UNL A   1      32.441  34.226  27.604  1.00  0.00    -0.352 N 
ATOM     28  C   UNL A   1      32.980  35.000  28.602  1.00  0.00     0.251 C 
ATOM     29  H   UNL A   1      31.701  34.638  27.103  1.00  0.00     0.163 HD
ATOM     30  O   UNL A   1      32.467  36.076  28.897  1.00  0.00    -0.269 OA
BRANCH  28  31
ATOM     31  C   UNL A   1      34.160  34.516  29.351  1.00  0.00     0.039 A 
ATOM     32  C   UNL A   1      33.964  33.906  30.593  1.00  0.00     0.014 A 
ATOM     33  C   UNL A   1      35.447  34.643  28.822  1.00  0.00     0.014 A 
ATOM     34  C   UNL A   1      35.054  33.356  31.271  1.00  0.00     0.010 A 
ATOM     35  C   UNL A   1      36.520  34.032  29.465  1.00  0.00     0.010 A 
ATOM     36  C   UNL A   1      36.334  33.379  30.693  1.00  0.00    -0.014 A 
BRANCH  36  37
ATOM     37  C   UNL A   1      37.488  32.718  31.354  1.00  0.00     0.031 A 
ATOM     38  C   UNL A   1      38.189  31.571  30.683  1.00  0.00     0.074 A 
ATOM     39  C   UNL A   1      37.859  33.107  32.589  1.00  0.00     0.049 A 
ATOM     40  N   UNL A   1      39.164  30.820  31.129  1.00  0.00    -0.248 NA
ATOM     41  C   UNL A   1      37.712  31.198  29.342  1.00  0.00     0.031 C 
ATOM     42  C   UNL A   1      37.229  34.176  33.365  1.00  0.00     0.029 A 
ATOM     43  N   UNL A   1      38.851  32.640  33.416  1.00  0.00    -0.354 N 
ATOM     44  C   UNL A   1      39.403  29.881  30.135  1.00  0.00     0.074 A 
ATOM     45  C   UNL A   1      38.440  30.123  29.083  1.00  0.00     0.031 C 
ATOM     46  C   UNL A   1      37.862  34.297  34.543  1.00  0.00     0.029 A 
ATOM     47  C   UNL A   1      38.916  33.291  34.623  1.00  0.00     0.049 A 
ATOM     48  H   UNL A   1      39.458  31.905  33.166  1.00  0.00     0.167 HD
ATOM     49  C   UNL A   1      40.356  28.919  30.094  1.00  0.00     0.037 A 
ATOM     50  C   UNL A   1      39.729  33.093  35.679  1.00  0.00     0.037 A 
ATOM     51  C   UNL A   1      41.332  28.700  31.130  1.00  0.00     0.049 A 
ATOM     52  C   UNL A   1      40.774  32.012  35.608  1.00  0.00     0.074 A 
ATOM     53  C   UNL A   1      42.380  27.796  31.151  1.00  0.00     0.029 A 
ATOM     54  N   UNL A   1      41.377  29.392  32.331  1.00  0.00    -0.354 N 
ATOM     55  N   UNL A   1      41.041  31.180  34.631  1.00  0.00    -0.248 NA
ATOM     56  C   UNL A   1      41.637  31.848  36.787  1.00  0.00     0.031 C 
ATOM     57  C   UNL A   1      43.029  27.907  32.384  1.00  0.00     0.029 A 
ATOM     58  C   UNL A   1      42.419  28.917  33.111  1.00  0.00     0.049 A 
ATOM     59  H   UNL A   1      40.759  30.113  32.592  1.00  0.00     0.167 HD
ATOM     60  C   UNL A   1      42.117  30.417  35.062  1.00  0.00     0.074 A 
ATOM     61  C   UNL A   1      42.465  30.895  36.384  1.00  0.00     0.031 C 
ATOM     62  C   UNL A   1      42.761  29.412  34.420  1.00  0.00     0.037 A 
BRANCH  49  63
ATOM     63  C   UNL A   1      40.394  28.028  28.886  1.00  0.00     0.064 A 
ATOM     64  C   UNL A   1      41.153  28.356  27.752  1.00  0.00     0.173 A 
ATOM     65  C   UNL A   1      39.698  26.810  28.878  1.00  0.00     0.173 A 
ATOM     66  F   UNL A   1      41.829  29.514  27.704  1.00  0.00    -0.203 F 
ATOM     67  C   UNL A   1      41.190  27.511  26.646  1.00  0.00     0.198 A 
ATOM     68  C   UNL A   1      39.762  25.953  27.783  1.00  0.00     0.198 A 
ATOM     69  F   UNL A   1      38.961  26.444  29.938  1.00  0.00    -0.203 F 
ATOM     70  F   UNL A   1      41.883  27.869  25.556  1.00  0.00    -0.200 F 
ATOM     71  C   UNL A   1      40.503  26.308  26.664  1.00  0.00     0.200 A 
ATOM     72  F   UNL A   1      39.107  24.784  27.808  1.00  0.00    -0.200 F 
ATOM     73  F   UNL A   1      40.546  25.492  25.602  1.00  0.00    -0.200 F 
ENDBRANCH  49  63
BRANCH  50  74
ATOM     74  C   UNL A   1      39.607  33.952  36.886  1.00  0.00     0.064 A 
ATOM     75  C   UNL A   1      38.824  33.550  37.977  1.00  0.00     0.173 A 
ATOM     76  C   UNL A   1      40.253  35.194  36.969  1.00  0.00     0.173 A 
ATOM     77  F   UNL A   1      38.170  32.380  37.936  1.00  0.00    -0.203 F 
ATOM     78  C   UNL A   1      38.673  34.367  39.096  1.00  0.00     0.198 A 
ATOM     79  C   UNL A   1      40.125  35.998  38.100  1.00  0.00     0.198 A 
ATOM     80  F   UNL A   1      41.016  35.623  35.954  1.00  0.00    -0.203 F 
ATOM     81  F   UNL A   1      37.879  33.980  40.103  1.00  0.00    -0.200 F 
ATOM     82  C   UNL A   1      39.328  35.588  39.159  1.00  0.00     0.200 A 
ATOM     83  F   UNL A   1      40.770  37.170  38.163  1.00  0.00    -0.200 F 
ATOM     84  F   UNL A   1      39.183  36.373  40.234  1.00  0.00    -0.200 F 
ENDBRANCH  50  74
BRANCH  62  85
ATOM     85  C   UNL A   1      43.933  28.786  35.120  1.00  0.00     0.064 A 
ATOM     86  C   UNL A   1      43.777  27.705  36.000  1.00  0.00     0.173 A 
ATOM     87  C   UNL A   1      45.234  29.250  34.873  1.00  0.00     0.173 A 
ATOM     88  F   UNL A   1      42.552  27.234  36.280  1.00  0.00    -0.203 F 
ATOM     89  C   UNL A   1      44.879  27.129  36.627  1.00  0.00     0.198 A 
ATOM     90  C   UNL A   1      46.336  28.652  35.478  1.00  0.00     0.198 A 
ATOM     91  F   UNL A   1      45.439  30.277  34.035  1.00  0.00    -0.203 F 
ATOM     92  F   UNL A   1      44.701  26.130  37.502  1.00  0.00    -0.200 F 
ATOM     93  C   UNL A   1      46.157  27.597  36.360  1.00  0.00     0.200 A 
ATOM     94  F   UNL A   1      47.571  29.095  35.208  1.00  0.00    -0.200 F 
ATOM     95  F   UNL A   1      47.216  27.036  36.959  1.00  0.00    -0.200 F 
ENDBRANCH  62  85
ENDBRANCH  36  37
ENDBRANCH  28  31
ENDBRANCH  26  27
ENDBRANCH  25  26
ENDBRANCH  24  25
ENDBRANCH   1  24
TORSDOF 16
ENDMDL
MODEL 3
REMARK VINA RESULT:     -11.8      6.483     11.712
REMARK SMILES C[C@]([NH2+]Cc1noc(C2CC2)n1)(C(=O)NCCCCNC(=O)c1ccc(-c2c3nc(c(-c4c(F)c(F)c(F)c(F)c4F)c4ccc([nH]4)c(-c4c(F)c(F)c(F)c(F)c4F)c4nc(c(-c5c(F)c(F)c(F)c(F)c5F)c5ccc2[nH]5)C=C4)C=C3)cc1)C(F)(F)F
REMARK SMILES IDX 16 1 15 2 13 3 14 4 2 6 1 7 86 8 87 9 88 10 89 11 3 12 4 15
REMARK SMILES IDX 5 16 6 17 12 18 7 19 8 20 9 21 10 22 11 23 17 24 18 25 19 26
REMARK SMILES IDX 20 27 21 28 22 30 23 31 24 32 85 33 25 34 84 35 26 36 27 37
REMARK SMILES IDX 28 38 78 39 29 40 83 41 77 42 79 43 30 44 82 45 76 46 75 47
REMARK SMILES IDX 31 49 63 50 43 51 62 52 44 53 47 54 61 55 80 56 45 57 46 58
REMARK SMILES IDX 60 60 81 61 48 62 32 63 33 64 41 65 34 66 35 67 39 68 42 69
REMARK SMILES IDX 36 70 37 71 40 72 38 73 64 74 65 75 73 76 66 77 67 78 71 79
REMARK SMILES IDX 74 80 68 81 69 82 72 83 70 84 49 85 50 86 58 87 51 88 52 89
REMARK SMILES IDX 56 90 59 91 53 92 54 93 57 94 55 95
REMARK H PARENT 15 5 3 13 3 14 20 29 79 48 47 59
REMARK Flexibility Score: inf
ROOT
ATOM      1  C   UNL A   1      36.544  21.812  25.388  1.00  0.00     0.116 C 
ENDROOT
BRANCH   1   2
ATOM      2  N   UNL A   1      35.696  22.039  26.542  1.00  0.00    -0.350 N 
ATOM      3  C   UNL A   1      34.527  22.733  26.715  1.00  0.00     0.290 C 
ATOM      4  O   UNL A   1      34.093  22.736  27.870  1.00  0.00    -0.267 OA
ATOM      5  H   UNL A   1      36.024  21.609  27.364  1.00  0.00     0.163 HD
BRANCH   3   6
ATOM      6  C   UNL A   1      33.808  23.453  25.542  1.00  0.00     0.268 C 
ATOM      7  C   UNL A   1      32.351  23.774  25.942  1.00  0.00     0.101 C 
BRANCH   6   8
ATOM      8  C   UNL A   1      34.550  24.818  25.380  1.00  0.00     0.453 C 
ATOM      9  F   UNL A   1      34.515  25.303  24.120  1.00  0.00    -0.164 F 
ATOM     10  F   UNL A   1      33.955  25.761  26.166  1.00  0.00    -0.164 F 
ATOM     11  F   UNL A   1      35.838  24.758  25.789  1.00  0.00    -0.164 F 
ENDBRANCH   6   8
BRANCH   6  12
ATOM     12  N   UNL A   1      33.872  22.534  24.355  1.00  0.00    -0.320 N 
ATOM     13  H   UNL A   1      34.466  21.742  24.599  1.00  0.00     0.347 HD
ATOM     14  H   UNL A   1      34.235  23.091  23.582  1.00  0.00     0.347 HD
BRANCH  12  15
ATOM     15  C   UNL A   1      32.574  22.009  23.907  1.00  0.00     0.344 C 
BRANCH  15  16
ATOM     16  C   UNL A   1      32.486  20.560  24.284  1.00  0.00     0.226 A 
ATOM     17  N   UNL A   1      32.106  20.169  25.511  1.00  0.00    -0.056 NA
ATOM     18  N   UNL A   1      32.843  19.542  23.437  1.00  0.00    -0.190 NA
ATOM     19  O   UNL A   1      32.235  18.779  25.450  1.00  0.00    -0.339 OA
ATOM     20  C   UNL A   1      32.687  18.478  24.193  1.00  0.00     0.229 A 
BRANCH  20  21
ATOM     21  C   UNL A   1      32.986  17.055  23.746  1.00  0.00     0.079 C 
ATOM     22  C   UNL A   1      34.277  16.773  23.006  1.00  0.00     0.014 C 
ATOM     23  C   UNL A   1      34.128  16.316  24.416  1.00  0.00     0.014 C 
ENDBRANCH  20  21
ENDBRANCH  15  16
ENDBRANCH  12  15
ENDBRANCH   6  12
ENDBRANCH   3   6
ENDBRANCH   1   2
BRANCH   1  24
ATOM     24  C   UNL A   1      36.712  20.325  25.085  1.00  0.00     0.023 C 
BRANCH  24  25
ATOM     25  C   UNL A   1      38.134  19.907  24.706  1.00  0.00     0.023 C 
BRANCH  25  26
ATOM     26  C   UNL A   1      39.191  20.128  25.783  1.00  0.00     0.116 C 
BRANCH  26  27
ATOM     27  N   UNL A   1      40.164  19.050  25.865  1.00  0.00    -0.352 N 
ATOM     28  C   UNL A   1      41.515  19.119  26.105  1.00  0.00     0.251 C 
ATOM     29  H   UNL A   1      39.804  18.144  25.731  1.00  0.00     0.163 HD
ATOM     30  O   UNL A   1      42.209  18.110  26.027  1.00  0.00    -0.269 OA
BRANCH  28  31
ATOM     31  C   UNL A   1      42.140  20.422  26.418  1.00  0.00     0.039 A 
ATOM     32  C   UNL A   1      42.664  21.186  25.371  1.00  0.00     0.014 A 
ATOM     33  C   UNL A   1      42.190  20.897  27.731  1.00  0.00     0.014 A 
ATOM     34  C   UNL A   1      43.171  22.460  25.633  1.00  0.00     0.010 A 
ATOM     35  C   UNL A   1      42.630  22.194  27.979  1.00  0.00     0.010 A 
ATOM     36  C   UNL A   1      43.120  22.990  26.933  1.00  0.00    -0.014 A 
BRANCH  36  37
ATOM     37  C   UNL A   1      43.567  24.378  27.216  1.00  0.00     0.031 A 
ATOM     38  C   UNL A   1      42.594  25.394  27.740  1.00  0.00     0.074 A 
ATOM     39  C   UNL A   1      44.834  24.739  26.933  1.00  0.00     0.049 A 
ATOM     40  N   UNL A   1      42.774  26.670  27.978  1.00  0.00    -0.248 NA
ATOM     41  C   UNL A   1      41.226  24.923  28.007  1.00  0.00     0.031 C 
ATOM     42  C   UNL A   1      45.861  23.857  26.376  1.00  0.00     0.029 A 
ATOM     43  N   UNL A   1      45.472  25.947  27.064  1.00  0.00    -0.354 N 
ATOM     44  C   UNL A   1      41.544  27.152  28.404  1.00  0.00     0.074 A 
ATOM     45  C   UNL A   1      40.612  26.047  28.345  1.00  0.00     0.031 C 
ATOM     46  C   UNL A   1      47.005  24.547  26.235  1.00  0.00     0.029 A 
ATOM     47  C   UNL A   1      46.783  25.927  26.653  1.00  0.00     0.049 A 
ATOM     48  H   UNL A   1      45.031  26.753  27.419  1.00  0.00     0.167 HD
ATOM     49  C   UNL A   1      41.227  28.399  28.828  1.00  0.00     0.037 A 
ATOM     50  C   UNL A   1      47.699  26.914  26.610  1.00  0.00     0.037 A 
ATOM     51  C   UNL A   1      42.164  29.489  28.912  1.00  0.00     0.049 A 
ATOM     52  C   UNL A   1      47.317  28.292  27.081  1.00  0.00     0.074 A 
ATOM     53  C   UNL A   1      41.956  30.770  29.393  1.00  0.00     0.029 A 
ATOM     54  N   UNL A   1      43.488  29.426  28.503  1.00  0.00    -0.354 N 
ATOM     55  N   UNL A   1      46.171  28.718  27.554  1.00  0.00    -0.248 NA
ATOM     56  C   UNL A   1      48.360  29.325  27.017  1.00  0.00     0.031 C 
ATOM     57  C   UNL A   1      43.140  31.496  29.228  1.00  0.00     0.029 A 
ATOM     58  C   UNL A   1      44.101  30.653  28.696  1.00  0.00     0.049 A 
ATOM     59  H   UNL A   1      43.927  28.627  28.129  1.00  0.00     0.167 HD
ATOM     60  C   UNL A   1      46.362  30.055  27.872  1.00  0.00     0.074 A 
ATOM     61  C   UNL A   1      47.740  30.367  27.553  1.00  0.00     0.031 C 
ATOM     62  C   UNL A   1      45.477  30.944  28.385  1.00  0.00     0.037 A 
BRANCH  49  63
ATOM     63  C   UNL A   1      39.805  28.655  29.237  1.00  0.00     0.064 A 
ATOM     64  C   UNL A   1      39.364  28.424  30.549  1.00  0.00     0.173 A 
ATOM     65  C   UNL A   1      38.883  29.178  28.318  1.00  0.00     0.173 A 
ATOM     66  F   UNL A   1      40.202  27.915  31.464  1.00  0.00    -0.203 F 
ATOM     67  C   UNL A   1      38.046  28.681  30.917  1.00  0.00     0.198 A 
ATOM     68  C   UNL A   1      37.574  29.463  28.698  1.00  0.00     0.198 A 
ATOM     69  F   UNL A   1      39.253  29.422  27.052  1.00  0.00    -0.203 F 
ATOM     70  F   UNL A   1      37.636  28.407  32.163  1.00  0.00    -0.200 F 
ATOM     71  C   UNL A   1      37.155  29.208  29.995  1.00  0.00     0.200 A 
ATOM     72  F   UNL A   1      36.718  29.984  27.809  1.00  0.00    -0.200 F 
ATOM     73  F   UNL A   1      35.889  29.462  30.353  1.00  0.00    -0.200 F 
ENDBRANCH  49  63
BRANCH  50  74
ATOM     74  C   UNL A   1      49.076  26.632  26.126  1.00  0.00     0.064 A 
ATOM     75  C   UNL A   1      50.047  26.107  26.990  1.00  0.00     0.173 A 
ATOM     76  C   UNL A   1      49.455  26.895  24.801  1.00  0.00     0.173 A 
ATOM     77  F   UNL A   1      49.739  25.861  28.272  1.00  0.00    -0.203 F 
ATOM     78  C   UNL A   1      51.350  25.877  26.554  1.00  0.00     0.198 A 
ATOM     79  C   UNL A   1      50.750  26.636  24.359  1.00  0.00     0.198 A 
ATOM     80  F   UNL A   1      48.562  27.393  23.934  1.00  0.00    -0.203 F 
ATOM     81  F   UNL A   1      52.271  25.423  27.415  1.00  0.00    -0.200 F 
ATOM     82  C   UNL A   1      51.700  26.136  25.238  1.00  0.00     0.200 A 
ATOM     83  F   UNL A   1      51.080  26.875  23.082  1.00  0.00    -0.200 F 
ATOM     84  F   UNL A   1      52.953  25.915  24.819  1.00  0.00    -0.200 F 
ENDBRANCH  50  74
BRANCH  62  85
ATOM     85  C   UNL A   1      45.980  32.330  28.671  1.00  0.00     0.064 A 
ATOM     86  C   UNL A   1      46.568  32.662  29.900  1.00  0.00     0.173 A 
ATOM     87  C   UNL A   1      45.909  33.326  27.686  1.00  0.00     0.173 A 
ATOM     88  F   UNL A   1      46.647  31.749  30.880  1.00  0.00    -0.203 F 
ATOM     89  C   UNL A   1      47.043  33.949  30.141  1.00  0.00     0.198 A 
ATOM     90  C   UNL A   1      46.413  34.603  27.919  1.00  0.00     0.198 A 
ATOM     91  F   UNL A   1      45.362  33.059  26.491  1.00  0.00    -0.203 F 
ATOM     92  F   UNL A   1      47.556  34.258  31.341  1.00  0.00    -0.200 F 
ATOM     93  C   UNL A   1      46.972  34.916  29.149  1.00  0.00     0.200 A 
ATOM     94  F   UNL A   1      46.357  35.531  26.955  1.00  0.00    -0.200 F 
ATOM     95  F   UNL A   1      47.437  36.151  29.380  1.00  0.00    -0.200 F 
ENDBRANCH  62  85
ENDBRANCH  36  37
ENDBRANCH  28  31
ENDBRANCH  26  27
ENDBRANCH  25  26
ENDBRANCH  24  25
ENDBRANCH   1  24
TORSDOF 16
ENDMDL
