MODEL 1
REMARK VINA RESULT:     -10.9      0.000      0.000
REMARK SMILES O=C(NCCCCNC(=O)c1conc1-c1ccc(Cl)cc1)c1ccc(-c2c3nc(c(-c4c(F)c(F)c(F)c(F)c4F)c4ccc([nH]4)c(-c4c(F)c(F)c(F)c(F)c4F)c4nc(c(-c5c(F)c(F)c(F)c(F)c5F)c5ccc2[nH]5)C=C4)C=C3)cc1
REMARK SMILES IDX 5 1 4 2 3 3 1 4 2 5 23 7 24 8 85 9 25 10 84 11 26 12 27 13
REMARK SMILES IDX 28 14 78 15 29 16 83 17 77 18 79 19 30 20 82 21 76 22 75 23
REMARK SMILES IDX 31 25 63 26 43 27 62 28 44 29 47 30 61 31 80 32 45 33 46 34
REMARK SMILES IDX 60 36 81 37 48 38 32 39 33 40 41 41 34 42 35 43 39 44 42 45
REMARK SMILES IDX 36 46 37 47 40 48 38 49 64 50 65 51 73 52 66 53 67 54 71 55
REMARK SMILES IDX 74 56 68 57 69 58 72 59 70 60 49 61 50 62 58 63 51 64 52 65
REMARK SMILES IDX 56 66 59 67 53 68 54 69 57 70 55 71 6 72 7 73 8 74 9 75
REMARK SMILES IDX 10 77 11 78 12 79 15 80 13 81 14 82 16 83 17 84 22 85 18 86
REMARK SMILES IDX 21 87 19 88 20 89
REMARK H PARENT 3 6 79 24 47 35 8 76
REMARK Flexibility Score: inf
ROOT
ATOM      1  C   UNL A   1      33.278  34.187  28.161  1.00  0.00     0.023 C 
ENDROOT
BRANCH   1   2
ATOM      2  C   UNL A   1      34.126  32.925  28.333  1.00  0.00     0.116 C 
BRANCH   2   3
ATOM      3  N   UNL A   1      33.608  31.783  27.607  1.00  0.00    -0.352 N 
ATOM      4  O   UNL A   1      33.584  29.749  26.660  1.00  0.00    -0.269 OA
ATOM      5  C   UNL A   1      34.176  30.553  27.376  1.00  0.00     0.251 C 
ATOM      6  H   UNL A   1      32.713  31.907  27.217  1.00  0.00     0.163 HD
BRANCH   5   7
ATOM      7  C   UNL A   1      35.500  30.188  27.937  1.00  0.00     0.039 A 
ATOM      8  C   UNL A   1      36.697  30.412  27.252  1.00  0.00     0.014 A 
ATOM      9  C   UNL A   1      35.535  29.666  29.238  1.00  0.00     0.014 A 
ATOM     10  C   UNL A   1      37.915  30.048  27.834  1.00  0.00     0.010 A 
ATOM     11  C   UNL A   1      36.754  29.324  29.830  1.00  0.00     0.010 A 
ATOM     12  C   UNL A   1      37.951  29.493  29.123  1.00  0.00    -0.014 A 
BRANCH  12  13
ATOM     13  C   UNL A   1      39.246  29.099  29.726  1.00  0.00     0.031 A 
ATOM     14  C   UNL A   1      39.744  29.784  30.965  1.00  0.00     0.074 A 
ATOM     15  C   UNL A   1      39.973  28.118  29.164  1.00  0.00     0.049 A 
ATOM     16  N   UNL A   1      40.823  29.538  31.667  1.00  0.00    -0.248 NA
ATOM     17  C   UNL A   1      38.927  30.891  31.482  1.00  0.00     0.031 C 
ATOM     18  C   UNL A   1      39.614  27.390  27.948  1.00  0.00     0.029 A 
ATOM     19  N   UNL A   1      41.164  27.559  29.554  1.00  0.00    -0.354 N 
ATOM     20  C   UNL A   1      40.818  30.462  32.701  1.00  0.00     0.074 A 
ATOM     21  C   UNL A   1      39.635  31.280  32.534  1.00  0.00     0.031 C 
ATOM     22  C   UNL A   1      40.555  26.462  27.702  1.00  0.00     0.029 A 
ATOM     23  C   UNL A   1      41.581  26.536  28.741  1.00  0.00     0.049 A 
ATOM     24  H   UNL A   1      41.672  27.863  30.341  1.00  0.00     0.167 HD
ATOM     25  C   UNL A   1      41.716  30.611  33.704  1.00  0.00     0.037 A 
ATOM     26  C   UNL A   1      42.660  25.740  28.831  1.00  0.00     0.037 A 
ATOM     27  C   UNL A   1      42.883  29.795  33.895  1.00  0.00     0.049 A 
ATOM     28  C   UNL A   1      43.630  25.913  29.962  1.00  0.00     0.074 A 
ATOM     29  C   UNL A   1      43.819  29.848  34.913  1.00  0.00     0.029 A 
ATOM     30  N   UNL A   1      43.272  28.772  33.045  1.00  0.00    -0.354 N 
ATOM     31  N   UNL A   1      43.593  26.764  30.956  1.00  0.00    -0.248 NA
ATOM     32  C   UNL A   1      44.791  25.011  29.983  1.00  0.00     0.031 C 
ATOM     33  C   UNL A   1      44.783  28.861  34.674  1.00  0.00     0.029 A 
ATOM     34  C   UNL A   1      44.441  28.193  33.511  1.00  0.00     0.049 A 
ATOM     35  H   UNL A   1      42.791  28.499  32.231  1.00  0.00     0.167 HD
ATOM     36  C   UNL A   1      44.717  26.498  31.724  1.00  0.00     0.074 A 
ATOM     37  C   UNL A   1      45.420  25.407  31.083  1.00  0.00     0.031 C 
ATOM     38  C   UNL A   1      45.126  27.107  32.862  1.00  0.00     0.037 A 
BRANCH  25  39
ATOM     39  C   UNL A   1      41.461  31.710  34.683  1.00  0.00     0.064 A 
ATOM     40  C   UNL A   1      42.051  32.970  34.523  1.00  0.00     0.173 A 
ATOM     41  C   UNL A   1      40.599  31.511  35.771  1.00  0.00     0.173 A 
ATOM     42  F   UNL A   1      42.892  33.196  33.502  1.00  0.00    -0.203 F 
ATOM     43  C   UNL A   1      41.792  33.997  35.424  1.00  0.00     0.198 A 
ATOM     44  C   UNL A   1      40.339  32.542  36.669  1.00  0.00     0.198 A 
ATOM     45  F   UNL A   1      40.021  30.317  35.966  1.00  0.00    -0.203 F 
ATOM     46  F   UNL A   1      42.376  35.192  35.263  1.00  0.00    -0.200 F 
ATOM     47  C   UNL A   1      40.935  33.784  36.495  1.00  0.00     0.200 A 
ATOM     48  F   UNL A   1      39.517  32.334  37.707  1.00  0.00    -0.200 F 
ATOM     49  F   UNL A   1      40.689  34.772  37.365  1.00  0.00    -0.200 F 
ENDBRANCH  25  39
BRANCH  26  50
ATOM     50  C   UNL A   1      42.862  24.675  27.825  1.00  0.00     0.064 A 
ATOM     51  C   UNL A   1      42.459  23.359  28.090  1.00  0.00     0.173 A 
ATOM     52  C   UNL A   1      43.445  24.953  26.584  1.00  0.00     0.173 A 
ATOM     53  F   UNL A   1      41.910  23.052  29.275  1.00  0.00    -0.203 F 
ATOM     54  C   UNL A   1      42.633  22.356  27.141  1.00  0.00     0.198 A 
ATOM     55  C   UNL A   1      43.615  23.949  25.634  1.00  0.00     0.198 A 
ATOM     56  F   UNL A   1      43.852  26.198  26.299  1.00  0.00    -0.203 F 
ATOM     57  F   UNL A   1      42.248  21.102  27.417  1.00  0.00    -0.200 F 
ATOM     58  C   UNL A   1      43.209  22.652  25.913  1.00  0.00     0.200 A 
ATOM     59  F   UNL A   1      44.177  24.235  24.452  1.00  0.00    -0.200 F 
ATOM     60  F   UNL A   1      43.377  21.684  25.002  1.00  0.00    -0.200 F 
ENDBRANCH  26  50
BRANCH  38  61
ATOM     61  C   UNL A   1      46.385  26.603  33.488  1.00  0.00     0.064 A 
ATOM     62  C   UNL A   1      47.626  27.170  33.165  1.00  0.00     0.173 A 
ATOM     63  C   UNL A   1      46.350  25.572  34.436  1.00  0.00     0.173 A 
ATOM     64  F   UNL A   1      47.703  28.150  32.253  1.00  0.00    -0.203 F 
ATOM     65  C   UNL A   1      48.793  26.718  33.772  1.00  0.00     0.198 A 
ATOM     66  C   UNL A   1      47.519  25.125  35.044  1.00  0.00     0.198 A 
ATOM     67  F   UNL A   1      45.184  24.998  34.766  1.00  0.00    -0.203 F 
ATOM     68  F   UNL A   1      49.972  27.263  33.444  1.00  0.00    -0.200 F 
ATOM     69  C   UNL A   1      48.739  25.698  34.712  1.00  0.00     0.200 A 
ATOM     70  F   UNL A   1      47.469  24.135  35.947  1.00  0.00    -0.200 F 
ATOM     71  F   UNL A   1      49.865  25.261  35.293  1.00  0.00    -0.200 F 
ENDBRANCH  38  61
ENDBRANCH  12  13
ENDBRANCH   5   7
ENDBRANCH   2   3
ENDBRANCH   1   2
BRANCH   1  72
ATOM     72  C   UNL A   1      33.761  35.440  28.905  1.00  0.00     0.023 C 
BRANCH  72  73
ATOM     73  C   UNL A   1      32.928  35.854  30.118  1.00  0.00     0.116 C 
BRANCH  73  74
ATOM     74  N   UNL A   1      33.736  36.456  31.164  1.00  0.00    -0.352 N 
ATOM     75  C   UNL A   1      34.347  35.902  32.260  1.00  0.00     0.256 C 
ATOM     76  H   UNL A   1      33.869  37.426  31.070  1.00  0.00     0.163 HD
ATOM     77  O   UNL A   1      34.779  36.672  33.117  1.00  0.00    -0.269 OA
BRANCH  75  78
ATOM     78  C   UNL A   1      34.467  34.471  32.394  1.00  0.00     0.107 A 
ATOM     79  C   UNL A   1      33.513  33.601  32.870  1.00  0.00     0.245 A 
ATOM     80  C   UNL A   1      35.506  33.605  31.927  1.00  0.00     0.126 A 
ATOM     81  O   UNL A   1      33.952  32.329  32.766  1.00  0.00    -0.363 OA
ATOM     82  N   UNL A   1      35.197  32.321  32.179  1.00  0.00    -0.079 NA
BRANCH  80  83
ATOM     83  C   UNL A   1      36.763  33.938  31.256  1.00  0.00     0.005 A 
ATOM     84  C   UNL A   1      37.839  34.494  31.963  1.00  0.00     0.012 A 
ATOM     85  C   UNL A   1      36.909  33.690  29.882  1.00  0.00     0.012 A 
ATOM     86  C   UNL A   1      39.032  34.807  31.303  1.00  0.00     0.021 A 
ATOM     87  C   UNL A   1      38.101  34.004  29.223  1.00  0.00     0.021 A 
ATOM     88  C   UNL A   1      39.157  34.563  29.937  1.00  0.00     0.041 A 
ATOM     89  Cl  UNL A   1      40.626  34.951  29.130  1.00  0.00    -0.084 Cl
ENDBRANCH  80  83
ENDBRANCH  75  78
ENDBRANCH  73  74
ENDBRANCH  72  73
ENDBRANCH   1  72
TORSDOF 12
ENDMDL
MODEL 2
REMARK VINA RESULT:     -10.9      0.108      1.632
REMARK SMILES O=C(NCCCCNC(=O)c1conc1-c1ccc(Cl)cc1)c1ccc(-c2c3nc(c(-c4c(F)c(F)c(F)c(F)c4F)c4ccc([nH]4)c(-c4c(F)c(F)c(F)c(F)c4F)c4nc(c(-c5c(F)c(F)c(F)c(F)c5F)c5ccc2[nH]5)C=C4)C=C3)cc1
REMARK SMILES IDX 5 1 4 2 3 3 1 4 2 5 23 7 24 8 85 9 25 10 84 11 26 12 27 13
REMARK SMILES IDX 28 14 78 15 29 16 83 17 77 18 79 19 30 20 82 21 76 22 75 23
REMARK SMILES IDX 31 25 63 26 43 27 62 28 44 29 47 30 61 31 80 32 45 33 46 34
REMARK SMILES IDX 60 36 81 37 48 38 32 39 33 40 41 41 34 42 35 43 39 44 42 45
REMARK SMILES IDX 36 46 37 47 40 48 38 49 64 50 65 51 73 52 66 53 67 54 71 55
REMARK SMILES IDX 74 56 68 57 69 58 72 59 70 60 49 61 50 62 58 63 51 64 52 65
REMARK SMILES IDX 56 66 59 67 53 68 54 69 57 70 55 71 6 72 7 73 8 74 9 75
REMARK SMILES IDX 10 77 11 78 12 79 15 80 13 81 14 82 16 83 17 84 22 85 18 86
REMARK SMILES IDX 21 87 19 88 20 89
REMARK H PARENT 3 6 79 24 47 35 8 76
REMARK Flexibility Score: inf
ROOT
ATOM      1  C   UNL A   1      33.250  34.225  28.226  1.00  0.00     0.023 C 
ENDROOT
BRANCH   1   2
ATOM      2  C   UNL A   1      34.052  32.937  28.425  1.00  0.00     0.116 C 
BRANCH   2   3
ATOM      3  N   UNL A   1      33.569  31.830  27.624  1.00  0.00    -0.352 N 
ATOM      4  O   UNL A   1      33.598  29.853  26.565  1.00  0.00    -0.269 OA
ATOM      5  C   UNL A   1      34.160  30.624  27.339  1.00  0.00     0.251 C 
ATOM      6  H   UNL A   1      32.681  31.964  27.221  1.00  0.00     0.163 HD
BRANCH   5   7
ATOM      7  C   UNL A   1      35.476  30.246  27.910  1.00  0.00     0.039 A 
ATOM      8  C   UNL A   1      36.684  30.495  27.252  1.00  0.00     0.014 A 
ATOM      9  C   UNL A   1      35.492  29.685  29.195  1.00  0.00     0.014 A 
ATOM     10  C   UNL A   1      37.893  30.118  27.843  1.00  0.00     0.010 A 
ATOM     11  C   UNL A   1      36.702  29.329  29.796  1.00  0.00     0.010 A 
ATOM     12  C   UNL A   1      37.910  29.524  29.115  1.00  0.00    -0.014 A 
BRANCH  12  13
ATOM     13  C   UNL A   1      39.197  29.116  29.727  1.00  0.00     0.031 A 
ATOM     14  C   UNL A   1      39.691  29.791  30.972  1.00  0.00     0.074 A 
ATOM     15  C   UNL A   1      39.920  28.130  29.167  1.00  0.00     0.049 A 
ATOM     16  N   UNL A   1      40.761  29.533  31.683  1.00  0.00    -0.248 NA
ATOM     17  C   UNL A   1      38.879  30.904  31.488  1.00  0.00     0.031 C 
ATOM     18  C   UNL A   1      39.565  27.410  27.945  1.00  0.00     0.029 A 
ATOM     19  N   UNL A   1      41.102  27.559  29.564  1.00  0.00    -0.354 N 
ATOM     20  C   UNL A   1      40.756  30.453  32.720  1.00  0.00     0.074 A 
ATOM     21  C   UNL A   1      39.581  31.282  32.547  1.00  0.00     0.031 C 
ATOM     22  C   UNL A   1      40.499  26.475  27.703  1.00  0.00     0.029 A 
ATOM     23  C   UNL A   1      41.516  26.536  28.751  1.00  0.00     0.049 A 
ATOM     24  H   UNL A   1      41.606  27.856  30.357  1.00  0.00     0.167 HD
ATOM     25  C   UNL A   1      41.646  30.590  33.731  1.00  0.00     0.037 A 
ATOM     26  C   UNL A   1      42.588  25.730  28.846  1.00  0.00     0.037 A 
ATOM     27  C   UNL A   1      42.805  29.762  33.928  1.00  0.00     0.049 A 
ATOM     28  C   UNL A   1      43.550  25.890  29.986  1.00  0.00     0.074 A 
ATOM     29  C   UNL A   1      43.733  29.803  34.954  1.00  0.00     0.029 A 
ATOM     30  N   UNL A   1      43.192  28.739  33.078  1.00  0.00    -0.354 N 
ATOM     31  N   UNL A   1      43.512  26.737  30.983  1.00  0.00    -0.248 NA
ATOM     32  C   UNL A   1      44.703  24.978  30.012  1.00  0.00     0.031 C 
ATOM     33  C   UNL A   1      44.691  28.808  34.719  1.00  0.00     0.029 A 
ATOM     34  C   UNL A   1      44.352  28.148  33.550  1.00  0.00     0.049 A 
ATOM     35  H   UNL A   1      42.715  28.474  32.259  1.00  0.00     0.167 HD
ATOM     36  C   UNL A   1      44.628  26.458  31.759  1.00  0.00     0.074 A 
ATOM     37  C   UNL A   1      45.326  25.363  31.119  1.00  0.00     0.031 C 
ATOM     38  C   UNL A   1      45.032  27.059  32.903  1.00  0.00     0.037 A 
BRANCH  25  39
ATOM     39  C   UNL A   1      41.393  31.686  34.713  1.00  0.00     0.064 A 
ATOM     40  C   UNL A   1      40.502  31.508  35.779  1.00  0.00     0.173 A 
ATOM     41  C   UNL A   1      42.067  32.911  34.606  1.00  0.00     0.173 A 
ATOM     42  F   UNL A   1      39.828  30.355  35.908  1.00  0.00    -0.203 F 
ATOM     43  C   UNL A   1      40.288  32.523  36.705  1.00  0.00     0.198 A 
ATOM     44  C   UNL A   1      41.854  33.923  35.536  1.00  0.00     0.198 A 
ATOM     45  F   UNL A   1      42.922  33.125  33.596  1.00  0.00    -0.203 F 
ATOM     46  F   UNL A   1      39.420  32.341  37.710  1.00  0.00    -0.200 F 
ATOM     47  C   UNL A   1      40.964  33.729  36.585  1.00  0.00     0.200 A 
ATOM     48  F   UNL A   1      42.502  35.090  35.417  1.00  0.00    -0.200 F 
ATOM     49  F   UNL A   1      40.753  34.708  37.475  1.00  0.00    -0.200 F 
ENDBRANCH  25  39
BRANCH  26  50
ATOM     50  C   UNL A   1      42.789  24.667  27.838  1.00  0.00     0.064 A 
ATOM     51  C   UNL A   1      43.365  24.963  26.595  1.00  0.00     0.173 A 
ATOM     52  C   UNL A   1      42.427  23.341  28.102  1.00  0.00     0.173 A 
ATOM     53  F   UNL A   1      43.712  26.225  26.302  1.00  0.00    -0.203 F 
ATOM     54  C   UNL A   1      43.571  23.964  25.649  1.00  0.00     0.198 A 
ATOM     55  C   UNL A   1      42.636  22.342  27.155  1.00  0.00     0.198 A 
ATOM     56  F   UNL A   1      41.864  23.022  29.276  1.00  0.00    -0.203 F 
ATOM     57  F   UNL A   1      44.116  24.270  24.463  1.00  0.00    -0.200 F 
ATOM     58  C   UNL A   1      43.209  22.654  25.930  1.00  0.00     0.200 A 
ATOM     59  F   UNL A   1      42.280  21.079  27.425  1.00  0.00    -0.200 F 
ATOM     60  F   UNL A   1      43.406  21.694  25.017  1.00  0.00    -0.200 F 
ENDBRANCH  26  50
BRANCH  38  61
ATOM     61  C   UNL A   1      46.282  26.541  33.537  1.00  0.00     0.064 A 
ATOM     62  C   UNL A   1      47.530  27.100  33.229  1.00  0.00     0.173 A 
ATOM     63  C   UNL A   1      46.230  25.505  34.479  1.00  0.00     0.173 A 
ATOM     64  F   UNL A   1      47.623  28.084  32.323  1.00  0.00    -0.203 F 
ATOM     65  C   UNL A   1      48.688  26.635  33.844  1.00  0.00     0.198 A 
ATOM     66  C   UNL A   1      47.390  25.045  35.095  1.00  0.00     0.198 A 
ATOM     67  F   UNL A   1      45.056  24.938  34.795  1.00  0.00    -0.203 F 
ATOM     68  F   UNL A   1      49.874  27.172  33.529  1.00  0.00    -0.200 F 
ATOM     69  C   UNL A   1      48.617  25.610  34.777  1.00  0.00     0.200 A 
ATOM     70  F   UNL A   1      47.324  24.050  35.991  1.00  0.00    -0.200 F 
ATOM     71  F   UNL A   1      49.734  25.160  35.366  1.00  0.00    -0.200 F 
ENDBRANCH  38  61
ENDBRANCH  12  13
ENDBRANCH   5   7
ENDBRANCH   2   3
ENDBRANCH   1   2
BRANCH   1  72
ATOM     72  C   UNL A   1      33.787  35.479  28.930  1.00  0.00     0.023 C 
BRANCH  72  73
ATOM     73  C   UNL A   1      32.944  35.999  30.095  1.00  0.00     0.116 C 
BRANCH  73  74
ATOM     74  N   UNL A   1      33.758  36.574  31.152  1.00  0.00    -0.352 N 
ATOM     75  C   UNL A   1      34.333  36.001  32.257  1.00  0.00     0.256 C 
ATOM     76  H   UNL A   1      33.925  37.538  31.058  1.00  0.00     0.163 HD
ATOM     77  O   UNL A   1      34.778  36.757  33.120  1.00  0.00    -0.269 OA
BRANCH  75  78
ATOM     78  C   UNL A   1      34.400  34.567  32.394  1.00  0.00     0.107 A 
ATOM     79  C   UNL A   1      33.415  33.732  32.868  1.00  0.00     0.245 A 
ATOM     80  C   UNL A   1      35.409  33.663  31.933  1.00  0.00     0.126 A 
ATOM     81  O   UNL A   1      33.808  32.445  32.769  1.00  0.00    -0.363 OA
ATOM     82  N   UNL A   1      35.053  32.392  32.187  1.00  0.00    -0.079 NA
BRANCH  80  83
ATOM     83  C   UNL A   1      36.680  33.949  31.267  1.00  0.00     0.005 A 
ATOM     84  C   UNL A   1      37.751  34.529  31.962  1.00  0.00     0.012 A 
ATOM     85  C   UNL A   1      36.844  33.631  29.909  1.00  0.00     0.012 A 
ATOM     86  C   UNL A   1      38.958  34.796  31.307  1.00  0.00     0.021 A 
ATOM     87  C   UNL A   1      38.050  33.899  29.254  1.00  0.00     0.021 A 
ATOM     88  C   UNL A   1      39.101  34.483  29.957  1.00  0.00     0.041 A 
ATOM     89  Cl  UNL A   1      40.586  34.815  29.155  1.00  0.00    -0.084 Cl
ENDBRANCH  80  83
ENDBRANCH  75  78
ENDBRANCH  73  74
ENDBRANCH  72  73
ENDBRANCH   1  72
TORSDOF 12
ENDMDL
MODEL 3
REMARK VINA RESULT:     -10.8      6.647     11.951
REMARK SMILES O=C(NCCCCNC(=O)c1conc1-c1ccc(Cl)cc1)c1ccc(-c2c3nc(c(-c4c(F)c(F)c(F)c(F)c4F)c4ccc([nH]4)c(-c4c(F)c(F)c(F)c(F)c4F)c4nc(c(-c5c(F)c(F)c(F)c(F)c5F)c5ccc2[nH]5)C=C4)C=C3)cc1
REMARK SMILES IDX 5 1 4 2 3 3 1 4 2 5 23 7 24 8 85 9 25 10 84 11 26 12 27 13
REMARK SMILES IDX 28 14 78 15 29 16 83 17 77 18 79 19 30 20 82 21 76 22 75 23
REMARK SMILES IDX 31 25 63 26 43 27 62 28 44 29 47 30 61 31 80 32 45 33 46 34
REMARK SMILES IDX 60 36 81 37 48 38 32 39 33 40 41 41 34 42 35 43 39 44 42 45
REMARK SMILES IDX 36 46 37 47 40 48 38 49 64 50 65 51 73 52 66 53 67 54 71 55
REMARK SMILES IDX 74 56 68 57 69 58 72 59 70 60 49 61 50 62 58 63 51 64 52 65
REMARK SMILES IDX 56 66 59 67 53 68 54 69 57 70 55 71 6 72 7 73 8 74 9 75
REMARK SMILES IDX 10 77 11 78 12 79 15 80 13 81 14 82 16 83 17 84 22 85 18 86
REMARK SMILES IDX 21 87 19 88 20 89
REMARK H PARENT 3 6 79 24 47 35 8 76
REMARK Flexibility Score: inf
ROOT
ATOM      1  C   UNL A   1      38.003  19.581  24.677  1.00  0.00     0.023 C 
ENDROOT
BRANCH   1   2
ATOM      2  C   UNL A   1      39.005  19.981  25.762  1.00  0.00     0.116 C 
BRANCH   2   3
ATOM      3  N   UNL A   1      40.158  19.105  25.829  1.00  0.00    -0.352 N 
ATOM      4  O   UNL A   1      42.305  18.498  26.061  1.00  0.00    -0.269 OA
ATOM      5  C   UNL A   1      41.465  19.392  26.139  1.00  0.00     0.251 C 
ATOM      6  H   UNL A   1      39.977  18.161  25.619  1.00  0.00     0.163 HD
BRANCH   5   7
ATOM      7  C   UNL A   1      41.893  20.757  26.529  1.00  0.00     0.039 A 
ATOM      8  C   UNL A   1      42.231  21.096  27.842  1.00  0.00     0.014 A 
ATOM      9  C   UNL A   1      42.029  21.713  25.512  1.00  0.00     0.014 A 
ATOM     10  C   UNL A   1      42.630  22.401  28.147  1.00  0.00     0.010 A 
ATOM     11  C   UNL A   1      42.450  23.011  25.812  1.00  0.00     0.010 A 
ATOM     12  C   UNL A   1      42.733  23.369  27.136  1.00  0.00    -0.014 A 
BRANCH  12  13
ATOM     13  C   UNL A   1      43.146  24.753  27.472  1.00  0.00     0.031 A 
ATOM     14  C   UNL A   1      44.540  25.220  27.176  1.00  0.00     0.074 A 
ATOM     15  C   UNL A   1      42.262  25.594  28.037  1.00  0.00     0.049 A 
ATOM     16  N   UNL A   1      45.066  26.409  27.345  1.00  0.00    -0.248 NA
ATOM     17  C   UNL A   1      45.467  24.225  26.619  1.00  0.00     0.031 C 
ATOM     18  C   UNL A   1      40.885  25.257  28.398  1.00  0.00     0.029 A 
ATOM     19  N   UNL A   1      42.393  26.911  28.397  1.00  0.00    -0.354 N 
ATOM     20  C   UNL A   1      46.383  26.302  26.926  1.00  0.00     0.074 A 
ATOM     21  C   UNL A   1      46.583  24.932  26.499  1.00  0.00     0.031 C 
ATOM     22  C   UNL A   1      40.290  26.348  28.908  1.00  0.00     0.029 A 
ATOM     23  C   UNL A   1      41.244  27.455  28.912  1.00  0.00     0.049 A 
ATOM     24  H   UNL A   1      43.232  27.418  28.296  1.00  0.00     0.167 HD
ATOM     25  C   UNL A   1      47.338  27.261  26.891  1.00  0.00     0.037 A 
ATOM     26  C   UNL A   1      40.987  28.707  29.328  1.00  0.00     0.037 A 
ATOM     27  C   UNL A   1      47.150  28.628  27.291  1.00  0.00     0.049 A 
ATOM     28  C   UNL A   1      42.058  29.756  29.263  1.00  0.00     0.074 A 
ATOM     29  C   UNL A   1      48.053  29.676  27.244  1.00  0.00     0.029 A 
ATOM     30  N   UNL A   1      45.972  29.138  27.813  1.00  0.00    -0.354 N 
ATOM     31  N   UNL A   1      43.287  29.652  28.826  1.00  0.00    -0.248 NA
ATOM     32  C   UNL A   1      41.700  31.098  29.748  1.00  0.00     0.031 C 
ATOM     33  C   UNL A   1      47.423  30.821  27.746  1.00  0.00     0.029 A 
ATOM     34  C   UNL A   1      46.128  30.484  28.100  1.00  0.00     0.049 A 
ATOM     35  H   UNL A   1      45.148  28.620  27.959  1.00  0.00     0.167 HD
ATOM     36  C   UNL A   1      43.849  30.912  28.975  1.00  0.00     0.074 A 
ATOM     37  C   UNL A   1      42.829  31.766  29.544  1.00  0.00     0.031 C 
ATOM     38  C   UNL A   1      45.102  31.319  28.664  1.00  0.00     0.037 A 
BRANCH  25  39
ATOM     39  C   UNL A   1      48.687  26.855  26.395  1.00  0.00     0.064 A 
ATOM     40  C   UNL A   1      49.030  26.997  25.044  1.00  0.00     0.173 A 
ATOM     41  C   UNL A   1      49.652  26.351  27.278  1.00  0.00     0.173 A 
ATOM     42  F   UNL A   1      48.131  27.464  24.165  1.00  0.00    -0.203 F 
ATOM     43  C   UNL A   1      50.296  26.641  24.590  1.00  0.00     0.198 A 
ATOM     44  C   UNL A   1      50.919  25.999  26.822  1.00  0.00     0.198 A 
ATOM     45  F   UNL A   1      49.361  26.192  28.577  1.00  0.00    -0.203 F 
ATOM     46  F   UNL A   1      50.603  26.769  23.292  1.00  0.00    -0.200 F 
ATOM     47  C   UNL A   1      51.240  26.145  25.479  1.00  0.00     0.200 A 
ATOM     48  F   UNL A   1      51.828  25.513  27.678  1.00  0.00    -0.200 F 
ATOM     49  F   UNL A   1      52.457  25.797  25.040  1.00  0.00    -0.200 F 
ENDBRANCH  25  39
BRANCH  26  50
ATOM     50  C   UNL A   1      39.633  29.046  29.817  1.00  0.00     0.064 A 
ATOM     51  C   UNL A   1      38.655  29.525  28.935  1.00  0.00     0.173 A 
ATOM     52  C   UNL A   1      39.289  28.884  31.164  1.00  0.00     0.173 A 
ATOM     53  F   UNL A   1      38.953  29.707  27.640  1.00  0.00    -0.203 F 
ATOM     54  C   UNL A   1      37.375  29.830  29.387  1.00  0.00     0.198 A 
ATOM     55  C   UNL A   1      38.007  29.187  31.614  1.00  0.00     0.198 A 
ATOM     56  F   UNL A   1      40.202  28.437  32.039  1.00  0.00    -0.203 F 
ATOM     57  F   UNL A   1      36.457  30.295  28.528  1.00  0.00    -0.200 F 
ATOM     58  C   UNL A   1      37.052  29.659  30.726  1.00  0.00     0.200 A 
ATOM     59  F   UNL A   1      37.698  29.027  32.908  1.00  0.00    -0.200 F 
ATOM     60  F   UNL A   1      35.819  29.956  31.160  1.00  0.00    -0.200 F 
ENDBRANCH  26  50
BRANCH  38  61
ATOM     61  C   UNL A   1      45.435  32.752  28.927  1.00  0.00     0.064 A 
ATOM     62  C   UNL A   1      45.155  33.742  27.975  1.00  0.00     0.173 A 
ATOM     63  C   UNL A   1      46.007  33.142  30.146  1.00  0.00     0.173 A 
ATOM     64  F   UNL A   1      44.620  33.407  26.791  1.00  0.00    -0.203 F 
ATOM     65  C   UNL A   1      45.439  35.078  28.235  1.00  0.00     0.198 A 
ATOM     66  C   UNL A   1      46.287  34.481  30.403  1.00  0.00     0.198 A 
ATOM     67  F   UNL A   1      46.298  32.225  31.079  1.00  0.00    -0.203 F 
ATOM     68  F   UNL A   1      45.176  36.010  27.309  1.00  0.00    -0.200 F 
ATOM     69  C   UNL A   1      46.002  35.447  29.448  1.00  0.00     0.200 A 
ATOM     70  F   UNL A   1      46.837  34.837  31.572  1.00  0.00    -0.200 F 
ATOM     71  F   UNL A   1      46.279  36.735  29.696  1.00  0.00    -0.200 F 
ENDBRANCH  38  61
ENDBRANCH  12  13
ENDBRANCH   5   7
ENDBRANCH   2   3
ENDBRANCH   1   2
BRANCH   1  72
ATOM     72  C   UNL A   1      36.543  19.997  24.910  1.00  0.00     0.023 C 
BRANCH  72  73
ATOM     73  C   UNL A   1      36.339  21.373  25.545  1.00  0.00     0.116 C 
BRANCH  73  74
ATOM     74  N   UNL A   1      35.271  21.373  26.530  1.00  0.00    -0.352 N 
ATOM     75  C   UNL A   1      33.926  21.606  26.399  1.00  0.00     0.256 C 
ATOM     76  H   UNL A   1      35.563  21.169  27.447  1.00  0.00     0.163 HD
ATOM     77  O   UNL A   1      33.278  21.775  27.432  1.00  0.00    -0.269 OA
BRANCH  75  78
ATOM     78  C   UNL A   1      33.309  21.658  25.097  1.00  0.00     0.107 A 
ATOM     79  C   UNL A   1      33.112  22.774  24.317  1.00  0.00     0.245 A 
ATOM     80  C   UNL A   1      32.912  20.580  24.244  1.00  0.00     0.126 A 
ATOM     81  O   UNL A   1      32.583  22.422  23.126  1.00  0.00    -0.363 OA
ATOM     82  N   UNL A   1      32.453  21.053  23.072  1.00  0.00    -0.079 NA
BRANCH  80  83
ATOM     83  C   UNL A   1      32.951  19.138  24.487  1.00  0.00     0.005 A 
ATOM     84  C   UNL A   1      33.344  18.241  23.484  1.00  0.00     0.012 A 
ATOM     85  C   UNL A   1      32.600  18.634  25.751  1.00  0.00     0.012 A 
ATOM     86  C   UNL A   1      33.373  16.866  23.737  1.00  0.00     0.021 A 
ATOM     87  C   UNL A   1      32.629  17.259  26.002  1.00  0.00     0.021 A 
ATOM     88  C   UNL A   1      33.013  16.381  24.993  1.00  0.00     0.041 A 
ATOM     89  Cl  UNL A   1      33.049  14.688  25.298  1.00  0.00    -0.084 Cl
ENDBRANCH  80  83
ENDBRANCH  75  78
ENDBRANCH  73  74
ENDBRANCH  72  73
ENDBRANCH   1  72
TORSDOF 12
ENDMDL
