MODEL 1
REMARK VINA RESULT:     -13.2      0.000      0.000
REMARK SMILES C[C@H]1N=N[C@H](S/C(=C/c2ccc(-c3cccc(Cl)c3)o2)C(=O)NCCCCNC(=O)c2ccc(-c3c4nc(c(-c5c(F)c(F)c(F)c(F)c5F)c5ccc([nH]5)c(-c5c(F)c(F)c(F)c(F)c5F)c5nc(c(-c6c(F)c(F)c(F)c(F)c6F)c6ccc3[nH]6)C=C5)C=C4)cc2)[NH2+]1
REMARK SMILES IDX 25 1 24 2 23 3 21 4 22 5 7 7 8 8 6 9 5 10 1 11 2 12 3 13
REMARK SMILES IDX 94 14 4 15 9 18 10 19 20 20 11 21 12 22 13 23 14 24 19 25
REMARK SMILES IDX 15 26 17 27 16 28 18 29 26 30 27 31 28 32 29 33 30 35 31 36
REMARK SMILES IDX 32 37 93 38 33 39 92 40 34 41 35 42 36 43 86 44 37 45 91 46
REMARK SMILES IDX 85 47 87 48 38 49 90 50 84 51 83 52 39 54 71 55 51 56 70 57
REMARK SMILES IDX 52 58 55 59 69 60 88 61 53 62 54 63 68 65 89 66 56 67 40 68
REMARK SMILES IDX 41 69 49 70 42 71 43 72 47 73 50 74 44 75 45 76 48 77 46 78
REMARK SMILES IDX 72 79 73 80 81 81 74 82 75 83 79 84 82 85 76 86 77 87 80 88
REMARK SMILES IDX 78 89 57 90 58 91 66 92 59 93 60 94 64 95 67 96 61 97 62 98
REMARK SMILES IDX 65 99 63 100
REMARK H PARENT 23 6 94 16 94 17 28 34 87 53 55 64
REMARK Flexibility Score: inf
ROOT
ATOM      1  C   UNL A   1      32.363  28.107  27.583  1.00  0.00     0.023 C 
ENDROOT
BRANCH   1   2
ATOM      2  C   UNL A   1      32.494  27.088  26.460  1.00  0.00     0.116 C 
BRANCH   2   3
ATOM      3  N   UNL A   1      31.266  26.683  25.827  1.00  0.00    -0.352 N 
ATOM      4  C   UNL A   1      30.982  26.578  24.495  1.00  0.00     0.258 C 
ATOM      5  O   UNL A   1      29.926  26.015  24.191  1.00  0.00    -0.269 OA
ATOM      6  H   UNL A   1      30.531  26.449  26.439  1.00  0.00     0.163 HD
BRANCH   4   7
ATOM      7  C   UNL A   1      31.853  27.176  23.409  1.00  0.00     0.084 C 
ATOM      8  C   UNL A   1      32.691  26.499  22.603  1.00  0.00     0.068 C 
BRANCH   7   9
ATOM      9  S   UNL A   1      31.527  28.902  23.234  1.00  0.00    -0.030 SA
BRANCH   9  10
ATOM     10  C   UNL A   1      30.150  29.121  22.055  1.00  0.00     0.393 C 
ATOM     11  C   UNL A   1      28.274  32.117  21.625  1.00  0.00     0.106 C 
ATOM     12  C   UNL A   1      29.064  31.048  22.363  1.00  0.00     0.324 C 
ATOM     13  N   UNL A   1      28.186  29.944  22.775  1.00  0.00    -0.126 NA
ATOM     14  N   UNL A   1      30.084  30.472  21.497  1.00  0.00    -0.293 N 
ATOM     15  N   UNL A   1      28.802  28.856  22.619  1.00  0.00    -0.115 NA
ATOM     16  H   UNL A   1      30.975  30.962  21.581  1.00  0.00     0.350 HD
ATOM     17  H   UNL A   1      29.878  30.516  20.497  1.00  0.00     0.350 HD
ENDBRANCH   9  10
ENDBRANCH   7   9
BRANCH   8  18
ATOM     18  C   UNL A   1      33.157  25.177  22.781  1.00  0.00     0.128 A 
ATOM     19  C   UNL A   1      32.684  23.959  22.321  1.00  0.00     0.051 A 
ATOM     20  O   UNL A   1      34.325  24.936  23.473  1.00  0.00    -0.457 OA
ATOM     21  C   UNL A   1      33.578  22.953  22.780  1.00  0.00     0.051 A 
ATOM     22  C   UNL A   1      34.549  23.596  23.517  1.00  0.00     0.134 A 
BRANCH  22  23
ATOM     23  C   UNL A   1      35.648  23.153  24.371  1.00  0.00     0.019 A 
ATOM     24  C   UNL A   1      36.359  24.076  25.150  1.00  0.00     0.012 A 
ATOM     25  C   UNL A   1      36.097  21.823  24.334  1.00  0.00     0.032 A 
ATOM     26  C   UNL A   1      37.510  23.690  25.844  1.00  0.00     0.002 A 
ATOM     27  C   UNL A   1      37.263  21.450  25.007  1.00  0.00     0.041 A 
ATOM     28  C   UNL A   1      37.974  22.378  25.759  1.00  0.00     0.020 A 
ATOM     29  Cl  UNL A   1      37.853  19.839  24.862  1.00  0.00    -0.084 Cl
ENDBRANCH  22  23
ENDBRANCH   8  18
ENDBRANCH   4   7
ENDBRANCH   2   3
ENDBRANCH   1   2
BRANCH   1  30
ATOM     30  C   UNL A   1      31.766  29.466  27.208  1.00  0.00     0.023 C 
BRANCH  30  31
ATOM     31  C   UNL A   1      32.668  30.479  26.506  1.00  0.00     0.116 C 
BRANCH  31  32
ATOM     32  N   UNL A   1      32.551  31.853  26.978  1.00  0.00    -0.352 N 
ATOM     33  C   UNL A   1      33.471  32.654  27.622  1.00  0.00     0.251 C 
ATOM     34  H   UNL A   1      31.678  32.276  26.810  1.00  0.00     0.163 HD
ATOM     35  O   UNL A   1      33.225  33.819  27.890  1.00  0.00    -0.269 OA
BRANCH  33  36
ATOM     36  C   UNL A   1      34.756  32.081  28.056  1.00  0.00     0.039 A 
ATOM     37  C   UNL A   1      35.880  32.911  28.070  1.00  0.00     0.014 A 
ATOM     38  C   UNL A   1      34.836  30.765  28.509  1.00  0.00     0.014 A 
ATOM     39  C   UNL A   1      37.060  32.460  28.660  1.00  0.00     0.010 A 
ATOM     40  C   UNL A   1      35.981  30.348  29.174  1.00  0.00     0.010 A 
ATOM     41  C   UNL A   1      37.094  31.201  29.277  1.00  0.00    -0.014 A 
BRANCH  41  42
ATOM     42  C   UNL A   1      38.267  30.753  30.068  1.00  0.00     0.031 A 
ATOM     43  C   UNL A   1      39.215  29.751  29.482  1.00  0.00     0.074 A 
ATOM     44  C   UNL A   1      38.402  31.159  31.346  1.00  0.00     0.049 A 
ATOM     45  N   UNL A   1      40.189  29.096  30.058  1.00  0.00    -0.248 NA
ATOM     46  C   UNL A   1      39.014  29.410  28.064  1.00  0.00     0.031 C 
ATOM     47  C   UNL A   1      37.513  32.093  32.039  1.00  0.00     0.029 A 
ATOM     48  N   UNL A   1      39.328  30.817  32.298  1.00  0.00    -0.354 N 
ATOM     49  C   UNL A   1      40.689  28.239  29.086  1.00  0.00     0.074 A 
ATOM     50  C   UNL A   1      39.886  28.428  27.898  1.00  0.00     0.031 C 
ATOM     51  C   UNL A   1      37.945  32.262  33.299  1.00  0.00     0.029 A 
ATOM     52  C   UNL A   1      39.114  31.416  33.516  1.00  0.00     0.049 A 
ATOM     53  H   UNL A   1      40.077  30.202  32.125  1.00  0.00     0.167 HD
ATOM     54  C   UNL A   1      41.738  27.387  29.175  1.00  0.00     0.037 A 
ATOM     55  C   UNL A   1      39.778  31.282  34.680  1.00  0.00     0.037 A 
ATOM     56  C   UNL A   1      42.557  27.240  30.348  1.00  0.00     0.049 A 
ATOM     57  C   UNL A   1      40.958  30.352  34.743  1.00  0.00     0.074 A 
ATOM     58  C   UNL A   1      43.678  26.451  30.525  1.00  0.00     0.029 A 
ATOM     59  N   UNL A   1      42.343  27.909  31.545  1.00  0.00    -0.354 N 
ATOM     60  N   UNL A   1      41.456  29.583  33.804  1.00  0.00    -0.248 NA
ATOM     61  C   UNL A   1      41.673  30.272  36.024  1.00  0.00     0.031 C 
ATOM     62  C   UNL A   1      44.127  26.619  31.839  1.00  0.00     0.029 A 
ATOM     63  C   UNL A   1      43.310  27.545  32.468  1.00  0.00     0.049 A 
ATOM     64  H   UNL A   1      41.614  28.549  31.713  1.00  0.00     0.167 HD
ATOM     65  C   UNL A   1      42.557  28.955  34.368  1.00  0.00     0.074 A 
ATOM     66  C   UNL A   1      42.661  29.438  35.730  1.00  0.00     0.031 C 
ATOM     67  C   UNL A   1      43.406  28.059  33.810  1.00  0.00     0.037 A 
BRANCH  54  68
ATOM     68  C   UNL A   1      42.055  26.556  27.968  1.00  0.00     0.064 A 
ATOM     69  C   UNL A   1      43.024  26.952  27.034  1.00  0.00     0.173 A 
ATOM     70  C   UNL A   1      41.391  25.340  27.747  1.00  0.00     0.173 A 
ATOM     71  F   UNL A   1      43.676  28.114  27.192  1.00  0.00    -0.203 F 
ATOM     72  C   UNL A   1      43.293  26.182  25.907  1.00  0.00     0.198 A 
ATOM     73  C   UNL A   1      41.684  24.555  26.634  1.00  0.00     0.198 A 
ATOM     74  F   UNL A   1      40.457  24.911  28.609  1.00  0.00    -0.203 F 
ATOM     75  F   UNL A   1      44.182  26.611  25.000  1.00  0.00    -0.200 F 
ATOM     76  C   UNL A   1      42.628  24.981  25.711  1.00  0.00     0.200 A 
ATOM     77  F   UNL A   1      41.048  23.390  26.451  1.00  0.00    -0.200 F 
ATOM     78  F   UNL A   1      42.888  24.239  24.626  1.00  0.00    -0.200 F 
ENDBRANCH  54  68
BRANCH  55  79
ATOM     79  C   UNL A   1      39.361  32.069  35.870  1.00  0.00     0.064 A 
ATOM     80  C   UNL A   1      38.371  31.586  36.736  1.00  0.00     0.173 A 
ATOM     81  C   UNL A   1      39.937  33.313  36.166  1.00  0.00     0.173 A 
ATOM     82  F   UNL A   1      37.778  30.410  36.484  1.00  0.00    -0.203 F 
ATOM     83  C   UNL A   1      37.958  32.326  37.842  1.00  0.00     0.198 A 
ATOM     84  C   UNL A   1      39.541  34.041  37.288  1.00  0.00     0.198 A 
ATOM     85  F   UNL A   1      40.893  33.817  35.373  1.00  0.00    -0.203 F 
ATOM     86  F   UNL A   1      36.978  31.859  38.629  1.00  0.00    -0.200 F 
ATOM     87  C   UNL A   1      38.546  33.549  38.120  1.00  0.00     0.200 A 
ATOM     88  F   UNL A   1      40.122  35.217  37.560  1.00  0.00    -0.200 F 
ATOM     89  F   UNL A   1      38.150  34.260  39.186  1.00  0.00    -0.200 F 
ENDBRANCH  55  79
BRANCH  67  90
ATOM     90  C   UNL A   1      44.552  27.583  34.650  1.00  0.00     0.064 A 
ATOM     91  C   UNL A   1      45.769  28.276  34.696  1.00  0.00     0.173 A 
ATOM     92  C   UNL A   1      44.407  26.448  35.463  1.00  0.00     0.173 A 
ATOM     93  F   UNL A   1      45.960  29.357  33.926  1.00  0.00    -0.203 F 
ATOM     94  C   UNL A   1      46.807  27.840  35.515  1.00  0.00     0.198 A 
ATOM     95  C   UNL A   1      45.436  26.031  36.300  1.00  0.00     0.198 A 
ATOM     96  F   UNL A   1      43.257  25.755  35.458  1.00  0.00    -0.203 F 
ATOM     97  F   UNL A   1      47.977  28.496  35.518  1.00  0.00    -0.200 F 
ATOM     98  C   UNL A   1      46.637  26.724  36.323  1.00  0.00     0.200 A 
ATOM     99  F   UNL A   1      45.266  24.960  37.088  1.00  0.00    -0.200 F 
ATOM    100  F   UNL A   1      47.634  26.314  37.119  1.00  0.00    -0.200 F 
ENDBRANCH  67  90
ENDBRANCH  41  42
ENDBRANCH  33  36
ENDBRANCH  31  32
ENDBRANCH  30  31
ENDBRANCH   1  30
TORSDOF 15
ENDMDL
MODEL 2
REMARK VINA RESULT:     -13.0      2.578      8.743
REMARK SMILES C[C@H]1N=N[C@H](S/C(=C/c2ccc(-c3cccc(Cl)c3)o2)C(=O)NCCCCNC(=O)c2ccc(-c3c4nc(c(-c5c(F)c(F)c(F)c(F)c5F)c5ccc([nH]5)c(-c5c(F)c(F)c(F)c(F)c5F)c5nc(c(-c6c(F)c(F)c(F)c(F)c6F)c6ccc3[nH]6)C=C5)C=C4)cc2)[NH2+]1
REMARK SMILES IDX 25 1 24 2 23 3 21 4 22 5 7 7 8 8 6 9 5 10 1 11 2 12 3 13
REMARK SMILES IDX 94 14 4 15 9 18 10 19 20 20 11 21 12 22 13 23 14 24 19 25
REMARK SMILES IDX 15 26 17 27 16 28 18 29 26 30 27 31 28 32 29 33 30 35 31 36
REMARK SMILES IDX 32 37 93 38 33 39 92 40 34 41 35 42 36 43 86 44 37 45 91 46
REMARK SMILES IDX 85 47 87 48 38 49 90 50 84 51 83 52 39 54 71 55 51 56 70 57
REMARK SMILES IDX 52 58 55 59 69 60 88 61 53 62 54 63 68 65 89 66 56 67 40 68
REMARK SMILES IDX 41 69 49 70 42 71 43 72 47 73 50 74 44 75 45 76 48 77 46 78
REMARK SMILES IDX 72 79 73 80 81 81 74 82 75 83 79 84 82 85 76 86 77 87 80 88
REMARK SMILES IDX 78 89 57 90 58 91 66 92 59 93 60 94 64 95 67 96 61 97 62 98
REMARK SMILES IDX 65 99 63 100
REMARK H PARENT 23 6 94 16 94 17 28 34 87 53 55 64
REMARK Flexibility Score: inf
ROOT
ATOM      1  C   UNL A   1      32.145  30.382  26.937  1.00  0.00     0.023 C 
ENDROOT
BRANCH   1   2
ATOM      2  C   UNL A   1      31.666  29.532  25.768  1.00  0.00     0.116 C 
BRANCH   2   3
ATOM      3  N   UNL A   1      32.494  29.555  24.590  1.00  0.00    -0.352 N 
ATOM      4  C   UNL A   1      32.743  28.551  23.698  1.00  0.00     0.258 C 
ATOM      5  O   UNL A   1      33.323  28.862  22.653  1.00  0.00    -0.269 OA
ATOM      6  H   UNL A   1      32.940  30.412  24.402  1.00  0.00     0.163 HD
BRANCH   4   7
ATOM      7  C   UNL A   1      32.412  27.097  23.968  1.00  0.00     0.084 C 
ATOM      8  C   UNL A   1      31.219  26.507  23.772  1.00  0.00     0.068 C 
BRANCH   7   9
ATOM      9  S   UNL A   1      33.859  26.213  24.457  1.00  0.00    -0.030 SA
BRANCH   9  10
ATOM     10  C   UNL A   1      33.665  24.462  23.981  1.00  0.00     0.393 C 
ATOM     11  C   UNL A   1      36.150  21.942  24.370  1.00  0.00     0.106 C 
ATOM     12  C   UNL A   1      35.585  23.327  24.105  1.00  0.00     0.324 C 
ATOM     13  N   UNL A   1      35.220  23.478  22.690  1.00  0.00    -0.126 NA
ATOM     14  N   UNL A   1      34.369  23.543  24.877  1.00  0.00    -0.293 N 
ATOM     15  N   UNL A   1      34.146  24.133  22.615  1.00  0.00    -0.115 NA
ATOM     16  H   UNL A   1      34.564  23.971  25.782  1.00  0.00     0.350 HD
ATOM     17  H   UNL A   1      33.853  22.695  25.118  1.00  0.00     0.350 HD
ENDBRANCH   9  10
ENDBRANCH   7   9
BRANCH   8  18
ATOM     18  C   UNL A   1      29.977  27.149  23.569  1.00  0.00     0.128 A 
ATOM     19  C   UNL A   1      28.672  26.714  23.735  1.00  0.00     0.051 A 
ATOM     20  O   UNL A   1      29.929  28.475  23.193  1.00  0.00    -0.457 OA
ATOM     21  C   UNL A   1      27.815  27.803  23.416  1.00  0.00     0.051 A 
ATOM     22  C   UNL A   1      28.631  28.852  23.050  1.00  0.00     0.134 A 
BRANCH  22  23
ATOM     23  C   UNL A   1      28.403  30.175  22.476  1.00  0.00     0.019 A 
ATOM     24  C   UNL A   1      27.942  30.310  21.161  1.00  0.00     0.012 A 
ATOM     25  C   UNL A   1      28.762  31.337  23.182  1.00  0.00     0.032 A 
ATOM     26  C   UNL A   1      27.876  31.567  20.550  1.00  0.00     0.002 A 
ATOM     27  C   UNL A   1      28.719  32.586  22.558  1.00  0.00     0.041 A 
ATOM     28  C   UNL A   1      28.281  32.706  21.244  1.00  0.00     0.020 A 
ATOM     29  Cl  UNL A   1      29.263  33.981  23.407  1.00  0.00    -0.084 Cl
ENDBRANCH  22  23
ENDBRANCH   8  18
ENDBRANCH   4   7
ENDBRANCH   2   3
ENDBRANCH   1   2
BRANCH   1  30
ATOM     30  C   UNL A   1      31.822  31.876  26.874  1.00  0.00     0.023 C 
BRANCH  30  31
ATOM     31  C   UNL A   1      32.933  32.867  27.214  1.00  0.00     0.116 C 
BRANCH  31  32
ATOM     32  N   UNL A   1      32.485  34.165  27.704  1.00  0.00    -0.352 N 
ATOM     33  C   UNL A   1      33.031  34.990  28.664  1.00  0.00     0.251 C 
ATOM     34  H   UNL A   1      31.664  34.506  27.282  1.00  0.00     0.163 HD
ATOM     35  O   UNL A   1      32.556  36.089  28.906  1.00  0.00    -0.269 OA
BRANCH  33  36
ATOM     36  C   UNL A   1      34.173  34.518  29.466  1.00  0.00     0.039 A 
ATOM     37  C   UNL A   1      33.912  33.925  30.704  1.00  0.00     0.014 A 
ATOM     38  C   UNL A   1      35.473  34.596  28.973  1.00  0.00     0.014 A 
ATOM     39  C   UNL A   1      34.946  33.291  31.393  1.00  0.00     0.010 A 
ATOM     40  C   UNL A   1      36.483  33.891  29.614  1.00  0.00     0.010 A 
ATOM     41  C   UNL A   1      36.222  33.212  30.817  1.00  0.00    -0.014 A 
BRANCH  41  42
ATOM     42  C   UNL A   1      37.303  32.400  31.428  1.00  0.00     0.031 A 
ATOM     43  C   UNL A   1      37.808  32.749  32.795  1.00  0.00     0.074 A 
ATOM     44  C   UNL A   1      37.901  31.434  30.702  1.00  0.00     0.049 A 
ATOM     45  N   UNL A   1      38.852  32.292  33.435  1.00  0.00    -0.248 NA
ATOM     46  C   UNL A   1      37.056  33.781  33.527  1.00  0.00     0.031 C 
ATOM     47  C   UNL A   1      37.529  31.040  29.342  1.00  0.00     0.029 A 
ATOM     48  N   UNL A   1      38.967  30.625  31.000  1.00  0.00    -0.354 N 
ATOM     49  C   UNL A   1      38.906  33.008  34.624  1.00  0.00     0.074 A 
ATOM     50  C   UNL A   1      37.814  33.956  34.598  1.00  0.00     0.031 C 
ATOM     51  C   UNL A   1      38.342  30.055  28.930  1.00  0.00     0.029 A 
ATOM     52  C   UNL A   1      39.320  29.778  29.977  1.00  0.00     0.049 A 
ATOM     53  H   UNL A   1      39.435  30.647  31.866  1.00  0.00     0.167 HD
ATOM     54  C   UNL A   1      39.777  32.870  35.650  1.00  0.00     0.037 A 
ATOM     55  C   UNL A   1      40.329  28.890  29.890  1.00  0.00     0.037 A 
ATOM     56  C   UNL A   1      40.833  31.893  35.683  1.00  0.00     0.049 A 
ATOM     57  C   UNL A   1      41.265  28.735  31.058  1.00  0.00     0.074 A 
ATOM     58  C   UNL A   1      41.733  31.629  36.699  1.00  0.00     0.029 A 
ATOM     59  N   UNL A   1      41.120  31.012  34.651  1.00  0.00    -0.354 N 
ATOM     60  N   UNL A   1      41.277  29.382  32.199  1.00  0.00    -0.248 NA
ATOM     61  C   UNL A   1      42.324  27.725  30.930  1.00  0.00     0.031 C 
ATOM     62  C   UNL A   1      42.586  30.607  36.269  1.00  0.00     0.029 A 
ATOM     63  C   UNL A   1      42.191  30.206  35.003  1.00  0.00     0.049 A 
ATOM     64  H   UNL A   1      40.636  30.966  33.795  1.00  0.00     0.167 HD
ATOM     65  C   UNL A   1      42.319  28.837  32.935  1.00  0.00     0.074 A 
ATOM     66  C   UNL A   1      42.913  27.801  32.115  1.00  0.00     0.031 C 
ATOM     67  C   UNL A   1      42.748  29.165  34.178  1.00  0.00     0.037 A 
BRANCH  54  68
ATOM     68  C   UNL A   1      39.618  33.796  36.819  1.00  0.00     0.064 A 
ATOM     69  C   UNL A   1      38.848  33.445  37.938  1.00  0.00     0.173 A 
ATOM     70  C   UNL A   1      40.254  35.047  36.828  1.00  0.00     0.173 A 
ATOM     71  F   UNL A   1      38.207  32.267  37.972  1.00  0.00    -0.203 F 
ATOM     72  C   UNL A   1      38.691  34.323  39.006  1.00  0.00     0.198 A 
ATOM     73  C   UNL A   1      40.121  35.912  37.912  1.00  0.00     0.198 A 
ATOM     74  F   UNL A   1      41.005  35.433  35.785  1.00  0.00    -0.203 F 
ATOM     75  F   UNL A   1      37.904  33.988  40.037  1.00  0.00    -0.200 F 
ATOM     76  C   UNL A   1      39.333  35.553  38.995  1.00  0.00     0.200 A 
ATOM     77  F   UNL A   1      40.749  37.095  37.905  1.00  0.00    -0.200 F 
ATOM     78  F   UNL A   1      39.183  36.397  40.024  1.00  0.00    -0.200 F 
ENDBRANCH  54  68
BRANCH  55  79
ATOM     79  C   UNL A   1      40.489  28.060  28.668  1.00  0.00     0.064 A 
ATOM     80  C   UNL A   1      39.852  26.816  28.561  1.00  0.00     0.173 A 
ATOM     81  C   UNL A   1      41.276  28.486  27.589  1.00  0.00     0.173 A 
ATOM     82  F   UNL A   1      39.104  26.358  29.575  1.00  0.00    -0.203 F 
ATOM     83  C   UNL A   1      40.012  26.020  27.428  1.00  0.00     0.198 A 
ATOM     84  C   UNL A   1      41.415  27.700  26.445  1.00  0.00     0.198 A 
ATOM     85  F   UNL A   1      41.901  29.671  27.638  1.00  0.00    -0.203 F 
ATOM     86  F   UNL A   1      39.427  24.816  27.371  1.00  0.00    -0.200 F 
ATOM     87  C   UNL A   1      40.789  26.465  26.370  1.00  0.00     0.200 A 
ATOM     88  F   UNL A   1      42.156  28.139  25.419  1.00  0.00    -0.200 F 
ATOM     89  F   UNL A   1      40.942  25.699  25.280  1.00  0.00    -0.200 F 
ENDBRANCH  55  79
BRANCH  67  90
ATOM     90  C   UNL A   1      43.877  28.362  34.750  1.00  0.00     0.064 A 
ATOM     91  C   UNL A   1      43.653  27.163  35.438  1.00  0.00     0.173 A 
ATOM     92  C   UNL A   1      45.204  28.774  34.554  1.00  0.00     0.173 A 
ATOM     93  F   UNL A   1      42.401  26.736  35.662  1.00  0.00    -0.203 F 
ATOM     94  C   UNL A   1      44.718  26.410  35.926  1.00  0.00     0.198 A 
ATOM     95  C   UNL A   1      46.267  28.007  35.019  1.00  0.00     0.198 A 
ATOM     96  F   UNL A   1      45.469  29.914  33.896  1.00  0.00    -0.203 F 
ATOM     97  F   UNL A   1      44.482  25.284  36.613  1.00  0.00    -0.200 F 
ATOM     98  C   UNL A   1      46.024  26.828  35.708  1.00  0.00     0.200 A 
ATOM     99  F   UNL A   1      47.527  28.405  34.798  1.00  0.00    -0.200 F 
ATOM    100  F   UNL A   1      47.048  26.096  36.168  1.00  0.00    -0.200 F 
ENDBRANCH  67  90
ENDBRANCH  41  42
ENDBRANCH  33  36
ENDBRANCH  31  32
ENDBRANCH  30  31
ENDBRANCH   1  30
TORSDOF 15
ENDMDL
MODEL 3
REMARK VINA RESULT:     -13.0      1.736      2.750
REMARK SMILES C[C@H]1N=N[C@H](S/C(=C/c2ccc(-c3cccc(Cl)c3)o2)C(=O)NCCCCNC(=O)c2ccc(-c3c4nc(c(-c5c(F)c(F)c(F)c(F)c5F)c5ccc([nH]5)c(-c5c(F)c(F)c(F)c(F)c5F)c5nc(c(-c6c(F)c(F)c(F)c(F)c6F)c6ccc3[nH]6)C=C5)C=C4)cc2)[NH2+]1
REMARK SMILES IDX 25 1 24 2 23 3 21 4 22 5 7 7 8 8 6 9 5 10 1 11 2 12 3 13
REMARK SMILES IDX 94 14 4 15 9 18 10 19 20 20 11 21 12 22 13 23 14 24 19 25
REMARK SMILES IDX 15 26 17 27 16 28 18 29 26 30 27 31 28 32 29 33 30 35 31 36
REMARK SMILES IDX 32 37 93 38 33 39 92 40 34 41 35 42 36 43 86 44 37 45 91 46
REMARK SMILES IDX 85 47 87 48 38 49 90 50 84 51 83 52 39 54 71 55 51 56 70 57
REMARK SMILES IDX 52 58 55 59 69 60 88 61 53 62 54 63 68 65 89 66 56 67 40 68
REMARK SMILES IDX 41 69 49 70 42 71 43 72 47 73 50 74 44 75 45 76 48 77 46 78
REMARK SMILES IDX 72 79 73 80 81 81 74 82 75 83 79 84 82 85 76 86 77 87 80 88
REMARK SMILES IDX 78 89 57 90 58 91 66 92 59 93 60 94 64 95 67 96 61 97 62 98
REMARK SMILES IDX 65 99 63 100
REMARK H PARENT 23 6 94 16 94 17 28 34 87 53 55 64
REMARK Flexibility Score: inf
ROOT
ATOM      1  C   UNL A   1      32.427  29.618  27.238  1.00  0.00     0.023 C 
ENDROOT
BRANCH   1   2
ATOM      2  C   UNL A   1      32.153  28.569  26.169  1.00  0.00     0.116 C 
BRANCH   2   3
ATOM      3  N   UNL A   1      31.226  27.528  26.528  1.00  0.00    -0.352 N 
ATOM      4  C   UNL A   1      30.729  26.519  25.754  1.00  0.00     0.258 C 
ATOM      5  O   UNL A   1      30.105  25.624  26.334  1.00  0.00    -0.269 OA
ATOM      6  H   UNL A   1      30.907  27.547  27.459  1.00  0.00     0.163 HD
BRANCH   4   7
ATOM      7  C   UNL A   1      30.846  26.494  24.244  1.00  0.00     0.084 C 
ATOM      8  C   UNL A   1      31.725  25.770  23.529  1.00  0.00     0.068 C 
BRANCH   7   9
ATOM      9  S   UNL A   1      29.562  27.455  23.508  1.00  0.00    -0.030 SA
BRANCH   9  10
ATOM     10  C   UNL A   1      30.272  29.029  22.916  1.00  0.00     0.393 C 
ATOM     11  C   UNL A   1      28.662  32.200  23.084  1.00  0.00     0.106 C 
ATOM     12  C   UNL A   1      28.783  30.693  22.925  1.00  0.00     0.324 C 
ATOM     13  N   UNL A   1      29.082  30.339  21.531  1.00  0.00    -0.126 NA
ATOM     14  N   UNL A   1      29.881  30.178  23.733  1.00  0.00    -0.293 N 
ATOM     15  N   UNL A   1      29.909  29.388  21.521  1.00  0.00    -0.115 NA
ATOM     16  H   UNL A   1      29.568  29.894  24.662  1.00  0.00     0.350 HD
ATOM     17  H   UNL A   1      30.628  30.846  23.924  1.00  0.00     0.350 HD
ENDBRANCH   9  10
ENDBRANCH   7   9
BRANCH   8  18
ATOM     18  C   UNL A   1      32.890  25.130  24.012  1.00  0.00     0.128 A 
ATOM     19  C   UNL A   1      34.129  25.624  24.387  1.00  0.00     0.051 A 
ATOM     20  O   UNL A   1      32.894  23.772  24.249  1.00  0.00    -0.457 OA
ATOM     21  C   UNL A   1      34.910  24.523  24.832  1.00  0.00     0.051 A 
ATOM     22  C   UNL A   1      34.124  23.400  24.691  1.00  0.00     0.134 A 
BRANCH  22  23
ATOM     23  C   UNL A   1      34.357  21.964  24.815  1.00  0.00     0.019 A 
ATOM     24  C   UNL A   1      35.649  21.469  25.038  1.00  0.00     0.012 A 
ATOM     25  C   UNL A   1      33.319  21.044  24.587  1.00  0.00     0.032 A 
ATOM     26  C   UNL A   1      35.906  20.095  24.997  1.00  0.00     0.002 A 
ATOM     27  C   UNL A   1      33.587  19.675  24.520  1.00  0.00     0.041 A 
ATOM     28  C   UNL A   1      34.877  19.196  24.720  1.00  0.00     0.020 A 
ATOM     29  Cl  UNL A   1      32.320  18.575  24.135  1.00  0.00    -0.084 Cl
ENDBRANCH  22  23
ENDBRANCH   8  18
ENDBRANCH   4   7
ENDBRANCH   2   3
ENDBRANCH   1   2
BRANCH   1  30
ATOM     30  C   UNL A   1      32.137  31.072  26.861  1.00  0.00     0.023 C 
BRANCH  30  31
ATOM     31  C   UNL A   1      33.154  32.138  27.266  1.00  0.00     0.116 C 
BRANCH  31  32
ATOM     32  N   UNL A   1      32.597  33.449  27.573  1.00  0.00    -0.352 N 
ATOM     33  C   UNL A   1      33.069  34.444  28.402  1.00  0.00     0.251 C 
ATOM     34  H   UNL A   1      31.751  33.657  27.115  1.00  0.00     0.163 HD
ATOM     35  O   UNL A   1      32.502  35.522  28.492  1.00  0.00    -0.269 OA
BRANCH  33  36
ATOM     36  C   UNL A   1      34.245  34.187  29.251  1.00  0.00     0.039 A 
ATOM     37  C   UNL A   1      34.059  33.490  30.448  1.00  0.00     0.014 A 
ATOM     38  C   UNL A   1      35.521  34.567  28.838  1.00  0.00     0.014 A 
ATOM     39  C   UNL A   1      35.170  33.059  31.171  1.00  0.00     0.010 A 
ATOM     40  C   UNL A   1      36.626  34.063  29.510  1.00  0.00     0.010 A 
ATOM     41  C   UNL A   1      36.460  33.283  30.668  1.00  0.00    -0.014 A 
BRANCH  41  42
ATOM     42  C   UNL A   1      37.660  32.692  31.309  1.00  0.00     0.031 A 
ATOM     43  C   UNL A   1      38.379  31.563  30.634  1.00  0.00     0.074 A 
ATOM     44  C   UNL A   1      38.021  33.093  32.544  1.00  0.00     0.049 A 
ATOM     45  N   UNL A   1      39.327  30.790  31.095  1.00  0.00    -0.248 NA
ATOM     46  C   UNL A   1      37.944  31.233  29.267  1.00  0.00     0.031 C 
ATOM     47  C   UNL A   1      37.365  34.148  33.320  1.00  0.00     0.029 A 
ATOM     48  N   UNL A   1      39.014  32.642  33.375  1.00  0.00    -0.354 N 
ATOM     49  C   UNL A   1      39.574  29.861  30.094  1.00  0.00     0.074 A 
ATOM     50  C   UNL A   1      38.648  30.140  29.018  1.00  0.00     0.031 C 
ATOM     51  C   UNL A   1      37.983  34.273  34.505  1.00  0.00     0.029 A 
ATOM     52  C   UNL A   1      39.048  33.280  34.591  1.00  0.00     0.049 A 
ATOM     53  H   UNL A   1      39.645  31.929  33.123  1.00  0.00     0.167 HD
ATOM     54  C   UNL A   1      40.503  28.877  30.069  1.00  0.00     0.037 A 
ATOM     55  C   UNL A   1      39.841  33.074  35.660  1.00  0.00     0.037 A 
ATOM     56  C   UNL A   1      41.447  28.636  31.126  1.00  0.00     0.049 A 
ATOM     57  C   UNL A   1      40.887  31.994  35.595  1.00  0.00     0.074 A 
ATOM     58  C   UNL A   1      42.469  27.705  31.177  1.00  0.00     0.029 A 
ATOM     59  N   UNL A   1      41.489  29.344  32.319  1.00  0.00    -0.354 N 
ATOM     60  N   UNL A   1      41.146  31.152  34.623  1.00  0.00    -0.248 NA
ATOM     61  C   UNL A   1      41.752  31.836  36.771  1.00  0.00     0.031 C 
ATOM     62  C   UNL A   1      43.110  27.830  32.414  1.00  0.00     0.029 A 
ATOM     63  C   UNL A   1      42.516  28.866  33.116  1.00  0.00     0.049 A 
ATOM     64  H   UNL A   1      40.879  30.078  32.563  1.00  0.00     0.167 HD
ATOM     65  C   UNL A   1      42.221  30.390  35.054  1.00  0.00     0.074 A 
ATOM     66  C   UNL A   1      42.572  30.873  36.375  1.00  0.00     0.031 C 
ATOM     67  C   UNL A   1      42.861  29.380  34.417  1.00  0.00     0.037 A 
BRANCH  54  68
ATOM     68  C   UNL A   1      40.540  27.994  28.857  1.00  0.00     0.064 A 
ATOM     69  C   UNL A   1      41.314  28.319  27.732  1.00  0.00     0.173 A 
ATOM     70  C   UNL A   1      39.804  26.800  28.823  1.00  0.00     0.173 A 
ATOM     71  F   UNL A   1      42.024  29.457  27.709  1.00  0.00    -0.203 F 
ATOM     72  C   UNL A   1      41.322  27.502  26.606  1.00  0.00     0.198 A 
ATOM     73  C   UNL A   1      39.838  25.968  27.706  1.00  0.00     0.198 A 
ATOM     74  F   UNL A   1      39.049  26.440  29.872  1.00  0.00    -0.203 F 
ATOM     75  F   UNL A   1      42.023  27.863  25.523  1.00  0.00    -0.200 F 
ATOM     76  C   UNL A   1      40.590  26.324  26.597  1.00  0.00     0.200 A 
ATOM     77  F   UNL A   1      39.139  24.825  27.702  1.00  0.00    -0.200 F 
ATOM     78  F   UNL A   1      40.599  25.537  25.512  1.00  0.00    -0.200 F 
ENDBRANCH  54  68
BRANCH  55  79
ATOM     79  C   UNL A   1      39.698  33.926  36.869  1.00  0.00     0.064 A 
ATOM     80  C   UNL A   1      40.364  35.156  36.960  1.00  0.00     0.173 A 
ATOM     81  C   UNL A   1      38.901  33.534  37.955  1.00  0.00     0.173 A 
ATOM     82  F   UNL A   1      41.153  35.565  35.956  1.00  0.00    -0.203 F 
ATOM     83  C   UNL A   1      40.254  35.952  38.098  1.00  0.00     0.198 A 
ATOM     84  C   UNL A   1      38.771  34.344  39.082  1.00  0.00     0.198 A 
ATOM     85  F   UNL A   1      38.238  32.369  37.915  1.00  0.00    -0.203 F 
ATOM     86  F   UNL A   1      40.937  37.103  38.175  1.00  0.00    -0.200 F 
ATOM     87  C   UNL A   1      39.455  35.548  39.155  1.00  0.00     0.200 A 
ATOM     88  F   UNL A   1      37.986  33.956  40.096  1.00  0.00    -0.200 F 
ATOM     89  F   UNL A   1      39.348  36.316  40.249  1.00  0.00    -0.200 F 
ENDBRANCH  55  79
BRANCH  67  90
ATOM     90  C   UNL A   1      44.038  28.765  35.111  1.00  0.00     0.064 A 
ATOM     91  C   UNL A   1      43.898  27.655  35.955  1.00  0.00     0.173 A 
ATOM     92  C   UNL A   1      45.330  29.261  34.881  1.00  0.00     0.173 A 
ATOM     93  F   UNL A   1      42.680  27.156  36.217  1.00  0.00    -0.203 F 
ATOM     94  C   UNL A   1      45.009  27.073  36.558  1.00  0.00     0.198 A 
ATOM     95  C   UNL A   1      46.441  28.660  35.463  1.00  0.00     0.198 A 
ATOM     96  F   UNL A   1      45.516  30.319  34.076  1.00  0.00    -0.203 F 
ATOM     97  F   UNL A   1      44.850  26.034  37.391  1.00  0.00    -0.200 F 
ATOM     98  C   UNL A   1      46.280  27.569  36.305  1.00  0.00     0.200 A 
ATOM     99  F   UNL A   1      47.669  29.133  35.208  1.00  0.00    -0.200 F 
ATOM    100  F   UNL A   1      47.349  26.999  36.877  1.00  0.00    -0.200 F 
ENDBRANCH  67  90
ENDBRANCH  41  42
ENDBRANCH  33  36
ENDBRANCH  31  32
ENDBRANCH  30  31
ENDBRANCH   1  30
TORSDOF 15
ENDMDL
