MODEL 1
REMARK VINA RESULT:     -11.4      0.000      0.000
REMARK SMILES Cc1ccc(C(=O)CCCC(=O)NCCCCNC(=O)c2ccc(-c3c4nc(c(-c5c(F)c(F)c(F)c(F)c5F)c5ccc([nH]5)c(-c5c(F)c(F)c(F)c(F)c5F)c5nc(c(-c6c(F)c(F)c(F)c(F)c6F)c6ccc3[nH]6)C=C5)C=C4)cc2)s1
REMARK SMILES IDX 14 1 13 2 11 3 12 4 10 6 9 7 8 8 6 9 7 10 5 11 1 12 2 13
REMARK SMILES IDX 3 14 84 15 4 16 15 17 16 18 17 19 18 20 19 21 20 23 21 24
REMARK SMILES IDX 22 25 83 26 23 27 82 28 24 29 25 30 26 31 76 32 27 33 81 34
REMARK SMILES IDX 75 35 77 36 28 37 80 38 74 39 73 40 29 42 61 43 41 44 60 45
REMARK SMILES IDX 42 46 45 47 59 48 78 49 43 50 44 51 58 53 79 54 46 55 30 56
REMARK SMILES IDX 31 57 39 58 32 59 33 60 37 61 40 62 34 63 35 64 38 65 36 66
REMARK SMILES IDX 62 67 63 68 71 69 64 70 65 71 69 72 72 73 66 74 67 75 70 76
REMARK SMILES IDX 68 77 47 78 48 79 56 80 49 81 50 82 54 83 57 84 51 85 52 86
REMARK SMILES IDX 55 87 53 88
REMARK H PARENT 13 5 18 22 77 41 45 52
REMARK Flexibility Score: inf
ROOT
ATOM      1  C   UNL A   1      33.436  29.660  26.678  1.00  0.00     0.116 C 
ENDROOT
BRANCH   1   2
ATOM      2  N   UNL A   1      33.654  29.669  25.250  1.00  0.00    -0.356 N 
ATOM      3  C   UNL A   1      33.326  28.825  24.242  1.00  0.00     0.220 C 
ATOM      4  O   UNL A   1      33.673  29.190  23.112  1.00  0.00    -0.275 OA
ATOM      5  H   UNL A   1      34.148  30.464  24.942  1.00  0.00     0.163 HD
BRANCH   3   6
ATOM      6  C   UNL A   1      32.500  27.552  24.392  1.00  0.00     0.100 C 
BRANCH   6   7
ATOM      7  C   UNL A   1      30.977  27.596  24.388  1.00  0.00     0.018 C 
BRANCH   7   8
ATOM      8  C   UNL A   1      30.188  27.798  23.097  1.00  0.00     0.082 C 
BRANCH   8   9
ATOM      9  C   UNL A   1      28.796  28.442  23.118  1.00  0.00     0.172 C 
ATOM     10  O   UNL A   1      27.863  27.709  23.467  1.00  0.00    -0.293 OA
BRANCH   9  11
ATOM     11  C   UNL A   1      28.594  29.874  22.850  1.00  0.00     0.070 A 
ATOM     12  C   UNL A   1      27.759  33.001  20.570  1.00  0.00     0.056 C 
ATOM     13  C   UNL A   1      28.111  31.994  21.609  1.00  0.00     0.002 A 
ATOM     14  C   UNL A   1      28.457  32.226  22.916  1.00  0.00     0.016 A 
ATOM     15  S   UNL A   1      28.109  30.327  21.249  1.00  0.00    -0.138 S 
ATOM     16  C   UNL A   1      28.700  31.015  23.623  1.00  0.00     0.024 A 
ENDBRANCH   9  11
ENDBRANCH   8   9
ENDBRANCH   7   8
ENDBRANCH   6   7
ENDBRANCH   3   6
ENDBRANCH   1   2
BRANCH   1  17
ATOM     17  C   UNL A   1      32.053  30.198  27.047  1.00  0.00     0.023 C 
BRANCH  17  18
ATOM     18  C   UNL A   1      31.883  31.683  26.739  1.00  0.00     0.023 C 
BRANCH  18  19
ATOM     19  C   UNL A   1      32.934  32.580  27.386  1.00  0.00     0.116 C 
BRANCH  19  20
ATOM     20  N   UNL A   1      32.480  33.943  27.626  1.00  0.00    -0.352 N 
ATOM     21  C   UNL A   1      32.977  34.855  28.529  1.00  0.00     0.251 C 
ATOM     22  H   UNL A   1      31.724  34.250  27.075  1.00  0.00     0.163 HD
ATOM     23  O   UNL A   1      32.447  35.949  28.682  1.00  0.00    -0.269 OA
BRANCH  21  24
ATOM     24  C   UNL A   1      34.138  34.470  29.356  1.00  0.00     0.039 A 
ATOM     25  C   UNL A   1      33.914  33.889  30.605  1.00  0.00     0.014 A 
ATOM     26  C   UNL A   1      35.434  34.590  28.849  1.00  0.00     0.014 A 
ATOM     27  C   UNL A   1      34.988  33.348  31.312  1.00  0.00     0.010 A 
ATOM     28  C   UNL A   1      36.488  33.978  29.516  1.00  0.00     0.010 A 
ATOM     29  C   UNL A   1      36.275  33.345  30.750  1.00  0.00    -0.014 A 
BRANCH  29  30
ATOM     30  C   UNL A   1      37.411  32.678  31.435  1.00  0.00     0.031 A 
ATOM     31  C   UNL A   1      38.126  31.538  30.768  1.00  0.00     0.074 A 
ATOM     32  C   UNL A   1      37.748  33.049  32.686  1.00  0.00     0.049 A 
ATOM     33  N   UNL A   1      39.097  30.790  31.225  1.00  0.00    -0.248 NA
ATOM     34  C   UNL A   1      37.666  31.168  29.421  1.00  0.00     0.031 C 
ATOM     35  C   UNL A   1      37.084  34.094  33.469  1.00  0.00     0.029 A 
ATOM     36  N   UNL A   1      38.731  32.583  33.524  1.00  0.00    -0.354 N 
ATOM     37  C   UNL A   1      39.346  29.850  30.234  1.00  0.00     0.074 A 
ATOM     38  C   UNL A   1      38.388  30.086  29.176  1.00  0.00     0.031 C 
ATOM     39  C   UNL A   1      37.697  34.208  34.660  1.00  0.00     0.029 A 
ATOM     40  C   UNL A   1      38.776  33.230  34.735  1.00  0.00     0.049 A 
ATOM     41  H   UNL A   1      39.345  31.853  33.280  1.00  0.00     0.167 HD
ATOM     42  C   UNL A   1      40.305  28.896  30.194  1.00  0.00     0.037 A 
ATOM     43  C   UNL A   1      39.602  33.054  35.785  1.00  0.00     0.037 A 
ATOM     44  C   UNL A   1      41.284  28.692  31.229  1.00  0.00     0.049 A 
ATOM     45  C   UNL A   1      40.687  32.015  35.699  1.00  0.00     0.074 A 
ATOM     46  C   UNL A   1      42.339  27.796  31.255  1.00  0.00     0.029 A 
ATOM     47  N   UNL A   1      41.331  29.402  32.419  1.00  0.00    -0.354 N 
ATOM     48  N   UNL A   1      40.961  31.184  34.724  1.00  0.00    -0.248 NA
ATOM     49  C   UNL A   1      41.587  31.902  36.856  1.00  0.00     0.031 C 
ATOM     50  C   UNL A   1      43.006  27.943  32.476  1.00  0.00     0.029 A 
ATOM     51  C   UNL A   1      42.392  28.959  33.191  1.00  0.00     0.049 A 
ATOM     52  H   UNL A   1      40.703  30.115  32.677  1.00  0.00     0.167 HD
ATOM     53  C   UNL A   1      42.079  30.471  35.133  1.00  0.00     0.074 A 
ATOM     54  C   UNL A   1      42.441  30.975  36.441  1.00  0.00     0.031 C 
ATOM     55  C   UNL A   1      42.747  29.487  34.483  1.00  0.00     0.037 A 
BRANCH  42  56
ATOM     56  C   UNL A   1      40.349  28.010  28.984  1.00  0.00     0.064 A 
ATOM     57  C   UNL A   1      39.639  26.800  28.935  1.00  0.00     0.173 A 
ATOM     58  C   UNL A   1      41.092  28.382  27.854  1.00  0.00     0.173 A 
ATOM     59  F   UNL A   1      38.926  26.393  29.995  1.00  0.00    -0.203 F 
ATOM     60  C   UNL A   1      39.696  25.981  27.810  1.00  0.00     0.198 A 
ATOM     61  C   UNL A   1      41.123  27.575  26.720  1.00  0.00     0.198 A 
ATOM     62  F   UNL A   1      41.786  29.530  27.848  1.00  0.00    -0.203 F 
ATOM     63  F   UNL A   1      39.053  24.806  27.808  1.00  0.00    -0.200 F 
ATOM     64  C   UNL A   1      40.432  26.372  26.703  1.00  0.00     0.200 A 
ATOM     65  F   UNL A   1      41.827  27.958  25.645  1.00  0.00    -0.200 F 
ATOM     66  F   UNL A   1      40.484  25.584  25.620  1.00  0.00    -0.200 F 
ENDBRANCH  42  56
BRANCH  43  67
ATOM     67  C   UNL A   1      39.467  33.916  36.987  1.00  0.00     0.064 A 
ATOM     68  C   UNL A   1      40.070  35.182  37.033  1.00  0.00     0.173 A 
ATOM     69  C   UNL A   1      38.743  33.497  38.112  1.00  0.00     0.173 A 
ATOM     70  F   UNL A   1      40.790  35.617  35.988  1.00  0.00    -0.203 F 
ATOM     71  C   UNL A   1      39.971  35.986  38.165  1.00  0.00     0.198 A 
ATOM     72  C   UNL A   1      38.623  34.314  39.234  1.00  0.00     0.198 A 
ATOM     73  F   UNL A   1      38.142  32.299  38.115  1.00  0.00    -0.203 F 
ATOM     74  F   UNL A   1      40.593  37.173  38.198  1.00  0.00    -0.200 F 
ATOM     75  C   UNL A   1      39.243  35.554  39.264  1.00  0.00     0.200 A 
ATOM     76  F   UNL A   1      37.909  33.899  40.290  1.00  0.00    -0.200 F 
ATOM     77  F   UNL A   1      39.146  36.329  40.352  1.00  0.00    -0.200 F 
ENDBRANCH  43  67
BRANCH  55  78
ATOM     78  C   UNL A   1      43.962  28.921  35.155  1.00  0.00     0.064 A 
ATOM     79  C   UNL A   1      45.234  29.476  34.966  1.00  0.00     0.173 A 
ATOM     80  C   UNL A   1      43.839  27.834  36.035  1.00  0.00     0.173 A 
ATOM     81  F   UNL A   1      45.403  30.506  34.123  1.00  0.00    -0.203 F 
ATOM     82  C   UNL A   1      46.347  28.950  35.618  1.00  0.00     0.198 A 
ATOM     83  C   UNL A   1      44.950  27.328  36.705  1.00  0.00     0.198 A 
ATOM     84  F   UNL A   1      42.641  27.272  36.255  1.00  0.00    -0.203 F 
ATOM     85  F   UNL A   1      47.561  29.470  35.390  1.00  0.00    -0.200 F 
ATOM     86  C   UNL A   1      46.203  27.883  36.491  1.00  0.00     0.200 A 
ATOM     87  F   UNL A   1      44.807  26.304  37.558  1.00  0.00    -0.200 F 
ATOM     88  F   UNL A   1      47.274  27.383  37.123  1.00  0.00    -0.200 F 
ENDBRANCH  55  78
ENDBRANCH  29  30
ENDBRANCH  21  24
ENDBRANCH  19  20
ENDBRANCH  18  19
ENDBRANCH  17  18
ENDBRANCH   1  17
TORSDOF 15
ENDMDL
MODEL 2
REMARK VINA RESULT:     -11.3      6.620     10.695
REMARK SMILES Cc1ccc(C(=O)CCCC(=O)NCCCCNC(=O)c2ccc(-c3c4nc(c(-c5c(F)c(F)c(F)c(F)c5F)c5ccc([nH]5)c(-c5c(F)c(F)c(F)c(F)c5F)c5nc(c(-c6c(F)c(F)c(F)c(F)c6F)c6ccc3[nH]6)C=C5)C=C4)cc2)s1
REMARK SMILES IDX 14 1 13 2 11 3 12 4 10 6 9 7 8 8 6 9 7 10 5 11 1 12 2 13
REMARK SMILES IDX 3 14 84 15 4 16 15 17 16 18 17 19 18 20 19 21 20 23 21 24
REMARK SMILES IDX 22 25 83 26 23 27 82 28 24 29 25 30 26 31 76 32 27 33 81 34
REMARK SMILES IDX 75 35 77 36 28 37 80 38 74 39 73 40 29 42 61 43 41 44 60 45
REMARK SMILES IDX 42 46 45 47 59 48 78 49 43 50 44 51 58 53 79 54 46 55 30 56
REMARK SMILES IDX 31 57 39 58 32 59 33 60 37 61 40 62 34 63 35 64 38 65 36 66
REMARK SMILES IDX 62 67 63 68 71 69 64 70 65 71 69 72 72 73 66 74 67 75 70 76
REMARK SMILES IDX 68 77 47 78 48 79 56 80 49 81 50 82 54 83 57 84 51 85 52 86
REMARK SMILES IDX 55 87 53 88
REMARK H PARENT 13 5 18 22 77 41 45 52
REMARK Flexibility Score: inf
ROOT
ATOM      1  C   UNL A   1      37.489  22.483  25.698  1.00  0.00     0.116 C 
ENDROOT
BRANCH   1   2
ATOM      2  N   UNL A   1      36.286  22.531  26.497  1.00  0.00    -0.356 N 
ATOM      3  C   UNL A   1      35.079  23.128  26.345  1.00  0.00     0.220 C 
ATOM      4  O   UNL A   1      34.266  22.919  27.254  1.00  0.00    -0.275 OA
ATOM      5  H   UNL A   1      36.359  22.018  27.334  1.00  0.00     0.163 HD
BRANCH   3   6
ATOM      6  C   UNL A   1      34.638  23.928  25.123  1.00  0.00     0.100 C 
BRANCH   6   7
ATOM      7  C   UNL A   1      34.031  23.239  23.907  1.00  0.00     0.018 C 
BRANCH   7   8
ATOM      8  C   UNL A   1      32.630  22.636  23.949  1.00  0.00     0.082 C 
BRANCH   8   9
ATOM      9  C   UNL A   1      32.350  21.349  24.735  1.00  0.00     0.172 C 
ATOM     10  O   UNL A   1      31.345  21.360  25.456  1.00  0.00    -0.293 OA
BRANCH   9  11
ATOM     11  C   UNL A   1      33.161  20.134  24.558  1.00  0.00     0.070 A 
ATOM     12  C   UNL A   1      33.899  16.500  23.175  1.00  0.00     0.056 C 
ATOM     13  C   UNL A   1      33.843  17.844  23.811  1.00  0.00     0.002 A 
ATOM     14  C   UNL A   1      34.775  18.419  24.638  1.00  0.00     0.016 A 
ATOM     15  S   UNL A   1      32.516  18.884  23.547  1.00  0.00    -0.138 S 
ATOM     16  C   UNL A   1      34.395  19.732  25.033  1.00  0.00     0.024 A 
ENDBRANCH   9  11
ENDBRANCH   8   9
ENDBRANCH   7   8
ENDBRANCH   6   7
ENDBRANCH   3   6
ENDBRANCH   1   2
BRANCH   1  17
ATOM     17  C   UNL A   1      37.404  21.418  24.604  1.00  0.00     0.023 C 
BRANCH  17  18
ATOM     18  C   UNL A   1      38.122  20.122  24.968  1.00  0.00     0.023 C 
BRANCH  18  19
ATOM     19  C   UNL A   1      39.317  20.310  25.898  1.00  0.00     0.116 C 
BRANCH  19  20
ATOM     20  N   UNL A   1      40.261  19.200  25.879  1.00  0.00    -0.352 N 
ATOM     21  C   UNL A   1      41.621  19.241  26.084  1.00  0.00     0.251 C 
ATOM     22  H   UNL A   1      39.878  18.311  25.696  1.00  0.00     0.163 HD
ATOM     23  O   UNL A   1      42.311  18.236  25.962  1.00  0.00    -0.269 OA
BRANCH  21  24
ATOM     24  C   UNL A   1      42.248  20.539  26.404  1.00  0.00     0.039 A 
ATOM     25  C   UNL A   1      42.683  21.354  25.358  1.00  0.00     0.014 A 
ATOM     26  C   UNL A   1      42.308  20.984  27.727  1.00  0.00     0.014 A 
ATOM     27  C   UNL A   1      43.101  22.657  25.633  1.00  0.00     0.010 A 
ATOM     28  C   UNL A   1      42.645  22.307  27.988  1.00  0.00     0.010 A 
ATOM     29  C   UNL A   1      43.039  23.158  26.944  1.00  0.00    -0.014 A 
BRANCH  29  30
ATOM     30  C   UNL A   1      43.373  24.573  27.243  1.00  0.00     0.031 A 
ATOM     31  C   UNL A   1      44.765  25.084  26.997  1.00  0.00     0.074 A 
ATOM     32  C   UNL A   1      42.447  25.375  27.804  1.00  0.00     0.049 A 
ATOM     33  N   UNL A   1      45.269  26.265  27.250  1.00  0.00    -0.248 NA
ATOM     34  C   UNL A   1      45.727  24.130  26.424  1.00  0.00     0.031 C 
ATOM     35  C   UNL A   1      41.082  24.977  28.156  1.00  0.00     0.029 A 
ATOM     36  N   UNL A   1      42.515  26.693  28.184  1.00  0.00    -0.354 N 
ATOM     37  C   UNL A   1      46.606  26.187  26.888  1.00  0.00     0.074 A 
ATOM     38  C   UNL A   1      46.850  24.830  26.453  1.00  0.00     0.031 C 
ATOM     39  C   UNL A   1      40.435  26.035  28.673  1.00  0.00     0.029 A 
ATOM     40  C   UNL A   1      41.344  27.175  28.714  1.00  0.00     0.049 A 
ATOM     41  H   UNL A   1      43.328  27.239  28.086  1.00  0.00     0.167 HD
ATOM     42  C   UNL A   1      47.542  27.167  26.890  1.00  0.00     0.037 A 
ATOM     43  C   UNL A   1      41.038  28.404  29.175  1.00  0.00     0.037 A 
ATOM     44  C   UNL A   1      47.285  28.527  27.282  1.00  0.00     0.049 A 
ATOM     45  C   UNL A   1      42.083  29.486  29.126  1.00  0.00     0.074 A 
ATOM     46  C   UNL A   1      48.146  29.610  27.256  1.00  0.00     0.029 A 
ATOM     47  N   UNL A   1      46.071  28.992  27.764  1.00  0.00    -0.354 N 
ATOM     48  N   UNL A   1      43.324  29.420  28.710  1.00  0.00    -0.248 NA
ATOM     49  C   UNL A   1      41.678  30.818  29.598  1.00  0.00     0.031 C 
ATOM     50  C   UNL A   1      47.462  30.724  27.754  1.00  0.00     0.029 A 
ATOM     51  C   UNL A   1      46.162  30.344  28.049  1.00  0.00     0.049 A 
ATOM     52  H   UNL A   1      45.264  28.441  27.887  1.00  0.00     0.167 HD
ATOM     53  C   UNL A   1      43.838  30.703  28.840  1.00  0.00     0.074 A 
ATOM     54  C   UNL A   1      42.772  31.530  29.364  1.00  0.00     0.031 C 
ATOM     55  C   UNL A   1      45.083  31.155  28.552  1.00  0.00     0.037 A 
BRANCH  42  56
ATOM     56  C   UNL A   1      48.924  26.802  26.439  1.00  0.00     0.064 A 
ATOM     57  C   UNL A   1      49.873  26.278  27.332  1.00  0.00     0.173 A 
ATOM     58  C   UNL A   1      49.302  26.957  25.097  1.00  0.00     0.173 A 
ATOM     59  F   UNL A   1      49.566  26.124  28.628  1.00  0.00    -0.203 F 
ATOM     60  C   UNL A   1      51.157  25.953  26.904  1.00  0.00     0.198 A 
ATOM     61  C   UNL A   1      50.578  26.603  24.667  1.00  0.00     0.198 A 
ATOM     62  F   UNL A   1      48.433  27.450  24.202  1.00  0.00    -0.203 F 
ATOM     63  F   UNL A   1      52.061  25.506  27.786  1.00  0.00    -0.200 F 
ATOM     64  C   UNL A   1      51.506  26.110  25.572  1.00  0.00     0.200 A 
ATOM     65  F   UNL A   1      50.912  26.746  23.376  1.00  0.00    -0.200 F 
ATOM     66  F   UNL A   1      52.743  25.794  25.160  1.00  0.00    -0.200 F 
ENDBRANCH  42  56
BRANCH  43  67
ATOM     67  C   UNL A   1      39.669  28.690  29.675  1.00  0.00     0.064 A 
ATOM     68  C   UNL A   1      38.673  29.159  28.806  1.00  0.00     0.173 A 
ATOM     69  C   UNL A   1      39.328  28.507  31.022  1.00  0.00     0.173 A 
ATOM     70  F   UNL A   1      38.958  29.368  27.513  1.00  0.00    -0.203 F 
ATOM     71  C   UNL A   1      37.394  29.454  29.271  1.00  0.00     0.198 A 
ATOM     72  C   UNL A   1      38.040  28.779  31.480  1.00  0.00     0.198 A 
ATOM     73  F   UNL A   1      40.242  28.054  31.891  1.00  0.00    -0.203 F 
ATOM     74  F   UNL A   1      36.473  29.942  28.427  1.00  0.00    -0.200 F 
ATOM     75  C   UNL A   1      37.076  29.259  30.607  1.00  0.00     0.200 A 
ATOM     76  F   UNL A   1      37.733  28.577  32.769  1.00  0.00    -0.200 F 
ATOM     77  F   UNL A   1      35.845  29.542  31.053  1.00  0.00    -0.200 F 
ENDBRANCH  43  67
BRANCH  55  78
ATOM     78  C   UNL A   1      45.348  32.616  28.753  1.00  0.00     0.064 A 
ATOM     79  C   UNL A   1      45.016  33.566  27.777  1.00  0.00     0.173 A 
ATOM     80  C   UNL A   1      45.900  33.074  29.959  1.00  0.00     0.173 A 
ATOM     81  F   UNL A   1      44.499  33.175  26.603  1.00  0.00    -0.203 F 
ATOM     82  C   UNL A   1      45.248  34.923  27.993  1.00  0.00     0.198 A 
ATOM     83  C   UNL A   1      46.106  34.433  30.182  1.00  0.00     0.198 A 
ATOM     84  F   UNL A   1      46.229  32.204  30.927  1.00  0.00    -0.203 F 
ATOM     85  F   UNL A   1      44.962  35.809  27.031  1.00  0.00    -0.200 F 
ATOM     86  C   UNL A   1      45.786  35.354  29.196  1.00  0.00     0.200 A 
ATOM     87  F   UNL A   1      46.615  34.849  31.350  1.00  0.00    -0.200 F 
ATOM     88  F   UNL A   1      46.002  36.660  29.404  1.00  0.00    -0.200 F 
ENDBRANCH  55  78
ENDBRANCH  29  30
ENDBRANCH  21  24
ENDBRANCH  19  20
ENDBRANCH  18  19
ENDBRANCH  17  18
ENDBRANCH   1  17
TORSDOF 15
ENDMDL
MODEL 3
REMARK VINA RESULT:     -11.2      1.592      7.781
REMARK SMILES Cc1ccc(C(=O)CCCC(=O)NCCCCNC(=O)c2ccc(-c3c4nc(c(-c5c(F)c(F)c(F)c(F)c5F)c5ccc([nH]5)c(-c5c(F)c(F)c(F)c(F)c5F)c5nc(c(-c6c(F)c(F)c(F)c(F)c6F)c6ccc3[nH]6)C=C5)C=C4)cc2)s1
REMARK SMILES IDX 14 1 13 2 11 3 12 4 10 6 9 7 8 8 6 9 7 10 5 11 1 12 2 13
REMARK SMILES IDX 3 14 84 15 4 16 15 17 16 18 17 19 18 20 19 21 20 23 21 24
REMARK SMILES IDX 22 25 83 26 23 27 82 28 24 29 25 30 26 31 76 32 27 33 81 34
REMARK SMILES IDX 75 35 77 36 28 37 80 38 74 39 73 40 29 42 61 43 41 44 60 45
REMARK SMILES IDX 42 46 45 47 59 48 78 49 43 50 44 51 58 53 79 54 46 55 30 56
REMARK SMILES IDX 31 57 39 58 32 59 33 60 37 61 40 62 34 63 35 64 38 65 36 66
REMARK SMILES IDX 62 67 63 68 71 69 64 70 65 71 69 72 72 73 66 74 67 75 70 76
REMARK SMILES IDX 68 77 47 78 48 79 56 80 49 81 50 82 54 83 57 84 51 85 52 86
REMARK SMILES IDX 55 87 53 88
REMARK H PARENT 13 5 18 22 77 41 45 52
REMARK Flexibility Score: inf
ROOT
ATOM      1  C   UNL A   1      35.308  32.488  28.032  1.00  0.00     0.116 C 
ENDROOT
BRANCH   1   2
ATOM      2  N   UNL A   1      35.166  31.062  27.849  1.00  0.00    -0.356 N 
ATOM      3  C   UNL A   1      34.184  30.269  27.359  1.00  0.00     0.220 C 
ATOM      4  O   UNL A   1      34.439  29.058  27.340  1.00  0.00    -0.275 OA
ATOM      5  H   UNL A   1      35.958  30.555  28.146  1.00  0.00     0.163 HD
BRANCH   3   6
ATOM      6  C   UNL A   1      32.871  30.761  26.757  1.00  0.00     0.100 C 
BRANCH   6   7
ATOM      7  C   UNL A   1      31.839  29.782  26.210  1.00  0.00     0.018 C 
BRANCH   7   8
ATOM      8  C   UNL A   1      31.836  29.365  24.741  1.00  0.00     0.082 C 
BRANCH   8   9
ATOM      9  C   UNL A   1      30.517  29.156  23.987  1.00  0.00     0.172 C 
ATOM     10  O   UNL A   1      30.109  27.991  23.917  1.00  0.00    -0.293 OA
BRANCH   9  11
ATOM     11  C   UNL A   1      29.723  30.284  23.474  1.00  0.00     0.070 A 
ATOM     12  C   UNL A   1      27.915  32.394  20.654  1.00  0.00     0.056 C 
ATOM     13  C   UNL A   1      28.522  31.784  21.869  1.00  0.00     0.002 A 
ATOM     14  C   UNL A   1      28.511  32.279  23.149  1.00  0.00     0.016 A 
ATOM     15  S   UNL A   1      29.344  30.292  21.784  1.00  0.00    -0.138 S 
ATOM     16  C   UNL A   1      29.168  31.406  24.061  1.00  0.00     0.024 A 
ENDBRANCH   9  11
ENDBRANCH   8   9
ENDBRANCH   7   8
ENDBRANCH   6   7
ENDBRANCH   3   6
ENDBRANCH   1   2
BRANCH   1  17
ATOM     17  C   UNL A   1      34.481  32.996  29.213  1.00  0.00     0.023 C 
BRANCH  17  18
ATOM     18  C   UNL A   1      33.497  34.098  28.830  1.00  0.00     0.023 C 
BRANCH  18  19
ATOM     19  C   UNL A   1      33.746  35.430  29.532  1.00  0.00     0.116 C 
BRANCH  19  20
ATOM     20  N   UNL A   1      32.715  35.793  30.494  1.00  0.00    -0.352 N 
ATOM     21  C   UNL A   1      32.714  35.582  31.854  1.00  0.00     0.251 C 
ATOM     22  H   UNL A   1      31.920  36.243  30.127  1.00  0.00     0.163 HD
ATOM     23  O   UNL A   1      31.740  35.871  32.539  1.00  0.00    -0.269 OA
BRANCH  21  24
ATOM     24  C   UNL A   1      33.896  34.949  32.472  1.00  0.00     0.039 A 
ATOM     25  C   UNL A   1      33.796  33.633  32.927  1.00  0.00     0.014 A 
ATOM     26  C   UNL A   1      35.119  35.623  32.504  1.00  0.00     0.014 A 
ATOM     27  C   UNL A   1      34.948  32.961  33.335  1.00  0.00     0.010 A 
ATOM     28  C   UNL A   1      36.275  34.926  32.833  1.00  0.00     0.010 A 
ATOM     29  C   UNL A   1      36.202  33.586  33.246  1.00  0.00    -0.014 A 
BRANCH  29  30
ATOM     30  C   UNL A   1      37.452  32.853  33.571  1.00  0.00     0.031 A 
ATOM     31  C   UNL A   1      38.179  33.140  34.854  1.00  0.00     0.074 A 
ATOM     32  C   UNL A   1      37.971  31.987  32.679  1.00  0.00     0.049 A 
ATOM     33  N   UNL A   1      39.312  32.653  35.290  1.00  0.00    -0.248 NA
ATOM     34  C   UNL A   1      37.567  34.133  35.752  1.00  0.00     0.031 C 
ATOM     35  C   UNL A   1      37.397  31.675  31.367  1.00  0.00     0.029 A 
ATOM     36  N   UNL A   1      39.103  31.213  32.736  1.00  0.00    -0.354 N 
ATOM     37  C   UNL A   1      39.559  33.295  36.495  1.00  0.00     0.074 A 
ATOM     38  C   UNL A   1      38.488  34.246  36.696  1.00  0.00     0.031 C 
ATOM     39  C   UNL A   1      38.165  30.756  30.759  1.00  0.00     0.029 A 
ATOM     40  C   UNL A   1      39.296  30.434  31.622  1.00  0.00     0.049 A 
ATOM     41  H   UNL A   1      39.719  31.218  33.504  1.00  0.00     0.167 HD
ATOM     42  C   UNL A   1      40.570  33.089  37.372  1.00  0.00     0.037 A 
ATOM     43  C   UNL A   1      40.275  29.554  31.334  1.00  0.00     0.037 A 
ATOM     44  C   UNL A   1      41.610  32.111  37.191  1.00  0.00     0.049 A 
ATOM     45  C   UNL A   1      41.364  29.312  32.344  1.00  0.00     0.074 A 
ATOM     46  C   UNL A   1      42.641  31.778  38.051  1.00  0.00     0.029 A 
ATOM     47  N   UNL A   1      41.743  31.303  36.072  1.00  0.00    -0.354 N 
ATOM     48  N   UNL A   1      41.544  29.871  33.516  1.00  0.00    -0.248 NA
ATOM     49  C   UNL A   1      42.378  28.307  31.995  1.00  0.00     0.031 C 
ATOM     50  C   UNL A   1      43.418  30.790  37.437  1.00  0.00     0.029 A 
ATOM     51  C   UNL A   1      42.846  30.478  36.215  1.00  0.00     0.049 A 
ATOM     52  H   UNL A   1      41.142  31.315  35.291  1.00  0.00     0.167 HD
ATOM     53  C   UNL A   1      42.670  29.265  34.057  1.00  0.00     0.074 A 
ATOM     54  C   UNL A   1      43.125  28.288  33.091  1.00  0.00     0.031 C 
ATOM     55  C   UNL A   1      43.272  29.497  35.249  1.00  0.00     0.037 A 
BRANCH  42  56
ATOM     56  C   UNL A   1      40.589  33.929  38.614  1.00  0.00     0.064 A 
ATOM     57  C   UNL A   1      41.304  35.136  38.672  1.00  0.00     0.173 A 
ATOM     58  C   UNL A   1      39.869  33.538  39.752  1.00  0.00     0.173 A 
ATOM     59  F   UNL A   1      42.020  35.547  37.616  1.00  0.00    -0.203 F 
ATOM     60  C   UNL A   1      41.323  35.903  39.834  1.00  0.00     0.198 A 
ATOM     61  C   UNL A   1      39.866  34.322  40.903  1.00  0.00     0.198 A 
ATOM     62  F   UNL A   1      39.166  32.395  39.749  1.00  0.00    -0.203 F 
ATOM     63  F   UNL A   1      42.057  37.023  39.883  1.00  0.00    -0.200 F 
ATOM     64  C   UNL A   1      40.600  35.499  40.946  1.00  0.00     0.200 A 
ATOM     65  F   UNL A   1      39.158  33.936  41.974  1.00  0.00    -0.200 F 
ATOM     66  F   UNL A   1      40.617  36.239  42.063  1.00  0.00    -0.200 F 
ENDBRANCH  42  56
BRANCH  43  67
ATOM     67  C   UNL A   1      40.241  28.799  30.055  1.00  0.00     0.064 A 
ATOM     68  C   UNL A   1      40.855  29.313  28.903  1.00  0.00     0.173 A 
ATOM     69  C   UNL A   1      39.598  27.558  29.954  1.00  0.00     0.173 A 
ATOM     70  F   UNL A   1      41.465  30.506  28.947  1.00  0.00    -0.203 F 
ATOM     71  C   UNL A   1      40.806  28.624  27.694  1.00  0.00     0.198 A 
ATOM     72  C   UNL A   1      39.573  26.858  28.749  1.00  0.00     0.198 A 
ATOM     73  F   UNL A   1      39.002  27.020  31.028  1.00  0.00    -0.203 F 
ATOM     74  F   UNL A   1      41.364  29.159  26.598  1.00  0.00    -0.200 F 
ATOM     75  C   UNL A   1      40.170  27.394  27.618  1.00  0.00     0.200 A 
ATOM     76  F   UNL A   1      38.967  25.664  28.682  1.00  0.00    -0.200 F 
ATOM     77  F   UNL A   1      40.126  26.731  26.455  1.00  0.00    -0.200 F 
ENDBRANCH  43  67
BRANCH  55  78
ATOM     78  C   UNL A   1      44.461  28.653  35.595  1.00  0.00     0.064 A 
ATOM     79  C   UNL A   1      45.764  29.045  35.261  1.00  0.00     0.173 A 
ATOM     80  C   UNL A   1      44.294  27.457  36.310  1.00  0.00     0.173 A 
ATOM     81  F   UNL A   1      45.973  30.173  34.565  1.00  0.00    -0.203 F 
ATOM     82  C   UNL A   1      46.859  28.258  35.611  1.00  0.00     0.198 A 
ATOM     83  C   UNL A   1      45.392  26.686  36.681  1.00  0.00     0.198 A 
ATOM     84  F   UNL A   1      43.067  27.042  36.658  1.00  0.00    -0.203 F 
ATOM     85  F   UNL A   1      48.093  28.631  35.246  1.00  0.00    -0.200 F 
ATOM     86  C   UNL A   1      46.672  27.085  36.326  1.00  0.00     0.200 A 
ATOM     87  F   UNL A   1      45.211  25.559  37.383  1.00  0.00    -0.200 F 
ATOM     88  F   UNL A   1      47.727  26.333  36.669  1.00  0.00    -0.200 F 
ENDBRANCH  55  78
ENDBRANCH  29  30
ENDBRANCH  21  24
ENDBRANCH  19  20
ENDBRANCH  18  19
ENDBRANCH  17  18
ENDBRANCH   1  17
TORSDOF 15
ENDMDL
