MODEL 1
REMARK VINA RESULT:     -13.1      0.000      0.000
REMARK SMILES C[C@@H]1CN(C(=O)N2CCC(CC(=O)NCCCCNC(=O)c3ccc(-c4c5nc(c(-c6c(F)c(F)c(F)c(F)c6F)c6ccc([nH]6)c(-c6c(F)c(F)c(F)c(F)c6F)c6nc(c(-c7c(F)c(F)c(F)c(F)c7F)c7ccc4[nH]7)C=C6)C=C5)cc3)CC2)C[C@@H](C)S1
REMARK SMILES IDX 17 1 16 2 15 3 14 4 12 5 13 6 11 8 10 9 1 10 2 11 3 12 90 13
REMARK SMILES IDX 4 14 88 15 5 16 87 17 89 18 6 19 7 20 8 21 86 22 9 23 85 24
REMARK SMILES IDX 18 25 19 26 20 27 21 29 22 30 23 31 84 32 24 33 83 34 25 35
REMARK SMILES IDX 26 36 27 37 77 38 28 39 82 40 76 41 78 42 29 43 81 44 75 45
REMARK SMILES IDX 74 46 30 48 62 49 42 50 61 51 43 52 46 53 60 54 79 55 44 56
REMARK SMILES IDX 45 57 59 59 80 60 47 61 31 62 32 63 40 64 33 65 34 66 38 67
REMARK SMILES IDX 41 68 35 69 36 70 39 71 37 72 63 73 64 74 72 75 65 76 66 77
REMARK SMILES IDX 70 78 73 79 67 80 68 81 71 82 69 83 48 84 49 85 57 86 50 87
REMARK SMILES IDX 51 88 55 89 58 90 52 91 53 92 56 93 54 94
REMARK H PARENT 14 7 19 28 78 47 46 58
REMARK Flexibility Score: inf
ROOT
ATOM      1  C   UNL A   1      31.584  32.008  26.820  1.00  0.00     0.023 C 
ENDROOT
BRANCH   1   2
ATOM      2  C   UNL A   1      31.803  30.507  26.879  1.00  0.00     0.023 C 
BRANCH   2   3
ATOM      3  C   UNL A   1      32.287  29.857  25.579  1.00  0.00     0.116 C 
BRANCH   3   4
ATOM      4  N   UNL A   1      31.338  30.076  24.501  1.00  0.00    -0.356 N 
ATOM      5  C   UNL A   1      30.474  29.216  23.885  1.00  0.00     0.220 C 
ATOM      6  O   UNL A   1      29.846  29.629  22.909  1.00  0.00    -0.275 OA
ATOM      7  H   UNL A   1      31.314  30.997  24.157  1.00  0.00     0.163 HD
BRANCH   5   8
ATOM      8  C   UNL A   1      30.275  27.798  24.394  1.00  0.00     0.103 C 
BRANCH   8   9
ATOM      9  C   UNL A   1      30.383  26.696  23.311  1.00  0.00     0.002 C 
ATOM     10  C   UNL A   1      33.283  24.497  26.193  1.00  0.00     0.021 C 
ATOM     11  C   UNL A   1      34.675  24.681  25.595  1.00  0.00     0.063 C 
ATOM     12  C   UNL A   1      34.647  24.890  24.065  1.00  0.00     0.135 C 
ATOM     13  S   UNL A   1      35.769  23.291  26.089  1.00  0.00    -0.152 SA
ATOM     14  N   UNL A   1      34.262  23.686  23.319  1.00  0.00    -0.322 N 
ATOM     15  C   UNL A   1      35.201  22.016  24.886  1.00  0.00     0.063 C 
ATOM     16  C   UNL A   1      32.965  23.357  22.942  1.00  0.00     0.320 C 
ATOM     17  C   UNL A   1      35.213  22.580  23.456  1.00  0.00     0.135 C 
ATOM     18  C   UNL A   1      36.104  20.796  25.011  1.00  0.00     0.021 C 
ATOM     19  O   UNL A   1      32.612  22.185  22.816  1.00  0.00    -0.248 OA
ATOM     20  N   UNL A   1      32.060  24.386  22.814  1.00  0.00    -0.325 N 
ATOM     21  C   UNL A   1      30.660  24.152  23.125  1.00  0.00     0.121 C 
ATOM     22  C   UNL A   1      32.273  25.520  21.941  1.00  0.00     0.121 C 
ATOM     23  C   UNL A   1      30.139  25.319  23.960  1.00  0.00     0.026 C 
ATOM     24  C   UNL A   1      31.735  26.783  22.590  1.00  0.00     0.026 C 
ENDBRANCH   8   9
ENDBRANCH   5   8
ENDBRANCH   3   4
ENDBRANCH   2   3
ENDBRANCH   1   2
BRANCH   1  25
ATOM     25  C   UNL A   1      32.785  32.821  27.254  1.00  0.00     0.116 C 
BRANCH  25  26
ATOM     26  N   UNL A   1      32.451  34.176  27.670  1.00  0.00    -0.352 N 
ATOM     27  C   UNL A   1      33.014  34.925  28.681  1.00  0.00     0.251 C 
ATOM     28  H   UNL A   1      31.730  34.614  27.163  1.00  0.00     0.163 HD
ATOM     29  O   UNL A   1      32.563  36.017  28.979  1.00  0.00    -0.269 OA
BRANCH  27  30
ATOM     30  C   UNL A   1      34.151  34.348  29.427  1.00  0.00     0.039 A 
ATOM     31  C   UNL A   1      33.896  33.495  30.501  1.00  0.00     0.014 A 
ATOM     32  C   UNL A   1      35.458  34.577  28.992  1.00  0.00     0.014 A 
ATOM     33  C   UNL A   1      34.956  32.807  31.092  1.00  0.00     0.010 A 
ATOM     34  C   UNL A   1      36.490  33.803  29.500  1.00  0.00     0.010 A 
ATOM     35  C   UNL A   1      36.254  32.925  30.568  1.00  0.00    -0.014 A 
BRANCH  35  36
ATOM     36  C   UNL A   1      37.398  32.179  31.142  1.00  0.00     0.031 A 
ATOM     37  C   UNL A   1      37.881  32.525  32.523  1.00  0.00     0.074 A 
ATOM     38  C   UNL A   1      38.047  31.262  30.400  1.00  0.00     0.049 A 
ATOM     39  N   UNL A   1      38.920  32.073  33.176  1.00  0.00    -0.248 NA
ATOM     40  C   UNL A   1      37.118  33.553  33.251  1.00  0.00     0.031 C 
ATOM     41  C   UNL A   1      37.716  30.893  29.023  1.00  0.00     0.029 A 
ATOM     42  N   UNL A   1      39.133  30.478  30.701  1.00  0.00    -0.354 N 
ATOM     43  C   UNL A   1      38.951  32.784  34.369  1.00  0.00     0.074 A 
ATOM     44  C   UNL A   1      37.872  33.745  34.322  1.00  0.00     0.031 C 
ATOM     45  C   UNL A   1      38.559  29.932  28.609  1.00  0.00     0.029 A 
ATOM     46  C   UNL A   1      39.509  29.641  29.678  1.00  0.00     0.049 A 
ATOM     47  H   UNL A   1      39.598  30.513  31.568  1.00  0.00     0.167 HD
ATOM     48  C   UNL A   1      39.780  32.625  35.425  1.00  0.00     0.037 A 
ATOM     49  C   UNL A   1      40.506  28.740  29.620  1.00  0.00     0.037 A 
ATOM     50  C   UNL A   1      40.814  31.629  35.488  1.00  0.00     0.049 A 
ATOM     51  C   UNL A   1      41.388  28.549  30.824  1.00  0.00     0.074 A 
ATOM     52  C   UNL A   1      41.663  31.329  36.538  1.00  0.00     0.029 A 
ATOM     53  N   UNL A   1      41.130  30.761  34.453  1.00  0.00    -0.354 N 
ATOM     54  N   UNL A   1      41.363  29.175  31.976  1.00  0.00    -0.248 NA
ATOM     55  C   UNL A   1      42.430  27.517  30.726  1.00  0.00     0.031 C 
ATOM     56  C   UNL A   1      42.517  30.300  36.126  1.00  0.00     0.029 A 
ATOM     57  C   UNL A   1      42.170  29.931  34.835  1.00  0.00     0.049 A 
ATOM     58  H   UNL A   1      40.682  30.739  33.577  1.00  0.00     0.167 HD
ATOM     59  C   UNL A   1      42.359  28.596  32.748  1.00  0.00     0.074 A 
ATOM     60  C   UNL A   1      42.964  27.558  31.938  1.00  0.00     0.031 C 
ATOM     61  C   UNL A   1      42.744  28.896  34.014  1.00  0.00     0.037 A 
BRANCH  48  62
ATOM     62  C   UNL A   1      39.587  33.541  36.599  1.00  0.00     0.064 A 
ATOM     63  C   UNL A   1      38.777  33.180  37.689  1.00  0.00     0.173 A 
ATOM     64  C   UNL A   1      40.220  34.790  36.640  1.00  0.00     0.173 A 
ATOM     65  F   UNL A   1      38.134  32.002  37.691  1.00  0.00    -0.203 F 
ATOM     66  C   UNL A   1      38.581  34.052  38.756  1.00  0.00     0.198 A 
ATOM     67  C   UNL A   1      40.047  35.648  37.725  1.00  0.00     0.198 A 
ATOM     68  F   UNL A   1      41.005  35.186  35.626  1.00  0.00    -0.203 F 
ATOM     69  F   UNL A   1      37.752  33.711  39.753  1.00  0.00    -0.200 F 
ATOM     70  C   UNL A   1      39.220  35.282  38.776  1.00  0.00     0.200 A 
ATOM     71  F   UNL A   1      40.674  36.832  37.748  1.00  0.00    -0.200 F 
ATOM     72  F   UNL A   1      39.030  36.120  39.804  1.00  0.00    -0.200 F 
ENDBRANCH  48  62
BRANCH  49  73
ATOM     73  C   UNL A   1      40.693  27.916  28.397  1.00  0.00     0.064 A 
ATOM     74  C   UNL A   1      40.075  26.662  28.278  1.00  0.00     0.173 A 
ATOM     75  C   UNL A   1      41.484  28.358  27.328  1.00  0.00     0.173 A 
ATOM     76  F   UNL A   1      39.323  26.189  29.282  1.00  0.00    -0.203 F 
ATOM     77  C   UNL A   1      40.257  25.875  27.143  1.00  0.00     0.198 A 
ATOM     78  C   UNL A   1      41.645  27.580  26.182  1.00  0.00     0.198 A 
ATOM     79  F   UNL A   1      42.089  29.553  27.389  1.00  0.00    -0.203 F 
ATOM     80  F   UNL A   1      39.690  24.663  27.073  1.00  0.00    -0.200 F 
ATOM     81  C   UNL A   1      41.038  26.335  26.094  1.00  0.00     0.200 A 
ATOM     82  F   UNL A   1      42.388  28.035  25.164  1.00  0.00    -0.200 F 
ATOM     83  F   UNL A   1      41.210  25.579  25.001  1.00  0.00    -0.200 F 
ENDBRANCH  49  73
BRANCH  61  84
ATOM     84  C   UNL A   1      43.840  28.065  34.613  1.00  0.00     0.064 A 
ATOM     85  C   UNL A   1      43.573  26.843  35.246  1.00  0.00     0.173 A 
ATOM     86  C   UNL A   1      45.177  28.478  34.511  1.00  0.00     0.173 A 
ATOM     87  F   UNL A   1      42.308  26.414  35.381  1.00  0.00    -0.203 F 
ATOM     88  C   UNL A   1      44.605  26.075  35.776  1.00  0.00     0.198 A 
ATOM     89  C   UNL A   1      46.207  27.693  35.016  1.00  0.00     0.198 A 
ATOM     90  F   UNL A   1      45.482  29.636  33.906  1.00  0.00    -0.203 F 
ATOM     91  F   UNL A   1      44.325  24.932  36.417  1.00  0.00    -0.200 F 
ATOM     92  C   UNL A   1      45.921  26.497  35.654  1.00  0.00     0.200 A 
ATOM     93  F   UNL A   1      47.479  28.095  34.885  1.00  0.00    -0.200 F 
ATOM     94  F   UNL A   1      46.913  25.751  36.159  1.00  0.00    -0.200 F 
ENDBRANCH  61  84
ENDBRANCH  35  36
ENDBRANCH  27  30
ENDBRANCH  25  26
ENDBRANCH   1  25
TORSDOF 12
ENDMDL
MODEL 2
REMARK VINA RESULT:     -13.1      1.281      1.865
REMARK SMILES C[C@@H]1CN(C(=O)N2CCC(CC(=O)NCCCCNC(=O)c3ccc(-c4c5nc(c(-c6c(F)c(F)c(F)c(F)c6F)c6ccc([nH]6)c(-c6c(F)c(F)c(F)c(F)c6F)c6nc(c(-c7c(F)c(F)c(F)c(F)c7F)c7ccc4[nH]7)C=C6)C=C5)cc3)CC2)C[C@@H](C)S1
REMARK SMILES IDX 17 1 16 2 15 3 14 4 12 5 13 6 11 8 10 9 1 10 2 11 3 12 90 13
REMARK SMILES IDX 4 14 88 15 5 16 87 17 89 18 6 19 7 20 8 21 86 22 9 23 85 24
REMARK SMILES IDX 18 25 19 26 20 27 21 29 22 30 23 31 84 32 24 33 83 34 25 35
REMARK SMILES IDX 26 36 27 37 77 38 28 39 82 40 76 41 78 42 29 43 81 44 75 45
REMARK SMILES IDX 74 46 30 48 62 49 42 50 61 51 43 52 46 53 60 54 79 55 44 56
REMARK SMILES IDX 45 57 59 59 80 60 47 61 31 62 32 63 40 64 33 65 34 66 38 67
REMARK SMILES IDX 41 68 35 69 36 70 39 71 37 72 63 73 64 74 72 75 65 76 66 77
REMARK SMILES IDX 70 78 73 79 67 80 68 81 71 82 69 83 48 84 49 85 57 86 50 87
REMARK SMILES IDX 51 88 55 89 58 90 52 91 53 92 56 93 54 94
REMARK H PARENT 14 7 19 28 78 47 46 58
REMARK Flexibility Score: inf
ROOT
ATOM      1  C   UNL A   1      31.506  32.000  26.865  1.00  0.00     0.023 C 
ENDROOT
BRANCH   1   2
ATOM      2  C   UNL A   1      31.757  30.509  26.741  1.00  0.00     0.023 C 
BRANCH   2   3
ATOM      3  C   UNL A   1      33.221  30.098  26.555  1.00  0.00     0.116 C 
BRANCH   3   4
ATOM      4  N   UNL A   1      33.507  29.800  25.162  1.00  0.00    -0.356 N 
ATOM      5  C   UNL A   1      33.801  28.619  24.544  1.00  0.00     0.220 C 
ATOM      6  O   UNL A   1      34.117  28.652  23.354  1.00  0.00    -0.275 OA
ATOM      7  H   UNL A   1      33.486  30.581  24.563  1.00  0.00     0.163 HD
BRANCH   5   8
ATOM      8  C   UNL A   1      33.727  27.297  25.292  1.00  0.00     0.103 C 
BRANCH   8   9
ATOM      9  C   UNL A   1      32.362  26.572  25.198  1.00  0.00     0.002 C 
ATOM     10  C   UNL A   1      34.676  22.637  26.045  1.00  0.00     0.021 C 
ATOM     11  C   UNL A   1      34.725  21.894  24.712  1.00  0.00     0.063 C 
ATOM     12  C   UNL A   1      33.552  22.262  23.778  1.00  0.00     0.135 C 
ATOM     13  S   UNL A   1      34.851  20.085  24.997  1.00  0.00    -0.152 SA
ATOM     14  N   UNL A   1      32.256  21.757  24.244  1.00  0.00    -0.322 N 
ATOM     15  C   UNL A   1      33.085  19.713  25.368  1.00  0.00     0.063 C 
ATOM     16  C   UNL A   1      31.367  22.456  25.052  1.00  0.00     0.320 C 
ATOM     17  C   UNL A   1      32.170  20.295  24.277  1.00  0.00     0.135 C 
ATOM     18  C   UNL A   1      32.922  18.203  25.484  1.00  0.00     0.021 C 
ATOM     19  O   UNL A   1      30.605  21.872  25.823  1.00  0.00    -0.248 OA
ATOM     20  N   UNL A   1      31.438  23.831  25.035  1.00  0.00    -0.325 N 
ATOM     21  C   UNL A   1      31.126  24.580  26.240  1.00  0.00     0.121 C 
ATOM     22  C   UNL A   1      31.312  24.612  23.824  1.00  0.00     0.121 C 
ATOM     23  C   UNL A   1      32.180  25.666  26.433  1.00  0.00     0.026 C 
ATOM     24  C   UNL A   1      32.252  25.803  23.875  1.00  0.00     0.026 C 
ENDBRANCH   8   9
ENDBRANCH   5   8
ENDBRANCH   3   4
ENDBRANCH   2   3
ENDBRANCH   1   2
BRANCH   1  25
ATOM     25  C   UNL A   1      32.728  32.798  27.267  1.00  0.00     0.116 C 
BRANCH  25  26
ATOM     26  N   UNL A   1      32.431  34.176  27.634  1.00  0.00    -0.352 N 
ATOM     27  C   UNL A   1      33.026  34.951  28.605  1.00  0.00     0.251 C 
ATOM     28  H   UNL A   1      31.710  34.609  27.122  1.00  0.00     0.163 HD
ATOM     29  O   UNL A   1      32.604  36.063  28.866  1.00  0.00    -0.269 OA
BRANCH  27  30
ATOM     30  C   UNL A   1      34.163  34.379  29.354  1.00  0.00     0.039 A 
ATOM     31  C   UNL A   1      33.909  33.510  30.416  1.00  0.00     0.014 A 
ATOM     32  C   UNL A   1      35.471  34.629  28.935  1.00  0.00     0.014 A 
ATOM     33  C   UNL A   1      34.973  32.828  31.009  1.00  0.00     0.010 A 
ATOM     34  C   UNL A   1      36.508  33.863  29.443  1.00  0.00     0.010 A 
ATOM     35  C   UNL A   1      36.273  32.968  30.498  1.00  0.00    -0.014 A 
BRANCH  35  36
ATOM     36  C   UNL A   1      37.422  32.230  31.074  1.00  0.00     0.031 A 
ATOM     37  C   UNL A   1      37.906  32.586  32.452  1.00  0.00     0.074 A 
ATOM     38  C   UNL A   1      38.072  31.311  30.336  1.00  0.00     0.049 A 
ATOM     39  N   UNL A   1      38.949  32.142  33.105  1.00  0.00    -0.248 NA
ATOM     40  C   UNL A   1      37.143  33.616  33.175  1.00  0.00     0.031 C 
ATOM     41  C   UNL A   1      37.738  30.932  28.962  1.00  0.00     0.029 A 
ATOM     42  N   UNL A   1      39.161  30.532  30.639  1.00  0.00    -0.354 N 
ATOM     43  C   UNL A   1      38.980  32.861  34.293  1.00  0.00     0.074 A 
ATOM     44  C   UNL A   1      37.898  33.817  34.242  1.00  0.00     0.031 C 
ATOM     45  C   UNL A   1      38.584  29.971  28.552  1.00  0.00     0.029 A 
ATOM     46  C   UNL A   1      39.537  29.690  29.621  1.00  0.00     0.049 A 
ATOM     47  H   UNL A   1      39.628  30.574  31.504  1.00  0.00     0.167 HD
ATOM     48  C   UNL A   1      39.813  32.711  35.348  1.00  0.00     0.037 A 
ATOM     49  C   UNL A   1      40.537  28.791  29.565  1.00  0.00     0.037 A 
ATOM     50  C   UNL A   1      40.850  31.719  35.415  1.00  0.00     0.049 A 
ATOM     51  C   UNL A   1      41.423  28.612  30.769  1.00  0.00     0.074 A 
ATOM     52  C   UNL A   1      41.702  31.428  36.464  1.00  0.00     0.029 A 
ATOM     53  N   UNL A   1      41.167  30.846  34.384  1.00  0.00    -0.354 N 
ATOM     54  N   UNL A   1      41.398  29.245  31.917  1.00  0.00    -0.248 NA
ATOM     55  C   UNL A   1      42.468  27.582  30.674  1.00  0.00     0.031 C 
ATOM     56  C   UNL A   1      42.560  30.399  36.056  1.00  0.00     0.029 A 
ATOM     57  C   UNL A   1      42.211  30.021  34.768  1.00  0.00     0.049 A 
ATOM     58  H   UNL A   1      40.717  30.816  33.509  1.00  0.00     0.167 HD
ATOM     59  C   UNL A   1      42.399  28.674  32.690  1.00  0.00     0.074 A 
ATOM     60  C   UNL A   1      43.005  27.633  31.885  1.00  0.00     0.031 C 
ATOM     61  C   UNL A   1      42.785  28.983  33.952  1.00  0.00     0.037 A 
BRANCH  48  62
ATOM     62  C   UNL A   1      39.619  33.634  36.517  1.00  0.00     0.064 A 
ATOM     63  C   UNL A   1      38.822  33.273  37.615  1.00  0.00     0.173 A 
ATOM     64  C   UNL A   1      40.241  34.889  36.544  1.00  0.00     0.173 A 
ATOM     65  F   UNL A   1      38.190  32.089  37.631  1.00  0.00    -0.203 F 
ATOM     66  C   UNL A   1      38.625  34.151  38.677  1.00  0.00     0.198 A 
ATOM     67  C   UNL A   1      40.068  35.753  37.624  1.00  0.00     0.198 A 
ATOM     68  F   UNL A   1      41.015  35.285  35.521  1.00  0.00    -0.203 F 
ATOM     69  F   UNL A   1      37.807  33.809  39.683  1.00  0.00    -0.200 F 
ATOM     70  C   UNL A   1      39.252  35.387  38.684  1.00  0.00     0.200 A 
ATOM     71  F   UNL A   1      40.684  36.943  37.634  1.00  0.00    -0.200 F 
ATOM     72  F   UNL A   1      39.062  36.230  39.707  1.00  0.00    -0.200 F 
ENDBRANCH  48  62
BRANCH  49  73
ATOM     73  C   UNL A   1      40.723  27.960  28.347  1.00  0.00     0.064 A 
ATOM     74  C   UNL A   1      41.507  28.420  27.280  1.00  0.00     0.173 A 
ATOM     75  C   UNL A   1      40.128  26.697  28.223  1.00  0.00     0.173 A 
ATOM     76  F   UNL A   1      42.082  29.630  27.345  1.00  0.00    -0.203 F 
ATOM     77  C   UNL A   1      41.674  27.656  26.127  1.00  0.00     0.198 A 
ATOM     78  C   UNL A   1      40.316  25.923  27.080  1.00  0.00     0.198 A 
ATOM     79  F   UNL A   1      39.375  26.208  29.220  1.00  0.00    -0.203 F 
ATOM     80  F   UNL A   1      42.394  28.138  25.104  1.00  0.00    -0.200 F 
ATOM     81  C   UNL A   1      41.082  26.406  26.029  1.00  0.00     0.200 A 
ATOM     82  F   UNL A   1      39.755  24.708  26.995  1.00  0.00    -0.200 F 
ATOM     83  F   UNL A   1      41.245  25.670  24.922  1.00  0.00    -0.200 F 
ENDBRANCH  49  73
BRANCH  61  84
ATOM     84  C   UNL A   1      43.885  28.160  34.555  1.00  0.00     0.064 A 
ATOM     85  C   UNL A   1      43.620  26.957  35.224  1.00  0.00     0.173 A 
ATOM     86  C   UNL A   1      45.224  28.558  34.417  1.00  0.00     0.173 A 
ATOM     87  F   UNL A   1      42.356  26.542  35.393  1.00  0.00    -0.203 F 
ATOM     88  C   UNL A   1      44.656  26.195  35.757  1.00  0.00     0.198 A 
ATOM     89  C   UNL A   1      46.257  27.779  34.925  1.00  0.00     0.198 A 
ATOM     90  F   UNL A   1      45.527  29.698  33.777  1.00  0.00    -0.203 F 
ATOM     91  F   UNL A   1      44.379  25.071  36.433  1.00  0.00    -0.200 F 
ATOM     92  C   UNL A   1      45.973  26.603  35.600  1.00  0.00     0.200 A 
ATOM     93  F   UNL A   1      47.530  28.167  34.761  1.00  0.00    -0.200 F 
ATOM     94  F   UNL A   1      46.968  25.862  36.106  1.00  0.00    -0.200 F 
ENDBRANCH  61  84
ENDBRANCH  35  36
ENDBRANCH  27  30
ENDBRANCH  25  26
ENDBRANCH   1  25
TORSDOF 12
ENDMDL
MODEL 3
REMARK VINA RESULT:     -13.1      0.563      2.042
REMARK SMILES C[C@@H]1CN(C(=O)N2CCC(CC(=O)NCCCCNC(=O)c3ccc(-c4c5nc(c(-c6c(F)c(F)c(F)c(F)c6F)c6ccc([nH]6)c(-c6c(F)c(F)c(F)c(F)c6F)c6nc(c(-c7c(F)c(F)c(F)c(F)c7F)c7ccc4[nH]7)C=C6)C=C5)cc3)CC2)C[C@@H](C)S1
REMARK SMILES IDX 17 1 16 2 15 3 14 4 12 5 13 6 11 8 10 9 1 10 2 11 3 12 90 13
REMARK SMILES IDX 4 14 88 15 5 16 87 17 89 18 6 19 7 20 8 21 86 22 9 23 85 24
REMARK SMILES IDX 18 25 19 26 20 27 21 29 22 30 23 31 84 32 24 33 83 34 25 35
REMARK SMILES IDX 26 36 27 37 77 38 28 39 82 40 76 41 78 42 29 43 81 44 75 45
REMARK SMILES IDX 74 46 30 48 62 49 42 50 61 51 43 52 46 53 60 54 79 55 44 56
REMARK SMILES IDX 45 57 59 59 80 60 47 61 31 62 32 63 40 64 33 65 34 66 38 67
REMARK SMILES IDX 41 68 35 69 36 70 39 71 37 72 63 73 64 74 72 75 65 76 66 77
REMARK SMILES IDX 70 78 73 79 67 80 68 81 71 82 69 83 48 84 49 85 57 86 50 87
REMARK SMILES IDX 51 88 55 89 58 90 52 91 53 92 56 93 54 94
REMARK H PARENT 14 7 19 28 78 47 46 58
REMARK Flexibility Score: inf
ROOT
ATOM      1  C   UNL A   1      31.607  32.224  26.872  1.00  0.00     0.023 C 
ENDROOT
BRANCH   1   2
ATOM      2  C   UNL A   1      31.812  30.720  26.892  1.00  0.00     0.023 C 
BRANCH   2   3
ATOM      3  C   UNL A   1      32.037  30.064  25.527  1.00  0.00     0.116 C 
BRANCH   3   4
ATOM      4  N   UNL A   1      30.962  30.390  24.607  1.00  0.00    -0.356 N 
ATOM      5  C   UNL A   1      30.218  29.593  23.785  1.00  0.00     0.220 C 
ATOM      6  O   UNL A   1      29.430  30.137  23.010  1.00  0.00    -0.275 OA
ATOM      7  H   UNL A   1      30.731  31.346  24.569  1.00  0.00     0.163 HD
BRANCH   5   8
ATOM      8  C   UNL A   1      30.341  28.078  23.831  1.00  0.00     0.103 C 
BRANCH   8   9
ATOM      9  C   UNL A   1      31.232  27.463  22.725  1.00  0.00     0.002 C 
ATOM     10  C   UNL A   1      32.232  24.089  25.753  1.00  0.00     0.021 C 
ATOM     11  C   UNL A   1      33.661  24.361  26.215  1.00  0.00     0.063 C 
ATOM     12  C   UNL A   1      34.491  25.135  25.167  1.00  0.00     0.135 C 
ATOM     13  S   UNL A   1      34.471  22.796  26.731  1.00  0.00    -0.152 SA
ATOM     14  N   UNL A   1      34.810  24.341  23.974  1.00  0.00    -0.322 N 
ATOM     15  C   UNL A   1      34.919  22.126  25.074  1.00  0.00     0.063 C 
ATOM     16  C   UNL A   1      34.045  24.296  22.814  1.00  0.00     0.320 C 
ATOM     17  C   UNL A   1      35.668  23.186  24.248  1.00  0.00     0.135 C 
ATOM     18  C   UNL A   1      35.765  20.874  25.270  1.00  0.00     0.021 C 
ATOM     19  O   UNL A   1      34.025  23.294  22.098  1.00  0.00    -0.248 OA
ATOM     20  N   UNL A   1      33.231  25.373  22.547  1.00  0.00    -0.325 N 
ATOM     21  C   UNL A   1      31.970  25.164  21.856  1.00  0.00     0.121 C 
ATOM     22  C   UNL A   1      33.725  26.728  22.444  1.00  0.00     0.121 C 
ATOM     23  C   UNL A   1      30.882  25.970  22.560  1.00  0.00     0.026 C 
ATOM     24  C   UNL A   1      32.716  27.695  23.039  1.00  0.00     0.026 C 
ENDBRANCH   8   9
ENDBRANCH   5   8
ENDBRANCH   3   4
ENDBRANCH   2   3
ENDBRANCH   1   2
BRANCH   1  25
ATOM     25  C   UNL A   1      32.813  33.013  27.335  1.00  0.00     0.116 C 
BRANCH  25  26
ATOM     26  N   UNL A   1      32.497  34.378  27.735  1.00  0.00    -0.352 N 
ATOM     27  C   UNL A   1      33.081  35.137  28.726  1.00  0.00     0.251 C 
ATOM     28  H   UNL A   1      31.772  34.814  27.232  1.00  0.00     0.163 HD
ATOM     29  O   UNL A   1      32.645  36.238  29.013  1.00  0.00    -0.269 OA
BRANCH  27  30
ATOM     30  C   UNL A   1      34.224  34.562  29.464  1.00  0.00     0.039 A 
ATOM     31  C   UNL A   1      33.981  33.800  30.607  1.00  0.00     0.014 A 
ATOM     32  C   UNL A   1      35.519  34.697  28.959  1.00  0.00     0.014 A 
ATOM     33  C   UNL A   1      35.036  33.107  31.202  1.00  0.00     0.010 A 
ATOM     34  C   UNL A   1      36.538  33.915  29.479  1.00  0.00     0.010 A 
ATOM     35  C   UNL A   1      36.312  33.126  30.616  1.00  0.00    -0.014 A 
BRANCH  35  36
ATOM     36  C   UNL A   1      37.447  32.370  31.195  1.00  0.00     0.031 A 
ATOM     37  C   UNL A   1      37.938  32.723  32.572  1.00  0.00     0.074 A 
ATOM     38  C   UNL A   1      38.081  31.437  30.461  1.00  0.00     0.049 A 
ATOM     39  N   UNL A   1      38.974  32.263  33.227  1.00  0.00    -0.248 NA
ATOM     40  C   UNL A   1      37.193  33.769  33.291  1.00  0.00     0.031 C 
ATOM     41  C   UNL A   1      37.741  31.058  29.089  1.00  0.00     0.029 A 
ATOM     42  N   UNL A   1      39.157  30.641  30.767  1.00  0.00    -0.354 N 
ATOM     43  C   UNL A   1      39.017  32.986  34.412  1.00  0.00     0.074 A 
ATOM     44  C   UNL A   1      37.952  33.961  34.358  1.00  0.00     0.031 C 
ATOM     45  C   UNL A   1      38.570  30.082  28.682  1.00  0.00     0.029 A 
ATOM     46  C   UNL A   1      39.518  29.788  29.752  1.00  0.00     0.049 A 
ATOM     47  H   UNL A   1      39.625  30.677  31.632  1.00  0.00     0.167 HD
ATOM     48  C   UNL A   1      39.847  32.826  35.468  1.00  0.00     0.037 A 
ATOM     49  C   UNL A   1      40.502  28.872  29.700  1.00  0.00     0.037 A 
ATOM     50  C   UNL A   1      40.867  31.816  35.538  1.00  0.00     0.049 A 
ATOM     51  C   UNL A   1      41.385  28.681  30.905  1.00  0.00     0.074 A 
ATOM     52  C   UNL A   1      41.714  31.515  36.588  1.00  0.00     0.029 A 
ATOM     53  N   UNL A   1      41.168  30.934  34.511  1.00  0.00    -0.354 N 
ATOM     54  N   UNL A   1      41.371  29.319  32.050  1.00  0.00    -0.248 NA
ATOM     55  C   UNL A   1      42.412  27.634  30.814  1.00  0.00     0.031 C 
ATOM     56  C   UNL A   1      42.553  30.470  36.185  1.00  0.00     0.029 A 
ATOM     57  C   UNL A   1      42.197  30.093  34.899  1.00  0.00     0.049 A 
ATOM     58  H   UNL A   1      40.718  30.909  33.636  1.00  0.00     0.167 HD
ATOM     59  C   UNL A   1      42.362  28.734  32.825  1.00  0.00     0.074 A 
ATOM     60  C   UNL A   1      42.950  27.680  32.025  1.00  0.00     0.031 C 
ATOM     61  C   UNL A   1      42.754  29.041  34.087  1.00  0.00     0.037 A 
BRANCH  48  62
ATOM     62  C   UNL A   1      39.670  33.757  36.633  1.00  0.00     0.064 A 
ATOM     63  C   UNL A   1      40.319  35.001  36.686  1.00  0.00     0.173 A 
ATOM     64  C   UNL A   1      38.838  33.405  37.705  1.00  0.00     0.173 A 
ATOM     65  F   UNL A   1      41.140  35.377  35.694  1.00  0.00    -0.203 F 
ATOM     66  C   UNL A   1      40.171  35.840  37.787  1.00  0.00     0.198 A 
ATOM     67  C   UNL A   1      38.666  34.262  38.790  1.00  0.00     0.198 A 
ATOM     68  F   UNL A   1      38.193  32.229  37.705  1.00  0.00    -0.203 F 
ATOM     69  F   UNL A   1      40.852  36.993  37.844  1.00  0.00    -0.200 F 
ATOM     70  C   UNL A   1      39.341  35.473  38.835  1.00  0.00     0.200 A 
ATOM     71  F   UNL A   1      37.855  33.911  39.797  1.00  0.00    -0.200 F 
ATOM     72  F   UNL A   1      39.199  36.282  39.893  1.00  0.00    -0.200 F 
ENDBRANCH  48  62
BRANCH  49  73
ATOM     73  C   UNL A   1      40.674  28.033  28.486  1.00  0.00     0.064 A 
ATOM     74  C   UNL A   1      41.448  28.485  27.407  1.00  0.00     0.173 A 
ATOM     75  C   UNL A   1      40.075  26.770  28.376  1.00  0.00     0.173 A 
ATOM     76  F   UNL A   1      42.026  29.694  27.459  1.00  0.00    -0.203 F 
ATOM     77  C   UNL A   1      41.600  27.713  26.257  1.00  0.00     0.198 A 
ATOM     78  C   UNL A   1      40.249  25.988  27.235  1.00  0.00     0.198 A 
ATOM     79  F   UNL A   1      39.332  26.289  29.383  1.00  0.00    -0.203 F 
ATOM     80  F   UNL A   1      42.311  28.187  25.224  1.00  0.00    -0.200 F 
ATOM     81  C   UNL A   1      41.006  26.463  26.173  1.00  0.00     0.200 A 
ATOM     82  F   UNL A   1      39.685  24.775  27.164  1.00  0.00    -0.200 F 
ATOM     83  F   UNL A   1      41.155  25.720  25.069  1.00  0.00    -0.200 F 
ENDBRANCH  49  73
BRANCH  61  84
ATOM     84  C   UNL A   1      43.840  28.201  34.692  1.00  0.00     0.064 A 
ATOM     85  C   UNL A   1      45.180  28.611  34.677  1.00  0.00     0.173 A 
ATOM     86  C   UNL A   1      43.525  26.995  35.335  1.00  0.00     0.173 A 
ATOM     87  F   UNL A   1      45.531  29.750  34.060  1.00  0.00    -0.203 F 
ATOM     88  C   UNL A   1      46.171  27.830  35.263  1.00  0.00     0.198 A 
ATOM     89  C   UNL A   1      44.514  26.232  35.946  1.00  0.00     0.198 A 
ATOM     90  F   UNL A   1      42.254  26.565  35.383  1.00  0.00    -0.203 F 
ATOM     91  F   UNL A   1      47.452  28.216  35.198  1.00  0.00    -0.200 F 
ATOM     92  C   UNL A   1      45.836  26.645  35.904  1.00  0.00     0.200 A 
ATOM     93  F   UNL A   1      44.187  25.095  36.576  1.00  0.00    -0.200 F 
ATOM     94  F   UNL A   1      46.791  25.899  36.475  1.00  0.00    -0.200 F 
ENDBRANCH  61  84
ENDBRANCH  35  36
ENDBRANCH  27  30
ENDBRANCH  25  26
ENDBRANCH   1  25
TORSDOF 12
ENDMDL
