MODEL 1
REMARK VINA RESULT:     -10.5      0.000      0.000
REMARK SMILES C[C@H](CC[NH+](C)C)[NH2+][C@H](C)[C@@H](C)C(=O)NCCCCNC(=O)c1ccc(-c2c3nc(c(-c4c(F)c(F)c(F)c(F)c4F)c4ccc([nH]4)c(-c4c(F)c(F)c(F)c(F)c4F)c4nc(c(-c5c(F)c(F)c(F)c(F)c5F)c5ccc2[nH]5)C=C4)C=C3)cc1
REMARK SMILES IDX 13 1 14 2 15 3 11 5 12 6 9 7 10 8 8 9 2 12 1 13 3 14 4 15
REMARK SMILES IDX 5 16 6 17 7 18 16 20 17 21 18 22 19 23 20 24 21 25 22 27
REMARK SMILES IDX 23 28 24 29 85 30 25 31 84 32 26 33 27 34 28 35 78 36 29 37
REMARK SMILES IDX 83 38 77 39 79 40 30 41 82 42 76 43 75 44 31 46 63 47 43 48
REMARK SMILES IDX 62 49 44 50 47 51 61 52 80 53 45 54 46 55 60 57 81 58 48 59
REMARK SMILES IDX 32 60 33 61 41 62 34 63 35 64 39 65 42 66 36 67 37 68 40 69
REMARK SMILES IDX 38 70 64 71 65 72 73 73 66 74 67 75 71 76 74 77 68 78 69 79
REMARK SMILES IDX 72 80 70 81 49 82 50 83 58 84 51 85 52 86 56 87 59 88 53 89
REMARK SMILES IDX 54 90 57 91 55 92
REMARK H PARENT 15 4 8 10 8 11 5 19 20 26 79 45 47 56
REMARK Flexibility Score: inf
ROOT
ATOM      1  C   UNL A   1      34.691  22.531  26.650  1.00  0.00     0.228 C 
ATOM      2  O   UNL A   1      34.221  22.661  27.786  1.00  0.00    -0.275 OA
ATOM      3  N   UNL A   1      35.932  21.980  26.561  1.00  0.00    -0.356 N 
ATOM      4  H   UNL A   1      36.315  21.707  27.426  1.00  0.00     0.163 HD
ENDROOT
BRANCH   1   5
ATOM      5  C   UNL A   1      33.847  22.886  25.427  1.00  0.00     0.133 C 
ATOM      6  C   UNL A   1      33.959  24.393  25.155  1.00  0.00     0.024 C 
BRANCH   5   7
ATOM      7  C   UNL A   1      32.394  22.352  25.466  1.00  0.00     0.191 C 
ATOM      8  C   UNL A   1      31.420  23.132  24.567  1.00  0.00     0.076 C 
BRANCH   7   9
ATOM      9  N   UNL A   1      32.214  20.901  25.311  1.00  0.00    -0.341 N 
ATOM     10  H   UNL A   1      32.437  20.486  26.215  1.00  0.00     0.346 HD
ATOM     11  H   UNL A   1      31.258  20.835  24.963  1.00  0.00     0.346 HD
BRANCH   9  12
ATOM     12  C   UNL A   1      32.971  20.132  24.302  1.00  0.00     0.185 C 
ATOM     13  C   UNL A   1      32.174  19.765  23.050  1.00  0.00     0.075 C 
BRANCH  12  14
ATOM     14  C   UNL A   1      33.500  18.870  25.043  1.00  0.00     0.126 C 
BRANCH  14  15
ATOM     15  C   UNL A   1      32.530  17.717  25.368  1.00  0.00     0.268 C 
BRANCH  15  16
ATOM     16  N   UNL A   1      32.667  16.476  24.593  1.00  0.00    -0.340 N 
ATOM     17  C   UNL A   1      33.954  16.481  23.888  1.00  0.00     0.332 C 
ATOM     18  C   UNL A   1      32.556  15.266  25.404  1.00  0.00     0.332 C 
ATOM     19  H   UNL A   1      31.889  16.454  23.933  1.00  0.00     0.347 HD
ENDBRANCH  15  16
ENDBRANCH  14  15
ENDBRANCH  12  14
ENDBRANCH   9  12
ENDBRANCH   7   9
ENDBRANCH   5   7
ENDBRANCH   1   5
BRANCH   3  20
ATOM     20  C   UNL A   1      36.790  21.722  25.423  1.00  0.00     0.116 C 
BRANCH  20  21
ATOM     21  C   UNL A   1      36.718  20.263  24.978  1.00  0.00     0.023 C 
BRANCH  21  22
ATOM     22  C   UNL A   1      38.076  19.586  24.785  1.00  0.00     0.023 C 
BRANCH  22  23
ATOM     23  C   UNL A   1      39.088  19.833  25.897  1.00  0.00     0.116 C 
BRANCH  23  24
ATOM     24  N   UNL A   1      40.274  18.997  25.796  1.00  0.00    -0.352 N 
ATOM     25  C   UNL A   1      41.585  19.358  26.002  1.00  0.00     0.251 C 
ATOM     26  H   UNL A   1      40.121  18.056  25.550  1.00  0.00     0.163 HD
ATOM     27  O   UNL A   1      42.501  18.570  25.793  1.00  0.00    -0.269 OA
BRANCH  25  28
ATOM     28  C   UNL A   1      41.876  20.735  26.444  1.00  0.00     0.039 A 
ATOM     29  C   UNL A   1      42.199  20.966  27.783  1.00  0.00     0.014 A 
ATOM     30  C   UNL A   1      41.902  21.776  25.512  1.00  0.00     0.014 A 
ATOM     31  C   UNL A   1      42.632  22.234  28.177  1.00  0.00     0.010 A 
ATOM     32  C   UNL A   1      42.391  23.019  25.894  1.00  0.00     0.010 A 
ATOM     33  C   UNL A   1      42.770  23.256  27.225  1.00  0.00    -0.014 A 
BRANCH  33  34
ATOM     34  C   UNL A   1      43.309  24.592  27.579  1.00  0.00     0.031 A 
ATOM     35  C   UNL A   1      42.385  25.632  28.142  1.00  0.00     0.074 A 
ATOM     36  C   UNL A   1      44.586  24.902  27.288  1.00  0.00     0.049 A 
ATOM     37  N   UNL A   1      42.588  26.910  28.328  1.00  0.00    -0.248 NA
ATOM     38  C   UNL A   1      41.038  25.174  28.517  1.00  0.00     0.031 C 
ATOM     39  C   UNL A   1      45.574  23.984  26.718  1.00  0.00     0.029 A 
ATOM     40  N   UNL A   1      45.266  26.088  27.409  1.00  0.00    -0.354 N 
ATOM     41  C   UNL A   1      41.388  27.414  28.807  1.00  0.00     0.074 A 
ATOM     42  C   UNL A   1      40.451  26.313  28.855  1.00  0.00     0.031 C 
ATOM     43  C   UNL A   1      46.733  24.641  26.543  1.00  0.00     0.029 A 
ATOM     44  C   UNL A   1      46.557  26.033  26.942  1.00  0.00     0.049 A 
ATOM     45  H   UNL A   1      44.867  26.902  27.794  1.00  0.00     0.167 HD
ATOM     46  C   UNL A   1      41.100  28.681  29.186  1.00  0.00     0.037 A 
ATOM     47  C   UNL A   1      47.483  27.004  26.829  1.00  0.00     0.037 A 
ATOM     48  C   UNL A   1      42.046  29.765  29.172  1.00  0.00     0.049 A 
ATOM     49  C   UNL A   1      47.137  28.406  27.255  1.00  0.00     0.074 A 
ATOM     50  C   UNL A   1      41.864  31.075  29.577  1.00  0.00     0.029 A 
ATOM     51  N   UNL A   1      43.357  29.657  28.734  1.00  0.00    -0.354 N 
ATOM     52  N   UNL A   1      46.009  28.867  27.736  1.00  0.00    -0.248 NA
ATOM     53  C   UNL A   1      48.191  29.421  27.121  1.00  0.00     0.031 C 
ATOM     54  C   UNL A   1      43.059  31.768  29.358  1.00  0.00     0.029 A 
ATOM     55  C   UNL A   1      43.995  30.880  28.853  1.00  0.00     0.049 A 
ATOM     56  H   UNL A   1      43.773  28.834  28.388  1.00  0.00     0.167 HD
ATOM     57  C   UNL A   1      46.226  30.213  27.996  1.00  0.00     0.074 A 
ATOM     58  C   UNL A   1      47.595  30.496  27.618  1.00  0.00     0.031 C 
ATOM     59  C   UNL A   1      45.369  31.132  28.502  1.00  0.00     0.037 A 
BRANCH  46  60
ATOM     60  C   UNL A   1      39.702  28.962  29.650  1.00  0.00     0.064 A 
ATOM     61  C   UNL A   1      39.316  28.762  30.983  1.00  0.00     0.173 A 
ATOM     62  C   UNL A   1      38.744  29.464  28.757  1.00  0.00     0.173 A 
ATOM     63  F   UNL A   1      40.193  28.270  31.872  1.00  0.00    -0.203 F 
ATOM     64  C   UNL A   1      38.015  29.028  31.400  1.00  0.00     0.198 A 
ATOM     65  C   UNL A   1      37.450  29.756  29.184  1.00  0.00     0.198 A 
ATOM     66  F   UNL A   1      39.062  29.678  27.471  1.00  0.00    -0.203 F 
ATOM     67  F   UNL A   1      37.658  28.784  32.668  1.00  0.00    -0.200 F 
ATOM     68  C   UNL A   1      37.086  29.530  30.503  1.00  0.00     0.200 A 
ATOM     69  F   UNL A   1      36.555  30.251  28.317  1.00  0.00    -0.200 F 
ATOM     70  F   UNL A   1      35.835  29.790  30.907  1.00  0.00    -0.200 F 
ENDBRANCH  46  60
BRANCH  47  71
ATOM     71  C   UNL A   1      48.834  26.684  26.302  1.00  0.00     0.064 A 
ATOM     72  C   UNL A   1      49.802  26.094  27.126  1.00  0.00     0.173 A 
ATOM     73  C   UNL A   1      49.190  26.964  24.974  1.00  0.00     0.173 A 
ATOM     74  F   UNL A   1      49.515  25.828  28.409  1.00  0.00    -0.203 F 
ATOM     75  C   UNL A   1      51.080  25.812  26.648  1.00  0.00     0.198 A 
ATOM     76  C   UNL A   1      50.460  26.658  24.491  1.00  0.00     0.198 A 
ATOM     77  F   UNL A   1      48.299  27.526  24.144  1.00  0.00    -0.203 F 
ATOM     78  F   UNL A   1      51.999  25.285  27.470  1.00  0.00    -0.200 F 
ATOM     79  C   UNL A   1      51.406  26.088  25.330  1.00  0.00     0.200 A 
ATOM     80  F   UNL A   1      50.770  26.918  23.213  1.00  0.00    -0.200 F 
ATOM     81  F   UNL A   1      52.635  25.815  24.871  1.00  0.00    -0.200 F 
ENDBRANCH  47  71
BRANCH  59  82
ATOM     82  C   UNL A   1      45.896  32.514  28.740  1.00  0.00     0.064 A 
ATOM     83  C   UNL A   1      45.786  33.520  27.771  1.00  0.00     0.173 A 
ATOM     84  C   UNL A   1      46.449  32.852  29.985  1.00  0.00     0.173 A 
ATOM     85  F   UNL A   1      45.277  33.240  26.562  1.00  0.00    -0.203 F 
ATOM     86  C   UNL A   1      46.221  34.815  28.036  1.00  0.00     0.198 A 
ATOM     87  C   UNL A   1      46.862  34.153  30.254  1.00  0.00     0.198 A 
ATOM     88  F   UNL A   1      46.569  31.923  30.945  1.00  0.00    -0.203 F 
ATOM     89  F   UNL A   1      46.132  35.757  27.087  1.00  0.00    -0.200 F 
ATOM     90  C   UNL A   1      46.749  35.133  29.279  1.00  0.00     0.200 A 
ATOM     91  F   UNL A   1      47.360  34.460  31.459  1.00  0.00    -0.200 F 
ATOM     92  F   UNL A   1      47.151  36.384  29.538  1.00  0.00    -0.200 F 
ENDBRANCH  59  82
ENDBRANCH  33  34
ENDBRANCH  25  28
ENDBRANCH  23  24
ENDBRANCH  22  23
ENDBRANCH  21  22
ENDBRANCH  20  21
ENDBRANCH   3  20
TORSDOF 17
ENDMDL
MODEL 2
REMARK VINA RESULT:     -10.4      4.697     10.013
REMARK SMILES C[C@H](CC[NH+](C)C)[NH2+][C@H](C)[C@@H](C)C(=O)NCCCCNC(=O)c1ccc(-c2c3nc(c(-c4c(F)c(F)c(F)c(F)c4F)c4ccc([nH]4)c(-c4c(F)c(F)c(F)c(F)c4F)c4nc(c(-c5c(F)c(F)c(F)c(F)c5F)c5ccc2[nH]5)C=C4)C=C3)cc1
REMARK SMILES IDX 13 1 14 2 15 3 11 5 12 6 9 7 10 8 8 9 2 12 1 13 3 14 4 15
REMARK SMILES IDX 5 16 6 17 7 18 16 20 17 21 18 22 19 23 20 24 21 25 22 27
REMARK SMILES IDX 23 28 24 29 85 30 25 31 84 32 26 33 27 34 28 35 78 36 29 37
REMARK SMILES IDX 83 38 77 39 79 40 30 41 82 42 76 43 75 44 31 46 63 47 43 48
REMARK SMILES IDX 62 49 44 50 47 51 61 52 80 53 45 54 46 55 60 57 81 58 48 59
REMARK SMILES IDX 32 60 33 61 41 62 34 63 35 64 39 65 42 66 36 67 37 68 40 69
REMARK SMILES IDX 38 70 64 71 65 72 73 73 66 74 67 75 71 76 74 77 68 78 69 79
REMARK SMILES IDX 72 80 70 81 49 82 50 83 58 84 51 85 52 86 56 87 59 88 53 89
REMARK SMILES IDX 54 90 57 91 55 92
REMARK H PARENT 15 4 8 10 8 11 5 19 20 26 79 45 47 56
REMARK Flexibility Score: inf
ROOT
ATOM      1  C   UNL A   1      31.482  24.488  26.393  1.00  0.00     0.228 C 
ATOM      2  O   UNL A   1      31.642  23.936  27.488  1.00  0.00    -0.275 OA
ATOM      3  N   UNL A   1      30.698  25.600  26.379  1.00  0.00    -0.356 N 
ATOM      4  H   UNL A   1      30.363  25.869  27.265  1.00  0.00     0.163 HD
ENDROOT
BRANCH   1   5
ATOM      5  C   UNL A   1      32.229  23.979  25.162  1.00  0.00     0.133 C 
ATOM      6  C   UNL A   1      31.375  22.919  24.453  1.00  0.00     0.024 C 
BRANCH   5   7
ATOM      7  C   UNL A   1      33.692  23.546  25.425  1.00  0.00     0.191 C 
ATOM      8  C   UNL A   1      34.654  24.720  25.671  1.00  0.00     0.076 C 
BRANCH   7   9
ATOM      9  N   UNL A   1      33.902  22.472  26.407  1.00  0.00    -0.341 N 
ATOM     10  H   UNL A   1      34.475  22.870  27.150  1.00  0.00     0.346 HD
ATOM     11  H   UNL A   1      32.948  22.184  26.623  1.00  0.00     0.346 HD
BRANCH   9  12
ATOM     12  C   UNL A   1      34.540  21.194  26.029  1.00  0.00     0.185 C 
ATOM     13  C   UNL A   1      35.521  21.291  24.861  1.00  0.00     0.075 C 
BRANCH  12  14
ATOM     14  C   UNL A   1      33.370  20.213  25.724  1.00  0.00     0.126 C 
BRANCH  14  15
ATOM     15  C   UNL A   1      33.253  19.583  24.322  1.00  0.00     0.268 C 
BRANCH  15  16
ATOM     16  N   UNL A   1      32.519  18.315  24.206  1.00  0.00    -0.340 N 
ATOM     17  C   UNL A   1      33.077  17.528  23.100  1.00  0.00     0.332 C 
ATOM     18  C   UNL A   1      32.532  17.519  25.430  1.00  0.00     0.332 C 
ATOM     19  H   UNL A   1      31.543  18.556  24.028  1.00  0.00     0.347 HD
ENDBRANCH  15  16
ENDBRANCH  14  15
ENDBRANCH  12  14
ENDBRANCH   9  12
ENDBRANCH   7   9
ENDBRANCH   5   7
ENDBRANCH   1   5
BRANCH   3  20
ATOM     20  C   UNL A   1      30.266  26.457  25.294  1.00  0.00     0.116 C 
BRANCH  20  21
ATOM     21  C   UNL A   1      31.274  27.571  25.017  1.00  0.00     0.023 C 
BRANCH  21  22
ATOM     22  C   UNL A   1      32.056  28.044  26.244  1.00  0.00     0.023 C 
BRANCH  22  23
ATOM     23  C   UNL A   1      33.094  29.127  25.975  1.00  0.00     0.116 C 
BRANCH  23  24
ATOM     24  N   UNL A   1      32.633  30.466  26.311  1.00  0.00    -0.352 N 
ATOM     25  C   UNL A   1      33.257  31.402  27.102  1.00  0.00     0.251 C 
ATOM     26  H   UNL A   1      31.769  30.735  25.925  1.00  0.00     0.163 HD
ATOM     27  O   UNL A   1      32.710  32.464  27.378  1.00  0.00    -0.269 OA
BRANCH  25  28
ATOM     28  C   UNL A   1      34.588  31.086  27.651  1.00  0.00     0.039 A 
ATOM     29  C   UNL A   1      35.534  32.106  27.772  1.00  0.00     0.014 A 
ATOM     30  C   UNL A   1      34.864  29.797  28.116  1.00  0.00     0.014 A 
ATOM     31  C   UNL A   1      36.736  31.856  28.436  1.00  0.00     0.010 A 
ATOM     32  C   UNL A   1      36.034  29.567  28.830  1.00  0.00     0.010 A 
ATOM     33  C   UNL A   1      36.974  30.596  29.006  1.00  0.00    -0.014 A 
BRANCH  33  34
ATOM     34  C   UNL A   1      38.195  30.307  29.797  1.00  0.00     0.031 A 
ATOM     35  C   UNL A   1      39.212  29.346  29.254  1.00  0.00     0.074 A 
ATOM     36  C   UNL A   1      38.330  30.814  31.037  1.00  0.00     0.049 A 
ATOM     37  N   UNL A   1      40.237  28.797  29.852  1.00  0.00    -0.248 NA
ATOM     38  C   UNL A   1      39.031  28.923  27.857  1.00  0.00     0.031 C 
ATOM     39  C   UNL A   1      37.398  31.739  31.682  1.00  0.00     0.029 A 
ATOM     40  N   UNL A   1      39.296  30.598  31.988  1.00  0.00    -0.354 N 
ATOM     41  C   UNL A   1      40.801  27.940  28.918  1.00  0.00     0.074 A 
ATOM     42  C   UNL A   1      39.988  28.016  27.724  1.00  0.00     0.031 C 
ATOM     43  C   UNL A   1      37.840  32.014  32.921  1.00  0.00     0.029 A 
ATOM     44  C   UNL A   1      39.057  31.250  33.173  1.00  0.00     0.049 A 
ATOM     45  H   UNL A   1      40.086  30.030  31.836  1.00  0.00     0.167 HD
ATOM     46  C   UNL A   1      41.906  27.169  29.044  1.00  0.00     0.037 A 
ATOM     47  C   UNL A   1      39.732  31.214  34.338  1.00  0.00     0.037 A 
ATOM     48  C   UNL A   1      42.732  27.125  30.220  1.00  0.00     0.049 A 
ATOM     49  C   UNL A   1      40.958  30.347  34.452  1.00  0.00     0.074 A 
ATOM     50  C   UNL A   1      43.897  26.409  30.431  1.00  0.00     0.029 A 
ATOM     51  N   UNL A   1      42.480  27.835  31.384  1.00  0.00    -0.354 N 
ATOM     52  N   UNL A   1      41.501  29.563  33.553  1.00  0.00    -0.248 NA
ATOM     53  C   UNL A   1      41.662  30.358  35.742  1.00  0.00     0.031 C 
ATOM     54  C   UNL A   1      44.336  26.665  31.734  1.00  0.00     0.029 A 
ATOM     55  C   UNL A   1      43.466  27.570  32.320  1.00  0.00     0.049 A 
ATOM     56  H   UNL A   1      41.714  28.438  31.525  1.00  0.00     0.167 HD
ATOM     57  C   UNL A   1      42.626  29.017  34.153  1.00  0.00     0.074 A 
ATOM     58  C   UNL A   1      42.690  29.558  35.495  1.00  0.00     0.031 C 
ATOM     59  C   UNL A   1      43.527  28.145  33.639  1.00  0.00     0.037 A 
BRANCH  46  60
ATOM     60  C   UNL A   1      42.285  26.311  27.874  1.00  0.00     0.064 A 
ATOM     61  C   UNL A   1      41.659  25.079  27.634  1.00  0.00     0.173 A 
ATOM     62  C   UNL A   1      43.266  26.737  26.967  1.00  0.00     0.173 A 
ATOM     63  F   UNL A   1      40.724  24.621  28.481  1.00  0.00    -0.203 F 
ATOM     64  C   UNL A   1      42.019  24.293  26.544  1.00  0.00     0.198 A 
ATOM     65  C   UNL A   1      43.605  25.960  25.861  1.00  0.00     0.198 A 
ATOM     66  F   UNL A   1      43.894  27.909  27.148  1.00  0.00    -0.203 F 
ATOM     67  F   UNL A   1      41.440  23.098  26.362  1.00  0.00    -0.200 F 
ATOM     68  C   UNL A   1      42.987  24.736  25.655  1.00  0.00     0.200 A 
ATOM     69  F   UNL A   1      44.534  26.395  24.998  1.00  0.00    -0.200 F 
ATOM     70  F   UNL A   1      43.329  23.980  24.603  1.00  0.00    -0.200 F 
ENDBRANCH  46  60
BRANCH  47  71
ATOM     71  C   UNL A   1      39.276  32.036  35.487  1.00  0.00     0.064 A 
ATOM     72  C   UNL A   1      39.693  33.368  35.624  1.00  0.00     0.173 A 
ATOM     73  C   UNL A   1      38.425  31.514  36.472  1.00  0.00     0.173 A 
ATOM     74  F   UNL A   1      40.525  33.904  34.719  1.00  0.00    -0.203 F 
ATOM     75  C   UNL A   1      39.290  34.140  36.711  1.00  0.00     0.198 A 
ATOM     76  C   UNL A   1      38.002  32.295  37.545  1.00  0.00     0.198 A 
ATOM     77  F   UNL A   1      37.996  30.247  36.385  1.00  0.00    -0.203 F 
ATOM     78  F   UNL A   1      39.736  35.398  36.839  1.00  0.00    -0.200 F 
ATOM     79  C   UNL A   1      38.440  33.606  37.667  1.00  0.00     0.200 A 
ATOM     80  F   UNL A   1      37.174  31.778  38.463  1.00  0.00    -0.200 F 
ATOM     81  F   UNL A   1      38.051  34.350  38.712  1.00  0.00    -0.200 F 
ENDBRANCH  47  71
BRANCH  59  82
ATOM     82  C   UNL A   1      44.696  27.768  34.498  1.00  0.00     0.064 A 
ATOM     83  C   UNL A   1      45.836  28.577  34.584  1.00  0.00     0.173 A 
ATOM     84  C   UNL A   1      44.637  26.619  35.301  1.00  0.00     0.173 A 
ATOM     85  F   UNL A   1      45.943  29.677  33.823  1.00  0.00    -0.203 F 
ATOM     86  C   UNL A   1      46.883  28.243  35.439  1.00  0.00     0.198 A 
ATOM     87  C   UNL A   1      45.675  26.301  36.171  1.00  0.00     0.198 A 
ATOM     88  F   UNL A   1      43.562  25.817  35.256  1.00  0.00    -0.203 F 
ATOM     89  F   UNL A   1      47.977  29.015  35.487  1.00  0.00    -0.200 F 
ATOM     90  C   UNL A   1      46.798  27.113  36.238  1.00  0.00     0.200 A 
ATOM     91  F   UNL A   1      45.585  25.215  36.951  1.00  0.00    -0.200 F 
ATOM     92  F   UNL A   1      47.799  26.803  37.072  1.00  0.00    -0.200 F 
ENDBRANCH  59  82
ENDBRANCH  33  34
ENDBRANCH  25  28
ENDBRANCH  23  24
ENDBRANCH  22  23
ENDBRANCH  21  22
ENDBRANCH  20  21
ENDBRANCH   3  20
TORSDOF 17
ENDMDL
MODEL 3
REMARK VINA RESULT:     -10.3      0.657      7.537
REMARK SMILES C[C@H](CC[NH+](C)C)[NH2+][C@H](C)[C@@H](C)C(=O)NCCCCNC(=O)c1ccc(-c2c3nc(c(-c4c(F)c(F)c(F)c(F)c4F)c4ccc([nH]4)c(-c4c(F)c(F)c(F)c(F)c4F)c4nc(c(-c5c(F)c(F)c(F)c(F)c5F)c5ccc2[nH]5)C=C4)C=C3)cc1
REMARK SMILES IDX 13 1 14 2 15 3 11 5 12 6 9 7 10 8 8 9 2 12 1 13 3 14 4 15
REMARK SMILES IDX 5 16 6 17 7 18 16 20 17 21 18 22 19 23 20 24 21 25 22 27
REMARK SMILES IDX 23 28 24 29 85 30 25 31 84 32 26 33 27 34 28 35 78 36 29 37
REMARK SMILES IDX 83 38 77 39 79 40 30 41 82 42 76 43 75 44 31 46 63 47 43 48
REMARK SMILES IDX 62 49 44 50 47 51 61 52 80 53 45 54 46 55 60 57 81 58 48 59
REMARK SMILES IDX 32 60 33 61 41 62 34 63 35 64 39 65 42 66 36 67 37 68 40 69
REMARK SMILES IDX 38 70 64 71 65 72 73 73 66 74 67 75 71 76 74 77 68 78 69 79
REMARK SMILES IDX 72 80 70 81 49 82 50 83 58 84 51 85 52 86 56 87 59 88 53 89
REMARK SMILES IDX 54 90 57 91 55 92
REMARK H PARENT 15 4 8 10 8 11 5 19 20 26 79 45 47 56
REMARK Flexibility Score: inf
ROOT
ATOM      1  C   UNL A   1      35.031  23.021  26.398  1.00  0.00     0.228 C 
ATOM      2  O   UNL A   1      34.212  22.933  27.320  1.00  0.00    -0.275 OA
ATOM      3  N   UNL A   1      36.173  22.293  26.525  1.00  0.00    -0.356 N 
ATOM      4  H   UNL A   1      36.210  21.738  27.337  1.00  0.00     0.163 HD
ENDROOT
BRANCH   1   5
ATOM      5  C   UNL A   1      34.693  23.833  25.149  1.00  0.00     0.133 C 
ATOM      6  C   UNL A   1      34.433  25.292  25.549  1.00  0.00     0.024 C 
BRANCH   5   7
ATOM      7  C   UNL A   1      33.595  23.214  24.251  1.00  0.00     0.191 C 
ATOM      8  C   UNL A   1      33.928  23.245  22.750  1.00  0.00     0.076 C 
BRANCH   7   9
ATOM      9  N   UNL A   1      33.069  21.901  24.651  1.00  0.00    -0.341 N 
ATOM     10  H   UNL A   1      33.370  21.753  25.614  1.00  0.00     0.346 HD
ATOM     11  H   UNL A   1      32.073  21.996  24.458  1.00  0.00     0.346 HD
BRANCH   9  12
ATOM     12  C   UNL A   1      33.419  20.670  23.912  1.00  0.00     0.185 C 
ATOM     13  C   UNL A   1      32.249  20.010  23.184  1.00  0.00     0.075 C 
BRANCH  12  14
ATOM     14  C   UNL A   1      34.062  19.717  24.961  1.00  0.00     0.126 C 
BRANCH  14  15
ATOM     15  C   UNL A   1      34.471  18.291  24.541  1.00  0.00     0.268 C 
BRANCH  15  16
ATOM     16  N   UNL A   1      34.003  17.176  25.377  1.00  0.00    -0.340 N 
ATOM     17  C   UNL A   1      32.569  17.338  25.645  1.00  0.00     0.332 C 
ATOM     18  C   UNL A   1      34.248  15.863  24.789  1.00  0.00     0.332 C 
ATOM     19  H   UNL A   1      34.543  17.212  26.243  1.00  0.00     0.347 HD
ENDBRANCH  15  16
ENDBRANCH  14  15
ENDBRANCH  12  14
ENDBRANCH   9  12
ENDBRANCH   7   9
ENDBRANCH   5   7
ENDBRANCH   1   5
BRANCH   3  20
ATOM     20  C   UNL A   1      37.345  22.190  25.680  1.00  0.00     0.116 C 
BRANCH  20  21
ATOM     21  C   UNL A   1      37.218  21.048  24.672  1.00  0.00     0.023 C 
BRANCH  21  22
ATOM     22  C   UNL A   1      38.326  19.997  24.755  1.00  0.00     0.023 C 
BRANCH  22  23
ATOM     23  C   UNL A   1      39.317  20.187  25.897  1.00  0.00     0.116 C 
BRANCH  23  24
ATOM     24  N   UNL A   1      40.309  19.126  25.986  1.00  0.00    -0.352 N 
ATOM     25  C   UNL A   1      41.662  19.247  26.197  1.00  0.00     0.251 C 
ATOM     26  H   UNL A   1      39.969  18.208  25.883  1.00  0.00     0.163 HD
ATOM     27  O   UNL A   1      42.400  18.269  26.158  1.00  0.00    -0.269 OA
BRANCH  25  28
ATOM     28  C   UNL A   1      42.221  20.592  26.431  1.00  0.00     0.039 A 
ATOM     29  C   UNL A   1      42.790  21.287  25.361  1.00  0.00     0.014 A 
ATOM     30  C   UNL A   1      42.107  21.186  27.690  1.00  0.00     0.014 A 
ATOM     31  C   UNL A   1      43.174  22.618  25.533  1.00  0.00     0.010 A 
ATOM     32  C   UNL A   1      42.434  22.528  27.842  1.00  0.00     0.010 A 
ATOM     33  C   UNL A   1      42.959  23.258  26.763  1.00  0.00    -0.014 A 
BRANCH  33  34
ATOM     34  C   UNL A   1      43.269  24.695  26.968  1.00  0.00     0.031 A 
ATOM     35  C   UNL A   1      44.663  25.189  26.715  1.00  0.00     0.074 A 
ATOM     36  C   UNL A   1      42.338  25.518  27.485  1.00  0.00     0.049 A 
ATOM     37  N   UNL A   1      45.204  26.340  27.019  1.00  0.00    -0.248 NA
ATOM     38  C   UNL A   1      45.582  24.245  26.059  1.00  0.00     0.031 C 
ATOM     39  C   UNL A   1      40.956  25.149  27.794  1.00  0.00     0.029 A 
ATOM     40  N   UNL A   1      42.424  26.833  27.868  1.00  0.00    -0.354 N 
ATOM     41  C   UNL A   1      46.530  26.247  26.624  1.00  0.00     0.074 A 
ATOM     42  C   UNL A   1      46.724  24.917  26.088  1.00  0.00     0.031 C 
ATOM     43  C   UNL A   1      40.324  26.213  28.315  1.00  0.00     0.029 A 
ATOM     44  C   UNL A   1      41.266  27.323  28.420  1.00  0.00     0.049 A 
ATOM     45  H   UNL A   1      43.239  27.375  27.756  1.00  0.00     0.167 HD
ATOM     46  C   UNL A   1      47.496  27.193  26.691  1.00  0.00     0.037 A 
ATOM     47  C   UNL A   1      41.004  28.524  28.970  1.00  0.00     0.037 A 
ATOM     48  C   UNL A   1      47.289  28.526  27.191  1.00  0.00     0.049 A 
ATOM     49  C   UNL A   1      42.096  29.558  29.035  1.00  0.00     0.074 A 
ATOM     50  C   UNL A   1      48.193  29.571  27.261  1.00  0.00     0.029 A 
ATOM     51  N   UNL A   1      46.089  28.996  27.700  1.00  0.00    -0.354 N 
ATOM     52  N   UNL A   1      43.339  29.471  28.631  1.00  0.00    -0.248 NA
ATOM     53  C   UNL A   1      41.749  30.855  29.633  1.00  0.00     0.031 C 
ATOM     54  C   UNL A   1      47.546  30.668  27.839  1.00  0.00     0.029 A 
ATOM     55  C   UNL A   1      46.229  30.317  28.093  1.00  0.00     0.049 A 
ATOM     56  H   UNL A   1      45.260  28.470  27.773  1.00  0.00     0.167 HD
ATOM     57  C   UNL A   1      43.913  30.708  28.892  1.00  0.00     0.074 A 
ATOM     58  C   UNL A   1      42.881  31.530  29.490  1.00  0.00     0.031 C 
ATOM     59  C   UNL A   1      45.180  31.126  28.656  1.00  0.00     0.037 A 
BRANCH  46  60
ATOM     60  C   UNL A   1      48.866  26.817  26.210  1.00  0.00     0.064 A 
ATOM     61  C   UNL A   1      49.795  26.194  27.055  1.00  0.00     0.173 A 
ATOM     62  C   UNL A   1      49.243  27.055  24.880  1.00  0.00     0.173 A 
ATOM     63  F   UNL A   1      49.486  25.958  28.340  1.00  0.00    -0.203 F 
ATOM     64  C   UNL A   1      51.063  25.849  26.596  1.00  0.00     0.198 A 
ATOM     65  C   UNL A   1      50.503  26.683  24.415  1.00  0.00     0.198 A 
ATOM     66  F   UNL A   1      48.390  27.644  24.028  1.00  0.00    -0.203 F 
ATOM     67  F   UNL A   1      51.951  25.299  27.435  1.00  0.00    -0.200 F 
ATOM     68  C   UNL A   1      51.413  26.087  25.275  1.00  0.00     0.200 A 
ATOM     69  F   UNL A   1      50.836  26.905  23.136  1.00  0.00    -0.200 F 
ATOM     70  F   UNL A   1      52.632  25.750  24.833  1.00  0.00    -0.200 F 
ENDBRANCH  46  60
BRANCH  47  71
ATOM     71  C   UNL A   1      39.646  28.823  29.491  1.00  0.00     0.064 A 
ATOM     72  C   UNL A   1      39.304  28.513  30.814  1.00  0.00     0.173 A 
ATOM     73  C   UNL A   1      38.663  29.416  28.685  1.00  0.00     0.173 A 
ATOM     74  F   UNL A   1      40.203  27.925  31.617  1.00  0.00    -0.203 F 
ATOM     75  C   UNL A   1      38.025  28.768  31.306  1.00  0.00     0.198 A 
ATOM     76  C   UNL A   1      37.394  29.693  29.185  1.00  0.00     0.198 A 
ATOM     77  F   UNL A   1      38.942  29.735  27.412  1.00  0.00    -0.203 F 
ATOM     78  F   UNL A   1      37.712  28.423  32.563  1.00  0.00    -0.200 F 
ATOM     79  C   UNL A   1      37.073  29.364  30.493  1.00  0.00     0.200 A 
ATOM     80  F   UNL A   1      36.478  30.278  28.399  1.00  0.00    -0.200 F 
ATOM     81  F   UNL A   1      35.844  29.610  30.968  1.00  0.00    -0.200 F 
ENDBRANCH  47  71
BRANCH  59  82
ATOM     82  C   UNL A   1      45.512  32.550  28.983  1.00  0.00     0.064 A 
ATOM     83  C   UNL A   1      46.085  32.908  30.211  1.00  0.00     0.173 A 
ATOM     84  C   UNL A   1      45.323  33.555  28.022  1.00  0.00     0.173 A 
ATOM     85  F   UNL A   1      46.270  31.984  31.165  1.00  0.00    -0.203 F 
ATOM     86  C   UNL A   1      46.448  34.227  30.469  1.00  0.00     0.198 A 
ATOM     87  C   UNL A   1      45.709  34.868  28.275  1.00  0.00     0.198 A 
ATOM     88  F   UNL A   1      44.784  33.258  26.830  1.00  0.00    -0.203 F 
ATOM     89  F   UNL A   1      46.970  34.555  31.659  1.00  0.00    -0.200 F 
ATOM     90  C   UNL A   1      46.269  35.203  29.499  1.00  0.00     0.200 A 
ATOM     91  F   UNL A   1      45.546  35.806  27.333  1.00  0.00    -0.200 F 
ATOM     92  F   UNL A   1      46.635  36.468  29.744  1.00  0.00    -0.200 F 
ENDBRANCH  59  82
ENDBRANCH  33  34
ENDBRANCH  25  28
ENDBRANCH  23  24
ENDBRANCH  22  23
ENDBRANCH  21  22
ENDBRANCH  20  21
ENDBRANCH   3  20
TORSDOF 17
ENDMDL
