MODEL 1
REMARK VINA RESULT:     -13.6      0.000      0.000
REMARK SMILES O=C(C[C@@H]1C(=O)NCCN1C(=O)OCC1c2ccccc2-c2ccccc21)NCCCCNC(=O)c1ccc(-c2c3nc(c(-c4c(F)c(F)c(F)c(F)c4F)c4ccc([nH]4)c(-c4c(F)c(F)c(F)c(F)c4F)c4nc(c(-c5c(F)c(F)c(F)c(F)c5F)c5ccc2[nH]5)C=C4)C=C3)cc1
REMARK SMILES IDX 29 1 28 2 1 3 2 4 3 6 4 7 5 8 10 9 6 10 7 11 9 12 8 13 11 15
REMARK SMILES IDX 12 16 13 17 14 18 15 19 16 20 27 21 17 22 21 23 22 24 26 25
REMARK SMILES IDX 18 26 20 27 23 28 25 29 19 30 24 31 30 32 31 33 32 34 33 35
REMARK SMILES IDX 34 36 35 38 36 39 37 40 98 41 38 42 97 43 39 44 40 45 41 46
REMARK SMILES IDX 91 47 42 48 96 49 90 50 92 51 43 52 95 53 89 54 88 55 44 57
REMARK SMILES IDX 76 58 56 59 75 60 57 61 60 62 74 63 93 64 58 65 59 66 73 68
REMARK SMILES IDX 94 69 61 70 45 71 46 72 54 73 47 74 48 75 52 76 55 77 49 78
REMARK SMILES IDX 50 79 53 80 51 81 77 82 78 83 86 84 79 85 80 86 84 87 87 88
REMARK SMILES IDX 81 89 82 90 85 91 83 92 62 93 63 94 71 95 64 96 65 97 69 98
REMARK SMILES IDX 72 99 66 100 67 101 70 102 68 103
REMARK H PARENT 28 5 7 14 33 37 92 56 60 67
REMARK Flexibility Score: inf
ROOT
ATOM      1  C   UNL A   1      32.394  29.968  27.183  1.00  0.00     0.116 C 
ENDROOT
BRANCH   1   2
ATOM      2  N   UNL A   1      32.969  28.782  26.576  1.00  0.00    -0.356 N 
ATOM      3  O   UNL A   1      31.418  27.317  27.404  1.00  0.00    -0.275 OA
ATOM      4  C   UNL A   1      32.386  27.538  26.682  1.00  0.00     0.222 C 
ATOM      5  H   UNL A   1      33.808  28.869  26.069  1.00  0.00     0.163 HD
BRANCH   4   6
ATOM      6  C   UNL A   1      33.039  26.437  25.861  1.00  0.00     0.135 C 
BRANCH   6   7
ATOM      7  C   UNL A   1      32.202  26.104  24.609  1.00  0.00     0.187 C 
ATOM      8  C   UNL A   1      32.090  27.416  23.773  1.00  0.00     0.243 C 
ATOM      9  N   UNL A   1      30.912  25.375  24.813  1.00  0.00    -0.294 N 
ATOM     10  O   UNL A   1      33.070  28.101  23.482  1.00  0.00    -0.273 OA
ATOM     11  N   UNL A   1      30.865  27.796  23.301  1.00  0.00    -0.353 N 
ATOM     12  C   UNL A   1      29.873  25.625  23.815  1.00  0.00     0.145 C 
ATOM     13  C   UNL A   1      29.643  27.119  23.647  1.00  0.00     0.137 C 
ATOM     14  H   UNL A   1      30.817  28.571  22.696  1.00  0.00     0.163 HD
BRANCH   9  15
ATOM     15  C   UNL A   1      30.696  24.301  25.661  1.00  0.00     0.410 C 
ATOM     16  O   UNL A   1      30.200  24.409  26.778  1.00  0.00    -0.224 OA
BRANCH  15  17
ATOM     17  O   UNL A   1      31.167  23.122  25.181  1.00  0.00    -0.448 OA
BRANCH  17  18
ATOM     18  C   UNL A   1      32.445  22.698  25.703  1.00  0.00     0.248 C 
BRANCH  18  19
ATOM     19  C   UNL A   1      33.448  22.147  24.650  1.00  0.00     0.088 C 
ATOM     20  C   UNL A   1      34.905  22.439  25.029  1.00  0.00    -0.029 A 
ATOM     21  C   UNL A   1      33.502  20.637  24.427  1.00  0.00    -0.029 A 
ATOM     22  C   UNL A   1      35.524  23.670  25.189  1.00  0.00     0.005 A 
ATOM     23  C   UNL A   1      35.644  21.238  25.098  1.00  0.00    -0.014 A 
ATOM     24  C   UNL A   1      34.773  20.132  24.775  1.00  0.00    -0.014 A 
ATOM     25  C   UNL A   1      32.542  19.798  23.881  1.00  0.00     0.005 A 
ATOM     26  C   UNL A   1      36.902  23.692  25.421  1.00  0.00     0.000 A 
ATOM     27  C   UNL A   1      37.011  21.262  25.329  1.00  0.00     0.009 A 
ATOM     28  C   UNL A   1      35.048  18.775  24.697  1.00  0.00     0.009 A 
ATOM     29  C   UNL A   1      32.818  18.432  23.794  1.00  0.00     0.000 A 
ATOM     30  C   UNL A   1      37.639  22.499  25.488  1.00  0.00     0.001 A 
ATOM     31  C   UNL A   1      34.051  17.919  24.223  1.00  0.00     0.001 A 
ENDBRANCH  18  19
ENDBRANCH  17  18
ENDBRANCH  15  17
ENDBRANCH   9  15
ENDBRANCH   6   7
ENDBRANCH   4   6
ENDBRANCH   1   2
BRANCH   1  32
ATOM     32  C   UNL A   1      31.540  30.766  26.201  1.00  0.00     0.023 C 
BRANCH  32  33
ATOM     33  C   UNL A   1      31.439  32.265  26.494  1.00  0.00     0.023 C 
BRANCH  33  34
ATOM     34  C   UNL A   1      32.572  32.855  27.331  1.00  0.00     0.116 C 
BRANCH  34  35
ATOM     35  N   UNL A   1      32.349  34.244  27.696  1.00  0.00    -0.352 N 
ATOM     36  C   UNL A   1      32.986  35.024  28.632  1.00  0.00     0.251 C 
ATOM     37  H   UNL A   1      31.631  34.697  27.196  1.00  0.00     0.163 HD
ATOM     38  O   UNL A   1      32.557  36.146  28.888  1.00  0.00    -0.269 OA
BRANCH  36  39
ATOM     39  C   UNL A   1      34.168  34.513  29.363  1.00  0.00     0.039 A 
ATOM     40  C   UNL A   1      33.979  33.915  30.613  1.00  0.00     0.014 A 
ATOM     41  C   UNL A   1      35.457  34.623  28.835  1.00  0.00     0.014 A 
ATOM     42  C   UNL A   1      35.067  33.366  31.296  1.00  0.00     0.010 A 
ATOM     43  C   UNL A   1      36.528  34.006  29.479  1.00  0.00     0.010 A 
ATOM     44  C   UNL A   1      36.346  33.367  30.714  1.00  0.00    -0.014 A 
BRANCH  44  45
ATOM     45  C   UNL A   1      37.494  32.691  31.377  1.00  0.00     0.031 A 
ATOM     46  C   UNL A   1      38.165  31.513  30.726  1.00  0.00     0.074 A 
ATOM     47  C   UNL A   1      37.895  33.099  32.597  1.00  0.00     0.049 A 
ATOM     48  N   UNL A   1      39.130  30.752  31.180  1.00  0.00    -0.248 NA
ATOM     49  C   UNL A   1      37.669  31.122  29.397  1.00  0.00     0.031 C 
ATOM     50  C   UNL A   1      37.301  34.200  33.356  1.00  0.00     0.029 A 
ATOM     51  N   UNL A   1      38.888  32.628  33.420  1.00  0.00    -0.354 N 
ATOM     52  C   UNL A   1      39.349  29.793  30.200  1.00  0.00     0.074 A 
ATOM     53  C   UNL A   1      38.378  30.029  29.153  1.00  0.00     0.031 C 
ATOM     54  C   UNL A   1      37.952  34.332  34.523  1.00  0.00     0.029 A 
ATOM     55  C   UNL A   1      38.979  33.299  34.616  1.00  0.00     0.049 A 
ATOM     56  H   UNL A   1      39.480  31.880  33.176  1.00  0.00     0.167 HD
ATOM     57  C   UNL A   1      40.290  28.819  30.164  1.00  0.00     0.037 A 
ATOM     58  C   UNL A   1      39.787  33.097  35.674  1.00  0.00     0.037 A 
ATOM     59  C   UNL A   1      41.263  28.591  31.202  1.00  0.00     0.049 A 
ATOM     60  C   UNL A   1      40.807  31.991  35.620  1.00  0.00     0.074 A 
ATOM     61  C   UNL A   1      42.286  27.659  31.236  1.00  0.00     0.029 A 
ATOM     62  N   UNL A   1      41.329  29.300  32.393  1.00  0.00    -0.354 N 
ATOM     63  N   UNL A   1      41.047  31.132  34.661  1.00  0.00    -0.248 NA
ATOM     64  C   UNL A   1      41.673  31.830  36.797  1.00  0.00     0.031 C 
ATOM     65  C   UNL A   1      42.936  27.765  32.470  1.00  0.00     0.029 A 
ATOM     66  C   UNL A   1      42.360  28.807  33.180  1.00  0.00     0.049 A 
ATOM     67  H   UNL A   1      40.734  30.042  32.642  1.00  0.00     0.167 HD
ATOM     68  C   UNL A   1      42.109  30.352  35.102  1.00  0.00     0.074 A 
ATOM     69  C   UNL A   1      42.477  30.851  36.409  1.00  0.00     0.031 C 
ATOM     70  C   UNL A   1      42.723  29.316  34.479  1.00  0.00     0.037 A 
BRANCH  57  71
ATOM     71  C   UNL A   1      40.316  27.920  28.960  1.00  0.00     0.064 A 
ATOM     72  C   UNL A   1      41.065  28.242  27.817  1.00  0.00     0.173 A 
ATOM     73  C   UNL A   1      39.618  26.703  28.961  1.00  0.00     0.173 A 
ATOM     74  F   UNL A   1      41.745  29.397  27.758  1.00  0.00    -0.203 F 
ATOM     75  C   UNL A   1      41.087  27.396  26.710  1.00  0.00     0.198 A 
ATOM     76  C   UNL A   1      39.670  25.843  27.867  1.00  0.00     0.198 A 
ATOM     77  F   UNL A   1      38.892  26.340  30.030  1.00  0.00    -0.203 F 
ATOM     78  F   UNL A   1      41.766  27.751  25.611  1.00  0.00    -0.200 F 
ATOM     79  C   UNL A   1      40.396  26.194  26.740  1.00  0.00     0.200 A 
ATOM     80  F   UNL A   1      39.015  24.674  27.904  1.00  0.00    -0.200 F 
ATOM     81  F   UNL A   1      40.426  25.377  25.678  1.00  0.00    -0.200 F 
ENDBRANCH  57  71
BRANCH  58  82
ATOM     82  C   UNL A   1      39.673  33.969  36.874  1.00  0.00     0.064 A 
ATOM     83  C   UNL A   1      38.884  33.592  37.970  1.00  0.00     0.173 A 
ATOM     84  C   UNL A   1      40.337  35.203  36.945  1.00  0.00     0.173 A 
ATOM     85  F   UNL A   1      38.212  32.432  37.943  1.00  0.00    -0.203 F 
ATOM     86  C   UNL A   1      38.744  34.425  39.079  1.00  0.00     0.198 A 
ATOM     87  C   UNL A   1      40.223  36.021  38.066  1.00  0.00     0.198 A 
ATOM     88  F   UNL A   1      41.108  35.610  35.925  1.00  0.00    -0.203 F 
ATOM     89  F   UNL A   1      37.941  34.063  40.088  1.00  0.00    -0.200 F 
ATOM     90  C   UNL A   1      39.419  35.635  39.128  1.00  0.00     0.200 A 
ATOM     91  F   UNL A   1      40.891  37.181  38.118  1.00  0.00    -0.200 F 
ATOM     92  F   UNL A   1      39.287  36.435  40.196  1.00  0.00    -0.200 F 
ENDBRANCH  58  82
BRANCH  70  93
ATOM     93  C   UNL A   1      43.886  28.676  35.182  1.00  0.00     0.064 A 
ATOM     94  C   UNL A   1      43.714  27.599  36.066  1.00  0.00     0.173 A 
ATOM     95  C   UNL A   1      45.194  29.122  34.941  1.00  0.00     0.173 A 
ATOM     96  F   UNL A   1      42.484  27.142  36.343  1.00  0.00    -0.203 F 
ATOM     97  C   UNL A   1      44.806  27.013  36.701  1.00  0.00     0.198 A 
ATOM     98  C   UNL A   1      46.287  28.512  35.551  1.00  0.00     0.198 A 
ATOM     99  F   UNL A   1      45.415  30.145  34.100  1.00  0.00    -0.203 F 
ATOM    100  F   UNL A   1      44.614  26.020  37.581  1.00  0.00    -0.200 F 
ATOM    101  C   UNL A   1      46.091  27.464  36.437  1.00  0.00     0.200 A 
ATOM    102  F   UNL A   1      47.527  28.939  35.281  1.00  0.00    -0.200 F 
ATOM    103  F   UNL A   1      47.141  26.893  37.043  1.00  0.00    -0.200 F 
ENDBRANCH  70  93
ENDBRANCH  44  45
ENDBRANCH  36  39
ENDBRANCH  34  35
ENDBRANCH  33  34
ENDBRANCH  32  33
ENDBRANCH   1  32
TORSDOF 16
ENDMDL
MODEL 2
REMARK VINA RESULT:     -13.6      0.844      2.063
REMARK SMILES O=C(C[C@@H]1C(=O)NCCN1C(=O)OCC1c2ccccc2-c2ccccc21)NCCCCNC(=O)c1ccc(-c2c3nc(c(-c4c(F)c(F)c(F)c(F)c4F)c4ccc([nH]4)c(-c4c(F)c(F)c(F)c(F)c4F)c4nc(c(-c5c(F)c(F)c(F)c(F)c5F)c5ccc2[nH]5)C=C4)C=C3)cc1
REMARK SMILES IDX 29 1 28 2 1 3 2 4 3 6 4 7 5 8 10 9 6 10 7 11 9 12 8 13 11 15
REMARK SMILES IDX 12 16 13 17 14 18 15 19 16 20 27 21 17 22 21 23 22 24 26 25
REMARK SMILES IDX 18 26 20 27 23 28 25 29 19 30 24 31 30 32 31 33 32 34 33 35
REMARK SMILES IDX 34 36 35 38 36 39 37 40 98 41 38 42 97 43 39 44 40 45 41 46
REMARK SMILES IDX 91 47 42 48 96 49 90 50 92 51 43 52 95 53 89 54 88 55 44 57
REMARK SMILES IDX 76 58 56 59 75 60 57 61 60 62 74 63 93 64 58 65 59 66 73 68
REMARK SMILES IDX 94 69 61 70 45 71 46 72 54 73 47 74 48 75 52 76 55 77 49 78
REMARK SMILES IDX 50 79 53 80 51 81 77 82 78 83 86 84 79 85 80 86 84 87 87 88
REMARK SMILES IDX 81 89 82 90 85 91 83 92 62 93 63 94 71 95 64 96 65 97 69 98
REMARK SMILES IDX 72 99 66 100 67 101 70 102 68 103
REMARK H PARENT 28 5 7 14 33 37 92 56 60 67
REMARK Flexibility Score: inf
ROOT
ATOM      1  C   UNL A   1      32.316  29.773  26.909  1.00  0.00     0.116 C 
ENDROOT
BRANCH   1   2
ATOM      2  N   UNL A   1      32.324  28.453  26.307  1.00  0.00    -0.356 N 
ATOM      3  O   UNL A   1      34.583  28.130  26.477  1.00  0.00    -0.275 OA
ATOM      4  C   UNL A   1      33.470  27.695  26.199  1.00  0.00     0.222 C 
ATOM      5  H   UNL A   1      31.479  28.086  25.963  1.00  0.00     0.163 HD
BRANCH   4   6
ATOM      6  C   UNL A   1      33.270  26.279  25.680  1.00  0.00     0.135 C 
BRANCH   6   7
ATOM      7  C   UNL A   1      32.128  26.220  24.646  1.00  0.00     0.187 C 
ATOM      8  C   UNL A   1      30.871  25.666  25.386  1.00  0.00     0.243 C 
ATOM      9  N   UNL A   1      32.419  25.572  23.330  1.00  0.00    -0.294 N 
ATOM     10  O   UNL A   1      30.477  26.127  26.457  1.00  0.00    -0.273 OA
ATOM     11  N   UNL A   1      30.149  24.663  24.803  1.00  0.00    -0.353 N 
ATOM     12  C   UNL A   1      31.279  24.951  22.657  1.00  0.00     0.145 C 
ATOM     13  C   UNL A   1      30.562  23.994  23.597  1.00  0.00     0.137 C 
ATOM     14  H   UNL A   1      29.306  24.385  25.228  1.00  0.00     0.163 HD
BRANCH   9  15
ATOM     15  C   UNL A   1      33.561  25.738  22.563  1.00  0.00     0.410 C 
ATOM     16  O   UNL A   1      33.650  26.551  21.649  1.00  0.00    -0.224 OA
BRANCH  15  17
ATOM     17  O   UNL A   1      34.549  24.856  22.855  1.00  0.00    -0.448 OA
BRANCH  17  18
ATOM     18  C   UNL A   1      34.156  23.468  22.906  1.00  0.00     0.248 C 
BRANCH  18  19
ATOM     19  C   UNL A   1      34.361  22.765  24.279  1.00  0.00     0.088 C 
ATOM     20  C   UNL A   1      33.874  21.310  24.264  1.00  0.00    -0.029 A 
ATOM     21  C   UNL A   1      35.789  22.589  24.792  1.00  0.00    -0.029 A 
ATOM     22  C   UNL A   1      32.589  20.834  24.047  1.00  0.00     0.005 A 
ATOM     23  C   UNL A   1      34.922  20.438  24.630  1.00  0.00    -0.014 A 
ATOM     24  C   UNL A   1      36.106  21.218  24.908  1.00  0.00    -0.014 A 
ATOM     25  C   UNL A   1      36.696  23.553  25.205  1.00  0.00     0.005 A 
ATOM     26  C   UNL A   1      32.358  19.464  24.201  1.00  0.00     0.000 A 
ATOM     27  C   UNL A   1      34.691  19.080  24.781  1.00  0.00     0.009 A 
ATOM     28  C   UNL A   1      37.367  20.809  25.316  1.00  0.00     0.009 A 
ATOM     29  C   UNL A   1      37.964  23.145  25.623  1.00  0.00     0.000 A 
ATOM     30  C   UNL A   1      33.398  18.595  24.566  1.00  0.00     0.001 A 
ATOM     31  C   UNL A   1      38.307  21.785  25.654  1.00  0.00     0.001 A 
ENDBRANCH  18  19
ENDBRANCH  17  18
ENDBRANCH  15  17
ENDBRANCH   9  15
ENDBRANCH   6   7
ENDBRANCH   4   6
ENDBRANCH   1   2
BRANCH   1  32
ATOM     32  C   UNL A   1      31.643  30.814  26.018  1.00  0.00     0.023 C 
BRANCH  32  33
ATOM     33  C   UNL A   1      31.384  32.170  26.681  1.00  0.00     0.023 C 
BRANCH  33  34
ATOM     34  C   UNL A   1      32.601  32.846  27.307  1.00  0.00     0.116 C 
BRANCH  34  35
ATOM     35  N   UNL A   1      32.356  34.229  27.681  1.00  0.00    -0.352 N 
ATOM     36  C   UNL A   1      32.973  35.009  28.631  1.00  0.00     0.251 C 
ATOM     37  H   UNL A   1      31.638  34.677  27.177  1.00  0.00     0.163 HD
ATOM     38  O   UNL A   1      32.527  36.123  28.892  1.00  0.00    -0.269 OA
BRANCH  36  39
ATOM     39  C   UNL A   1      34.154  34.506  29.370  1.00  0.00     0.039 A 
ATOM     40  C   UNL A   1      33.963  33.928  30.629  1.00  0.00     0.014 A 
ATOM     41  C   UNL A   1      35.443  34.607  28.841  1.00  0.00     0.014 A 
ATOM     42  C   UNL A   1      35.049  33.386  31.320  1.00  0.00     0.010 A 
ATOM     43  C   UNL A   1      36.513  33.998  29.495  1.00  0.00     0.010 A 
ATOM     44  C   UNL A   1      36.328  33.377  30.740  1.00  0.00    -0.014 A 
BRANCH  44  45
ATOM     45  C   UNL A   1      37.475  32.709  31.413  1.00  0.00     0.031 A 
ATOM     46  C   UNL A   1      38.153  31.529  30.773  1.00  0.00     0.074 A 
ATOM     47  C   UNL A   1      37.867  33.126  32.633  1.00  0.00     0.049 A 
ATOM     48  N   UNL A   1      39.118  30.774  31.237  1.00  0.00    -0.248 NA
ATOM     49  C   UNL A   1      37.666  31.128  29.444  1.00  0.00     0.031 C 
ATOM     50  C   UNL A   1      37.266  34.230  33.382  1.00  0.00     0.029 A 
ATOM     51  N   UNL A   1      38.858  32.663  33.464  1.00  0.00    -0.354 N 
ATOM     52  C   UNL A   1      39.346  29.809  30.265  1.00  0.00     0.074 A 
ATOM     53  C   UNL A   1      38.380  30.036  29.211  1.00  0.00     0.031 C 
ATOM     54  C   UNL A   1      37.909  34.371  34.551  1.00  0.00     0.029 A 
ATOM     55  C   UNL A   1      38.940  33.342  34.656  1.00  0.00     0.049 A 
ATOM     56  H   UNL A   1      39.453  31.915  33.229  1.00  0.00     0.167 HD
ATOM     57  C   UNL A   1      40.290  28.838  30.241  1.00  0.00     0.037 A 
ATOM     58  C   UNL A   1      39.742  33.148  35.721  1.00  0.00     0.037 A 
ATOM     59  C   UNL A   1      41.258  28.620  31.285  1.00  0.00     0.049 A 
ATOM     60  C   UNL A   1      40.765  32.045  35.680  1.00  0.00     0.074 A 
ATOM     61  C   UNL A   1      42.283  27.692  31.331  1.00  0.00     0.029 A 
ATOM     62  N   UNL A   1      41.315  29.336  32.472  1.00  0.00    -0.354 N 
ATOM     63  N   UNL A   1      41.014  31.182  34.727  1.00  0.00    -0.248 NA
ATOM     64  C   UNL A   1      41.625  31.895  36.863  1.00  0.00     0.031 C 
ATOM     65  C   UNL A   1      42.926  27.807  32.568  1.00  0.00     0.029 A 
ATOM     66  C   UNL A   1      42.342  28.852  33.268  1.00  0.00     0.049 A 
ATOM     67  H   UNL A   1      40.716  30.078  32.714  1.00  0.00     0.167 HD
ATOM     68  C   UNL A   1      42.076  30.408  35.179  1.00  0.00     0.074 A 
ATOM     69  C   UNL A   1      42.435  30.916  36.485  1.00  0.00     0.031 C 
ATOM     70  C   UNL A   1      42.696  29.370  34.566  1.00  0.00     0.037 A 
BRANCH  57  71
ATOM     71  C   UNL A   1      40.325  27.932  29.042  1.00  0.00     0.064 A 
ATOM     72  C   UNL A   1      41.074  28.252  27.899  1.00  0.00     0.173 A 
ATOM     73  C   UNL A   1      39.637  26.709  29.050  1.00  0.00     0.173 A 
ATOM     74  F   UNL A   1      41.746  29.412  27.833  1.00  0.00    -0.203 F 
ATOM     75  C   UNL A   1      41.106  27.400  26.798  1.00  0.00     0.198 A 
ATOM     76  C   UNL A   1      39.698  25.843  27.961  1.00  0.00     0.198 A 
ATOM     77  F   UNL A   1      38.911  26.348  30.119  1.00  0.00    -0.203 F 
ATOM     78  F   UNL A   1      41.784  27.753  25.698  1.00  0.00    -0.200 F 
ATOM     79  C   UNL A   1      40.424  26.192  26.833  1.00  0.00     0.200 A 
ATOM     80  F   UNL A   1      39.053  24.669  28.004  1.00  0.00    -0.200 F 
ATOM     81  F   UNL A   1      40.463  25.368  25.777  1.00  0.00    -0.200 F 
ENDBRANCH  57  71
BRANCH  58  82
ATOM     82  C   UNL A   1      39.618  34.028  36.914  1.00  0.00     0.064 A 
ATOM     83  C   UNL A   1      38.850  33.641  38.021  1.00  0.00     0.173 A 
ATOM     84  C   UNL A   1      40.252  35.279  36.968  1.00  0.00     0.173 A 
ATOM     85  F   UNL A   1      38.207  32.464  38.011  1.00  0.00    -0.203 F 
ATOM     86  C   UNL A   1      38.700  34.480  39.125  1.00  0.00     0.198 A 
ATOM     87  C   UNL A   1      40.128  36.103  38.084  1.00  0.00     0.198 A 
ATOM     88  F   UNL A   1      41.002  35.696  35.937  1.00  0.00    -0.203 F 
ATOM     89  F   UNL A   1      37.917  34.106  40.145  1.00  0.00    -0.200 F 
ATOM     90  C   UNL A   1      39.345  35.707  39.157  1.00  0.00     0.200 A 
ATOM     91  F   UNL A   1      40.768  37.280  38.119  1.00  0.00    -0.200 F 
ATOM     92  F   UNL A   1      39.204  36.512  40.220  1.00  0.00    -0.200 F 
ENDBRANCH  58  82
BRANCH  70  93
ATOM     93  C   UNL A   1      43.857  28.738  35.280  1.00  0.00     0.064 A 
ATOM     94  C   UNL A   1      43.679  27.696  36.203  1.00  0.00     0.173 A 
ATOM     95  C   UNL A   1      45.169  29.156  35.010  1.00  0.00     0.173 A 
ATOM     96  F   UNL A   1      42.446  27.267  36.508  1.00  0.00    -0.203 F 
ATOM     97  C   UNL A   1      44.769  27.116  36.848  1.00  0.00     0.198 A 
ATOM     98  C   UNL A   1      46.259  28.552  35.630  1.00  0.00     0.198 A 
ATOM     99  F   UNL A   1      45.397  30.144  34.131  1.00  0.00    -0.203 F 
ATOM    100  F   UNL A   1      44.572  26.159  37.765  1.00  0.00    -0.200 F 
ATOM    101  C   UNL A   1      46.058  27.539  36.555  1.00  0.00     0.200 A 
ATOM    102  F   UNL A   1      47.503  28.950  35.333  1.00  0.00    -0.200 F 
ATOM    103  F   UNL A   1      47.106  26.974  37.170  1.00  0.00    -0.200 F 
ENDBRANCH  70  93
ENDBRANCH  44  45
ENDBRANCH  36  39
ENDBRANCH  34  35
ENDBRANCH  33  34
ENDBRANCH  32  33
ENDBRANCH   1  32
TORSDOF 16
ENDMDL
MODEL 3
REMARK VINA RESULT:     -13.3      5.245      9.998
REMARK SMILES O=C(C[C@@H]1C(=O)NCCN1C(=O)OCC1c2ccccc2-c2ccccc21)NCCCCNC(=O)c1ccc(-c2c3nc(c(-c4c(F)c(F)c(F)c(F)c4F)c4ccc([nH]4)c(-c4c(F)c(F)c(F)c(F)c4F)c4nc(c(-c5c(F)c(F)c(F)c(F)c5F)c5ccc2[nH]5)C=C4)C=C3)cc1
REMARK SMILES IDX 29 1 28 2 1 3 2 4 3 6 4 7 5 8 10 9 6 10 7 11 9 12 8 13 11 15
REMARK SMILES IDX 12 16 13 17 14 18 15 19 16 20 27 21 17 22 21 23 22 24 26 25
REMARK SMILES IDX 18 26 20 27 23 28 25 29 19 30 24 31 30 32 31 33 32 34 33 35
REMARK SMILES IDX 34 36 35 38 36 39 37 40 98 41 38 42 97 43 39 44 40 45 41 46
REMARK SMILES IDX 91 47 42 48 96 49 90 50 92 51 43 52 95 53 89 54 88 55 44 57
REMARK SMILES IDX 76 58 56 59 75 60 57 61 60 62 74 63 93 64 58 65 59 66 73 68
REMARK SMILES IDX 94 69 61 70 45 71 46 72 54 73 47 74 48 75 52 76 55 77 49 78
REMARK SMILES IDX 50 79 53 80 51 81 77 82 78 83 86 84 79 85 80 86 84 87 87 88
REMARK SMILES IDX 81 89 82 90 85 91 83 92 62 93 63 94 71 95 64 96 65 97 69 98
REMARK SMILES IDX 72 99 66 100 67 101 70 102 68 103
REMARK H PARENT 28 5 7 14 33 37 92 56 60 67
REMARK Flexibility Score: inf
ROOT
ATOM      1  C   UNL A   1      37.574  22.113  25.441  1.00  0.00     0.116 C 
ENDROOT
BRANCH   1   2
ATOM      2  N   UNL A   1      36.351  22.594  26.054  1.00  0.00    -0.356 N 
ATOM      3  O   UNL A   1      35.759  23.988  24.338  1.00  0.00    -0.275 OA
ATOM      4  C   UNL A   1      35.490  23.458  25.412  1.00  0.00     0.222 C 
ATOM      5  H   UNL A   1      36.127  22.291  26.963  1.00  0.00     0.163 HD
BRANCH   4   6
ATOM      6  C   UNL A   1      34.185  23.740  26.139  1.00  0.00     0.135 C 
BRANCH   6   7
ATOM      7  C   UNL A   1      33.151  22.626  25.882  1.00  0.00     0.187 C 
ATOM      8  C   UNL A   1      33.649  21.358  26.642  1.00  0.00     0.243 C 
ATOM      9  N   UNL A   1      32.729  22.386  24.467  1.00  0.00    -0.294 N 
ATOM     10  O   UNL A   1      33.986  21.386  27.825  1.00  0.00    -0.273 OA
ATOM     11  N   UNL A   1      33.665  20.158  25.987  1.00  0.00    -0.353 N 
ATOM     12  C   UNL A   1      32.312  21.022  24.147  1.00  0.00     0.145 C 
ATOM     13  C   UNL A   1      33.372  20.023  24.585  1.00  0.00     0.137 C 
ATOM     14  H   UNL A   1      33.889  19.348  26.500  1.00  0.00     0.163 HD
BRANCH   9  15
ATOM     15  C   UNL A   1      32.428  23.352  23.521  1.00  0.00     0.410 C 
ATOM     16  O   UNL A   1      32.957  23.405  22.415  1.00  0.00    -0.224 OA
BRANCH  15  17
ATOM     17  O   UNL A   1      31.557  24.295  23.960  1.00  0.00    -0.448 OA
BRANCH  17  18
ATOM     18  C   UNL A   1      32.035  25.656  23.922  1.00  0.00     0.248 C 
BRANCH  18  19
ATOM     19  C   UNL A   1      31.247  26.666  24.805  1.00  0.00     0.088 C 
ATOM     20  C   UNL A   1      32.174  27.650  25.529  1.00  0.00    -0.029 A 
ATOM     21  C   UNL A   1      30.284  27.629  24.113  1.00  0.00    -0.029 A 
ATOM     22  C   UNL A   1      33.159  27.375  26.467  1.00  0.00     0.005 A 
ATOM     23  C   UNL A   1      31.828  28.979  25.206  1.00  0.00    -0.014 A 
ATOM     24  C   UNL A   1      30.700  28.964  24.303  1.00  0.00    -0.014 A 
ATOM     25  C   UNL A   1      29.096  27.355  23.452  1.00  0.00     0.005 A 
ATOM     26  C   UNL A   1      33.801  28.452  27.086  1.00  0.00     0.000 A 
ATOM     27  C   UNL A   1      32.466  30.046  25.820  1.00  0.00     0.009 A 
ATOM     28  C   UNL A   1      30.004  30.018  23.729  1.00  0.00     0.009 A 
ATOM     29  C   UNL A   1      28.388  28.414  22.879  1.00  0.00     0.000 A 
ATOM     30  C   UNL A   1      33.457  29.774  26.767  1.00  0.00     0.001 A 
ATOM     31  C   UNL A   1      28.852  29.732  22.994  1.00  0.00     0.001 A 
ENDBRANCH  18  19
ENDBRANCH  17  18
ENDBRANCH  15  17
ENDBRANCH   9  15
ENDBRANCH   6   7
ENDBRANCH   4   6
ENDBRANCH   1   2
BRANCH   1  32
ATOM     32  C   UNL A   1      37.363  20.815  24.664  1.00  0.00     0.023 C 
BRANCH  32  33
ATOM     33  C   UNL A   1      38.293  19.663  25.056  1.00  0.00     0.023 C 
BRANCH  33  34
ATOM     34  C   UNL A   1      39.438  20.026  25.997  1.00  0.00     0.116 C 
BRANCH  34  35
ATOM     35  N   UNL A   1      40.558  19.103  25.915  1.00  0.00    -0.352 N 
ATOM     36  C   UNL A   1      41.908  19.339  26.036  1.00  0.00     0.251 C 
ATOM     37  H   UNL A   1      40.314  18.164  25.747  1.00  0.00     0.163 HD
ATOM     38  O   UNL A   1      42.710  18.441  25.798  1.00  0.00    -0.269 OA
BRANCH  36  39
ATOM     39  C   UNL A   1      42.408  20.680  26.419  1.00  0.00     0.039 A 
ATOM     40  C   UNL A   1      42.834  21.551  25.412  1.00  0.00     0.014 A 
ATOM     41  C   UNL A   1      42.470  21.082  27.756  1.00  0.00     0.014 A 
ATOM     42  C   UNL A   1      43.250  22.845  25.738  1.00  0.00     0.010 A 
ATOM     43  C   UNL A   1      42.809  22.396  28.072  1.00  0.00     0.010 A 
ATOM     44  C   UNL A   1      43.199  23.294  27.068  1.00  0.00    -0.014 A 
BRANCH  44  45
ATOM     45  C   UNL A   1      43.534  24.700  27.419  1.00  0.00     0.031 A 
ATOM     46  C   UNL A   1      44.968  25.146  27.501  1.00  0.00     0.074 A 
ATOM     47  C   UNL A   1      42.546  25.564  27.727  1.00  0.00     0.049 A 
ATOM     48  N   UNL A   1      45.458  26.307  27.860  1.00  0.00    -0.248 NA
ATOM     49  C   UNL A   1      45.991  24.146  27.157  1.00  0.00     0.031 C 
ATOM     50  C   UNL A   1      41.118  25.247  27.729  1.00  0.00     0.029 A 
ATOM     51  N   UNL A   1      42.593  26.882  28.110  1.00  0.00    -0.354 N 
ATOM     52  C   UNL A   1      46.838  26.174  27.793  1.00  0.00     0.074 A 
ATOM     53  C   UNL A   1      47.112  24.804  27.417  1.00  0.00     0.031 C 
ATOM     54  C   UNL A   1      40.424  26.343  28.076  1.00  0.00     0.029 A 
ATOM     55  C   UNL A   1      41.358  27.427  28.365  1.00  0.00     0.049 A 
ATOM     56  H   UNL A   1      43.433  27.389  28.194  1.00  0.00     0.167 HD
ATOM     57  C   UNL A   1      47.790  27.115  28.001  1.00  0.00     0.037 A 
ATOM     58  C   UNL A   1      41.015  28.656  28.797  1.00  0.00     0.037 A 
ATOM     59  C   UNL A   1      47.516  28.481  28.365  1.00  0.00     0.049 A 
ATOM     60  C   UNL A   1      42.094  29.676  29.047  1.00  0.00     0.074 A 
ATOM     61  C   UNL A   1      48.411  29.520  28.553  1.00  0.00     0.029 A 
ATOM     62  N   UNL A   1      46.250  28.998  28.603  1.00  0.00    -0.354 N 
ATOM     63  N   UNL A   1      43.392  29.556  28.916  1.00  0.00    -0.248 NA
ATOM     64  C   UNL A   1      41.658  31.005  29.499  1.00  0.00     0.031 C 
ATOM     65  C   UNL A   1      47.694  30.650  28.960  1.00  0.00     0.029 A 
ATOM     66  C   UNL A   1      46.344  30.334  28.962  1.00  0.00     0.049 A 
ATOM     67  H   UNL A   1      45.410  28.491  28.528  1.00  0.00     0.167 HD
ATOM     68  C   UNL A   1      43.925  30.798  29.238  1.00  0.00     0.074 A 
ATOM     69  C   UNL A   1      42.808  31.662  29.554  1.00  0.00     0.031 C 
ATOM     70  C   UNL A   1      45.223  31.187  29.268  1.00  0.00     0.037 A 
BRANCH  57  71
ATOM     71  C   UNL A   1      49.226  26.699  27.840  1.00  0.00     0.064 A 
ATOM     72  C   UNL A   1      50.037  26.408  28.948  1.00  0.00     0.173 A 
ATOM     73  C   UNL A   1      49.787  26.549  26.563  1.00  0.00     0.173 A 
ATOM     74  F   UNL A   1      49.554  26.542  30.193  1.00  0.00    -0.203 F 
ATOM     75  C   UNL A   1      51.363  26.015  28.784  1.00  0.00     0.198 A 
ATOM     76  C   UNL A   1      51.103  26.123  26.402  1.00  0.00     0.198 A 
ATOM     77  F   UNL A   1      49.055  26.806  25.467  1.00  0.00    -0.203 F 
ATOM     78  F   UNL A   1      52.133  25.794  29.859  1.00  0.00    -0.200 F 
ATOM     79  C   UNL A   1      51.892  25.865  27.511  1.00  0.00     0.200 A 
ATOM     80  F   UNL A   1      51.607  25.963  25.170  1.00  0.00    -0.200 F 
ATOM     81  F   UNL A   1      53.166  25.478  27.355  1.00  0.00    -0.200 F 
ENDBRANCH  57  71
BRANCH  58  82
ATOM     82  C   UNL A   1      39.583  28.996  29.012  1.00  0.00     0.064 A 
ATOM     83  C   UNL A   1      38.996  28.890  30.281  1.00  0.00     0.173 A 
ATOM     84  C   UNL A   1      38.766  29.418  27.951  1.00  0.00     0.173 A 
ATOM     85  F   UNL A   1      39.728  28.470  31.323  1.00  0.00    -0.203 F 
ATOM     86  C   UNL A   1      37.644  29.170  30.476  1.00  0.00     0.198 A 
ATOM     87  C   UNL A   1      37.424  29.730  28.154  1.00  0.00     0.198 A 
ATOM     88  F   UNL A   1      39.278  29.541  26.717  1.00  0.00    -0.203 F 
ATOM     89  F   UNL A   1      37.099  29.009  31.689  1.00  0.00    -0.200 F 
ATOM     90  C   UNL A   1      36.862  29.596  29.414  1.00  0.00     0.200 A 
ATOM     91  F   UNL A   1      36.676  30.158  27.128  1.00  0.00    -0.200 F 
ATOM     92  F   UNL A   1      35.563  29.868  29.603  1.00  0.00    -0.200 F 
ENDBRANCH  58  82
BRANCH  70  93
ATOM     93  C   UNL A   1      45.509  32.621  29.616  1.00  0.00     0.064 A 
ATOM     94  C   UNL A   1      45.537  33.627  28.639  1.00  0.00     0.173 A 
ATOM     95  C   UNL A   1      45.721  32.998  30.951  1.00  0.00     0.173 A 
ATOM     96  F   UNL A   1      45.354  33.320  27.346  1.00  0.00    -0.203 F 
ATOM     97  C   UNL A   1      45.794  34.953  28.982  1.00  0.00     0.198 A 
ATOM     98  C   UNL A   1      45.943  34.329  31.296  1.00  0.00     0.198 A 
ATOM     99  F   UNL A   1      45.699  32.077  31.926  1.00  0.00    -0.203 F 
ATOM    100  F   UNL A   1      45.868  35.889  28.026  1.00  0.00    -0.200 F 
ATOM    101  C   UNL A   1      45.988  35.303  30.310  1.00  0.00     0.200 A 
ATOM    102  F   UNL A   1      46.115  34.667  32.580  1.00  0.00    -0.200 F 
ATOM    103  F   UNL A   1      46.227  36.580  30.640  1.00  0.00    -0.200 F 
ENDBRANCH  70  93
ENDBRANCH  44  45
ENDBRANCH  36  39
ENDBRANCH  34  35
ENDBRANCH  33  34
ENDBRANCH  32  33
ENDBRANCH   1  32
TORSDOF 16
ENDMDL
