MODEL 1
REMARK VINA RESULT:     -13.2      0.000      0.000
REMARK SMILES O=C(NCCCCNC(=O)[C@H]1C[C@](O)(c2ccc(Cl)cc2)[C@@H](c2ccc(Cl)cc2)O1)c1ccc(-c2c3nc(c(-c4c(F)c(F)c(F)c(F)c4F)c4ccc([nH]4)c(-c4c(F)c(F)c(F)c(F)c4F)c4nc(c(-c5c(F)c(F)c(F)c(F)c5F)c5ccc2[nH]5)C=C4)C=C3)cc1
REMARK SMILES IDX 5 1 4 2 3 3 1 4 2 5 31 7 32 8 93 9 33 10 92 11 34 12 35 13
REMARK SMILES IDX 36 14 86 15 37 16 91 17 85 18 87 19 38 20 90 21 84 22 83 23
REMARK SMILES IDX 39 25 71 26 51 27 70 28 52 29 55 30 69 31 88 32 53 33 54 34
REMARK SMILES IDX 68 36 89 37 56 38 40 39 41 40 49 41 42 42 43 43 47 44 50 45
REMARK SMILES IDX 44 46 45 47 48 48 46 49 72 50 73 51 81 52 74 53 75 54 79 55
REMARK SMILES IDX 82 56 76 57 77 58 80 59 78 60 57 61 58 62 66 63 59 64 60 65
REMARK SMILES IDX 64 66 67 67 61 68 62 69 65 70 63 71 6 72 7 73 8 74 9 75
REMARK SMILES IDX 10 77 11 78 12 79 30 80 13 81 22 82 15 83 16 84 21 85 17 86
REMARK SMILES IDX 20 87 18 88 19 89 14 90 23 92 24 93 29 94 25 95 28 96 26 97
REMARK SMILES IDX 27 98
REMARK H PARENT 3 6 87 24 55 35 8 76 14 91
REMARK Flexibility Score: inf
ROOT
ATOM      1  C   UNL A   1      33.130  31.770  27.863  1.00  0.00     0.023 C 
ENDROOT
BRANCH   1   2
ATOM      2  C   UNL A   1      32.652  32.900  26.957  1.00  0.00     0.116 C 
BRANCH   2   3
ATOM      3  N   UNL A   1      32.435  34.150  27.672  1.00  0.00    -0.352 N 
ATOM      4  O   UNL A   1      32.577  35.783  29.188  1.00  0.00    -0.269 OA
ATOM      5  C   UNL A   1      33.072  34.761  28.731  1.00  0.00     0.251 C 
ATOM      6  H   UNL A   1      31.674  34.669  27.325  1.00  0.00     0.163 HD
BRANCH   5   7
ATOM      7  C   UNL A   1      34.301  34.203  29.364  1.00  0.00     0.039 A 
ATOM      8  C   UNL A   1      34.262  33.395  30.490  1.00  0.00     0.014 A 
ATOM      9  C   UNL A   1      35.551  34.461  28.778  1.00  0.00     0.014 A 
ATOM     10  C   UNL A   1      35.428  33.007  31.132  1.00  0.00     0.010 A 
ATOM     11  C   UNL A   1      36.727  33.929  29.332  1.00  0.00     0.010 A 
ATOM     12  C   UNL A   1      36.677  33.210  30.533  1.00  0.00    -0.014 A 
BRANCH  12  13
ATOM     13  C   UNL A   1      37.859  32.569  31.172  1.00  0.00     0.031 A 
ATOM     14  C   UNL A   1      38.261  32.887  32.582  1.00  0.00     0.074 A 
ATOM     15  C   UNL A   1      38.510  31.605  30.485  1.00  0.00     0.049 A 
ATOM     16  N   UNL A   1      39.223  32.360  33.300  1.00  0.00    -0.248 NA
ATOM     17  C   UNL A   1      37.505  33.938  33.278  1.00  0.00     0.031 C 
ATOM     18  C   UNL A   1      38.218  31.220  29.099  1.00  0.00     0.029 A 
ATOM     19  N   UNL A   1      39.499  30.730  30.861  1.00  0.00    -0.354 N 
ATOM     20  C   UNL A   1      39.212  33.040  34.510  1.00  0.00     0.074 A 
ATOM     21  C   UNL A   1      38.156  34.026  34.429  1.00  0.00     0.031 C 
ATOM     22  C   UNL A   1      38.916  30.121  28.787  1.00  0.00     0.029 A 
ATOM     23  C   UNL A   1      39.793  29.790  29.900  1.00  0.00     0.049 A 
ATOM     24  H   UNL A   1      39.954  30.773  31.732  1.00  0.00     0.167 HD
ATOM     25  C   UNL A   1      40.012  32.851  35.587  1.00  0.00     0.037 A 
ATOM     26  C   UNL A   1      40.684  28.782  29.902  1.00  0.00     0.037 A 
ATOM     27  C   UNL A   1      41.038  31.841  35.669  1.00  0.00     0.049 A 
ATOM     28  C   UNL A   1      41.551  28.597  31.111  1.00  0.00     0.074 A 
ATOM     29  C   UNL A   1      41.887  31.556  36.724  1.00  0.00     0.029 A 
ATOM     30  N   UNL A   1      41.348  30.945  34.654  1.00  0.00    -0.354 N 
ATOM     31  N   UNL A   1      41.534  29.253  32.245  1.00  0.00    -0.248 NA
ATOM     32  C   UNL A   1      42.580  27.552  31.033  1.00  0.00     0.031 C 
ATOM     33  C   UNL A   1      42.739  30.518  36.333  1.00  0.00     0.029 A 
ATOM     34  C   UNL A   1      42.390  30.121  35.052  1.00  0.00     0.049 A 
ATOM     35  H   UNL A   1      40.895  30.902  33.781  1.00  0.00     0.167 HD
ATOM     36  C   UNL A   1      42.548  28.707  33.015  1.00  0.00     0.074 A 
ATOM     37  C   UNL A   1      43.137  27.639  32.232  1.00  0.00     0.031 C 
ATOM     38  C   UNL A   1      42.965  29.068  34.253  1.00  0.00     0.037 A 
BRANCH  25  39
ATOM     39  C   UNL A   1      39.837  33.780  36.755  1.00  0.00     0.064 A 
ATOM     40  C   UNL A   1      40.470  35.031  36.812  1.00  0.00     0.173 A 
ATOM     41  C   UNL A   1      38.992  33.426  37.819  1.00  0.00     0.173 A 
ATOM     42  F   UNL A   1      41.298  35.414  35.829  1.00  0.00    -0.203 F 
ATOM     43  C   UNL A   1      40.283  35.879  37.901  1.00  0.00     0.198 A 
ATOM     44  C   UNL A   1      38.784  34.289  38.892  1.00  0.00     0.198 A 
ATOM     45  F   UNL A   1      38.356  32.244  37.811  1.00  0.00    -0.203 F 
ATOM     46  F   UNL A   1      40.933  37.051  37.954  1.00  0.00    -0.200 F 
ATOM     47  C   UNL A   1      39.436  35.512  38.936  1.00  0.00     0.200 A 
ATOM     48  F   UNL A   1      37.955  33.936  39.884  1.00  0.00    -0.200 F 
ATOM     49  F   UNL A   1      39.252  36.334  39.979  1.00  0.00    -0.200 F 
ENDBRANCH  25  39
BRANCH  26  50
ATOM     50  C   UNL A   1      40.815  27.903  28.709  1.00  0.00     0.064 A 
ATOM     51  C   UNL A   1      40.083  26.714  28.597  1.00  0.00     0.173 A 
ATOM     52  C   UNL A   1      41.658  28.251  27.642  1.00  0.00     0.173 A 
ATOM     53  F   UNL A   1      39.279  26.325  29.597  1.00  0.00    -0.203 F 
ATOM     54  C   UNL A   1      40.194  25.905  27.466  1.00  0.00     0.198 A 
ATOM     55  C   UNL A   1      41.740  27.461  26.497  1.00  0.00     0.198 A 
ATOM     56  F   UNL A   1      42.380  29.380  27.696  1.00  0.00    -0.203 F 
ATOM     57  F   UNL A   1      39.510  24.754  27.399  1.00  0.00    -0.200 F 
ATOM     58  C   UNL A   1      41.013  26.285  26.414  1.00  0.00     0.200 A 
ATOM     59  F   UNL A   1      42.515  27.846  25.475  1.00  0.00    -0.200 F 
ATOM     60  F   UNL A   1      41.104  25.516  25.320  1.00  0.00    -0.200 F 
ENDBRANCH  26  50
BRANCH  38  61
ATOM     61  C   UNL A   1      44.104  28.286  34.835  1.00  0.00     0.064 A 
ATOM     62  C   UNL A   1      43.886  27.106  35.562  1.00  0.00     0.173 A 
ATOM     63  C   UNL A   1      45.426  28.712  34.650  1.00  0.00     0.173 A 
ATOM     64  F   UNL A   1      42.636  26.670  35.783  1.00  0.00    -0.203 F 
ATOM     65  C   UNL A   1      44.952  26.396  36.107  1.00  0.00     0.198 A 
ATOM     66  C   UNL A   1      46.491  27.984  35.172  1.00  0.00     0.198 A 
ATOM     67  F   UNL A   1      45.686  29.833  33.960  1.00  0.00    -0.203 F 
ATOM     68  F   UNL A   1      44.718  25.301  36.843  1.00  0.00    -0.200 F 
ATOM     69  C   UNL A   1      46.253  26.833  35.906  1.00  0.00     0.200 A 
ATOM     70  F   UNL A   1      47.749  28.401  34.969  1.00  0.00    -0.200 F 
ATOM     71  F   UNL A   1      47.278  26.148  36.431  1.00  0.00    -0.200 F 
ENDBRANCH  38  61
ENDBRANCH  12  13
ENDBRANCH   5   7
ENDBRANCH   2   3
ENDBRANCH   1   2
BRANCH   1  72
ATOM     72  C   UNL A   1      34.234  30.966  27.189  1.00  0.00     0.023 C 
BRANCH  72  73
ATOM     73  C   UNL A   1      33.882  29.498  26.940  1.00  0.00     0.116 C 
BRANCH  73  74
ATOM     74  N   UNL A   1      32.719  29.105  27.707  1.00  0.00    -0.354 N 
ATOM     75  C   UNL A   1      31.859  28.067  27.515  1.00  0.00     0.249 C 
ATOM     76  H   UNL A   1      32.521  29.675  28.485  1.00  0.00     0.163 HD
ATOM     77  O   UNL A   1      30.879  28.012  28.264  1.00  0.00    -0.272 OA
BRANCH  75  78
ATOM     78  C   UNL A   1      32.158  26.954  26.473  1.00  0.00     0.211 C 
ATOM     79  C   UNL A   1      31.041  25.906  26.474  1.00  0.00     0.085 C 
ATOM     80  O   UNL A   1      32.371  27.377  25.129  1.00  0.00    -0.357 OA
ATOM     81  C   UNL A   1      30.724  25.629  25.012  1.00  0.00     0.123 C 
ATOM     82  C   UNL A   1      31.350  26.838  24.270  1.00  0.00     0.186 C 
BRANCH  81  83
ATOM     83  C   UNL A   1      31.280  24.268  24.567  1.00  0.00    -0.013 A 
ATOM     84  C   UNL A   1      31.450  23.238  25.514  1.00  0.00     0.008 A 
ATOM     85  C   UNL A   1      31.610  23.983  23.229  1.00  0.00     0.008 A 
ATOM     86  C   UNL A   1      31.839  21.953  25.129  1.00  0.00     0.021 A 
ATOM     87  C   UNL A   1      31.990  22.694  22.840  1.00  0.00     0.021 A 
ATOM     88  C   UNL A   1      32.086  21.681  23.789  1.00  0.00     0.041 A 
ATOM     89  Cl  UNL A   1      32.505  20.086  23.302  1.00  0.00    -0.084 Cl
ENDBRANCH  81  83
BRANCH  81  90
ATOM     90  O   UNL A   1      29.301  25.582  24.847  1.00  0.00    -0.382 OA
ATOM     91  H   UNL A   1      29.068  25.907  23.963  1.00  0.00     0.212 HD
ENDBRANCH  81  90
BRANCH  82  92
ATOM     92  C   UNL A   1      30.474  27.993  23.813  1.00  0.00    -0.016 A 
ATOM     93  C   UNL A   1      29.263  27.807  23.130  1.00  0.00     0.008 A 
ATOM     94  C   UNL A   1      30.833  29.302  24.196  1.00  0.00     0.008 A 
ATOM     95  C   UNL A   1      28.425  28.895  22.859  1.00  0.00     0.021 A 
ATOM     96  C   UNL A   1      29.992  30.386  23.934  1.00  0.00     0.021 A 
ATOM     97  C   UNL A   1      28.787  30.175  23.275  1.00  0.00     0.041 A 
ATOM     98  Cl  UNL A   1      27.719  31.497  23.006  1.00  0.00    -0.084 Cl
ENDBRANCH  82  92
ENDBRANCH  75  78
ENDBRANCH  73  74
ENDBRANCH  72  73
ENDBRANCH   1  72
TORSDOF 14
ENDMDL
MODEL 2
REMARK VINA RESULT:     -13.2      0.133      1.563
REMARK SMILES O=C(NCCCCNC(=O)[C@H]1C[C@](O)(c2ccc(Cl)cc2)[C@@H](c2ccc(Cl)cc2)O1)c1ccc(-c2c3nc(c(-c4c(F)c(F)c(F)c(F)c4F)c4ccc([nH]4)c(-c4c(F)c(F)c(F)c(F)c4F)c4nc(c(-c5c(F)c(F)c(F)c(F)c5F)c5ccc2[nH]5)C=C4)C=C3)cc1
REMARK SMILES IDX 5 1 4 2 3 3 1 4 2 5 31 7 32 8 93 9 33 10 92 11 34 12 35 13
REMARK SMILES IDX 36 14 86 15 37 16 91 17 85 18 87 19 38 20 90 21 84 22 83 23
REMARK SMILES IDX 39 25 71 26 51 27 70 28 52 29 55 30 69 31 88 32 53 33 54 34
REMARK SMILES IDX 68 36 89 37 56 38 40 39 41 40 49 41 42 42 43 43 47 44 50 45
REMARK SMILES IDX 44 46 45 47 48 48 46 49 72 50 73 51 81 52 74 53 75 54 79 55
REMARK SMILES IDX 82 56 76 57 77 58 80 59 78 60 57 61 58 62 66 63 59 64 60 65
REMARK SMILES IDX 64 66 67 67 61 68 62 69 65 70 63 71 6 72 7 73 8 74 9 75
REMARK SMILES IDX 10 77 11 78 12 79 30 80 13 81 22 82 15 83 16 84 21 85 17 86
REMARK SMILES IDX 20 87 18 88 19 89 14 90 23 92 24 93 29 94 25 95 28 96 26 97
REMARK SMILES IDX 27 98
REMARK H PARENT 3 6 87 24 55 35 8 76 14 91
REMARK Flexibility Score: inf
ROOT
ATOM      1  C   UNL A   1      33.038  31.790  27.773  1.00  0.00     0.023 C 
ENDROOT
BRANCH   1   2
ATOM      2  C   UNL A   1      32.642  32.963  26.882  1.00  0.00     0.116 C 
BRANCH   2   3
ATOM      3  N   UNL A   1      32.412  34.192  27.627  1.00  0.00    -0.352 N 
ATOM      4  O   UNL A   1      32.529  35.784  29.189  1.00  0.00    -0.269 OA
ATOM      5  C   UNL A   1      33.032  34.775  28.711  1.00  0.00     0.251 C 
ATOM      6  H   UNL A   1      31.655  34.720  27.283  1.00  0.00     0.163 HD
BRANCH   5   7
ATOM      7  C   UNL A   1      34.252  34.202  29.347  1.00  0.00     0.039 A 
ATOM      8  C   UNL A   1      34.200  33.382  30.464  1.00  0.00     0.014 A 
ATOM      9  C   UNL A   1      35.509  34.459  28.773  1.00  0.00     0.014 A 
ATOM     10  C   UNL A   1      35.360  32.979  31.109  1.00  0.00     0.010 A 
ATOM     11  C   UNL A   1      36.678  33.913  29.330  1.00  0.00     0.010 A 
ATOM     12  C   UNL A   1      36.614  33.181  30.522  1.00  0.00    -0.014 A 
BRANCH  12  13
ATOM     13  C   UNL A   1      37.787  32.525  31.162  1.00  0.00     0.031 A 
ATOM     14  C   UNL A   1      38.181  32.825  32.579  1.00  0.00     0.074 A 
ATOM     15  C   UNL A   1      38.437  31.565  30.469  1.00  0.00     0.049 A 
ATOM     16  N   UNL A   1      39.134  32.284  33.297  1.00  0.00    -0.248 NA
ATOM     17  C   UNL A   1      37.426  33.873  33.280  1.00  0.00     0.031 C 
ATOM     18  C   UNL A   1      38.152  31.197  29.077  1.00  0.00     0.029 A 
ATOM     19  N   UNL A   1      39.417  30.680  30.842  1.00  0.00    -0.354 N 
ATOM     20  C   UNL A   1      39.119  32.950  34.515  1.00  0.00     0.074 A 
ATOM     21  C   UNL A   1      38.070  33.944  34.437  1.00  0.00     0.031 C 
ATOM     22  C   UNL A   1      38.845  30.098  28.757  1.00  0.00     0.029 A 
ATOM     23  C   UNL A   1      39.712  29.748  29.874  1.00  0.00     0.049 A 
ATOM     24  H   UNL A   1      39.866  30.710  31.717  1.00  0.00     0.167 HD
ATOM     25  C   UNL A   1      39.910  32.744  35.596  1.00  0.00     0.037 A 
ATOM     26  C   UNL A   1      40.597  28.734  29.870  1.00  0.00     0.037 A 
ATOM     27  C   UNL A   1      40.928  31.727  35.674  1.00  0.00     0.049 A 
ATOM     28  C   UNL A   1      41.454  28.530  31.083  1.00  0.00     0.074 A 
ATOM     29  C   UNL A   1      41.768  31.424  36.731  1.00  0.00     0.029 A 
ATOM     30  N   UNL A   1      41.241  30.840  34.651  1.00  0.00    -0.354 N 
ATOM     31  N   UNL A   1      41.433  29.174  32.225  1.00  0.00    -0.248 NA
ATOM     32  C   UNL A   1      42.476  27.480  31.000  1.00  0.00     0.031 C 
ATOM     33  C   UNL A   1      42.617  30.386  36.334  1.00  0.00     0.029 A 
ATOM     34  C   UNL A   1      42.274  30.005  35.047  1.00  0.00     0.049 A 
ATOM     35  H   UNL A   1      40.793  30.809  33.774  1.00  0.00     0.167 HD
ATOM     36  C   UNL A   1      42.438  28.613  32.995  1.00  0.00     0.074 A 
ATOM     37  C   UNL A   1      43.025  27.550  32.205  1.00  0.00     0.031 C 
ATOM     38  C   UNL A   1      42.848  28.957  34.240  1.00  0.00     0.037 A 
BRANCH  25  39
ATOM     39  C   UNL A   1      39.733  33.661  36.773  1.00  0.00     0.064 A 
ATOM     40  C   UNL A   1      40.402  34.890  36.865  1.00  0.00     0.173 A 
ATOM     41  C   UNL A   1      38.848  33.319  37.808  1.00  0.00     0.173 A 
ATOM     42  F   UNL A   1      41.268  35.261  35.910  1.00  0.00    -0.203 F 
ATOM     43  C   UNL A   1      40.213  35.729  37.962  1.00  0.00     0.198 A 
ATOM     44  C   UNL A   1      38.639  34.172  38.888  1.00  0.00     0.198 A 
ATOM     45  F   UNL A   1      38.176  32.158  37.765  1.00  0.00    -0.203 F 
ATOM     46  F   UNL A   1      40.896  36.878  38.050  1.00  0.00    -0.200 F 
ATOM     47  C   UNL A   1      39.327  35.373  38.968  1.00  0.00     0.200 A 
ATOM     48  F   UNL A   1      37.772  33.831  39.852  1.00  0.00    -0.200 F 
ATOM     49  F   UNL A   1      39.140  36.185  40.018  1.00  0.00    -0.200 F 
ENDBRANCH  25  39
BRANCH  26  50
ATOM     50  C   UNL A   1      40.731  27.868  28.668  1.00  0.00     0.064 A 
ATOM     51  C   UNL A   1      41.578  28.220  27.610  1.00  0.00     0.173 A 
ATOM     52  C   UNL A   1      40.030  26.656  28.565  1.00  0.00     0.173 A 
ATOM     53  F   UNL A   1      42.254  29.377  27.647  1.00  0.00    -0.203 F 
ATOM     54  C   UNL A   1      41.717  27.394  26.494  1.00  0.00     0.198 A 
ATOM     55  C   UNL A   1      40.197  25.815  27.468  1.00  0.00     0.198 A 
ATOM     56  F   UNL A   1      39.207  26.271  29.551  1.00  0.00    -0.203 F 
ATOM     57  F   UNL A   1      42.507  27.770  25.479  1.00  0.00    -0.200 F 
ATOM     58  C   UNL A   1      41.034  26.189  26.429  1.00  0.00     0.200 A 
ATOM     59  F   UNL A   1      39.554  24.641  27.423  1.00  0.00    -0.200 F 
ATOM     60  F   UNL A   1      41.183  25.387  25.366  1.00  0.00    -0.200 F 
ENDBRANCH  26  50
BRANCH  38  61
ATOM     61  C   UNL A   1      43.978  28.161  34.821  1.00  0.00     0.064 A 
ATOM     62  C   UNL A   1      45.311  28.577  34.686  1.00  0.00     0.173 A 
ATOM     63  C   UNL A   1      43.723  26.981  35.533  1.00  0.00     0.173 A 
ATOM     64  F   UNL A   1      45.606  29.689  33.996  1.00  0.00    -0.203 F 
ATOM     65  C   UNL A   1      46.352  27.822  35.220  1.00  0.00     0.198 A 
ATOM     66  C   UNL A   1      44.764  26.244  36.089  1.00  0.00     0.198 A 
ATOM     67  F   UNL A   1      42.465  26.544  35.690  1.00  0.00    -0.203 F 
ATOM     68  F   UNL A   1      47.621  28.209  35.034  1.00  0.00    -0.200 F 
ATOM     69  C   UNL A   1      46.077  26.660  35.926  1.00  0.00     0.200 A 
ATOM     70  F   UNL A   1      44.497  25.126  36.780  1.00  0.00    -0.200 F 
ATOM     71  F   UNL A   1      47.079  25.935  36.439  1.00  0.00    -0.200 F 
ENDBRANCH  38  61
ENDBRANCH  12  13
ENDBRANCH   5   7
ENDBRANCH   2   3
ENDBRANCH   1   2
BRANCH   1  72
ATOM     72  C   UNL A   1      34.171  30.990  27.143  1.00  0.00     0.023 C 
BRANCH  72  73
ATOM     73  C   UNL A   1      33.867  29.501  26.966  1.00  0.00     0.116 C 
BRANCH  73  74
ATOM     74  N   UNL A   1      32.681  29.121  27.703  1.00  0.00    -0.354 N 
ATOM     75  C   UNL A   1      31.811  28.095  27.486  1.00  0.00     0.249 C 
ATOM     76  H   UNL A   1      32.471  29.691  28.478  1.00  0.00     0.163 HD
ATOM     77  O   UNL A   1      30.813  28.050  28.211  1.00  0.00    -0.272 OA
BRANCH  75  78
ATOM     78  C   UNL A   1      32.121  26.982  26.447  1.00  0.00     0.211 C 
ATOM     79  C   UNL A   1      31.014  25.923  26.451  1.00  0.00     0.085 C 
ATOM     80  O   UNL A   1      32.329  27.404  25.101  1.00  0.00    -0.357 OA
ATOM     81  C   UNL A   1      30.699  25.640  24.990  1.00  0.00     0.123 C 
ATOM     82  C   UNL A   1      31.314  26.853  24.245  1.00  0.00     0.186 C 
BRANCH  81  83
ATOM     83  C   UNL A   1      31.267  24.283  24.548  1.00  0.00    -0.013 A 
ATOM     84  C   UNL A   1      31.376  23.233  25.483  1.00  0.00     0.008 A 
ATOM     85  C   UNL A   1      31.668  24.021  23.225  1.00  0.00     0.008 A 
ATOM     86  C   UNL A   1      31.774  21.952  25.093  1.00  0.00     0.021 A 
ATOM     87  C   UNL A   1      32.059  22.736  22.832  1.00  0.00     0.021 A 
ATOM     88  C   UNL A   1      32.093  21.704  23.764  1.00  0.00     0.041 A 
ATOM     89  Cl  UNL A   1      32.525  20.115  23.268  1.00  0.00    -0.084 Cl
ENDBRANCH  81  83
BRANCH  81  90
ATOM     90  O   UNL A   1      29.276  25.580  24.825  1.00  0.00    -0.382 OA
ATOM     91  H   UNL A   1      29.064  25.026  24.057  1.00  0.00     0.212 HD
ENDBRANCH  81  90
BRANCH  82  92
ATOM     92  C   UNL A   1      30.427  27.998  23.785  1.00  0.00    -0.016 A 
ATOM     93  C   UNL A   1      29.206  27.799  23.124  1.00  0.00     0.008 A 
ATOM     94  C   UNL A   1      30.788  29.314  24.142  1.00  0.00     0.008 A 
ATOM     95  C   UNL A   1      28.361  28.880  22.850  1.00  0.00     0.021 A 
ATOM     96  C   UNL A   1      29.939  30.391  23.877  1.00  0.00     0.021 A 
ATOM     97  C   UNL A   1      28.724  30.167  23.240  1.00  0.00     0.041 A 
ATOM     98  Cl  UNL A   1      27.649  31.482  22.969  1.00  0.00    -0.084 Cl
ENDBRANCH  82  92
ENDBRANCH  75  78
ENDBRANCH  73  74
ENDBRANCH  72  73
ENDBRANCH   1  72
TORSDOF 14
ENDMDL
MODEL 3
REMARK VINA RESULT:     -13.0      5.479     10.718
REMARK SMILES O=C(NCCCCNC(=O)[C@H]1C[C@](O)(c2ccc(Cl)cc2)[C@@H](c2ccc(Cl)cc2)O1)c1ccc(-c2c3nc(c(-c4c(F)c(F)c(F)c(F)c4F)c4ccc([nH]4)c(-c4c(F)c(F)c(F)c(F)c4F)c4nc(c(-c5c(F)c(F)c(F)c(F)c5F)c5ccc2[nH]5)C=C4)C=C3)cc1
REMARK SMILES IDX 5 1 4 2 3 3 1 4 2 5 31 7 32 8 93 9 33 10 92 11 34 12 35 13
REMARK SMILES IDX 36 14 86 15 37 16 91 17 85 18 87 19 38 20 90 21 84 22 83 23
REMARK SMILES IDX 39 25 71 26 51 27 70 28 52 29 55 30 69 31 88 32 53 33 54 34
REMARK SMILES IDX 68 36 89 37 56 38 40 39 41 40 49 41 42 42 43 43 47 44 50 45
REMARK SMILES IDX 44 46 45 47 48 48 46 49 72 50 73 51 81 52 74 53 75 54 79 55
REMARK SMILES IDX 82 56 76 57 77 58 80 59 78 60 57 61 58 62 66 63 59 64 60 65
REMARK SMILES IDX 64 66 67 67 61 68 62 69 65 70 63 71 6 72 7 73 8 74 9 75
REMARK SMILES IDX 10 77 11 78 12 79 30 80 13 81 22 82 15 83 16 84 21 85 17 86
REMARK SMILES IDX 20 87 18 88 19 89 14 90 23 92 24 93 29 94 25 95 28 96 26 97
REMARK SMILES IDX 27 98
REMARK H PARENT 3 6 87 24 55 35 8 76 14 91
REMARK Flexibility Score: inf
ROOT
ATOM      1  C   UNL A   1      39.121  20.861  25.417  1.00  0.00     0.023 C 
ENDROOT
BRANCH   1   2
ATOM      2  C   UNL A   1      39.465  19.645  26.271  1.00  0.00     0.116 C 
BRANCH   2   3
ATOM      3  N   UNL A   1      40.717  19.013  25.883  1.00  0.00    -0.352 N 
ATOM      4  O   UNL A   1      42.868  18.693  25.373  1.00  0.00    -0.269 OA
ATOM      5  C   UNL A   1      42.029  19.435  25.868  1.00  0.00     0.251 C 
ATOM      6  H   UNL A   1      40.604  18.087  25.566  1.00  0.00     0.163 HD
BRANCH   5   7
ATOM      7  C   UNL A   1      42.454  20.769  26.382  1.00  0.00     0.039 A 
ATOM      8  C   UNL A   1      42.898  21.785  25.551  1.00  0.00     0.014 A 
ATOM      9  C   UNL A   1      42.360  21.034  27.758  1.00  0.00     0.014 A 
ATOM     10  C   UNL A   1      43.413  22.962  26.074  1.00  0.00     0.010 A 
ATOM     11  C   UNL A   1      42.725  22.288  28.275  1.00  0.00     0.010 A 
ATOM     12  C   UNL A   1      43.278  23.262  27.434  1.00  0.00    -0.014 A 
BRANCH  12  13
ATOM     13  C   UNL A   1      43.651  24.633  27.877  1.00  0.00     0.031 A 
ATOM     14  C   UNL A   1      45.071  25.115  27.836  1.00  0.00     0.074 A 
ATOM     15  C   UNL A   1      42.659  25.482  28.223  1.00  0.00     0.049 A 
ATOM     16  N   UNL A   1      45.543  26.303  28.122  1.00  0.00    -0.248 NA
ATOM     17  C   UNL A   1      46.101  24.143  27.439  1.00  0.00     0.031 C 
ATOM     18  C   UNL A   1      41.239  25.122  28.315  1.00  0.00     0.029 A 
ATOM     19  N   UNL A   1      42.668  26.827  28.499  1.00  0.00    -0.354 N 
ATOM     20  C   UNL A   1      46.921  26.211  27.979  1.00  0.00     0.074 A 
ATOM     21  C   UNL A   1      47.213  24.847  27.592  1.00  0.00     0.031 C 
ATOM     22  C   UNL A   1      40.511  26.229  28.502  1.00  0.00     0.029 A 
ATOM     23  C   UNL A   1      41.412  27.361  28.664  1.00  0.00     0.049 A 
ATOM     24  H   UNL A   1      43.494  27.357  28.573  1.00  0.00     0.167 HD
ATOM     25  C   UNL A   1      47.851  27.181  28.156  1.00  0.00     0.037 A 
ATOM     26  C   UNL A   1      41.021  28.620  28.936  1.00  0.00     0.037 A 
ATOM     27  C   UNL A   1      47.544  28.545  28.507  1.00  0.00     0.049 A 
ATOM     28  C   UNL A   1      42.074  29.671  29.121  1.00  0.00     0.074 A 
ATOM     29  C   UNL A   1      48.413  29.607  28.688  1.00  0.00     0.029 A 
ATOM     30  N   UNL A   1      46.264  29.036  28.726  1.00  0.00    -0.354 N 
ATOM     31  N   UNL A   1      43.374  29.566  28.990  1.00  0.00    -0.248 NA
ATOM     32  C   UNL A   1      41.612  31.007  29.517  1.00  0.00     0.031 C 
ATOM     33  C   UNL A   1      47.664  30.728  29.058  1.00  0.00     0.029 A 
ATOM     34  C   UNL A   1      46.323  30.381  29.059  1.00  0.00     0.049 A 
ATOM     35  H   UNL A   1      45.436  28.508  28.654  1.00  0.00     0.167 HD
ATOM     36  C   UNL A   1      43.888  30.817  29.292  1.00  0.00     0.074 A 
ATOM     37  C   UNL A   1      42.755  31.676  29.575  1.00  0.00     0.031 C 
ATOM     38  C   UNL A   1      45.182  31.215  29.344  1.00  0.00     0.037 A 
BRANCH  25  39
ATOM     39  C   UNL A   1      49.296  26.795  28.007  1.00  0.00     0.064 A 
ATOM     40  C   UNL A   1      50.111  26.524  29.116  1.00  0.00     0.173 A 
ATOM     41  C   UNL A   1      49.863  26.659  26.730  1.00  0.00     0.173 A 
ATOM     42  F   UNL A   1      49.623  26.651  30.359  1.00  0.00    -0.203 F 
ATOM     43  C   UNL A   1      51.444  26.157  28.952  1.00  0.00     0.198 A 
ATOM     44  C   UNL A   1      51.188  26.263  26.569  1.00  0.00     0.198 A 
ATOM     45  F   UNL A   1      49.125  26.898  25.635  1.00  0.00    -0.203 F 
ATOM     46  F   UNL A   1      52.216  25.945  30.027  1.00  0.00    -0.200 F 
ATOM     47  C   UNL A   1      51.980  26.020  27.680  1.00  0.00     0.200 A 
ATOM     48  F   UNL A   1      51.698  26.119  25.338  1.00  0.00    -0.200 F 
ATOM     49  F   UNL A   1      53.262  25.659  27.525  1.00  0.00    -0.200 F 
ENDBRANCH  25  39
BRANCH  26  50
ATOM     50  C   UNL A   1      39.574  28.935  29.081  1.00  0.00     0.064 A 
ATOM     51  C   UNL A   1      38.932  28.847  30.322  1.00  0.00     0.173 A 
ATOM     52  C   UNL A   1      38.809  29.355  27.981  1.00  0.00     0.173 A 
ATOM     53  F   UNL A   1      39.610  28.430  31.401  1.00  0.00    -0.203 F 
ATOM     54  C   UNL A   1      37.580  29.163  30.457  1.00  0.00     0.198 A 
ATOM     55  C   UNL A   1      37.469  29.706  28.123  1.00  0.00     0.198 A 
ATOM     56  F   UNL A   1      39.376  29.457  26.769  1.00  0.00    -0.203 F 
ATOM     57  F   UNL A   1      36.980  29.037  31.649  1.00  0.00    -0.200 F 
ATOM     58  C   UNL A   1      36.854  29.602  29.360  1.00  0.00     0.200 A 
ATOM     59  F   UNL A   1      36.780  30.151  27.065  1.00  0.00    -0.200 F 
ATOM     60  F   UNL A   1      35.560  29.924  29.494  1.00  0.00    -0.200 F 
ENDBRANCH  26  50
BRANCH  38  61
ATOM     61  C   UNL A   1      45.432  32.647  29.710  1.00  0.00     0.064 A 
ATOM     62  C   UNL A   1      45.623  33.040  31.043  1.00  0.00     0.173 A 
ATOM     63  C   UNL A   1      45.495  33.633  28.716  1.00  0.00     0.173 A 
ATOM     64  F   UNL A   1      45.551  32.134  32.031  1.00  0.00    -0.203 F 
ATOM     65  C   UNL A   1      45.842  34.375  31.370  1.00  0.00     0.198 A 
ATOM     66  C   UNL A   1      45.742  34.963  29.044  1.00  0.00     0.198 A 
ATOM     67  F   UNL A   1      45.320  33.307  27.427  1.00  0.00    -0.203 F 
ATOM     68  F   UNL A   1      45.970  34.736  32.654  1.00  0.00    -0.200 F 
ATOM     69  C   UNL A   1      45.908  35.334  30.369  1.00  0.00     0.200 A 
ATOM     70  F   UNL A   1      45.814  35.888  28.076  1.00  0.00    -0.200 F 
ATOM     71  F   UNL A   1      46.119  36.619  30.686  1.00  0.00    -0.200 F 
ENDBRANCH  38  61
ENDBRANCH  12  13
ENDBRANCH   5   7
ENDBRANCH   2   3
ENDBRANCH   1   2
BRANCH   1  72
ATOM     72  C   UNL A   1      38.631  22.012  26.286  1.00  0.00     0.023 C 
BRANCH  72  73
ATOM     73  C   UNL A   1      37.468  22.804  25.684  1.00  0.00     0.116 C 
BRANCH  73  74
ATOM     74  N   UNL A   1      37.506  22.765  24.238  1.00  0.00    -0.354 N 
ATOM     75  C   UNL A   1      36.521  23.028  23.333  1.00  0.00     0.249 C 
ATOM     76  H   UNL A   1      38.373  22.508  23.850  1.00  0.00     0.163 HD
ATOM     77  O   UNL A   1      36.788  22.822  22.146  1.00  0.00    -0.272 OA
BRANCH  75  78
ATOM     78  C   UNL A   1      35.170  23.658  23.772  1.00  0.00     0.211 C 
ATOM     79  C   UNL A   1      34.229  23.795  22.572  1.00  0.00     0.085 C 
ATOM     80  O   UNL A   1      34.465  22.992  24.817  1.00  0.00    -0.357 OA
ATOM     81  C   UNL A   1      32.870  23.304  23.046  1.00  0.00     0.123 C 
ATOM     82  C   UNL A   1      33.201  22.505  24.333  1.00  0.00     0.186 C 
BRANCH  81  83
ATOM     83  C   UNL A   1      31.899  24.473  23.270  1.00  0.00    -0.013 A 
ATOM     84  C   UNL A   1      32.114  25.698  22.605  1.00  0.00     0.008 A 
ATOM     85  C   UNL A   1      30.769  24.374  24.102  1.00  0.00     0.008 A 
ATOM     86  C   UNL A   1      31.190  26.742  22.689  1.00  0.00     0.021 A 
ATOM     87  C   UNL A   1      29.838  25.416  24.180  1.00  0.00     0.021 A 
ATOM     88  C   UNL A   1      30.045  26.588  23.460  1.00  0.00     0.041 A 
ATOM     89  Cl  UNL A   1      28.875  27.848  23.518  1.00  0.00    -0.084 Cl
ENDBRANCH  81  83
BRANCH  81  90
ATOM     90  O   UNL A   1      32.300  22.466  22.032  1.00  0.00    -0.382 OA
ATOM     91  H   UNL A   1      33.003  21.946  21.611  1.00  0.00     0.212 HD
ENDBRANCH  81  90
BRANCH  82  92
ATOM     92  C   UNL A   1      33.275  20.988  24.294  1.00  0.00    -0.016 A 
ATOM     93  C   UNL A   1      32.329  20.195  23.630  1.00  0.00     0.008 A 
ATOM     94  C   UNL A   1      34.408  20.355  24.849  1.00  0.00     0.008 A 
ATOM     95  C   UNL A   1      32.520  18.815  23.502  1.00  0.00     0.021 A 
ATOM     96  C   UNL A   1      34.603  18.979  24.713  1.00  0.00     0.021 A 
ATOM     97  C   UNL A   1      33.662  18.217  24.031  1.00  0.00     0.041 A 
ATOM     98  Cl  UNL A   1      33.930  16.532  23.807  1.00  0.00    -0.084 Cl
ENDBRANCH  82  92
ENDBRANCH  75  78
ENDBRANCH  73  74
ENDBRANCH  72  73
ENDBRANCH   1  72
TORSDOF 14
ENDMDL
