MODEL 1
REMARK VINA RESULT:     -13.7      0.000      0.000
REMARK SMILES Cc1ccc(C)c(N2C(=O)S[C@H](CC(=O)Nc3ccc(C(=O)NCCCCNC(=O)c4ccc(-c5c6nc(c(-c7c(F)c(F)c(F)c(F)c7F)c7ccc([nH]7)c(-c7c(F)c(F)c(F)c(F)c7F)c7nc(c(-c8c(F)c(F)c(F)c(F)c8F)c8ccc5[nH]8)C=C7)C=C6)cc4)c(O)c3)C2=O)c1
REMARK SMILES IDX 24 1 23 2 21 3 22 4 20 6 17 7 18 8 96 9 19 10 94 11 16 12
REMARK SMILES IDX 14 13 15 14 13 16 12 17 8 18 9 19 97 20 10 21 11 22 98 23
REMARK SMILES IDX 7 24 1 25 2 26 3 27 99 28 4 29 5 30 6 31 95 32 25 34 26 35
REMARK SMILES IDX 27 36 28 37 29 38 30 40 31 41 32 42 93 43 33 44 92 45 34 46
REMARK SMILES IDX 35 47 36 48 86 49 37 50 91 51 85 52 87 53 38 54 90 55 84 56
REMARK SMILES IDX 83 57 39 59 71 60 51 61 70 62 52 63 55 64 69 65 88 66 53 67
REMARK SMILES IDX 54 68 68 70 89 71 56 72 40 73 41 74 49 75 42 76 43 77 47 78
REMARK SMILES IDX 50 79 44 80 45 81 48 82 46 83 72 84 73 85 81 86 74 87 75 88
REMARK SMILES IDX 79 89 82 90 76 91 77 92 80 93 78 94 57 95 58 96 66 97 59 98
REMARK SMILES IDX 60 99 64 100 67 101 61 102 62 103 65 104 63 105
REMARK H PARENT 23 5 16 15 95 33 28 39 87 58 55 69
REMARK Flexibility Score: inf
ROOT
ATOM      1  C   UNL A   1      31.868  30.277  25.997  1.00  0.00     0.116 C 
ENDROOT
BRANCH   1   2
ATOM      2  N   UNL A   1      32.447  29.988  24.700  1.00  0.00    -0.352 N 
ATOM      3  C   UNL A   1      32.214  28.924  23.845  1.00  0.00     0.255 C 
ATOM      4  O   UNL A   1      32.693  28.998  22.713  1.00  0.00    -0.269 OA
ATOM      5  H   UNL A   1      33.104  30.646  24.378  1.00  0.00     0.163 HD
BRANCH   3   6
ATOM      6  C   UNL A   1      31.520  27.659  24.254  1.00  0.00     0.081 A 
ATOM      7  C   UNL A   1      30.240  25.564  25.647  1.00  0.00     0.044 A 
ATOM      8  C   UNL A   1      31.612  25.744  25.724  1.00  0.00     0.027 A 
ATOM      9  C   UNL A   1      29.561  26.237  24.644  1.00  0.00     0.073 A 
ATOM     10  C   UNL A   1      32.244  26.816  25.098  1.00  0.00     0.020 A 
ATOM     11  C   UNL A   1      30.232  27.231  23.908  1.00  0.00     0.130 A 
BRANCH   7  12
ATOM     12  N   UNL A   1      29.597  24.657  26.506  1.00  0.00    -0.326 N 
ATOM     13  C   UNL A   1      30.034  23.395  26.867  1.00  0.00     0.226 C 
ATOM     14  O   UNL A   1      29.235  22.556  27.281  1.00  0.00    -0.275 OA
ATOM     15  H   UNL A   1      28.741  24.951  26.894  1.00  0.00     0.169 HD
BRANCH  13  16
ATOM     16  C   UNL A   1      31.540  23.150  26.962  1.00  0.00     0.125 C 
BRANCH  16  17
ATOM     17  C   UNL A   1      32.095  21.957  26.185  1.00  0.00     0.156 C 
ATOM     18  N   UNL A   1      34.394  22.432  25.678  1.00  0.00    -0.240 N 
ATOM     19  C   UNL A   1      33.818  22.873  24.518  1.00  0.00     0.293 C 
ATOM     20  C   UNL A   1      33.561  21.770  26.568  1.00  0.00     0.248 C 
ATOM     21  O   UNL A   1      34.295  23.588  23.648  1.00  0.00    -0.261 OA
ATOM     22  S   UNL A   1      32.198  22.210  24.388  1.00  0.00    -0.050 SA
ATOM     23  O   UNL A   1      33.908  21.127  27.552  1.00  0.00    -0.273 OA
BRANCH  18  24
ATOM     24  C   UNL A   1      35.802  22.316  25.741  1.00  0.00     0.056 A 
ATOM     25  C   UNL A   1      38.851  24.491  26.531  1.00  0.00     0.044 C 
ATOM     26  C   UNL A   1      37.983  23.334  26.125  1.00  0.00    -0.049 A 
ATOM     27  C   UNL A   1      38.593  22.153  25.692  1.00  0.00     0.004 A 
ATOM     28  C   UNL A   1      36.580  23.408  26.161  1.00  0.00     0.030 A 
ATOM     29  C   UNL A   1      37.822  21.069  25.274  1.00  0.00     0.006 A 
ATOM     30  C   UNL A   1      36.424  21.140  25.277  1.00  0.00    -0.027 A 
ATOM     31  C   UNL A   1      35.668  19.944  24.762  1.00  0.00     0.046 C 
ENDBRANCH  18  24
ENDBRANCH  16  17
ENDBRANCH  13  16
ENDBRANCH   7  12
BRANCH  11  32
ATOM     32  O   UNL A   1      29.579  27.672  22.790  1.00  0.00    -0.507 OA
ATOM     33  H   UNL A   1      29.210  28.533  22.774  1.00  0.00     0.293 HD
ENDBRANCH  11  32
ENDBRANCH   3   6
ENDBRANCH   1   2
BRANCH   1  34
ATOM     34  C   UNL A   1      32.514  29.662  27.236  1.00  0.00     0.023 C 
BRANCH  34  35
ATOM     35  C   UNL A   1      33.956  29.987  27.639  1.00  0.00     0.023 C 
BRANCH  35  36
ATOM     36  C   UNL A   1      34.409  31.438  27.627  1.00  0.00     0.116 C 
BRANCH  36  37
ATOM     37  N   UNL A   1      34.392  32.127  28.926  1.00  0.00    -0.352 N 
ATOM     38  C   UNL A   1      35.199  31.943  30.050  1.00  0.00     0.251 C 
ATOM     39  H   UNL A   1      33.704  32.825  29.018  1.00  0.00     0.163 HD
ATOM     40  O   UNL A   1      34.796  32.278  31.159  1.00  0.00    -0.269 OA
BRANCH  38  41
ATOM     41  C   UNL A   1      36.546  31.344  29.909  1.00  0.00     0.039 A 
ATOM     42  C   UNL A   1      37.728  32.067  29.728  1.00  0.00     0.014 A 
ATOM     43  C   UNL A   1      36.626  29.971  29.972  1.00  0.00     0.014 A 
ATOM     44  C   UNL A   1      38.926  31.350  29.635  1.00  0.00     0.010 A 
ATOM     45  C   UNL A   1      37.773  29.386  30.392  1.00  0.00     0.010 A 
ATOM     46  C   UNL A   1      38.926  29.984  29.967  1.00  0.00    -0.014 A 
BRANCH  46  47
ATOM     47  C   UNL A   1      40.108  29.141  29.991  1.00  0.00     0.031 A 
ATOM     48  C   UNL A   1      40.573  28.898  31.361  1.00  0.00     0.074 A 
ATOM     49  C   UNL A   1      40.614  28.459  28.936  1.00  0.00     0.049 A 
ATOM     50  N   UNL A   1      41.538  29.506  31.953  1.00  0.00    -0.248 NA
ATOM     51  C   UNL A   1      39.748  28.057  32.239  1.00  0.00     0.031 C 
ATOM     52  C   UNL A   1      40.050  28.297  27.587  1.00  0.00     0.029 A 
ATOM     53  N   UNL A   1      41.740  27.688  28.879  1.00  0.00    -0.354 N 
ATOM     54  C   UNL A   1      41.607  28.934  33.212  1.00  0.00     0.074 A 
ATOM     55  C   UNL A   1      40.358  28.248  33.411  1.00  0.00     0.031 C 
ATOM     56  C   UNL A   1      40.731  27.340  26.915  1.00  0.00     0.029 A 
ATOM     57  C   UNL A   1      41.877  26.941  27.711  1.00  0.00     0.049 A 
ATOM     58  H   UNL A   1      42.404  27.661  29.606  1.00  0.00     0.167 HD
ATOM     59  C   UNL A   1      42.817  28.807  33.818  1.00  0.00     0.037 A 
ATOM     60  C   UNL A   1      42.870  26.061  27.425  1.00  0.00     0.037 A 
ATOM     61  C   UNL A   1      43.818  29.571  33.108  1.00  0.00     0.049 A 
ATOM     62  C   UNL A   1      44.028  26.424  28.273  1.00  0.00     0.074 A 
ATOM     63  C   UNL A   1      44.085  30.906  32.896  1.00  0.00     0.029 A 
ATOM     64  N   UNL A   1      44.461  28.868  32.120  1.00  0.00    -0.354 N 
ATOM     65  N   UNL A   1      44.715  27.523  28.125  1.00  0.00    -0.248 NA
ATOM     66  C   UNL A   1      44.234  25.726  29.536  1.00  0.00     0.031 C 
ATOM     67  C   UNL A   1      44.718  30.985  31.618  1.00  0.00     0.029 A 
ATOM     68  C   UNL A   1      44.858  29.696  31.104  1.00  0.00     0.049 A 
ATOM     69  H   UNL A   1      44.617  27.896  32.139  1.00  0.00     0.167 HD
ATOM     70  C   UNL A   1      45.063  27.880  29.414  1.00  0.00     0.074 A 
ATOM     71  C   UNL A   1      44.917  26.663  30.199  1.00  0.00     0.031 C 
ATOM     72  C   UNL A   1      45.117  29.196  29.771  1.00  0.00     0.037 A 
BRANCH  59  73
ATOM     73  C   UNL A   1      43.213  27.643  34.696  1.00  0.00     0.064 A 
ATOM     74  C   UNL A   1      43.533  27.904  36.043  1.00  0.00     0.173 A 
ATOM     75  C   UNL A   1      43.594  26.371  34.216  1.00  0.00     0.173 A 
ATOM     76  F   UNL A   1      43.239  29.090  36.598  1.00  0.00    -0.203 F 
ATOM     77  C   UNL A   1      44.246  26.989  36.822  1.00  0.00     0.198 A 
ATOM     78  C   UNL A   1      44.257  25.441  35.013  1.00  0.00     0.198 A 
ATOM     79  F   UNL A   1      43.456  26.013  32.935  1.00  0.00    -0.203 F 
ATOM     80  F   UNL A   1      44.639  27.332  38.057  1.00  0.00    -0.200 F 
ATOM     81  C   UNL A   1      44.611  25.761  36.304  1.00  0.00     0.200 A 
ATOM     82  F   UNL A   1      44.625  24.265  34.482  1.00  0.00    -0.200 F 
ATOM     83  F   UNL A   1      45.347  24.907  37.028  1.00  0.00    -0.200 F 
ENDBRANCH  59  73
BRANCH  60  84
ATOM     84  C   UNL A   1      42.859  24.819  26.615  1.00  0.00     0.064 A 
ATOM     85  C   UNL A   1      43.635  24.709  25.446  1.00  0.00     0.173 A 
ATOM     86  C   UNL A   1      42.349  23.619  27.142  1.00  0.00     0.173 A 
ATOM     87  F   UNL A   1      44.187  25.800  24.894  1.00  0.00    -0.203 F 
ATOM     88  C   UNL A   1      43.932  23.467  24.875  1.00  0.00     0.198 A 
ATOM     89  C   UNL A   1      42.641  22.380  26.567  1.00  0.00     0.198 A 
ATOM     90  F   UNL A   1      41.653  23.618  28.287  1.00  0.00    -0.203 F 
ATOM     91  F   UNL A   1      44.749  23.397  23.814  1.00  0.00    -0.200 F 
ATOM     92  C   UNL A   1      43.450  22.302  25.447  1.00  0.00     0.200 A 
ATOM     93  F   UNL A   1      42.205  21.255  27.151  1.00  0.00    -0.200 F 
ATOM     94  F   UNL A   1      43.804  21.108  24.951  1.00  0.00    -0.200 F 
ENDBRANCH  60  84
BRANCH  72  95
ATOM     95  C   UNL A   1      45.307  30.190  28.664  1.00  0.00     0.064 A 
ATOM     96  C   UNL A   1      44.266  30.793  27.939  1.00  0.00     0.173 A 
ATOM     97  C   UNL A   1      46.617  30.585  28.362  1.00  0.00     0.173 A 
ATOM     98  F   UNL A   1      42.984  30.531  28.220  1.00  0.00    -0.203 F 
ATOM     99  C   UNL A   1      44.533  31.710  26.922  1.00  0.00     0.198 A 
ATOM    100  C   UNL A   1      46.879  31.529  27.375  1.00  0.00     0.198 A 
ATOM    101  F   UNL A   1      47.649  30.072  29.049  1.00  0.00    -0.203 F 
ATOM    102  F   UNL A   1      43.524  32.252  26.223  1.00  0.00    -0.200 F 
ATOM    103  C   UNL A   1      45.839  32.081  26.646  1.00  0.00     0.200 A 
ATOM    104  F   UNL A   1      48.141  31.916  27.142  1.00  0.00    -0.200 F 
ATOM    105  F   UNL A   1      46.094  32.985  25.689  1.00  0.00    -0.200 F 
ENDBRANCH  72  95
ENDBRANCH  46  47
ENDBRANCH  38  41
ENDBRANCH  36  37
ENDBRANCH  35  36
ENDBRANCH  34  35
ENDBRANCH   1  34
TORSDOF 16
ENDMDL
MODEL 2
REMARK VINA RESULT:     -13.6      2.905      9.112
REMARK SMILES Cc1ccc(C)c(N2C(=O)S[C@H](CC(=O)Nc3ccc(C(=O)NCCCCNC(=O)c4ccc(-c5c6nc(c(-c7c(F)c(F)c(F)c(F)c7F)c7ccc([nH]7)c(-c7c(F)c(F)c(F)c(F)c7F)c7nc(c(-c8c(F)c(F)c(F)c(F)c8F)c8ccc5[nH]8)C=C7)C=C6)cc4)c(O)c3)C2=O)c1
REMARK SMILES IDX 24 1 23 2 21 3 22 4 20 6 17 7 18 8 96 9 19 10 94 11 16 12
REMARK SMILES IDX 14 13 15 14 13 16 12 17 8 18 9 19 97 20 10 21 11 22 98 23
REMARK SMILES IDX 7 24 1 25 2 26 3 27 99 28 4 29 5 30 6 31 95 32 25 34 26 35
REMARK SMILES IDX 27 36 28 37 29 38 30 40 31 41 32 42 93 43 33 44 92 45 34 46
REMARK SMILES IDX 35 47 36 48 86 49 37 50 91 51 85 52 87 53 38 54 90 55 84 56
REMARK SMILES IDX 83 57 39 59 71 60 51 61 70 62 52 63 55 64 69 65 88 66 53 67
REMARK SMILES IDX 54 68 68 70 89 71 56 72 40 73 41 74 49 75 42 76 43 77 47 78
REMARK SMILES IDX 50 79 44 80 45 81 48 82 46 83 72 84 73 85 81 86 74 87 75 88
REMARK SMILES IDX 79 89 82 90 76 91 77 92 80 93 78 94 57 95 58 96 66 97 59 98
REMARK SMILES IDX 60 99 64 100 67 101 61 102 62 103 65 104 63 105
REMARK H PARENT 23 5 16 15 95 33 28 39 87 58 55 69
REMARK Flexibility Score: inf
ROOT
ATOM      1  C   UNL A   1      39.565  21.823  26.507  1.00  0.00     0.116 C 
ENDROOT
BRANCH   1   2
ATOM      2  N   UNL A   1      39.045  20.719  25.727  1.00  0.00    -0.352 N 
ATOM      3  C   UNL A   1      37.863  20.620  25.013  1.00  0.00     0.255 C 
ATOM      4  O   UNL A   1      37.733  19.641  24.276  1.00  0.00    -0.269 OA
ATOM      5  H   UNL A   1      39.619  19.919  25.699  1.00  0.00     0.163 HD
BRANCH   3   6
ATOM      6  C   UNL A   1      36.707  21.562  25.173  1.00  0.00     0.081 A 
ATOM      7  C   UNL A   1      34.493  23.049  26.098  1.00  0.00     0.044 A 
ATOM      8  C   UNL A   1      34.356  21.729  25.698  1.00  0.00     0.027 A 
ATOM      9  C   UNL A   1      35.664  23.704  25.750  1.00  0.00     0.073 A 
ATOM     10  C   UNL A   1      35.454  20.965  25.308  1.00  0.00     0.020 A 
ATOM     11  C   UNL A   1      36.736  22.961  25.222  1.00  0.00     0.130 A 
BRANCH   7  12
ATOM     12  N   UNL A   1      33.436  23.703  26.751  1.00  0.00    -0.326 N 
ATOM     13  C   UNL A   1      32.739  24.814  26.305  1.00  0.00     0.226 C 
ATOM     14  O   UNL A   1      32.132  25.527  27.103  1.00  0.00    -0.275 OA
ATOM     15  H   UNL A   1      33.160  23.333  27.620  1.00  0.00     0.169 HD
BRANCH  13  16
ATOM     16  C   UNL A   1      32.549  24.994  24.799  1.00  0.00     0.125 C 
BRANCH  16  17
ATOM     17  C   UNL A   1      32.914  26.358  24.216  1.00  0.00     0.156 C 
ATOM     18  N   UNL A   1      30.956  27.229  23.135  1.00  0.00    -0.240 N 
ATOM     19  C   UNL A   1      31.562  26.647  22.055  1.00  0.00     0.293 C 
ATOM     20  C   UNL A   1      31.692  27.267  24.309  1.00  0.00     0.248 C 
ATOM     21  O   UNL A   1      31.085  26.373  20.962  1.00  0.00    -0.261 OA
ATOM     22  S   UNL A   1      33.251  26.349  22.431  1.00  0.00    -0.050 SA
ATOM     23  O   UNL A   1      31.425  27.912  25.317  1.00  0.00    -0.273 OA
BRANCH  18  24
ATOM     24  C   UNL A   1      29.842  28.075  22.920  1.00  0.00     0.056 A 
ATOM     25  C   UNL A   1      29.105  31.648  21.764  1.00  0.00     0.044 C 
ATOM     26  C   UNL A   1      28.942  30.247  22.282  1.00  0.00    -0.049 A 
ATOM     27  C   UNL A   1      27.669  29.815  22.665  1.00  0.00     0.004 A 
ATOM     28  C   UNL A   1      30.030  29.366  22.399  1.00  0.00     0.030 A 
ATOM     29  C   UNL A   1      27.482  28.534  23.182  1.00  0.00     0.006 A 
ATOM     30  C   UNL A   1      28.562  27.656  23.332  1.00  0.00    -0.027 A 
ATOM     31  C   UNL A   1      28.282  26.310  23.946  1.00  0.00     0.046 C 
ENDBRANCH  18  24
ENDBRANCH  16  17
ENDBRANCH  13  16
ENDBRANCH   7  12
BRANCH  11  32
ATOM     32  O   UNL A   1      37.751  23.702  24.684  1.00  0.00    -0.507 OA
ATOM     33  H   UNL A   1      37.555  24.439  24.140  1.00  0.00     0.293 HD
ENDBRANCH  11  32
ENDBRANCH   3   6
ENDBRANCH   1   2
BRANCH   1  34
ATOM     34  C   UNL A   1      40.852  21.611  27.302  1.00  0.00     0.023 C 
BRANCH  34  35
ATOM     35  C   UNL A   1      41.613  20.281  27.264  1.00  0.00     0.023 C 
BRANCH  35  36
ATOM     36  C   UNL A   1      42.056  19.731  25.917  1.00  0.00     0.116 C 
BRANCH  36  37
ATOM     37  N   UNL A   1      43.508  19.676  25.693  1.00  0.00    -0.352 N 
ATOM     38  C   UNL A   1      44.405  20.694  25.367  1.00  0.00     0.251 C 
ATOM     39  H   UNL A   1      43.909  18.781  25.786  1.00  0.00     0.163 HD
ATOM     40  O   UNL A   1      45.464  20.426  24.810  1.00  0.00    -0.269 OA
BRANCH  38  41
ATOM     41  C   UNL A   1      44.084  22.102  25.693  1.00  0.00     0.039 A 
ATOM     42  C   UNL A   1      43.289  22.943  24.910  1.00  0.00     0.014 A 
ATOM     43  C   UNL A   1      44.611  22.605  26.862  1.00  0.00     0.014 A 
ATOM     44  C   UNL A   1      43.063  24.244  25.371  1.00  0.00     0.010 A 
ATOM     45  C   UNL A   1      43.975  23.617  27.499  1.00  0.00     0.010 A 
ATOM     46  C   UNL A   1      43.428  24.571  26.689  1.00  0.00    -0.014 A 
BRANCH  46  47
ATOM     47  C   UNL A   1      43.181  25.855  27.320  1.00  0.00     0.031 A 
ATOM     48  C   UNL A   1      44.150  26.867  26.886  1.00  0.00     0.074 A 
ATOM     49  C   UNL A   1      42.082  26.184  28.039  1.00  0.00     0.049 A 
ATOM     50  N   UNL A   1      45.191  27.248  27.537  1.00  0.00    -0.248 NA
ATOM     51  C   UNL A   1      44.086  27.346  25.498  1.00  0.00     0.031 C 
ATOM     52  C   UNL A   1      40.851  25.406  28.248  1.00  0.00     0.029 A 
ATOM     53  N   UNL A   1      41.806  27.352  28.692  1.00  0.00    -0.354 N 
ATOM     54  C   UNL A   1      45.780  28.216  26.740  1.00  0.00     0.074 A 
ATOM     55  C   UNL A   1      45.214  28.056  25.427  1.00  0.00     0.031 C 
ATOM     56  C   UNL A   1      39.902  26.189  28.812  1.00  0.00     0.029 A 
ATOM     57  C   UNL A   1      40.499  27.465  29.159  1.00  0.00     0.049 A 
ATOM     58  H   UNL A   1      42.479  28.059  28.823  1.00  0.00     0.167 HD
ATOM     59  C   UNL A   1      46.423  29.259  27.328  1.00  0.00     0.037 A 
ATOM     60  C   UNL A   1      39.956  28.536  29.791  1.00  0.00     0.037 A 
ATOM     61  C   UNL A   1      46.603  29.008  28.740  1.00  0.00     0.049 A 
ATOM     62  C   UNL A   1      41.076  29.308  30.377  1.00  0.00     0.074 A 
ATOM     63  C   UNL A   1      47.348  28.139  29.509  1.00  0.00     0.029 A 
ATOM     64  N   UNL A   1      45.572  29.458  29.525  1.00  0.00    -0.354 N 
ATOM     65  N   UNL A   1      41.814  28.875  31.362  1.00  0.00    -0.248 NA
ATOM     66  C   UNL A   1      41.619  30.443  29.643  1.00  0.00     0.031 C 
ATOM     67  C   UNL A   1      46.592  27.915  30.699  1.00  0.00     0.029 A 
ATOM     68  C   UNL A   1      45.429  28.684  30.645  1.00  0.00     0.049 A 
ATOM     69  H   UNL A   1      45.008  30.236  29.311  1.00  0.00     0.167 HD
ATOM     70  C   UNL A   1      43.074  29.365  31.080  1.00  0.00     0.074 A 
ATOM     71  C   UNL A   1      42.857  30.461  30.146  1.00  0.00     0.031 C 
ATOM     72  C   UNL A   1      44.182  28.626  31.377  1.00  0.00     0.037 A 
BRANCH  59  73
ATOM     73  C   UNL A   1      46.430  30.670  26.788  1.00  0.00     0.064 A 
ATOM     74  C   UNL A   1      47.640  31.391  26.828  1.00  0.00     0.173 A 
ATOM     75  C   UNL A   1      45.272  31.437  26.538  1.00  0.00     0.173 A 
ATOM     76  F   UNL A   1      48.800  30.767  27.082  1.00  0.00    -0.203 F 
ATOM     77  C   UNL A   1      47.673  32.782  26.703  1.00  0.00     0.198 A 
ATOM     78  C   UNL A   1      45.317  32.818  26.359  1.00  0.00     0.198 A 
ATOM     79  F   UNL A   1      44.041  30.917  26.575  1.00  0.00    -0.203 F 
ATOM     80  F   UNL A   1      48.829  33.438  26.874  1.00  0.00    -0.200 F 
ATOM     81  C   UNL A   1      46.510  33.495  26.473  1.00  0.00     0.200 A 
ATOM     82  F   UNL A   1      44.174  33.492  26.164  1.00  0.00    -0.200 F 
ATOM     83  F   UNL A   1      46.531  34.833  26.412  1.00  0.00    -0.200 F 
ENDBRANCH  59  73
BRANCH  60  84
ATOM     84  C   UNL A   1      38.569  29.060  29.789  1.00  0.00     0.064 A 
ATOM     85  C   UNL A   1      37.855  29.226  30.991  1.00  0.00     0.173 A 
ATOM     86  C   UNL A   1      38.043  29.706  28.656  1.00  0.00     0.173 A 
ATOM     87  F   UNL A   1      38.302  28.671  32.127  1.00  0.00    -0.203 F 
ATOM     88  C   UNL A   1      36.718  30.038  31.064  1.00  0.00     0.198 A 
ATOM     89  C   UNL A   1      36.904  30.512  28.730  1.00  0.00     0.198 A 
ATOM     90  F   UNL A   1      38.689  29.658  27.482  1.00  0.00    -0.203 F 
ATOM     91  F   UNL A   1      36.118  30.244  32.246  1.00  0.00    -0.200 F 
ATOM     92  C   UNL A   1      36.255  30.696  29.937  1.00  0.00     0.200 A 
ATOM     93  F   UNL A   1      36.488  31.176  27.643  1.00  0.00    -0.200 F 
ATOM     94  F   UNL A   1      35.219  31.540  30.025  1.00  0.00    -0.200 F 
ENDBRANCH  60  84
BRANCH  72  95
ATOM     95  C   UNL A   1      44.029  27.577  32.439  1.00  0.00     0.064 A 
ATOM     96  C   UNL A   1      43.979  26.193  32.200  1.00  0.00     0.173 A 
ATOM     97  C   UNL A   1      43.983  28.004  33.773  1.00  0.00     0.173 A 
ATOM     98  F   UNL A   1      44.099  25.700  30.961  1.00  0.00    -0.203 F 
ATOM     99  C   UNL A   1      43.836  25.286  33.249  1.00  0.00     0.198 A 
ATOM    100  C   UNL A   1      43.880  27.095  34.820  1.00  0.00     0.198 A 
ATOM    101  F   UNL A   1      44.066  29.311  34.064  1.00  0.00    -0.203 F 
ATOM    102  F   UNL A   1      43.761  23.970  32.995  1.00  0.00    -0.200 F 
ATOM    103  C   UNL A   1      43.792  25.738  34.558  1.00  0.00     0.200 A 
ATOM    104  F   UNL A   1      43.881  27.535  36.086  1.00  0.00    -0.200 F 
ATOM    105  F   UNL A   1      43.684  24.864  35.569  1.00  0.00    -0.200 F 
ENDBRANCH  72  95
ENDBRANCH  46  47
ENDBRANCH  38  41
ENDBRANCH  36  37
ENDBRANCH  35  36
ENDBRANCH  34  35
ENDBRANCH   1  34
TORSDOF 16
ENDMDL
MODEL 3
REMARK VINA RESULT:     -13.5      3.034      9.066
REMARK SMILES Cc1ccc(C)c(N2C(=O)S[C@H](CC(=O)Nc3ccc(C(=O)NCCCCNC(=O)c4ccc(-c5c6nc(c(-c7c(F)c(F)c(F)c(F)c7F)c7ccc([nH]7)c(-c7c(F)c(F)c(F)c(F)c7F)c7nc(c(-c8c(F)c(F)c(F)c(F)c8F)c8ccc5[nH]8)C=C7)C=C6)cc4)c(O)c3)C2=O)c1
REMARK SMILES IDX 24 1 23 2 21 3 22 4 20 6 17 7 18 8 96 9 19 10 94 11 16 12
REMARK SMILES IDX 14 13 15 14 13 16 12 17 8 18 9 19 97 20 10 21 11 22 98 23
REMARK SMILES IDX 7 24 1 25 2 26 3 27 99 28 4 29 5 30 6 31 95 32 25 34 26 35
REMARK SMILES IDX 27 36 28 37 29 38 30 40 31 41 32 42 93 43 33 44 92 45 34 46
REMARK SMILES IDX 35 47 36 48 86 49 37 50 91 51 85 52 87 53 38 54 90 55 84 56
REMARK SMILES IDX 83 57 39 59 71 60 51 61 70 62 52 63 55 64 69 65 88 66 53 67
REMARK SMILES IDX 54 68 68 70 89 71 56 72 40 73 41 74 49 75 42 76 43 77 47 78
REMARK SMILES IDX 50 79 44 80 45 81 48 82 46 83 72 84 73 85 81 86 74 87 75 88
REMARK SMILES IDX 79 89 82 90 76 91 77 92 80 93 78 94 57 95 58 96 66 97 59 98
REMARK SMILES IDX 60 99 64 100 67 101 61 102 62 103 65 104 63 105
REMARK H PARENT 23 5 16 15 95 33 28 39 87 58 55 69
REMARK Flexibility Score: inf
ROOT
ATOM      1  C   UNL A   1      36.965  20.904  24.663  1.00  0.00     0.116 C 
ENDROOT
BRANCH   1   2
ATOM      2  N   UNL A   1      36.127  19.729  24.791  1.00  0.00    -0.352 N 
ATOM      3  C   UNL A   1      34.750  19.631  24.889  1.00  0.00     0.255 C 
ATOM      4  O   UNL A   1      34.259  18.505  24.801  1.00  0.00    -0.269 OA
ATOM      5  H   UNL A   1      36.610  18.871  24.811  1.00  0.00     0.163 HD
BRANCH   3   6
ATOM      6  C   UNL A   1      33.849  20.788  25.205  1.00  0.00     0.081 A 
ATOM      7  C   UNL A   1      31.660  22.502  25.695  1.00  0.00     0.044 A 
ATOM      8  C   UNL A   1      32.009  22.133  24.406  1.00  0.00     0.027 A 
ATOM      9  C   UNL A   1      32.582  22.260  26.701  1.00  0.00     0.073 A 
ATOM     10  C   UNL A   1      33.042  21.232  24.158  1.00  0.00     0.020 A 
ATOM     11  C   UNL A   1      33.708  21.462  26.424  1.00  0.00     0.130 A 
BRANCH   7  12
ATOM     12  N   UNL A   1      30.452  23.176  25.935  1.00  0.00    -0.326 N 
ATOM     13  C   UNL A   1      30.283  24.529  26.176  1.00  0.00     0.226 C 
ATOM     14  O   UNL A   1      29.277  24.935  26.755  1.00  0.00    -0.275 OA
ATOM     15  H   UNL A   1      29.635  22.627  25.932  1.00  0.00     0.169 HD
BRANCH  13  16
ATOM     16  C   UNL A   1      31.246  25.509  25.507  1.00  0.00     0.125 C 
BRANCH  16  17
ATOM     17  C   UNL A   1      32.483  25.915  26.307  1.00  0.00     0.156 C 
ATOM     18  N   UNL A   1      32.713  28.298  26.121  1.00  0.00    -0.240 N 
ATOM     19  C   UNL A   1      33.543  27.917  25.102  1.00  0.00     0.293 C 
ATOM     20  C   UNL A   1      32.226  27.284  26.932  1.00  0.00     0.248 C 
ATOM     21  O   UNL A   1      33.989  28.591  24.183  1.00  0.00    -0.261 OA
ATOM     22  S   UNL A   1      33.964  26.225  25.301  1.00  0.00    -0.050 SA
ATOM     23  O   UNL A   1      31.645  27.422  28.003  1.00  0.00    -0.273 OA
BRANCH  18  24
ATOM     24  C   UNL A   1      32.708  29.653  26.529  1.00  0.00     0.056 A 
ATOM     25  C   UNL A   1      30.694  32.850  25.921  1.00  0.00     0.044 C 
ATOM     26  C   UNL A   1      31.740  31.885  26.403  1.00  0.00    -0.049 A 
ATOM     27  C   UNL A   1      32.796  32.370  27.182  1.00  0.00     0.004 A 
ATOM     28  C   UNL A   1      31.692  30.517  26.088  1.00  0.00     0.030 A 
ATOM     29  C   UNL A   1      33.804  31.513  27.620  1.00  0.00     0.006 A 
ATOM     30  C   UNL A   1      33.785  30.153  27.288  1.00  0.00    -0.027 A 
ATOM     31  C   UNL A   1      34.938  29.308  27.759  1.00  0.00     0.046 C 
ENDBRANCH  18  24
ENDBRANCH  16  17
ENDBRANCH  13  16
ENDBRANCH   7  12
BRANCH  11  32
ATOM     32  O   UNL A   1      34.681  21.471  27.385  1.00  0.00    -0.507 OA
ATOM     33  H   UNL A   1      35.582  21.530  27.137  1.00  0.00     0.293 HD
ENDBRANCH  11  32
ENDBRANCH   3   6
ENDBRANCH   1   2
BRANCH   1  34
ATOM     34  C   UNL A   1      38.293  20.938  25.418  1.00  0.00     0.023 C 
BRANCH  34  35
ATOM     35  C   UNL A   1      38.782  22.202  26.132  1.00  0.00     0.023 C 
BRANCH  35  36
ATOM     36  C   UNL A   1      40.058  22.129  26.956  1.00  0.00     0.116 C 
BRANCH  36  37
ATOM     37  N   UNL A   1      41.315  22.246  26.203  1.00  0.00    -0.352 N 
ATOM     38  C   UNL A   1      42.078  23.375  25.900  1.00  0.00     0.251 C 
ATOM     39  H   UNL A   1      41.675  21.397  25.859  1.00  0.00     0.163 HD
ATOM     40  O   UNL A   1      42.836  23.365  24.936  1.00  0.00    -0.269 OA
BRANCH  38  41
ATOM     41  C   UNL A   1      41.977  24.590  26.740  1.00  0.00     0.039 A 
ATOM     42  C   UNL A   1      42.725  24.829  27.895  1.00  0.00     0.014 A 
ATOM     43  C   UNL A   1      41.078  25.553  26.336  1.00  0.00     0.014 A 
ATOM     44  C   UNL A   1      42.526  26.040  28.566  1.00  0.00     0.010 A 
ATOM     45  C   UNL A   1      41.288  26.847  26.676  1.00  0.00     0.010 A 
ATOM     46  C   UNL A   1      41.783  27.052  27.932  1.00  0.00    -0.014 A 
BRANCH  46  47
ATOM     47  C   UNL A   1      41.566  28.381  28.476  1.00  0.00     0.031 A 
ATOM     48  C   UNL A   1      42.626  29.310  28.074  1.00  0.00     0.074 A 
ATOM     49  C   UNL A   1      40.436  28.810  29.086  1.00  0.00     0.049 A 
ATOM     50  N   UNL A   1      43.634  29.666  28.788  1.00  0.00    -0.248 NA
ATOM     51  C   UNL A   1      42.701  29.716  26.664  1.00  0.00     0.031 C 
ATOM     52  C   UNL A   1      39.147  28.117  29.233  1.00  0.00     0.029 A 
ATOM     53  N   UNL A   1      40.183  30.026  29.657  1.00  0.00    -0.354 N 
ATOM     54  C   UNL A   1      44.343  30.553  27.996  1.00  0.00     0.074 A 
ATOM     55  C   UNL A   1      43.873  30.355  26.650  1.00  0.00     0.031 C 
ATOM     56  C   UNL A   1      38.207  28.983  29.678  1.00  0.00     0.029 A 
ATOM     57  C   UNL A   1      38.852  30.239  30.010  1.00  0.00     0.049 A 
ATOM     58  H   UNL A   1      40.886  30.699  29.807  1.00  0.00     0.167 HD
ATOM     59  C   UNL A   1      45.001  31.588  28.582  1.00  0.00     0.037 A 
ATOM     60  C   UNL A   1      38.328  31.372  30.542  1.00  0.00     0.037 A 
ATOM     61  C   UNL A   1      45.054  31.403  30.015  1.00  0.00     0.049 A 
ATOM     62  C   UNL A   1      39.444  32.108  31.178  1.00  0.00     0.074 A 
ATOM     63  C   UNL A   1      45.681  30.536  30.883  1.00  0.00     0.029 A 
ATOM     64  N   UNL A   1      43.994  31.954  30.689  1.00  0.00    -0.354 N 
ATOM     65  N   UNL A   1      40.075  31.688  32.240  1.00  0.00    -0.248 NA
ATOM     66  C   UNL A   1      40.113  33.170  30.436  1.00  0.00     0.031 C 
ATOM     67  C   UNL A   1      44.822  30.420  32.017  1.00  0.00     0.029 A 
ATOM     68  C   UNL A   1      43.716  31.251  31.831  1.00  0.00     0.049 A 
ATOM     69  H   UNL A   1      43.498  32.750  30.392  1.00  0.00     0.167 HD
ATOM     70  C   UNL A   1      41.381  32.089  32.038  1.00  0.00     0.074 A 
ATOM     71  C   UNL A   1      41.306  33.143  31.037  1.00  0.00     0.031 C 
ATOM     72  C   UNL A   1      42.414  31.304  32.460  1.00  0.00     0.037 A 
BRANCH  59  73
ATOM     73  C   UNL A   1      45.138  32.965  27.976  1.00  0.00     0.064 A 
ATOM     74  C   UNL A   1      46.428  33.421  27.644  1.00  0.00     0.173 A 
ATOM     75  C   UNL A   1      44.131  33.954  28.001  1.00  0.00     0.173 A 
ATOM     76  F   UNL A   1      47.466  32.571  27.612  1.00  0.00    -0.203 F 
ATOM     77  C   UNL A   1      46.700  34.775  27.430  1.00  0.00     0.198 A 
ATOM     78  C   UNL A   1      44.396  35.296  27.734  1.00  0.00     0.198 A 
ATOM     79  F   UNL A   1      42.880  33.700  28.401  1.00  0.00    -0.203 F 
ATOM     80  F   UNL A   1      47.964  35.178  27.243  1.00  0.00    -0.200 F 
ATOM     81  C   UNL A   1      45.684  35.711  27.480  1.00  0.00     0.200 A 
ATOM     82  F   UNL A   1      43.400  36.190  27.814  1.00  0.00    -0.200 F 
ATOM     83  F   UNL A   1      45.951  37.016  27.335  1.00  0.00    -0.200 F 
ENDBRANCH  59  73
BRANCH  60  84
ATOM     84  C   UNL A   1      36.981  31.974  30.401  1.00  0.00     0.064 A 
ATOM     85  C   UNL A   1      36.020  31.847  31.421  1.00  0.00     0.173 A 
ATOM     86  C   UNL A   1      36.725  32.948  29.419  1.00  0.00     0.173 A 
ATOM     87  F   UNL A   1      36.200  30.965  32.416  1.00  0.00    -0.203 F 
ATOM     88  C   UNL A   1      34.902  32.686  31.487  1.00  0.00     0.198 A 
ATOM     89  C   UNL A   1      35.605  33.781  29.482  1.00  0.00     0.198 A 
ATOM     90  F   UNL A   1      37.614  33.184  28.444  1.00  0.00    -0.203 F 
ATOM     91  F   UNL A   1      34.057  32.594  32.524  1.00  0.00    -0.200 F 
ATOM     92  C   UNL A   1      34.706  33.665  30.527  1.00  0.00     0.200 A 
ATOM     93  F   UNL A   1      35.445  34.751  28.572  1.00  0.00    -0.200 F 
ATOM     94  F   UNL A   1      33.683  34.523  30.636  1.00  0.00    -0.200 F 
ENDBRANCH  60  84
BRANCH  72  95
ATOM     95  C   UNL A   1      42.114  30.325  33.557  1.00  0.00     0.064 A 
ATOM     96  C   UNL A   1      41.702  28.996  33.357  1.00  0.00     0.173 A 
ATOM     97  C   UNL A   1      42.306  30.749  34.878  1.00  0.00     0.173 A 
ATOM     98  F   UNL A   1      41.574  28.490  32.124  1.00  0.00    -0.203 F 
ATOM     99  C   UNL A   1      41.445  28.151  34.436  1.00  0.00     0.198 A 
ATOM    100  C   UNL A   1      42.087  29.892  35.952  1.00  0.00     0.198 A 
ATOM    101  F   UNL A   1      42.737  31.995  35.129  1.00  0.00    -0.203 F 
ATOM    102  F   UNL A   1      41.024  26.895  34.222  1.00  0.00    -0.200 F 
ATOM    103  C   UNL A   1      41.643  28.599  35.732  1.00  0.00     0.200 A 
ATOM    104  F   UNL A   1      42.322  30.318  37.202  1.00  0.00    -0.200 F 
ATOM    105  F   UNL A   1      41.424  27.778  36.769  1.00  0.00    -0.200 F 
ENDBRANCH  72  95
ENDBRANCH  46  47
ENDBRANCH  38  41
ENDBRANCH  36  37
ENDBRANCH  35  36
ENDBRANCH  34  35
ENDBRANCH   1  34
TORSDOF 16
ENDMDL
