MODEL 1
REMARK VINA RESULT:     -13.0      0.000      0.000
REMARK SMILES CC(C)CCc1cc2c(cc1Cl)C=C(C(=O)NCCCCNC(=O)c1ccc(-c3c4nc(c(-c5c(F)c(F)c(F)c(F)c5F)c5ccc([nH]5)c(-c5c(F)c(F)c(F)c(F)c5F)c5nc(c(-c6c(F)c(F)c(F)c(F)c6F)c6ccc3[nH]6)C=C5)C=C4)cc1)[C@H](C(F)(F)F)O2
REMARK SMILES IDX 19 1 18 2 17 3 15 4 16 5 14 7 6 8 7 9 11 10 8 11 10 12 12 13
REMARK SMILES IDX 9 14 93 15 13 16 88 17 5 18 4 19 2 20 1 21 3 22 89 23 90 24
REMARK SMILES IDX 91 25 92 26 20 27 21 28 22 29 23 30 24 32 25 33 26 34 87 35
REMARK SMILES IDX 27 36 86 37 28 38 29 39 30 40 80 41 31 42 85 43 79 44 81 45
REMARK SMILES IDX 32 46 84 47 78 48 77 49 33 51 65 52 45 53 64 54 46 55 49 56
REMARK SMILES IDX 63 57 82 58 47 59 48 60 62 62 83 63 50 64 34 65 35 66 43 67
REMARK SMILES IDX 36 68 37 69 41 70 44 71 38 72 39 73 42 74 40 75 66 76 67 77
REMARK SMILES IDX 75 78 68 79 69 80 73 81 76 82 70 83 71 84 74 85 72 86 51 87
REMARK SMILES IDX 52 88 60 89 53 90 54 91 58 92 61 93 55 94 56 95 59 96 57 97
REMARK H PARENT 17 6 22 31 81 50 49 61
REMARK Flexibility Score: inf
ROOT
ATOM      1  C   UNL A   1      32.454  29.659  27.205  1.00  0.00     0.023 C 
ENDROOT
BRANCH   1   2
ATOM      2  C   UNL A   1      33.768  29.036  26.735  1.00  0.00     0.116 C 
BRANCH   2   3
ATOM      3  N   UNL A   1      33.956  29.184  25.304  1.00  0.00    -0.352 N 
ATOM      4  C   UNL A   1      33.718  28.440  24.197  1.00  0.00     0.251 C 
ATOM      5  O   UNL A   1      33.959  29.011  23.129  1.00  0.00    -0.270 OA
ATOM      6  H   UNL A   1      34.361  30.051  25.077  1.00  0.00     0.163 HD
BRANCH   4   7
ATOM      7  C   UNL A   1      33.213  27.035  24.182  1.00  0.00     0.067 C 
ATOM      8  C   UNL A   1      32.665  22.073  24.983  1.00  0.00    -0.026 A 
ATOM      9  C   UNL A   1      32.036  23.017  24.151  1.00  0.00     0.052 A 
ATOM     10  C   UNL A   1      33.735  22.506  25.785  1.00  0.00     0.045 A 
ATOM     11  C   UNL A   1      32.471  24.339  24.117  1.00  0.00     0.128 A 
ATOM     12  C   UNL A   1      34.182  23.834  25.727  1.00  0.00     0.032 A 
ATOM     13  Cl  UNL A   1      34.559  21.453  26.878  1.00  0.00    -0.084 Cl
ATOM     14  C   UNL A   1      33.553  24.752  24.887  1.00  0.00     0.019 A 
ATOM     15  O   UNL A   1      31.811  25.189  23.274  1.00  0.00    -0.475 OA
ATOM     16  C   UNL A   1      34.012  26.132  24.782  1.00  0.00     0.025 C 
ATOM     17  C   UNL A   1      31.871  26.596  23.654  1.00  0.00     0.314 C 
BRANCH   8  18
ATOM     18  C   UNL A   1      32.154  20.648  24.959  1.00  0.00     0.037 C 
BRANCH  18  19
ATOM     19  C   UNL A   1      32.832  19.768  23.895  1.00  0.00     0.008 C 
BRANCH  19  20
ATOM     20  C   UNL A   1      33.514  18.498  24.439  1.00  0.00    -0.017 C 
ATOM     21  C   UNL A   1      32.760  17.911  25.634  1.00  0.00     0.007 C 
ATOM     22  C   UNL A   1      33.617  17.446  23.332  1.00  0.00     0.007 C 
ENDBRANCH  19  20
ENDBRANCH  18  19
ENDBRANCH   8  18
BRANCH  17  23
ATOM     23  C   UNL A   1      30.697  26.943  24.587  1.00  0.00     0.429 C 
ATOM     24  F   UNL A   1      29.656  26.089  24.471  1.00  0.00    -0.167 F 
ATOM     25  F   UNL A   1      31.053  26.949  25.892  1.00  0.00    -0.167 F 
ATOM     26  F   UNL A   1      30.228  28.185  24.301  1.00  0.00    -0.167 F 
ENDBRANCH  17  23
ENDBRANCH   4   7
ENDBRANCH   2   3
ENDBRANCH   1   2
BRANCH   1  27
ATOM     27  C   UNL A   1      32.251  31.123  26.807  1.00  0.00     0.023 C 
BRANCH  27  28
ATOM     28  C   UNL A   1      33.153  32.118  27.526  1.00  0.00     0.116 C 
BRANCH  28  29
ATOM     29  N   UNL A   1      32.613  33.468  27.610  1.00  0.00    -0.352 N 
ATOM     30  C   UNL A   1      33.072  34.509  28.389  1.00  0.00     0.251 C 
ATOM     31  H   UNL A   1      31.829  33.659  27.045  1.00  0.00     0.163 HD
ATOM     32  O   UNL A   1      32.481  35.583  28.422  1.00  0.00    -0.269 OA
BRANCH  30  33
ATOM     33  C   UNL A   1      34.252  34.277  29.244  1.00  0.00     0.039 A 
ATOM     34  C   UNL A   1      35.529  34.566  28.764  1.00  0.00     0.014 A 
ATOM     35  C   UNL A   1      34.082  33.639  30.475  1.00  0.00     0.014 A 
ATOM     36  C   UNL A   1      36.634  34.029  29.411  1.00  0.00     0.010 A 
ATOM     37  C   UNL A   1      35.203  33.176  31.170  1.00  0.00     0.010 A 
ATOM     38  C   UNL A   1      36.481  33.300  30.603  1.00  0.00    -0.014 A 
BRANCH  38  39
ATOM     39  C   UNL A   1      37.666  32.618  31.182  1.00  0.00     0.031 A 
ATOM     40  C   UNL A   1      38.114  32.926  32.587  1.00  0.00     0.074 A 
ATOM     41  C   UNL A   1      38.265  31.635  30.483  1.00  0.00     0.049 A 
ATOM     42  N   UNL A   1      39.066  32.364  33.291  1.00  0.00    -0.248 NA
ATOM     43  C   UNL A   1      37.406  34.003  33.299  1.00  0.00     0.031 C 
ATOM     44  C   UNL A   1      37.905  31.234  29.123  1.00  0.00     0.029 A 
ATOM     45  N   UNL A   1      39.264  30.764  30.837  1.00  0.00    -0.354 N 
ATOM     46  C   UNL A   1      39.085  33.031  34.509  1.00  0.00     0.074 A 
ATOM     47  C   UNL A   1      38.066  34.054  34.449  1.00  0.00     0.031 C 
ATOM     48  C   UNL A   1      38.612  30.143  28.789  1.00  0.00     0.029 A 
ATOM     49  C   UNL A   1      39.513  29.805  29.887  1.00  0.00     0.049 A 
ATOM     50  H   UNL A   1      39.754  30.822  31.690  1.00  0.00     0.167 HD
ATOM     51  C   UNL A   1      39.871  32.798  35.587  1.00  0.00     0.037 A 
ATOM     52  C   UNL A   1      40.366  28.764  29.901  1.00  0.00     0.037 A 
ATOM     53  C   UNL A   1      40.848  31.748  35.670  1.00  0.00     0.049 A 
ATOM     54  C   UNL A   1      41.246  28.551  31.097  1.00  0.00     0.074 A 
ATOM     55  C   UNL A   1      41.657  31.405  36.740  1.00  0.00     0.029 A 
ATOM     56  N   UNL A   1      41.143  30.863  34.645  1.00  0.00    -0.354 N 
ATOM     57  N   UNL A   1      41.257  29.194  32.238  1.00  0.00    -0.248 NA
ATOM     58  C   UNL A   1      42.253  27.485  30.995  1.00  0.00     0.031 C 
ATOM     59  C   UNL A   1      42.464  30.331  36.352  1.00  0.00     0.029 A 
ATOM     60  C   UNL A   1      42.140  29.990  35.049  1.00  0.00     0.049 A 
ATOM     61  H   UNL A   1      40.710  30.856  33.762  1.00  0.00     0.167 HD
ATOM     62  C   UNL A   1      42.273  28.620  32.988  1.00  0.00     0.074 A 
ATOM     63  C   UNL A   1      42.840  27.557  32.183  1.00  0.00     0.031 C 
ATOM     64  C   UNL A   1      42.705  28.954  34.227  1.00  0.00     0.037 A 
BRANCH  51  65
ATOM     65  C   UNL A   1      39.712  33.697  36.775  1.00  0.00     0.064 A 
ATOM     66  C   UNL A   1      40.356  34.940  36.846  1.00  0.00     0.173 A 
ATOM     67  C   UNL A   1      38.848  33.341  37.822  1.00  0.00     0.173 A 
ATOM     68  F   UNL A   1      41.201  35.318  35.875  1.00  0.00    -0.203 F 
ATOM     69  C   UNL A   1      40.148  35.792  37.928  1.00  0.00     0.198 A 
ATOM     70  C   UNL A   1      38.628  34.203  38.893  1.00  0.00     0.198 A 
ATOM     71  F   UNL A   1      38.206  32.163  37.797  1.00  0.00    -0.203 F 
ATOM     72  F   UNL A   1      40.790  36.966  37.987  1.00  0.00    -0.200 F 
ATOM     73  C   UNL A   1      39.278  35.426  38.946  1.00  0.00     0.200 A 
ATOM     74  F   UNL A   1      37.782  33.852  39.871  1.00  0.00    -0.200 F 
ATOM     75  F   UNL A   1      39.069  36.253  39.979  1.00  0.00    -0.200 F 
ENDBRANCH  51  65
BRANCH  52  76
ATOM     76  C   UNL A   1      40.415  27.843  28.740  1.00  0.00     0.064 A 
ATOM     77  C   UNL A   1      39.664  26.661  28.734  1.00  0.00     0.173 A 
ATOM     78  C   UNL A   1      41.179  28.143  27.603  1.00  0.00     0.173 A 
ATOM     79  F   UNL A   1      38.933  26.327  29.808  1.00  0.00    -0.203 F 
ATOM     80  C   UNL A   1      39.674  25.811  27.631  1.00  0.00     0.198 A 
ATOM     81  C   UNL A   1      41.171  27.304  26.492  1.00  0.00     0.198 A 
ATOM     82  F   UNL A   1      41.912  29.265  27.564  1.00  0.00    -0.203 F 
ATOM     83  F   UNL A   1      38.961  24.677  27.655  1.00  0.00    -0.200 F 
ATOM     84  C   UNL A   1      40.420  26.138  26.508  1.00  0.00     0.200 A 
ATOM     85  F   UNL A   1      41.883  27.629  25.405  1.00  0.00    -0.200 F 
ATOM     86  F   UNL A   1      40.418  25.326  25.441  1.00  0.00    -0.200 F 
ENDBRANCH  52  76
BRANCH  64  87
ATOM     87  C   UNL A   1      43.863  28.186  34.782  1.00  0.00     0.064 A 
ATOM     88  C   UNL A   1      43.663  26.977  35.462  1.00  0.00     0.173 A 
ATOM     89  C   UNL A   1      45.180  28.618  34.571  1.00  0.00     0.173 A 
ATOM     90  F   UNL A   1      42.419  26.533  35.697  1.00  0.00    -0.203 F 
ATOM     91  C   UNL A   1      44.743  26.227  35.916  1.00  0.00     0.198 A 
ATOM     92  C   UNL A   1      46.258  27.857  35.012  1.00  0.00     0.198 A 
ATOM     93  F   UNL A   1      45.418  29.767  33.921  1.00  0.00    -0.203 F 
ATOM     94  F   UNL A   1      44.531  25.083  36.582  1.00  0.00    -0.200 F 
ATOM     95  C   UNL A   1      46.039  26.664  35.684  1.00  0.00     0.200 A 
ATOM     96  F   UNL A   1      47.511  28.275  34.780  1.00  0.00    -0.200 F 
ATOM     97  F   UNL A   1      47.079  25.934  36.112  1.00  0.00    -0.200 F 
ENDBRANCH  64  87
ENDBRANCH  38  39
ENDBRANCH  30  33
ENDBRANCH  28  29
ENDBRANCH  27  28
ENDBRANCH   1  27
TORSDOF 15
ENDMDL
MODEL 2
REMARK VINA RESULT:     -12.8      1.742      7.405
REMARK SMILES CC(C)CCc1cc2c(cc1Cl)C=C(C(=O)NCCCCNC(=O)c1ccc(-c3c4nc(c(-c5c(F)c(F)c(F)c(F)c5F)c5ccc([nH]5)c(-c5c(F)c(F)c(F)c(F)c5F)c5nc(c(-c6c(F)c(F)c(F)c(F)c6F)c6ccc3[nH]6)C=C5)C=C4)cc1)[C@H](C(F)(F)F)O2
REMARK SMILES IDX 19 1 18 2 17 3 15 4 16 5 14 7 6 8 7 9 11 10 8 11 10 12 12 13
REMARK SMILES IDX 9 14 93 15 13 16 88 17 5 18 4 19 2 20 1 21 3 22 89 23 90 24
REMARK SMILES IDX 91 25 92 26 20 27 21 28 22 29 23 30 24 32 25 33 26 34 87 35
REMARK SMILES IDX 27 36 86 37 28 38 29 39 30 40 80 41 31 42 85 43 79 44 81 45
REMARK SMILES IDX 32 46 84 47 78 48 77 49 33 51 65 52 45 53 64 54 46 55 49 56
REMARK SMILES IDX 63 57 82 58 47 59 48 60 62 62 83 63 50 64 34 65 35 66 43 67
REMARK SMILES IDX 36 68 37 69 41 70 44 71 38 72 39 73 42 74 40 75 66 76 67 77
REMARK SMILES IDX 75 78 68 79 69 80 73 81 76 82 70 83 71 84 74 85 72 86 51 87
REMARK SMILES IDX 52 88 60 89 53 90 54 91 58 92 61 93 55 94 56 95 59 96 57 97
REMARK H PARENT 17 6 22 31 81 50 49 61
REMARK Flexibility Score: inf
ROOT
ATOM      1  C   UNL A   1      33.374  28.814  24.908  1.00  0.00     0.023 C 
ENDROOT
BRANCH   1   2
ATOM      2  C   UNL A   1      33.626  28.835  23.401  1.00  0.00     0.116 C 
BRANCH   2   3
ATOM      3  N   UNL A   1      32.419  28.555  22.646  1.00  0.00    -0.352 N 
ATOM      4  C   UNL A   1      31.611  27.487  22.441  1.00  0.00     0.251 C 
ATOM      5  O   UNL A   1      30.601  27.725  21.770  1.00  0.00    -0.270 OA
ATOM      6  H   UNL A   1      32.104  29.347  22.155  1.00  0.00     0.163 HD
BRANCH   4   7
ATOM      7  C   UNL A   1      31.850  26.102  22.944  1.00  0.00     0.067 C 
ATOM      8  C   UNL A   1      34.034  21.746  24.291  1.00  0.00    -0.026 A 
ATOM      9  C   UNL A   1      32.706  22.194  24.180  1.00  0.00     0.052 A 
ATOM     10  C   UNL A   1      35.064  22.629  23.923  1.00  0.00     0.045 A 
ATOM     11  C   UNL A   1      32.422  23.473  23.709  1.00  0.00     0.128 A 
ATOM     12  C   UNL A   1      34.770  23.906  23.427  1.00  0.00     0.032 A 
ATOM     13  Cl  UNL A   1      36.735  22.210  24.055  1.00  0.00    -0.084 Cl
ATOM     14  C   UNL A   1      33.446  24.329  23.313  1.00  0.00     0.019 A 
ATOM     15  O   UNL A   1      31.105  23.827  23.623  1.00  0.00    -0.475 OA
ATOM     16  C   UNL A   1      33.104  25.640  22.774  1.00  0.00     0.025 C 
ATOM     17  C   UNL A   1      30.850  25.261  23.694  1.00  0.00     0.314 C 
BRANCH   8  18
ATOM     18  C   UNL A   1      34.273  20.337  24.795  1.00  0.00     0.037 C 
BRANCH  18  19
ATOM     19  C   UNL A   1      32.989  19.496  24.905  1.00  0.00     0.008 C 
BRANCH  19  20
ATOM     20  C   UNL A   1      33.067  18.103  24.250  1.00  0.00    -0.017 C 
ATOM     21  C   UNL A   1      32.527  18.112  22.820  1.00  0.00     0.007 C 
ATOM     22  C   UNL A   1      34.516  17.609  24.248  1.00  0.00     0.007 C 
ENDBRANCH  19  20
ENDBRANCH  18  19
ENDBRANCH   8  18
BRANCH  17  23
ATOM     23  C   UNL A   1      30.655  25.692  25.159  1.00  0.00     0.429 C 
ATOM     24  F   UNL A   1      30.013  24.767  25.904  1.00  0.00    -0.167 F 
ATOM     25  F   UNL A   1      31.826  25.953  25.785  1.00  0.00    -0.167 F 
ATOM     26  F   UNL A   1      29.917  26.831  25.214  1.00  0.00    -0.167 F 
ENDBRANCH  17  23
ENDBRANCH   4   7
ENDBRANCH   2   3
ENDBRANCH   1   2
BRANCH   1  27
ATOM     27  C   UNL A   1      32.213  29.691  25.383  1.00  0.00     0.023 C 
BRANCH  27  28
ATOM     28  C   UNL A   1      32.306  30.156  26.832  1.00  0.00     0.116 C 
BRANCH  28  29
ATOM     29  N   UNL A   1      32.294  31.602  27.001  1.00  0.00    -0.352 N 
ATOM     30  C   UNL A   1      33.316  32.401  27.468  1.00  0.00     0.251 C 
ATOM     31  H   UNL A   1      31.460  32.063  26.753  1.00  0.00     0.163 HD
ATOM     32  O   UNL A   1      33.154  33.605  27.632  1.00  0.00    -0.269 OA
BRANCH  30  33
ATOM     33  C   UNL A   1      34.591  31.760  27.842  1.00  0.00     0.039 A 
ATOM     34  C   UNL A   1      34.641  30.385  28.072  1.00  0.00     0.014 A 
ATOM     35  C   UNL A   1      35.706  32.564  28.094  1.00  0.00     0.014 A 
ATOM     36  C   UNL A   1      35.726  29.851  28.753  1.00  0.00     0.010 A 
ATOM     37  C   UNL A   1      36.834  32.005  28.699  1.00  0.00     0.010 A 
ATOM     38  C   UNL A   1      36.820  30.661  29.104  1.00  0.00    -0.014 A 
BRANCH  38  39
ATOM     39  C   UNL A   1      37.890  30.087  29.958  1.00  0.00     0.031 A 
ATOM     40  C   UNL A   1      38.942  29.185  29.365  1.00  0.00     0.074 A 
ATOM     41  C   UNL A   1      37.984  30.474  31.244  1.00  0.00     0.049 A 
ATOM     42  N   UNL A   1      40.002  28.669  29.934  1.00  0.00    -0.248 NA
ATOM     43  C   UNL A   1      38.787  28.812  27.948  1.00  0.00     0.031 C 
ATOM     44  C   UNL A   1      37.038  31.360  31.924  1.00  0.00     0.029 A 
ATOM     45  N   UNL A   1      38.942  30.217  32.191  1.00  0.00    -0.354 N 
ATOM     46  C   UNL A   1      40.622  27.897  28.960  1.00  0.00     0.074 A 
ATOM     47  C   UNL A   1      39.813  27.992  27.765  1.00  0.00     0.031 C 
ATOM     48  C   UNL A   1      37.506  31.640  33.150  1.00  0.00     0.029 A 
ATOM     49  C   UNL A   1      38.752  30.910  33.362  1.00  0.00     0.049 A 
ATOM     50  H   UNL A   1      39.692  29.595  32.046  1.00  0.00     0.167 HD
ATOM     51  C   UNL A   1      41.771  27.187  29.049  1.00  0.00     0.037 A 
ATOM     52  C   UNL A   1      39.502  30.957  34.478  1.00  0.00     0.037 A 
ATOM     53  C   UNL A   1      42.606  27.133  30.217  1.00  0.00     0.049 A 
ATOM     54  C   UNL A   1      40.754  30.135  34.559  1.00  0.00     0.074 A 
ATOM     55  C   UNL A   1      43.815  26.479  30.385  1.00  0.00     0.029 A 
ATOM     56  N   UNL A   1      42.323  27.766  31.418  1.00  0.00    -0.354 N 
ATOM     57  N   UNL A   1      41.323  29.406  33.632  1.00  0.00    -0.248 NA
ATOM     58  C   UNL A   1      41.453  30.120  35.852  1.00  0.00     0.031 C 
ATOM     59  C   UNL A   1      44.249  26.691  31.697  1.00  0.00     0.029 A 
ATOM     60  C   UNL A   1      43.323  27.497  32.338  1.00  0.00     0.049 A 
ATOM     61  H   UNL A   1      41.530  28.322  31.590  1.00  0.00     0.167 HD
ATOM     62  C   UNL A   1      42.440  28.838  34.227  1.00  0.00     0.074 A 
ATOM     63  C   UNL A   1      42.485  29.329  35.589  1.00  0.00     0.031 C 
ATOM     64  C   UNL A   1      43.339  27.977  33.694  1.00  0.00     0.037 A 
BRANCH  51  65
ATOM     65  C   UNL A   1      42.205  26.403  27.847  1.00  0.00     0.064 A 
ATOM     66  C   UNL A   1      43.156  26.906  26.948  1.00  0.00     0.173 A 
ATOM     67  C   UNL A   1      41.715  25.106  27.633  1.00  0.00     0.173 A 
ATOM     68  F   UNL A   1      43.643  28.146  27.105  1.00  0.00    -0.203 F 
ATOM     69  C   UNL A   1      43.597  26.140  25.872  1.00  0.00     0.198 A 
ATOM     70  C   UNL A   1      42.173  24.336  26.567  1.00  0.00     0.198 A 
ATOM     71  F   UNL A   1      40.807  24.580  28.469  1.00  0.00    -0.203 F 
ATOM     72  F   UNL A   1      44.490  26.647  25.012  1.00  0.00    -0.200 F 
ATOM     73  C   UNL A   1      43.110  24.853  25.687  1.00  0.00     0.200 A 
ATOM     74  F   UNL A   1      41.708  23.091  26.393  1.00  0.00    -0.200 F 
ATOM     75  F   UNL A   1      43.546  24.113  24.658  1.00  0.00    -0.200 F 
ENDBRANCH  51  65
BRANCH  52  76
ATOM     76  C   UNL A   1      39.083  31.827  35.604  1.00  0.00     0.064 A 
ATOM     77  C   UNL A   1      39.497  33.164  35.666  1.00  0.00     0.173 A 
ATOM     78  C   UNL A   1      38.233  31.354  36.614  1.00  0.00     0.173 A 
ATOM     79  F   UNL A   1      40.323  33.653  34.730  1.00  0.00    -0.203 F 
ATOM     80  C   UNL A   1      39.074  33.997  36.698  1.00  0.00     0.198 A 
ATOM     81  C   UNL A   1      37.794  32.194  37.633  1.00  0.00     0.198 A 
ATOM     82  F   UNL A   1      37.811  30.082  36.593  1.00  0.00    -0.203 F 
ATOM     83  F   UNL A   1      39.498  35.268  36.747  1.00  0.00    -0.200 F 
ATOM     84  C   UNL A   1      38.217  33.514  37.676  1.00  0.00     0.200 A 
ATOM     85  F   UNL A   1      36.956  31.727  38.568  1.00  0.00    -0.200 F 
ATOM     86  F   UNL A   1      37.799  34.321  38.661  1.00  0.00    -0.200 F 
ENDBRANCH  52  76
BRANCH  64  87
ATOM     87  C   UNL A   1      44.432  27.484  34.589  1.00  0.00     0.064 A 
ATOM     88  C   UNL A   1      44.303  26.270  35.277  1.00  0.00     0.173 A 
ATOM     89  C   UNL A   1      45.640  28.187  34.703  1.00  0.00     0.173 A 
ATOM     90  F   UNL A   1      43.159  25.573  35.207  1.00  0.00    -0.203 F 
ATOM     91  C   UNL A   1      45.347  25.778  36.055  1.00  0.00     0.198 A 
ATOM     92  C   UNL A   1      46.688  27.682  35.467  1.00  0.00     0.198 A 
ATOM     93  F   UNL A   1      45.808  29.350  34.057  1.00  0.00    -0.203 F 
ATOM     94  F   UNL A   1      45.197  24.624  36.721  1.00  0.00    -0.200 F 
ATOM     95  C   UNL A   1      46.540  26.479  36.143  1.00  0.00     0.200 A 
ATOM     96  F   UNL A   1      47.844  28.356  35.545  1.00  0.00    -0.200 F 
ATOM     97  F   UNL A   1      47.548  25.996  36.881  1.00  0.00    -0.200 F 
ENDBRANCH  64  87
ENDBRANCH  38  39
ENDBRANCH  30  33
ENDBRANCH  28  29
ENDBRANCH  27  28
ENDBRANCH   1  27
TORSDOF 15
ENDMDL
MODEL 3
REMARK VINA RESULT:     -12.8      4.995     10.358
REMARK SMILES CC(C)CCc1cc2c(cc1Cl)C=C(C(=O)NCCCCNC(=O)c1ccc(-c3c4nc(c(-c5c(F)c(F)c(F)c(F)c5F)c5ccc([nH]5)c(-c5c(F)c(F)c(F)c(F)c5F)c5nc(c(-c6c(F)c(F)c(F)c(F)c6F)c6ccc3[nH]6)C=C5)C=C4)cc1)[C@H](C(F)(F)F)O2
REMARK SMILES IDX 19 1 18 2 17 3 15 4 16 5 14 7 6 8 7 9 11 10 8 11 10 12 12 13
REMARK SMILES IDX 9 14 93 15 13 16 88 17 5 18 4 19 2 20 1 21 3 22 89 23 90 24
REMARK SMILES IDX 91 25 92 26 20 27 21 28 22 29 23 30 24 32 25 33 26 34 87 35
REMARK SMILES IDX 27 36 86 37 28 38 29 39 30 40 80 41 31 42 85 43 79 44 81 45
REMARK SMILES IDX 32 46 84 47 78 48 77 49 33 51 65 52 45 53 64 54 46 55 49 56
REMARK SMILES IDX 63 57 82 58 47 59 48 60 62 62 83 63 50 64 34 65 35 66 43 67
REMARK SMILES IDX 36 68 37 69 41 70 44 71 38 72 39 73 42 74 40 75 66 76 67 77
REMARK SMILES IDX 75 78 68 79 69 80 73 81 76 82 70 83 71 84 74 85 72 86 51 87
REMARK SMILES IDX 52 88 60 89 53 90 54 91 58 92 61 93 55 94 56 95 59 96 57 97
REMARK H PARENT 17 6 22 31 81 50 49 61
REMARK Flexibility Score: inf
ROOT
ATOM      1  C   UNL A   1      34.738  21.273  25.261  1.00  0.00     0.023 C 
ENDROOT
BRANCH   1   2
ATOM      2  C   UNL A   1      34.021  22.319  26.114  1.00  0.00     0.116 C 
BRANCH   2   3
ATOM      3  N   UNL A   1      32.610  22.018  26.268  1.00  0.00    -0.352 N 
ATOM      4  C   UNL A   1      31.442  22.498  25.780  1.00  0.00     0.251 C 
ATOM      5  O   UNL A   1      30.439  21.861  26.122  1.00  0.00    -0.270 OA
ATOM      6  H   UNL A   1      32.463  21.269  26.889  1.00  0.00     0.163 HD
BRANCH   4   7
ATOM      7  C   UNL A   1      31.288  23.695  24.902  1.00  0.00     0.067 C 
ATOM      8  C   UNL A   1      30.885  28.440  23.205  1.00  0.00    -0.026 A 
ATOM      9  C   UNL A   1      30.735  27.167  22.628  1.00  0.00     0.052 A 
ATOM     10  C   UNL A   1      31.171  28.515  24.580  1.00  0.00     0.045 A 
ATOM     11  C   UNL A   1      30.858  26.015  23.400  1.00  0.00     0.128 A 
ATOM     12  C   UNL A   1      31.269  27.352  25.355  1.00  0.00     0.032 A 
ATOM     13  Cl  UNL A   1      31.419  30.018  25.394  1.00  0.00    -0.084 Cl
ATOM     14  C   UNL A   1      31.107  26.098  24.767  1.00  0.00     0.019 A 
ATOM     15  O   UNL A   1      30.689  24.818  22.763  1.00  0.00    -0.475 OA
ATOM     16  C   UNL A   1      31.173  24.870  25.551  1.00  0.00     0.025 C 
ATOM     17  C   UNL A   1      31.359  23.688  23.397  1.00  0.00     0.314 C 
BRANCH   8  18
ATOM     18  C   UNL A   1      30.721  29.653  22.313  1.00  0.00     0.037 C 
BRANCH  18  19
ATOM     19  C   UNL A   1      29.254  29.999  22.005  1.00  0.00     0.008 C 
BRANCH  19  20
ATOM     20  C   UNL A   1      28.328  30.058  23.236  1.00  0.00    -0.017 C 
ATOM     21  C   UNL A   1      27.671  31.430  23.392  1.00  0.00     0.007 C 
ATOM     22  C   UNL A   1      27.246  28.980  23.126  1.00  0.00     0.007 C 
ENDBRANCH  19  20
ENDBRANCH  18  19
ENDBRANCH   8  18
BRANCH  17  23
ATOM     23  C   UNL A   1      32.788  23.543  22.845  1.00  0.00     0.429 C 
ATOM     24  F   UNL A   1      33.716  24.165  23.605  1.00  0.00    -0.167 F 
ATOM     25  F   UNL A   1      33.175  22.251  22.737  1.00  0.00    -0.167 F 
ATOM     26  F   UNL A   1      32.864  24.082  21.601  1.00  0.00    -0.167 F 
ENDBRANCH  17  23
ENDBRANCH   4   7
ENDBRANCH   2   3
ENDBRANCH   1   2
BRANCH   1  27
ATOM     27  C   UNL A   1      36.005  21.766  24.559  1.00  0.00     0.023 C 
BRANCH  27  28
ATOM     28  C   UNL A   1      37.168  22.101  25.486  1.00  0.00     0.116 C 
BRANCH  28  29
ATOM     29  N   UNL A   1      38.215  21.089  25.527  1.00  0.00    -0.352 N 
ATOM     30  C   UNL A   1      39.448  21.181  26.135  1.00  0.00     0.251 C 
ATOM     31  H   UNL A   1      38.019  20.241  25.066  1.00  0.00     0.163 HD
ATOM     32  O   UNL A   1      40.272  20.279  26.036  1.00  0.00    -0.269 OA
BRANCH  30  33
ATOM     33  C   UNL A   1      39.785  22.428  26.850  1.00  0.00     0.039 A 
ATOM     34  C   UNL A   1      39.202  23.634  26.462  1.00  0.00     0.014 A 
ATOM     35  C   UNL A   1      40.792  22.403  27.819  1.00  0.00     0.014 A 
ATOM     36  C   UNL A   1      39.771  24.828  26.884  1.00  0.00     0.010 A 
ATOM     37  C   UNL A   1      41.304  23.607  28.309  1.00  0.00     0.010 A 
ATOM     38  C   UNL A   1      40.849  24.828  27.786  1.00  0.00    -0.014 A 
BRANCH  38  39
ATOM     39  C   UNL A   1      41.523  26.114  28.096  1.00  0.00     0.031 A 
ATOM     40  C   UNL A   1      42.879  26.426  27.517  1.00  0.00     0.074 A 
ATOM     41  C   UNL A   1      40.860  27.051  28.801  1.00  0.00     0.049 A 
ATOM     42  N   UNL A   1      43.577  27.532  27.600  1.00  0.00    -0.248 NA
ATOM     43  C   UNL A   1      43.542  25.362  26.745  1.00  0.00     0.031 C 
ATOM     44  C   UNL A   1      39.534  26.872  29.392  1.00  0.00     0.029 A 
ATOM     45  N   UNL A   1      41.186  28.350  29.094  1.00  0.00    -0.354 N 
ATOM     46  C   UNL A   1      44.761  27.289  26.917  1.00  0.00     0.074 A 
ATOM     47  C   UNL A   1      44.703  25.925  26.439  1.00  0.00     0.031 C 
ATOM     48  C   UNL A   1      39.123  28.042  29.904  1.00  0.00     0.029 A 
ATOM     49  C   UNL A   1      40.178  29.035  29.727  1.00  0.00     0.049 A 
ATOM     50  H   UNL A   1      42.057  28.752  28.872  1.00  0.00     0.167 HD
ATOM     51  C   UNL A   1      45.796  28.132  26.694  1.00  0.00     0.037 A 
ATOM     52  C   UNL A   1      40.110  30.322  30.116  1.00  0.00     0.037 A 
ATOM     53  C   UNL A   1      45.834  29.504  27.120  1.00  0.00     0.049 A 
ATOM     54  C   UNL A   1      41.284  31.225  29.883  1.00  0.00     0.074 A 
ATOM     55  C   UNL A   1      46.820  30.450  26.897  1.00  0.00     0.029 A 
ATOM     56  N   UNL A   1      44.837  30.130  27.852  1.00  0.00    -0.354 N 
ATOM     57  N   UNL A   1      42.399  30.979  29.240  1.00  0.00    -0.248 NA
ATOM     58  C   UNL A   1      41.203  32.577  30.453  1.00  0.00     0.031 C 
ATOM     59  C   UNL A   1      46.433  31.641  27.520  1.00  0.00     0.029 A 
ATOM     60  C   UNL A   1      45.196  31.443  28.109  1.00  0.00     0.049 A 
ATOM     61  H   UNL A   1      43.999  29.704  28.145  1.00  0.00     0.167 HD
ATOM     62  C   UNL A   1      43.157  32.137  29.336  1.00  0.00     0.074 A 
ATOM     63  C   UNL A   1      42.363  33.098  30.074  1.00  0.00     0.031 C 
ATOM     64  C   UNL A   1      44.403  32.376  28.863  1.00  0.00     0.037 A 
BRANCH  51  65
ATOM     65  C   UNL A   1      46.984  27.602  25.950  1.00  0.00     0.064 A 
ATOM     66  C   UNL A   1      47.079  27.700  24.554  1.00  0.00     0.173 A 
ATOM     67  C   UNL A   1      48.070  27.054  26.648  1.00  0.00     0.173 A 
ATOM     68  F   UNL A   1      46.060  28.206  23.843  1.00  0.00    -0.203 F 
ATOM     69  C   UNL A   1      48.217  27.261  23.883  1.00  0.00     0.198 A 
ATOM     70  C   UNL A   1      49.214  26.633  25.975  1.00  0.00     0.198 A 
ATOM     71  F   UNL A   1      48.028  26.942  27.984  1.00  0.00    -0.203 F 
ATOM     72  F   UNL A   1      48.279  27.345  22.547  1.00  0.00    -0.200 F 
ATOM     73  C   UNL A   1      49.286  26.735  24.595  1.00  0.00     0.200 A 
ATOM     74  F   UNL A   1      50.249  26.132  26.664  1.00  0.00    -0.200 F 
ATOM     75  F   UNL A   1      50.386  26.325  23.947  1.00  0.00    -0.200 F 
ENDBRANCH  51  65
BRANCH  52  76
ATOM     76  C   UNL A   1      38.872  30.826  30.759  1.00  0.00     0.064 A 
ATOM     77  C   UNL A   1      37.814  31.318  29.983  1.00  0.00     0.173 A 
ATOM     78  C   UNL A   1      38.706  30.790  32.151  1.00  0.00     0.173 A 
ATOM     79  F   UNL A   1      37.936  31.386  28.650  1.00  0.00    -0.203 F 
ATOM     80  C   UNL A   1      36.633  31.755  30.578  1.00  0.00     0.198 A 
ATOM     81  C   UNL A   1      37.517  31.208  32.742  1.00  0.00     0.198 A 
ATOM     82  F   UNL A   1      39.692  30.326  32.931  1.00  0.00    -0.203 F 
ATOM     83  F   UNL A   1      35.641  32.239  29.818  1.00  0.00    -0.200 F 
ATOM     84  C   UNL A   1      36.482  31.692  31.956  1.00  0.00     0.200 A 
ATOM     85  F   UNL A   1      37.371  31.133  34.072  1.00  0.00    -0.200 F 
ATOM     86  F   UNL A   1      35.340  32.100  32.526  1.00  0.00    -0.200 F 
ENDBRANCH  52  76
BRANCH  64  87
ATOM     87  C   UNL A   1      45.002  33.716  29.154  1.00  0.00     0.064 A 
ATOM     88  C   UNL A   1      44.773  34.804  28.300  1.00  0.00     0.173 A 
ATOM     89  C   UNL A   1      45.744  33.934  30.323  1.00  0.00     0.173 A 
ATOM     90  F   UNL A   1      44.080  34.636  27.164  1.00  0.00    -0.203 F 
ATOM     91  C   UNL A   1      45.272  36.067  28.606  1.00  0.00     0.198 A 
ATOM     92  C   UNL A   1      46.226  35.202  30.634  1.00  0.00     0.198 A 
ATOM     93  F   UNL A   1      45.983  32.922  31.170  1.00  0.00    -0.203 F 
ATOM     94  F   UNL A   1      45.059  37.091  27.767  1.00  0.00    -0.200 F 
ATOM     95  C   UNL A   1      45.991  36.266  29.775  1.00  0.00     0.200 A 
ATOM     96  F   UNL A   1      46.914  35.396  31.768  1.00  0.00    -0.200 F 
ATOM     97  F   UNL A   1      46.460  37.485  30.074  1.00  0.00    -0.200 F 
ENDBRANCH  64  87
ENDBRANCH  38  39
ENDBRANCH  30  33
ENDBRANCH  28  29
ENDBRANCH  27  28
ENDBRANCH   1  27
TORSDOF 15
ENDMDL
