MODEL 1
REMARK VINA RESULT:     -11.4      0.000      0.000
REMARK SMILES CC[C@@H]1CCCN1C(=O)N(CC(=O)NCCCCNC(=O)c1ccc(-c2c3nc(c(-c4c(F)c(F)c(F)c(F)c4F)c4ccc([nH]4)c(-c4c(F)c(F)c(F)c(F)c4F)c4nc(c(-c5c(F)c(F)c(F)c(F)c5F)c5ccc2[nH]5)C=C4)C=C3)cc1)CC(F)(F)F
REMARK SMILES IDX 15 1 14 2 12 3 13 4 11 6 10 7 8 8 9 9 7 10 3 11 4 12 5 13
REMARK SMILES IDX 6 14 2 15 1 16 85 17 86 18 87 19 88 20 89 21 16 22 17 23
REMARK SMILES IDX 18 24 19 25 20 26 21 28 22 29 23 30 84 31 24 32 83 33 25 34
REMARK SMILES IDX 26 35 27 36 77 37 28 38 82 39 76 40 78 41 29 42 81 43 75 44
REMARK SMILES IDX 74 45 30 47 62 48 42 49 61 50 43 51 46 52 60 53 79 54 44 55
REMARK SMILES IDX 45 56 59 58 80 59 47 60 31 61 32 62 40 63 33 64 34 65 38 66
REMARK SMILES IDX 41 67 35 68 36 69 39 70 37 71 63 72 64 73 72 74 65 75 66 76
REMARK SMILES IDX 70 77 73 78 67 79 68 80 71 81 69 82 48 83 49 84 57 85 50 86
REMARK SMILES IDX 51 87 55 88 58 89 52 90 53 91 56 92 54 93
REMARK H PARENT 14 5 19 27 78 46 46 57
REMARK Flexibility Score: inf
ROOT
ATOM      1  C   UNL A   1      33.224  30.160  26.598  1.00  0.00     0.116 C 
ENDROOT
BRANCH   1   2
ATOM      2  N   UNL A   1      33.692  29.189  25.639  1.00  0.00    -0.355 N 
ATOM      3  C   UNL A   1      33.508  27.844  25.585  1.00  0.00     0.239 C 
ATOM      4  O   UNL A   1      34.012  27.251  24.626  1.00  0.00    -0.273 OA
ATOM      5  H   UNL A   1      34.233  29.561  24.904  1.00  0.00     0.163 HD
BRANCH   3   6
ATOM      6  C   UNL A   1      32.536  27.102  26.515  1.00  0.00     0.221 C 
BRANCH   6   7
ATOM      7  N   UNL A   1      31.774  25.928  26.128  1.00  0.00    -0.306 N 
BRANCH   7   8
ATOM      8  C   UNL A   1      31.996  24.596  26.359  1.00  0.00     0.321 C 
ATOM      9  O   UNL A   1      31.307  24.077  27.253  1.00  0.00    -0.248 OA
BRANCH   8  10
ATOM     10  N   UNL A   1      32.833  23.771  25.634  1.00  0.00    -0.322 N 
ATOM     11  C   UNL A   1      34.284  23.419  25.486  1.00  0.00     0.086 C 
ATOM     12  C   UNL A   1      34.280  22.704  24.117  1.00  0.00     0.027 C 
ATOM     13  C   UNL A   1      33.051  21.837  24.182  1.00  0.00     0.024 C 
ATOM     14  C   UNL A   1      32.074  22.689  24.969  1.00  0.00     0.122 C 
BRANCH  11  15
ATOM     15  C   UNL A   1      35.469  24.389  25.453  1.00  0.00     0.022 C 
ATOM     16  C   UNL A   1      36.819  23.676  25.541  1.00  0.00     0.006 C 
ENDBRANCH  11  15
ENDBRANCH   8  10
ENDBRANCH   7   8
BRANCH   7  17
ATOM     17  C   UNL A   1      30.587  26.247  25.278  1.00  0.00     0.237 C 
BRANCH  17  18
ATOM     18  C   UNL A   1      30.677  25.896  23.788  1.00  0.00     0.406 C 
ATOM     19  F   UNL A   1      30.163  26.844  22.980  1.00  0.00    -0.169 F 
ATOM     20  F   UNL A   1      31.971  25.718  23.427  1.00  0.00    -0.169 F 
ATOM     21  F   UNL A   1      30.037  24.732  23.523  1.00  0.00    -0.169 F 
ENDBRANCH  17  18
ENDBRANCH   7  17
ENDBRANCH   6   7
ENDBRANCH   3   6
ENDBRANCH   1   2
BRANCH   1  22
ATOM     22  C   UNL A   1      31.842  30.687  26.241  1.00  0.00     0.023 C 
BRANCH  22  23
ATOM     23  C   UNL A   1      31.495  32.006  26.926  1.00  0.00     0.023 C 
BRANCH  23  24
ATOM     24  C   UNL A   1      32.707  32.785  27.413  1.00  0.00     0.116 C 
BRANCH  24  25
ATOM     25  N   UNL A   1      32.410  34.192  27.637  1.00  0.00    -0.352 N 
ATOM     26  C   UNL A   1      32.966  35.039  28.566  1.00  0.00     0.251 C 
ATOM     27  H   UNL A   1      31.725  34.586  27.050  1.00  0.00     0.163 HD
ATOM     28  O   UNL A   1      32.510  36.154  28.760  1.00  0.00    -0.269 OA
BRANCH  26  29
ATOM     29  C   UNL A   1      34.119  34.553  29.345  1.00  0.00     0.039 A 
ATOM     30  C   UNL A   1      33.905  34.018  30.615  1.00  0.00     0.014 A 
ATOM     31  C   UNL A   1      35.396  34.565  28.776  1.00  0.00     0.014 A 
ATOM     32  C   UNL A   1      34.972  33.437  31.298  1.00  0.00     0.010 A 
ATOM     33  C   UNL A   1      36.437  33.914  29.424  1.00  0.00     0.010 A 
ATOM     34  C   UNL A   1      36.237  33.352  30.693  1.00  0.00    -0.014 A 
BRANCH  34  35
ATOM     35  C   UNL A   1      37.376  32.695  31.378  1.00  0.00     0.031 A 
ATOM     36  C   UNL A   1      38.064  31.530  30.724  1.00  0.00     0.074 A 
ATOM     37  C   UNL A   1      37.739  33.097  32.611  1.00  0.00     0.049 A 
ATOM     38  N   UNL A   1      39.022  30.768  31.185  1.00  0.00    -0.248 NA
ATOM     39  C   UNL A   1      37.588  31.151  29.383  1.00  0.00     0.031 C 
ATOM     40  C   UNL A   1      37.108  34.180  33.368  1.00  0.00     0.029 A 
ATOM     41  N   UNL A   1      38.720  32.633  33.450  1.00  0.00    -0.354 N 
ATOM     42  C   UNL A   1      39.248  29.813  30.202  1.00  0.00     0.074 A 
ATOM     43  C   UNL A   1      38.288  30.053  29.148  1.00  0.00     0.031 C 
ATOM     44  C   UNL A   1      37.733  34.312  34.549  1.00  0.00     0.029 A 
ATOM     45  C   UNL A   1      38.782  33.302  34.648  1.00  0.00     0.049 A 
ATOM     46  H   UNL A   1      39.323  31.890  33.215  1.00  0.00     0.167 HD
ATOM     47  C   UNL A   1      40.190  28.842  30.172  1.00  0.00     0.037 A 
ATOM     48  C   UNL A   1      39.592  33.114  35.707  1.00  0.00     0.037 A 
ATOM     49  C   UNL A   1      41.161  28.630  31.212  1.00  0.00     0.049 A 
ATOM     50  C   UNL A   1      40.634  32.028  35.646  1.00  0.00     0.074 A 
ATOM     51  C   UNL A   1      42.200  27.718  31.249  1.00  0.00     0.029 A 
ATOM     52  N   UNL A   1      41.211  29.345  32.400  1.00  0.00    -0.354 N 
ATOM     53  N   UNL A   1      40.888  31.179  34.681  1.00  0.00    -0.248 NA
ATOM     54  C   UNL A   1      41.505  31.882  36.819  1.00  0.00     0.031 C 
ATOM     55  C   UNL A   1      42.850  27.849  32.482  1.00  0.00     0.029 A 
ATOM     56  C   UNL A   1      42.249  28.878  33.189  1.00  0.00     0.049 A 
ATOM     57  H   UNL A   1      40.598  30.075  32.647  1.00  0.00     0.167 HD
ATOM     58  C   UNL A   1      41.965  30.417  35.115  1.00  0.00     0.074 A 
ATOM     59  C   UNL A   1      42.325  30.917  36.426  1.00  0.00     0.031 C 
ATOM     60  C   UNL A   1      42.598  29.397  34.487  1.00  0.00     0.037 A 
BRANCH  47  61
ATOM     61  C   UNL A   1      40.217  27.940  28.973  1.00  0.00     0.064 A 
ATOM     62  C   UNL A   1      40.940  28.271  27.817  1.00  0.00     0.173 A 
ATOM     63  C   UNL A   1      39.535  26.713  28.988  1.00  0.00     0.173 A 
ATOM     64  F   UNL A   1      41.599  29.438  27.745  1.00  0.00    -0.203 F 
ATOM     65  C   UNL A   1      40.953  27.426  26.711  1.00  0.00     0.198 A 
ATOM     66  C   UNL A   1      39.577  25.855  27.892  1.00  0.00     0.198 A 
ATOM     67  F   UNL A   1      38.831  26.344  30.069  1.00  0.00    -0.203 F 
ATOM     68  F   UNL A   1      41.607  27.791  25.599  1.00  0.00    -0.200 F 
ATOM     69  C   UNL A   1      40.278  26.216  26.752  1.00  0.00     0.200 A 
ATOM     70  F   UNL A   1      38.934  24.680  27.939  1.00  0.00    -0.200 F 
ATOM     71  F   UNL A   1      40.298  25.401  25.690  1.00  0.00    -0.200 F 
ENDBRANCH  47  61
BRANCH  48  72
ATOM     72  C   UNL A   1      39.471  33.990  36.901  1.00  0.00     0.064 A 
ATOM     73  C   UNL A   1      40.110  35.236  36.946  1.00  0.00     0.173 A 
ATOM     74  C   UNL A   1      38.721  33.601  38.021  1.00  0.00     0.173 A 
ATOM     75  F   UNL A   1      40.854  35.644  35.908  1.00  0.00    -0.203 F 
ATOM     76  C   UNL A   1      40.022  36.051  38.074  1.00  0.00     0.198 A 
ATOM     77  C   UNL A   1      38.611  34.429  39.136  1.00  0.00     0.198 A 
ATOM     78  F   UNL A   1      38.085  32.420  38.027  1.00  0.00    -0.203 F 
ATOM     79  F   UNL A   1      40.684  37.216  38.108  1.00  0.00    -0.200 F 
ATOM     80  C   UNL A   1      39.269  35.649  39.166  1.00  0.00     0.200 A 
ATOM     81  F   UNL A   1      37.870  34.042  40.184  1.00  0.00    -0.200 F 
ATOM     82  F   UNL A   1      39.183  36.434  40.248  1.00  0.00    -0.200 F 
ENDBRANCH  48  72
BRANCH  60  83
ATOM     83  C   UNL A   1      43.769  28.776  35.191  1.00  0.00     0.064 A 
ATOM     84  C   UNL A   1      45.070  29.273  35.035  1.00  0.00     0.173 A 
ATOM     85  C   UNL A   1      43.576  27.700  36.072  1.00  0.00     0.173 A 
ATOM     86  F   UNL A   1      45.308  30.291  34.193  1.00  0.00    -0.203 F 
ATOM     87  C   UNL A   1      46.142  28.700  35.714  1.00  0.00     0.198 A 
ATOM     88  C   UNL A   1      44.645  27.149  36.773  1.00  0.00     0.198 A 
ATOM     89  F   UNL A   1      42.349  27.193  36.262  1.00  0.00    -0.203 F 
ATOM     90  F   UNL A   1      47.383  29.159  35.514  1.00  0.00    -0.200 F 
ATOM     91  C   UNL A   1      45.926  27.644  36.589  1.00  0.00     0.200 A 
ATOM     92  F   UNL A   1      44.432  26.140  37.629  1.00  0.00    -0.200 F 
ATOM     93  F   UNL A   1      46.957  27.099  37.250  1.00  0.00    -0.200 F 
ENDBRANCH  60  83
ENDBRANCH  34  35
ENDBRANCH  26  29
ENDBRANCH  24  25
ENDBRANCH  23  24
ENDBRANCH  22  23
ENDBRANCH   1  22
TORSDOF 17
ENDMDL
MODEL 2
REMARK VINA RESULT:     -11.3      5.682     11.085
REMARK SMILES CC[C@@H]1CCCN1C(=O)N(CC(=O)NCCCCNC(=O)c1ccc(-c2c3nc(c(-c4c(F)c(F)c(F)c(F)c4F)c4ccc([nH]4)c(-c4c(F)c(F)c(F)c(F)c4F)c4nc(c(-c5c(F)c(F)c(F)c(F)c5F)c5ccc2[nH]5)C=C4)C=C3)cc1)CC(F)(F)F
REMARK SMILES IDX 15 1 14 2 12 3 13 4 11 6 10 7 8 8 9 9 7 10 3 11 4 12 5 13
REMARK SMILES IDX 6 14 2 15 1 16 85 17 86 18 87 19 88 20 89 21 16 22 17 23
REMARK SMILES IDX 18 24 19 25 20 26 21 28 22 29 23 30 84 31 24 32 83 33 25 34
REMARK SMILES IDX 26 35 27 36 77 37 28 38 82 39 76 40 78 41 29 42 81 43 75 44
REMARK SMILES IDX 74 45 30 47 62 48 42 49 61 50 43 51 46 52 60 53 79 54 44 55
REMARK SMILES IDX 45 56 59 58 80 59 47 60 31 61 32 62 40 63 33 64 34 65 38 66
REMARK SMILES IDX 41 67 35 68 36 69 39 70 37 71 63 72 64 73 72 74 65 75 66 76
REMARK SMILES IDX 70 77 73 78 67 79 68 80 71 81 69 82 48 83 49 84 57 85 50 86
REMARK SMILES IDX 51 87 55 88 58 89 52 90 53 91 56 92 54 93
REMARK H PARENT 14 5 19 27 78 46 46 57
REMARK Flexibility Score: inf
ROOT
ATOM      1  C   UNL A   1      37.379  22.310  25.596  1.00  0.00     0.116 C 
ENDROOT
BRANCH   1   2
ATOM      2  N   UNL A   1      36.672  23.452  25.070  1.00  0.00    -0.355 N 
ATOM      3  C   UNL A   1      35.414  23.900  25.319  1.00  0.00     0.239 C 
ATOM      4  O   UNL A   1      35.065  24.933  24.737  1.00  0.00    -0.273 OA
ATOM      5  H   UNL A   1      37.184  23.995  24.426  1.00  0.00     0.163 HD
BRANCH   3   6
ATOM      6  C   UNL A   1      34.531  23.317  26.432  1.00  0.00     0.221 C 
BRANCH   6   7
ATOM      7  N   UNL A   1      33.104  23.083  26.302  1.00  0.00    -0.306 N 
BRANCH   7   8
ATOM      8  C   UNL A   1      32.031  23.898  26.553  1.00  0.00     0.321 C 
ATOM      9  O   UNL A   1      31.366  23.626  27.566  1.00  0.00    -0.248 OA
BRANCH   8  10
ATOM     10  N   UNL A   1      31.687  25.034  25.847  1.00  0.00    -0.322 N 
ATOM     11  C   UNL A   1      32.165  26.431  25.578  1.00  0.00     0.086 C 
ATOM     12  C   UNL A   1      30.884  27.082  25.012  1.00  0.00     0.027 C 
ATOM     13  C   UNL A   1      30.337  26.025  24.090  1.00  0.00     0.024 C 
ATOM     14  C   UNL A   1      30.676  24.734  24.809  1.00  0.00     0.122 C 
BRANCH  11  15
ATOM     15  C   UNL A   1      32.730  27.424  26.598  1.00  0.00     0.022 C 
ATOM     16  C   UNL A   1      31.649  28.027  27.497  1.00  0.00     0.006 C 
ENDBRANCH  11  15
ENDBRANCH   8  10
ENDBRANCH   7   8
BRANCH   7  17
ATOM     17  C   UNL A   1      32.768  21.687  25.888  1.00  0.00     0.237 C 
BRANCH  17  18
ATOM     18  C   UNL A   1      33.001  21.315  24.420  1.00  0.00     0.406 C 
ATOM     19  F   UNL A   1      34.206  20.760  24.188  1.00  0.00    -0.169 F 
ATOM     20  F   UNL A   1      32.064  20.425  24.009  1.00  0.00    -0.169 F 
ATOM     21  F   UNL A   1      32.882  22.400  23.618  1.00  0.00    -0.169 F 
ENDBRANCH  17  18
ENDBRANCH   7  17
ENDBRANCH   6   7
ENDBRANCH   3   6
ENDBRANCH   1   2
BRANCH   1  22
ATOM     22  C   UNL A   1      37.396  21.152  24.610  1.00  0.00     0.023 C 
BRANCH  22  23
ATOM     23  C   UNL A   1      38.169  19.933  25.110  1.00  0.00     0.023 C 
BRANCH  23  24
ATOM     24  C   UNL A   1      39.430  20.280  25.886  1.00  0.00     0.116 C 
BRANCH  24  25
ATOM     25  N   UNL A   1      40.351  19.157  25.979  1.00  0.00    -0.352 N 
ATOM     26  C   UNL A   1      41.715  19.191  26.144  1.00  0.00     0.251 C 
ATOM     27  H   UNL A   1      39.946  18.262  25.914  1.00  0.00     0.163 HD
ATOM     28  O   UNL A   1      42.391  18.179  26.041  1.00  0.00    -0.269 OA
BRANCH  26  29
ATOM     29  C   UNL A   1      42.348  20.491  26.427  1.00  0.00     0.039 A 
ATOM     30  C   UNL A   1      42.852  21.246  25.368  1.00  0.00     0.014 A 
ATOM     31  C   UNL A   1      42.368  20.984  27.735  1.00  0.00     0.014 A 
ATOM     32  C   UNL A   1      43.330  22.532  25.616  1.00  0.00     0.010 A 
ATOM     33  C   UNL A   1      42.768  22.293  27.965  1.00  0.00     0.010 A 
ATOM     34  C   UNL A   1      43.260  23.076  26.910  1.00  0.00    -0.014 A 
BRANCH  34  35
ATOM     35  C   UNL A   1      43.715  24.459  27.190  1.00  0.00     0.031 A 
ATOM     36  C   UNL A   1      42.734  25.473  27.708  1.00  0.00     0.074 A 
ATOM     37  C   UNL A   1      44.983  24.817  26.910  1.00  0.00     0.049 A 
ATOM     38  N   UNL A   1      42.906  26.749  27.940  1.00  0.00    -0.248 NA
ATOM     39  C   UNL A   1      41.366  24.994  27.968  1.00  0.00     0.031 C 
ATOM     40  C   UNL A   1      46.008  23.933  26.353  1.00  0.00     0.029 A 
ATOM     41  N   UNL A   1      45.621  26.023  27.046  1.00  0.00    -0.354 N 
ATOM     42  C   UNL A   1      41.668  27.224  28.354  1.00  0.00     0.074 A 
ATOM     43  C   UNL A   1      40.741  26.118  28.283  1.00  0.00     0.031 C 
ATOM     44  C   UNL A   1      47.153  24.621  26.217  1.00  0.00     0.029 A 
ATOM     45  C   UNL A   1      46.934  26.000  26.641  1.00  0.00     0.049 A 
ATOM     46  H   UNL A   1      45.180  26.829  27.400  1.00  0.00     0.167 HD
ATOM     47  C   UNL A   1      41.343  28.467  28.780  1.00  0.00     0.037 A 
ATOM     48  C   UNL A   1      47.851  26.986  26.612  1.00  0.00     0.037 A 
ATOM     49  C   UNL A   1      42.281  29.555  28.878  1.00  0.00     0.049 A 
ATOM     50  C   UNL A   1      47.464  28.358  27.095  1.00  0.00     0.074 A 
ATOM     51  C   UNL A   1      42.070  30.834  29.360  1.00  0.00     0.029 A 
ATOM     52  N   UNL A   1      43.609  29.488  28.483  1.00  0.00    -0.354 N 
ATOM     53  N   UNL A   1      46.311  28.780  27.555  1.00  0.00    -0.248 NA
ATOM     54  C   UNL A   1      48.510  29.389  27.062  1.00  0.00     0.031 C 
ATOM     55  C   UNL A   1      43.259  31.556  29.214  1.00  0.00     0.029 A 
ATOM     56  C   UNL A   1      44.225  30.711  28.690  1.00  0.00     0.049 A 
ATOM     57  H   UNL A   1      44.048  28.689  28.111  1.00  0.00     0.167 HD
ATOM     58  C   UNL A   1      46.498  30.113  27.893  1.00  0.00     0.074 A 
ATOM     59  C   UNL A   1      47.882  30.426  27.599  1.00  0.00     0.031 C 
ATOM     60  C   UNL A   1      45.607  30.999  28.400  1.00  0.00     0.037 A 
BRANCH  47  61
ATOM     61  C   UNL A   1      39.918  28.713  29.180  1.00  0.00     0.064 A 
ATOM     62  C   UNL A   1      38.966  29.183  28.262  1.00  0.00     0.173 A 
ATOM     63  C   UNL A   1      39.489  28.447  30.489  1.00  0.00     0.173 A 
ATOM     64  F   UNL A   1      39.327  29.466  27.001  1.00  0.00    -0.203 F 
ATOM     65  C   UNL A   1      37.648  29.410  28.647  1.00  0.00     0.198 A 
ATOM     66  C   UNL A   1      38.161  28.644  30.862  1.00  0.00     0.198 A 
ATOM     67  F   UNL A   1      40.355  27.992  31.406  1.00  0.00    -0.203 F 
ATOM     68  F   UNL A   1      36.770  29.912  27.766  1.00  0.00    -0.200 F 
ATOM     69  C   UNL A   1      37.245  29.134  29.945  1.00  0.00     0.200 A 
ATOM     70  F   UNL A   1      37.771  28.363  32.114  1.00  0.00    -0.200 F 
ATOM     71  F   UNL A   1      35.974  29.345  30.312  1.00  0.00    -0.200 F 
ENDBRANCH  47  61
BRANCH  48  72
ATOM     72  C   UNL A   1      49.230  26.704  26.134  1.00  0.00     0.064 A 
ATOM     73  C   UNL A   1      49.594  26.950  24.804  1.00  0.00     0.173 A 
ATOM     74  C   UNL A   1      50.208  26.180  26.992  1.00  0.00     0.173 A 
ATOM     75  F   UNL A   1      48.688  27.433  23.941  1.00  0.00    -0.203 F 
ATOM     76  C   UNL A   1      50.877  26.662  24.343  1.00  0.00     0.198 A 
ATOM     77  C   UNL A   1      51.499  25.919  26.537  1.00  0.00     0.198 A 
ATOM     78  F   UNL A   1      49.913  25.930  28.276  1.00  0.00    -0.203 F 
ATOM     79  F   UNL A   1      51.183  26.863  23.053  1.00  0.00    -0.200 F 
ATOM     80  C   UNL A   1      51.830  26.152  25.210  1.00  0.00     0.200 A 
ATOM     81  F   UNL A   1      52.421  25.438  27.382  1.00  0.00    -0.200 F 
ATOM     82  F   UNL A   1      53.064  25.878  24.767  1.00  0.00    -0.200 F 
ENDBRANCH  48  72
BRANCH  60  83
ATOM     83  C   UNL A   1      46.107  32.380  28.706  1.00  0.00     0.064 A 
ATOM     84  C   UNL A   1      46.681  32.698  29.945  1.00  0.00     0.173 A 
ATOM     85  C   UNL A   1      46.055  33.384  27.727  1.00  0.00     0.173 A 
ATOM     86  F   UNL A   1      46.741  31.776  30.918  1.00  0.00    -0.203 F 
ATOM     87  C   UNL A   1      47.161  33.979  30.203  1.00  0.00     0.198 A 
ATOM     88  C   UNL A   1      46.564  34.655  27.978  1.00  0.00     0.198 A 
ATOM     89  F   UNL A   1      45.522  33.129  26.523  1.00  0.00    -0.203 F 
ATOM     90  F   UNL A   1      47.663  34.275  31.409  1.00  0.00    -0.200 F 
ATOM     91  C   UNL A   1      47.110  34.953  29.216  1.00  0.00     0.200 A 
ATOM     92  F   UNL A   1      46.528  35.590  27.018  1.00  0.00    -0.200 F 
ATOM     93  F   UNL A   1      47.582  36.183  29.463  1.00  0.00    -0.200 F 
ENDBRANCH  60  83
ENDBRANCH  34  35
ENDBRANCH  26  29
ENDBRANCH  24  25
ENDBRANCH  23  24
ENDBRANCH  22  23
ENDBRANCH   1  22
TORSDOF 17
ENDMDL
MODEL 3
REMARK VINA RESULT:     -11.2      0.975      7.504
REMARK SMILES CC[C@@H]1CCCN1C(=O)N(CC(=O)NCCCCNC(=O)c1ccc(-c2c3nc(c(-c4c(F)c(F)c(F)c(F)c4F)c4ccc([nH]4)c(-c4c(F)c(F)c(F)c(F)c4F)c4nc(c(-c5c(F)c(F)c(F)c(F)c5F)c5ccc2[nH]5)C=C4)C=C3)cc1)CC(F)(F)F
REMARK SMILES IDX 15 1 14 2 12 3 13 4 11 6 10 7 8 8 9 9 7 10 3 11 4 12 5 13
REMARK SMILES IDX 6 14 2 15 1 16 85 17 86 18 87 19 88 20 89 21 16 22 17 23
REMARK SMILES IDX 18 24 19 25 20 26 21 28 22 29 23 30 84 31 24 32 83 33 25 34
REMARK SMILES IDX 26 35 27 36 77 37 28 38 82 39 76 40 78 41 29 42 81 43 75 44
REMARK SMILES IDX 74 45 30 47 62 48 42 49 61 50 43 51 46 52 60 53 79 54 44 55
REMARK SMILES IDX 45 56 59 58 80 59 47 60 31 61 32 62 40 63 33 64 34 65 38 66
REMARK SMILES IDX 41 67 35 68 36 69 39 70 37 71 63 72 64 73 72 74 65 75 66 76
REMARK SMILES IDX 70 77 73 78 67 79 68 80 71 81 69 82 48 83 49 84 57 85 50 86
REMARK SMILES IDX 51 87 55 88 58 89 52 90 53 91 56 92 54 93
REMARK H PARENT 14 5 19 27 78 46 46 57
REMARK Flexibility Score: inf
ROOT
ATOM      1  C   UNL A   1      33.016  30.053  26.345  1.00  0.00     0.116 C 
ENDROOT
BRANCH   1   2
ATOM      2  N   UNL A   1      33.262  30.011  24.924  1.00  0.00    -0.355 N 
ATOM      3  C   UNL A   1      33.360  28.953  24.078  1.00  0.00     0.239 C 
ATOM      4  O   UNL A   1      33.559  29.209  22.886  1.00  0.00    -0.273 OA
ATOM      5  H   UNL A   1      33.380  30.892  24.498  1.00  0.00     0.163 HD
BRANCH   3   6
ATOM      6  C   UNL A   1      33.012  27.518  24.501  1.00  0.00     0.221 C 
BRANCH   6   7
ATOM      7  N   UNL A   1      31.782  27.142  25.175  1.00  0.00    -0.306 N 
BRANCH   7   8
ATOM      8  C   UNL A   1      31.560  26.330  26.257  1.00  0.00     0.321 C 
ATOM      9  O   UNL A   1      31.127  26.890  27.277  1.00  0.00    -0.248 OA
BRANCH   8  10
ATOM     10  N   UNL A   1      31.682  24.955  26.283  1.00  0.00    -0.322 N 
ATOM     11  C   UNL A   1      32.710  23.878  26.471  1.00  0.00     0.086 C 
ATOM     12  C   UNL A   1      31.967  22.652  25.895  1.00  0.00     0.027 C 
ATOM     13  C   UNL A   1      30.574  22.802  26.446  1.00  0.00     0.024 C 
ATOM     14  C   UNL A   1      30.364  24.303  26.442  1.00  0.00     0.122 C 
BRANCH  11  15
ATOM     15  C   UNL A   1      34.120  23.836  25.875  1.00  0.00     0.022 C 
ATOM     16  C   UNL A   1      34.128  24.037  24.359  1.00  0.00     0.006 C 
ENDBRANCH  11  15
ENDBRANCH   8  10
ENDBRANCH   7   8
BRANCH   7  17
ATOM     17  C   UNL A   1      30.556  27.691  24.519  1.00  0.00     0.237 C 
BRANCH  17  18
ATOM     18  C   UNL A   1      30.024  26.945  23.291  1.00  0.00     0.406 C 
ATOM     19  F   UNL A   1      30.324  25.632  23.284  1.00  0.00    -0.169 F 
ATOM     20  F   UNL A   1      28.674  27.048  23.230  1.00  0.00    -0.169 F 
ATOM     21  F   UNL A   1      30.504  27.487  22.146  1.00  0.00    -0.169 F 
ENDBRANCH  17  18
ENDBRANCH   7  17
ENDBRANCH   6   7
ENDBRANCH   3   6
ENDBRANCH   1   2
BRANCH   1  22
ATOM     22  C   UNL A   1      31.635  30.607  26.663  1.00  0.00     0.023 C 
BRANCH  22  23
ATOM     23  C   UNL A   1      31.561  32.131  26.615  1.00  0.00     0.023 C 
BRANCH  23  24
ATOM     24  C   UNL A   1      32.762  32.825  27.238  1.00  0.00     0.116 C 
BRANCH  24  25
ATOM     25  N   UNL A   1      32.469  34.196  27.630  1.00  0.00    -0.352 N 
ATOM     26  C   UNL A   1      33.023  34.920  28.658  1.00  0.00     0.251 C 
ATOM     27  H   UNL A   1      31.789  34.661  27.092  1.00  0.00     0.163 HD
ATOM     28  O   UNL A   1      32.570  36.006  28.984  1.00  0.00    -0.269 OA
BRANCH  26  29
ATOM     29  C   UNL A   1      34.170  34.338  29.378  1.00  0.00     0.039 A 
ATOM     30  C   UNL A   1      33.933  33.488  30.459  1.00  0.00     0.014 A 
ATOM     31  C   UNL A   1      35.470  34.582  28.927  1.00  0.00     0.014 A 
ATOM     32  C   UNL A   1      35.008  32.832  31.057  1.00  0.00     0.010 A 
ATOM     33  C   UNL A   1      36.527  33.865  29.471  1.00  0.00     0.010 A 
ATOM     34  C   UNL A   1      36.307  32.991  30.546  1.00  0.00    -0.014 A 
BRANCH  34  35
ATOM     35  C   UNL A   1      37.459  32.265  31.131  1.00  0.00     0.031 A 
ATOM     36  C   UNL A   1      37.958  32.642  32.498  1.00  0.00     0.074 A 
ATOM     37  C   UNL A   1      38.096  31.324  30.408  1.00  0.00     0.049 A 
ATOM     38  N   UNL A   1      38.995  32.190  33.156  1.00  0.00    -0.248 NA
ATOM     39  C   UNL A   1      37.209  33.693  33.206  1.00  0.00     0.031 C 
ATOM     40  C   UNL A   1      37.736  30.913  29.050  1.00  0.00     0.029 A 
ATOM     41  N   UNL A   1      39.188  30.551  30.712  1.00  0.00    -0.354 N 
ATOM     42  C   UNL A   1      39.030  32.913  34.341  1.00  0.00     0.074 A 
ATOM     43  C   UNL A   1      37.952  33.873  34.287  1.00  0.00     0.031 C 
ATOM     44  C   UNL A   1      38.577  29.946  28.647  1.00  0.00     0.029 A 
ATOM     45  C   UNL A   1      39.556  29.696  29.700  1.00  0.00     0.049 A 
ATOM     46  H   UNL A   1      39.663  30.603  31.573  1.00  0.00     0.167 HD
ATOM     47  C   UNL A   1      39.872  32.767  35.391  1.00  0.00     0.037 A 
ATOM     48  C   UNL A   1      40.573  28.816  29.634  1.00  0.00     0.037 A 
ATOM     49  C   UNL A   1      40.924  31.787  35.449  1.00  0.00     0.049 A 
ATOM     50  C   UNL A   1      41.492  28.673  30.817  1.00  0.00     0.074 A 
ATOM     51  C   UNL A   1      41.789  31.512  36.492  1.00  0.00     0.029 A 
ATOM     52  N   UNL A   1      41.251  30.920  34.416  1.00  0.00    -0.354 N 
ATOM     53  N   UNL A   1      41.473  29.308  31.963  1.00  0.00    -0.248 NA
ATOM     54  C   UNL A   1      42.570  27.682  30.698  1.00  0.00     0.031 C 
ATOM     55  C   UNL A   1      42.672  30.510  36.073  1.00  0.00     0.029 A 
ATOM     56  C   UNL A   1      42.321  30.124  34.789  1.00  0.00     0.049 A 
ATOM     57  H   UNL A   1      40.790  30.878  33.547  1.00  0.00     0.167 HD
ATOM     58  C   UNL A   1      42.514  28.777  32.713  1.00  0.00     0.074 A 
ATOM     59  C   UNL A   1      43.135  27.755  31.896  1.00  0.00     0.031 C 
ATOM     60  C   UNL A   1      42.919  29.105  33.964  1.00  0.00     0.037 A 
BRANCH  47  61
ATOM     61  C   UNL A   1      39.684  33.686  36.562  1.00  0.00     0.064 A 
ATOM     62  C   UNL A   1      38.880  33.332  37.656  1.00  0.00     0.173 A 
ATOM     63  C   UNL A   1      40.339  34.926  36.607  1.00  0.00     0.173 A 
ATOM     64  F   UNL A   1      38.220  32.163  37.657  1.00  0.00    -0.203 F 
ATOM     65  C   UNL A   1      38.712  34.196  38.734  1.00  0.00     0.198 A 
ATOM     66  C   UNL A   1      40.195  35.774  37.703  1.00  0.00     0.198 A 
ATOM     67  F   UNL A   1      41.124  35.315  35.591  1.00  0.00    -0.203 F 
ATOM     68  F   UNL A   1      37.894  33.857  39.741  1.00  0.00    -0.200 F 
ATOM     69  C   UNL A   1      39.375  35.413  38.760  1.00  0.00     0.200 A 
ATOM     70  F   UNL A   1      40.848  36.945  37.731  1.00  0.00    -0.200 F 
ATOM     71  F   UNL A   1      39.218  36.240  39.802  1.00  0.00    -0.200 F 
ENDBRANCH  47  61
BRANCH  48  72
ATOM     72  C   UNL A   1      40.757  27.984  28.416  1.00  0.00     0.064 A 
ATOM     73  C   UNL A   1      40.154  26.724  28.309  1.00  0.00     0.173 A 
ATOM     74  C   UNL A   1      41.540  28.426  27.339  1.00  0.00     0.173 A 
ATOM     75  F   UNL A   1      39.412  26.249  29.320  1.00  0.00    -0.203 F 
ATOM     76  C   UNL A   1      40.346  25.927  27.182  1.00  0.00     0.198 A 
ATOM     77  C   UNL A   1      41.708  27.640  26.201  1.00  0.00     0.198 A 
ATOM     78  F   UNL A   1      42.135  29.627  27.389  1.00  0.00    -0.203 F 
ATOM     79  F   UNL A   1      39.796  24.705  27.128  1.00  0.00    -0.200 F 
ATOM     80  C   UNL A   1      41.117  26.387  26.127  1.00  0.00     0.200 A 
ATOM     81  F   UNL A   1      42.443  28.095  25.178  1.00  0.00    -0.200 F 
ATOM     82  F   UNL A   1      41.299  25.622  25.043  1.00  0.00    -0.200 F 
ENDBRANCH  48  72
BRANCH  60  83
ATOM     83  C   UNL A   1      44.064  28.327  34.542  1.00  0.00     0.064 A 
ATOM     84  C   UNL A   1      45.387  28.777  34.437  1.00  0.00     0.173 A 
ATOM     85  C   UNL A   1      43.827  27.140  35.252  1.00  0.00     0.173 A 
ATOM     86  F   UNL A   1      45.667  29.899  33.756  1.00  0.00    -0.203 F 
ATOM     87  C   UNL A   1      46.436  28.054  34.999  1.00  0.00     0.198 A 
ATOM     88  C   UNL A   1      44.874  26.436  35.840  1.00  0.00     0.198 A 
ATOM     89  F   UNL A   1      42.578  26.671  35.388  1.00  0.00    -0.203 F 
ATOM     90  F   UNL A   1      47.698  28.477  34.847  1.00  0.00    -0.200 F 
ATOM     91  C   UNL A   1      46.177  26.889  35.708  1.00  0.00     0.200 A 
ATOM     92  F   UNL A   1      44.620  25.320  36.537  1.00  0.00    -0.200 F 
ATOM     93  F   UNL A   1      47.186  26.200  36.258  1.00  0.00    -0.200 F 
ENDBRANCH  60  83
ENDBRANCH  34  35
ENDBRANCH  26  29
ENDBRANCH  24  25
ENDBRANCH  23  24
ENDBRANCH  22  23
ENDBRANCH   1  22
TORSDOF 17
ENDMDL
