MODEL 1
REMARK VINA RESULT:     -12.4      0.000      0.000
REMARK SMILES O=C(NCCCCNC(=O)c1ccc(C[NH2+][C@@H]2CCCc3sccc32)nc1)c1ccc(-c2c3nc(c(-c4c(F)c(F)c(F)c(F)c4F)c4ccc([nH]4)c(-c4c(F)c(F)c(F)c(F)c4F)c4nc(c(-c5c(F)c(F)c(F)c(F)c5F)c5ccc2[nH]5)C=C4)C=C3)cc1
REMARK SMILES IDX 6 1 5 2 4 3 3 4 1 5 2 6 28 8 29 9 90 10 30 11 89 12 31 13
REMARK SMILES IDX 32 14 33 15 83 16 34 17 88 18 82 19 84 20 35 21 87 22 81 23
REMARK SMILES IDX 80 24 36 26 68 27 48 28 67 29 49 30 52 31 66 32 85 33 50 34
REMARK SMILES IDX 51 35 65 37 86 38 53 39 37 40 38 41 46 42 39 43 40 44 44 45
REMARK SMILES IDX 47 46 41 47 42 48 45 49 43 50 69 51 70 52 78 53 71 54 72 55
REMARK SMILES IDX 76 56 79 57 73 58 74 59 77 60 75 61 54 62 55 63 63 64 56 65
REMARK SMILES IDX 57 66 61 67 64 68 58 69 59 70 62 71 60 72 7 73 8 74 9 75
REMARK SMILES IDX 10 77 11 78 12 79 27 80 13 81 26 82 14 83 15 84 16 85 17 88
REMARK SMILES IDX 18 89 25 90 19 91 21 92 24 93 20 94 22 95 23 96
REMARK H PARENT 3 7 84 25 52 36 8 76 16 86 16 87
REMARK Flexibility Score: inf
ROOT
ATOM      1  C   UNL A   1      36.992  20.297  24.926  1.00  0.00     0.023 C 
ENDROOT
BRANCH   1   2
ATOM      2  C   UNL A   1      38.164  19.320  25.001  1.00  0.00     0.023 C 
BRANCH   2   3
ATOM      3  C   UNL A   1      39.385  19.837  25.751  1.00  0.00     0.116 C 
BRANCH   3   4
ATOM      4  N   UNL A   1      40.472  18.872  25.784  1.00  0.00    -0.352 N 
ATOM      5  O   UNL A   1      42.609  18.153  25.782  1.00  0.00    -0.269 OA
ATOM      6  C   UNL A   1      41.819  19.077  25.949  1.00  0.00     0.251 C 
ATOM      7  H   UNL A   1      40.202  17.931  25.669  1.00  0.00     0.163 HD
BRANCH   6   8
ATOM      8  C   UNL A   1      42.321  20.421  26.302  1.00  0.00     0.039 A 
ATOM      9  C   UNL A   1      42.389  20.836  27.634  1.00  0.00     0.014 A 
ATOM     10  C   UNL A   1      42.740  21.272  25.276  1.00  0.00     0.014 A 
ATOM     11  C   UNL A   1      42.748  22.146  27.934  1.00  0.00     0.010 A 
ATOM     12  C   UNL A   1      43.175  22.562  25.585  1.00  0.00     0.010 A 
ATOM     13  C   UNL A   1      43.155  23.018  26.913  1.00  0.00    -0.014 A 
BRANCH  13  14
ATOM     14  C   UNL A   1      43.606  24.393  27.236  1.00  0.00     0.031 A 
ATOM     15  C   UNL A   1      42.631  25.420  27.735  1.00  0.00     0.074 A 
ATOM     16  C   UNL A   1      44.894  24.724  27.035  1.00  0.00     0.049 A 
ATOM     17  N   UNL A   1      42.816  26.697  27.959  1.00  0.00    -0.248 NA
ATOM     18  C   UNL A   1      41.264  24.953  28.005  1.00  0.00     0.031 C 
ATOM     19  C   UNL A   1      45.931  23.809  26.557  1.00  0.00     0.029 A 
ATOM     20  N   UNL A   1      45.546  25.920  27.186  1.00  0.00    -0.354 N 
ATOM     21  C   UNL A   1      41.585  27.190  28.370  1.00  0.00     0.074 A 
ATOM     22  C   UNL A   1      40.655  26.081  28.340  1.00  0.00     0.031 C 
ATOM     23  C   UNL A   1      47.089  24.475  26.454  1.00  0.00     0.029 A 
ATOM     24  C   UNL A   1      46.861  25.875  26.795  1.00  0.00     0.049 A 
ATOM     25  H   UNL A   1      45.115  26.731  27.541  1.00  0.00     0.167 HD
ATOM     26  C   UNL A   1      41.266  28.455  28.740  1.00  0.00     0.037 A 
ATOM     27  C   UNL A   1      47.772  26.859  26.679  1.00  0.00     0.037 A 
ATOM     28  C   UNL A   1      42.205  29.549  28.766  1.00  0.00     0.049 A 
ATOM     29  C   UNL A   1      47.386  28.263  27.046  1.00  0.00     0.074 A 
ATOM     30  C   UNL A   1      41.994  30.857  29.164  1.00  0.00     0.029 A 
ATOM     31  N   UNL A   1      43.530  29.464  28.361  1.00  0.00    -0.354 N 
ATOM     32  N   UNL A   1      46.231  28.716  27.469  1.00  0.00    -0.248 NA
ATOM     33  C   UNL A   1      48.427  29.291  26.925  1.00  0.00     0.031 C 
ATOM     34  C   UNL A   1      43.171  31.578  28.940  1.00  0.00     0.029 A 
ATOM     35  C   UNL A   1      44.140  30.705  28.470  1.00  0.00     0.049 A 
ATOM     36  H   UNL A   1      43.972  28.644  28.044  1.00  0.00     0.167 HD
ATOM     37  C   UNL A   1      46.412  30.074  27.692  1.00  0.00     0.074 A 
ATOM     38  C   UNL A   1      47.790  30.370  27.357  1.00  0.00     0.031 C 
ATOM     39  C   UNL A   1      45.516  30.985  28.143  1.00  0.00     0.037 A 
BRANCH  26  40
ATOM     40  C   UNL A   1      39.834  28.732  29.103  1.00  0.00     0.064 A 
ATOM     41  C   UNL A   1      38.891  29.149  28.151  1.00  0.00     0.173 A 
ATOM     42  C   UNL A   1      39.395  28.566  30.426  1.00  0.00     0.173 A 
ATOM     43  F   UNL A   1      39.257  29.331  26.873  1.00  0.00    -0.203 F 
ATOM     44  C   UNL A   1      37.577  29.434  28.519  1.00  0.00     0.198 A 
ATOM     45  C   UNL A   1      38.073  28.817  30.784  1.00  0.00     0.198 A 
ATOM     46  F   UNL A   1      40.249  28.157  31.377  1.00  0.00    -0.203 F 
ATOM     47  F   UNL A   1      36.714  29.897  27.604  1.00  0.00    -0.200 F 
ATOM     48  C   UNL A   1      37.169  29.265  29.833  1.00  0.00     0.200 A 
ATOM     49  F   UNL A   1      37.676  28.637  32.051  1.00  0.00    -0.200 F 
ATOM     50  F   UNL A   1      35.906  29.543  30.185  1.00  0.00    -0.200 F 
ENDBRANCH  26  40
BRANCH  27  51
ATOM     51  C   UNL A   1      49.130  26.528  26.176  1.00  0.00     0.064 A 
ATOM     52  C   UNL A   1      49.478  26.755  24.839  1.00  0.00     0.173 A 
ATOM     53  C   UNL A   1      50.122  26.038  27.038  1.00  0.00     0.173 A 
ATOM     54  F   UNL A   1      48.559  27.210  23.975  1.00  0.00    -0.203 F 
ATOM     55  C   UNL A   1      50.770  26.502  24.382  1.00  0.00     0.198 A 
ATOM     56  C   UNL A   1      51.420  25.813  26.587  1.00  0.00     0.198 A 
ATOM     57  F   UNL A   1      49.839  25.815  28.330  1.00  0.00    -0.203 F 
ATOM     58  F   UNL A   1      51.074  26.706  23.093  1.00  0.00    -0.200 F 
ATOM     59  C   UNL A   1      51.742  26.042  25.258  1.00  0.00     0.200 A 
ATOM     60  F   UNL A   1      52.361  25.389  27.443  1.00  0.00    -0.200 F 
ATOM     61  F   UNL A   1      52.989  25.820  24.823  1.00  0.00    -0.200 F 
ENDBRANCH  27  51
BRANCH  39  62
ATOM     62  C   UNL A   1      46.002  32.389  28.358  1.00  0.00     0.064 A 
ATOM     63  C   UNL A   1      45.892  33.373  27.366  1.00  0.00     0.173 A 
ATOM     64  C   UNL A   1      46.513  32.772  29.610  1.00  0.00     0.173 A 
ATOM     65  F   UNL A   1      45.425  33.054  26.149  1.00  0.00    -0.203 F 
ATOM     66  C   UNL A   1      46.282  34.686  27.615  1.00  0.00     0.198 A 
ATOM     67  C   UNL A   1      46.874  34.090  29.864  1.00  0.00     0.198 A 
ATOM     68  F   UNL A   1      46.637  31.868  30.593  1.00  0.00    -0.203 F 
ATOM     69  F   UNL A   1      46.197  35.605  26.643  1.00  0.00    -0.200 F 
ATOM     70  C   UNL A   1      46.761  35.046  28.866  1.00  0.00     0.200 A 
ATOM     71  F   UNL A   1      47.322  34.439  31.078  1.00  0.00    -0.200 F 
ATOM     72  F   UNL A   1      47.116  36.316  29.110  1.00  0.00    -0.200 F 
ENDBRANCH  39  62
ENDBRANCH  13  14
ENDBRANCH   6   8
ENDBRANCH   3   4
ENDBRANCH   2   3
ENDBRANCH   1   2
BRANCH   1  73
ATOM     73  C   UNL A   1      37.309  21.633  24.261  1.00  0.00     0.116 C 
BRANCH  73  74
ATOM     74  N   UNL A   1      37.874  22.596  25.192  1.00  0.00    -0.352 N 
ATOM     75  C   UNL A   1      37.241  23.618  25.854  1.00  0.00     0.252 C 
ATOM     76  H   UNL A   1      38.838  22.502  25.372  1.00  0.00     0.163 HD
ATOM     77  O   UNL A   1      37.884  24.449  26.485  1.00  0.00    -0.269 OA
BRANCH  75  78
ATOM     78  C   UNL A   1      35.780  23.719  25.784  1.00  0.00     0.058 A 
ATOM     79  C   UNL A   1      35.141  24.546  24.862  1.00  0.00     0.017 A 
ATOM     80  C   UNL A   1      35.011  22.989  26.673  1.00  0.00     0.125 A 
ATOM     81  C   UNL A   1      33.755  24.661  24.906  1.00  0.00     0.030 A 
ATOM     82  N   UNL A   1      33.664  23.092  26.741  1.00  0.00    -0.255 NA
ATOM     83  C   UNL A   1      33.052  23.931  25.864  1.00  0.00     0.094 A 
BRANCH  83  84
ATOM     84  C   UNL A   1      31.539  24.024  25.923  1.00  0.00     0.318 C 
BRANCH  84  85
ATOM     85  N   UNL A   1      31.102  25.086  26.824  1.00  0.00    -0.335 N 
ATOM     86  H   UNL A   1      31.918  25.457  27.310  1.00  0.00     0.347 HD
ATOM     87  H   UNL A   1      30.425  24.681  27.470  1.00  0.00     0.347 HD
BRANCH  85  88
ATOM     88  C   UNL A   1      30.440  26.181  26.128  1.00  0.00     0.215 C 
ATOM     89  C   UNL A   1      30.220  25.736  24.666  1.00  0.00     0.071 C 
ATOM     90  C   UNL A   1      31.280  27.436  26.189  1.00  0.00     0.023 A 
ATOM     91  C   UNL A   1      29.743  26.911  23.804  1.00  0.00     0.012 C 
ATOM     92  C   UNL A   1      31.403  28.271  25.090  1.00  0.00     0.014 A 
ATOM     93  C   UNL A   1      32.005  27.966  27.307  1.00  0.00     0.022 A 
ATOM     94  C   UNL A   1      30.796  28.027  23.740  1.00  0.00     0.047 C 
ATOM     95  S   UNL A   1      32.382  29.631  25.389  1.00  0.00    -0.148 S 
ATOM     96  C   UNL A   1      32.657  29.142  27.003  1.00  0.00     0.065 A 
ENDBRANCH  85  88
ENDBRANCH  84  85
ENDBRANCH  83  84
ENDBRANCH  75  78
ENDBRANCH  73  74
ENDBRANCH   1  73
TORSDOF 14
ENDMDL
MODEL 2
REMARK VINA RESULT:     -12.4      0.190      1.595
REMARK SMILES O=C(NCCCCNC(=O)c1ccc(C[NH2+][C@@H]2CCCc3sccc32)nc1)c1ccc(-c2c3nc(c(-c4c(F)c(F)c(F)c(F)c4F)c4ccc([nH]4)c(-c4c(F)c(F)c(F)c(F)c4F)c4nc(c(-c5c(F)c(F)c(F)c(F)c5F)c5ccc2[nH]5)C=C4)C=C3)cc1
REMARK SMILES IDX 6 1 5 2 4 3 3 4 1 5 2 6 28 8 29 9 90 10 30 11 89 12 31 13
REMARK SMILES IDX 32 14 33 15 83 16 34 17 88 18 82 19 84 20 35 21 87 22 81 23
REMARK SMILES IDX 80 24 36 26 68 27 48 28 67 29 49 30 52 31 66 32 85 33 50 34
REMARK SMILES IDX 51 35 65 37 86 38 53 39 37 40 38 41 46 42 39 43 40 44 44 45
REMARK SMILES IDX 47 46 41 47 42 48 45 49 43 50 69 51 70 52 78 53 71 54 72 55
REMARK SMILES IDX 76 56 79 57 73 58 74 59 77 60 75 61 54 62 55 63 63 64 56 65
REMARK SMILES IDX 57 66 61 67 64 68 58 69 59 70 62 71 60 72 7 73 8 74 9 75
REMARK SMILES IDX 10 77 11 78 12 79 27 80 13 81 26 82 14 83 15 84 16 85 17 88
REMARK SMILES IDX 18 89 25 90 19 91 21 92 24 93 20 94 22 95 23 96
REMARK H PARENT 3 7 84 25 52 36 8 76 16 86 16 87
REMARK Flexibility Score: inf
ROOT
ATOM      1  C   UNL A   1      37.032  20.203  25.001  1.00  0.00     0.023 C 
ENDROOT
BRANCH   1   2
ATOM      2  C   UNL A   1      38.278  19.320  24.956  1.00  0.00     0.023 C 
BRANCH   2   3
ATOM      3  C   UNL A   1      39.442  19.807  25.810  1.00  0.00     0.116 C 
BRANCH   3   4
ATOM      4  N   UNL A   1      40.531  18.845  25.872  1.00  0.00    -0.352 N 
ATOM      5  O   UNL A   1      42.669  18.132  25.909  1.00  0.00    -0.269 OA
ATOM      6  C   UNL A   1      41.875  19.057  26.050  1.00  0.00     0.251 C 
ATOM      7  H   UNL A   1      40.264  17.902  25.771  1.00  0.00     0.163 HD
BRANCH   6   8
ATOM      8  C   UNL A   1      42.369  20.408  26.387  1.00  0.00     0.039 A 
ATOM      9  C   UNL A   1      42.441  20.837  27.714  1.00  0.00     0.014 A 
ATOM     10  C   UNL A   1      42.777  21.251  25.350  1.00  0.00     0.014 A 
ATOM     11  C   UNL A   1      42.792  22.153  27.999  1.00  0.00     0.010 A 
ATOM     12  C   UNL A   1      43.205  22.547  25.644  1.00  0.00     0.010 A 
ATOM     13  C   UNL A   1      43.188  23.017  26.967  1.00  0.00    -0.014 A 
BRANCH  13  14
ATOM     14  C   UNL A   1      43.630  24.398  27.273  1.00  0.00     0.031 A 
ATOM     15  C   UNL A   1      42.651  25.423  27.767  1.00  0.00     0.074 A 
ATOM     16  C   UNL A   1      44.916  24.736  27.061  1.00  0.00     0.049 A 
ATOM     17  N   UNL A   1      42.828  26.703  27.977  1.00  0.00    -0.248 NA
ATOM     18  C   UNL A   1      41.290  24.949  28.050  1.00  0.00     0.031 C 
ATOM     19  C   UNL A   1      45.956  23.824  26.586  1.00  0.00     0.029 A 
ATOM     20  N   UNL A   1      45.560  25.939  27.196  1.00  0.00    -0.354 N 
ATOM     21  C   UNL A   1      41.596  27.192  28.391  1.00  0.00     0.074 A 
ATOM     22  C   UNL A   1      40.675  26.076  28.378  1.00  0.00     0.031 C 
ATOM     23  C   UNL A   1      47.108  24.498  26.468  1.00  0.00     0.029 A 
ATOM     24  C   UNL A   1      46.872  25.900  26.796  1.00  0.00     0.049 A 
ATOM     25  H   UNL A   1      45.125  26.750  27.545  1.00  0.00     0.167 HD
ATOM     26  C   UNL A   1      41.271  28.458  28.750  1.00  0.00     0.037 A 
ATOM     27  C   UNL A   1      47.775  26.888  26.665  1.00  0.00     0.037 A 
ATOM     28  C   UNL A   1      42.201  29.559  28.760  1.00  0.00     0.049 A 
ATOM     29  C   UNL A   1      47.381  28.293  27.021  1.00  0.00     0.074 A 
ATOM     30  C   UNL A   1      41.983  30.870  29.146  1.00  0.00     0.029 A 
ATOM     31  N   UNL A   1      43.524  29.479  28.348  1.00  0.00    -0.354 N 
ATOM     32  N   UNL A   1      46.225  28.743  27.446  1.00  0.00    -0.248 NA
ATOM     33  C   UNL A   1      48.414  29.328  26.882  1.00  0.00     0.031 C 
ATOM     34  C   UNL A   1      43.153  31.597  28.907  1.00  0.00     0.029 A 
ATOM     35  C   UNL A   1      44.126  30.726  28.440  1.00  0.00     0.049 A 
ATOM     36  H   UNL A   1      43.971  28.660  28.036  1.00  0.00     0.167 HD
ATOM     37  C   UNL A   1      46.398  30.103  27.655  1.00  0.00     0.074 A 
ATOM     38  C   UNL A   1      47.772  30.407  27.308  1.00  0.00     0.031 C 
ATOM     39  C   UNL A   1      45.498  31.012  28.102  1.00  0.00     0.037 A 
BRANCH  26  40
ATOM     40  C   UNL A   1      39.838  28.728  29.120  1.00  0.00     0.064 A 
ATOM     41  C   UNL A   1      39.368  28.578  30.434  1.00  0.00     0.173 A 
ATOM     42  C   UNL A   1      38.923  29.153  28.144  1.00  0.00     0.173 A 
ATOM     43  F   UNL A   1      40.196  28.168  31.406  1.00  0.00    -0.203 F 
ATOM     44  C   UNL A   1      38.027  28.799  30.745  1.00  0.00     0.198 A 
ATOM     45  C   UNL A   1      37.592  29.407  28.466  1.00  0.00     0.198 A 
ATOM     46  F   UNL A   1      39.320  29.325  26.873  1.00  0.00    -0.203 F 
ATOM     47  F   UNL A   1      37.588  28.584  31.993  1.00  0.00    -0.200 F 
ATOM     48  C   UNL A   1      37.143  29.217  29.763  1.00  0.00     0.200 A 
ATOM     49  F   UNL A   1      36.743  29.827  27.518  1.00  0.00    -0.200 F 
ATOM     50  F   UNL A   1      35.854  29.425  30.064  1.00  0.00    -0.200 F 
ENDBRANCH  26  40
BRANCH  27  51
ATOM     51  C   UNL A   1      49.132  26.563  26.157  1.00  0.00     0.064 A 
ATOM     52  C   UNL A   1      49.471  26.779  24.816  1.00  0.00     0.173 A 
ATOM     53  C   UNL A   1      50.133  26.089  27.018  1.00  0.00     0.173 A 
ATOM     54  F   UNL A   1      48.543  27.218  23.953  1.00  0.00    -0.203 F 
ATOM     55  C   UNL A   1      50.762  26.530  24.354  1.00  0.00     0.198 A 
ATOM     56  C   UNL A   1      51.430  25.868  26.561  1.00  0.00     0.198 A 
ATOM     57  F   UNL A   1      49.860  25.876  28.314  1.00  0.00    -0.203 F 
ATOM     58  F   UNL A   1      51.056  26.724  23.061  1.00  0.00    -0.200 F 
ATOM     59  C   UNL A   1      51.743  26.086  25.228  1.00  0.00     0.200 A 
ATOM     60  F   UNL A   1      52.379  25.460  27.415  1.00  0.00    -0.200 F 
ATOM     61  F   UNL A   1      52.988  25.869  24.788  1.00  0.00    -0.200 F 
ENDBRANCH  27  51
BRANCH  39  62
ATOM     62  C   UNL A   1      45.975  32.422  28.300  1.00  0.00     0.064 A 
ATOM     63  C   UNL A   1      46.581  32.840  29.493  1.00  0.00     0.173 A 
ATOM     64  C   UNL A   1      45.896  33.346  27.245  1.00  0.00     0.173 A 
ATOM     65  F   UNL A   1      46.666  32.000  30.537  1.00  0.00    -0.203 F 
ATOM     66  C   UNL A   1      47.082  34.133  29.626  1.00  0.00     0.198 A 
ATOM     67  C   UNL A   1      46.423  34.626  27.371  1.00  0.00     0.198 A 
ATOM     68  F   UNL A   1      45.328  32.994  26.081  1.00  0.00    -0.203 F 
ATOM     69  F   UNL A   1      47.630  34.522  30.786  1.00  0.00    -0.200 F 
ATOM     70  C   UNL A   1      47.013  35.020  28.562  1.00  0.00     0.200 A 
ATOM     71  F   UNL A   1      46.370  35.477  26.336  1.00  0.00    -0.200 F 
ATOM     72  F   UNL A   1      47.516  36.257  28.685  1.00  0.00    -0.200 F 
ENDBRANCH  39  62
ENDBRANCH  13  14
ENDBRANCH   6   8
ENDBRANCH   3   4
ENDBRANCH   2   3
ENDBRANCH   1   2
BRANCH   1  73
ATOM     73  C   UNL A   1      37.189  21.574  24.350  1.00  0.00     0.116 C 
BRANCH  73  74
ATOM     74  N   UNL A   1      37.770  22.554  25.253  1.00  0.00    -0.352 N 
ATOM     75  C   UNL A   1      37.152  23.602  25.888  1.00  0.00     0.252 C 
ATOM     76  H   UNL A   1      38.732  22.453  25.434  1.00  0.00     0.163 HD
ATOM     77  O   UNL A   1      37.807  24.441  26.495  1.00  0.00    -0.269 OA
BRANCH  75  78
ATOM     78  C   UNL A   1      35.691  23.719  25.819  1.00  0.00     0.058 A 
ATOM     79  C   UNL A   1      35.060  24.504  24.855  1.00  0.00     0.017 A 
ATOM     80  C   UNL A   1      34.917  23.051  26.749  1.00  0.00     0.125 A 
ATOM     81  C   UNL A   1      33.677  24.641  24.898  1.00  0.00     0.030 A 
ATOM     82  N   UNL A   1      33.572  23.177  26.817  1.00  0.00    -0.255 NA
ATOM     83  C   UNL A   1      32.967  23.975  25.897  1.00  0.00     0.094 A 
BRANCH  83  84
ATOM     84  C   UNL A   1      31.456  24.093  25.957  1.00  0.00     0.318 C 
BRANCH  84  85
ATOM     85  N   UNL A   1      31.037  25.159  26.862  1.00  0.00    -0.335 N 
ATOM     86  H   UNL A   1      31.845  25.460  27.407  1.00  0.00     0.347 HD
ATOM     87  H   UNL A   1      30.297  24.784  27.455  1.00  0.00     0.347 HD
BRANCH  85  88
ATOM     88  C   UNL A   1      30.493  26.314  26.162  1.00  0.00     0.215 C 
ATOM     89  C   UNL A   1      30.040  25.838  24.765  1.00  0.00     0.071 C 
ATOM     90  C   UNL A   1      31.532  27.406  26.048  1.00  0.00     0.023 A 
ATOM     91  C   UNL A   1      29.672  27.032  23.875  1.00  0.00     0.012 C 
ATOM     92  C   UNL A   1      31.668  28.149  24.886  1.00  0.00     0.014 A 
ATOM     93  C   UNL A   1      32.456  27.860  27.047  1.00  0.00     0.022 A 
ATOM     94  C   UNL A   1      30.881  27.943  23.626  1.00  0.00     0.047 C 
ATOM     95  S   UNL A   1      32.887  29.332  24.987  1.00  0.00    -0.148 S 
ATOM     96  C   UNL A   1      33.256  28.888  26.596  1.00  0.00     0.065 A 
ENDBRANCH  85  88
ENDBRANCH  84  85
ENDBRANCH  83  84
ENDBRANCH  75  78
ENDBRANCH  73  74
ENDBRANCH   1  73
TORSDOF 14
ENDMDL
MODEL 3
REMARK VINA RESULT:     -12.4      5.644     11.154
REMARK SMILES O=C(NCCCCNC(=O)c1ccc(C[NH2+][C@@H]2CCCc3sccc32)nc1)c1ccc(-c2c3nc(c(-c4c(F)c(F)c(F)c(F)c4F)c4ccc([nH]4)c(-c4c(F)c(F)c(F)c(F)c4F)c4nc(c(-c5c(F)c(F)c(F)c(F)c5F)c5ccc2[nH]5)C=C4)C=C3)cc1
REMARK SMILES IDX 6 1 5 2 4 3 3 4 1 5 2 6 28 8 29 9 90 10 30 11 89 12 31 13
REMARK SMILES IDX 32 14 33 15 83 16 34 17 88 18 82 19 84 20 35 21 87 22 81 23
REMARK SMILES IDX 80 24 36 26 68 27 48 28 67 29 49 30 52 31 66 32 85 33 50 34
REMARK SMILES IDX 51 35 65 37 86 38 53 39 37 40 38 41 46 42 39 43 40 44 44 45
REMARK SMILES IDX 47 46 41 47 42 48 45 49 43 50 69 51 70 52 78 53 71 54 72 55
REMARK SMILES IDX 76 56 79 57 73 58 74 59 77 60 75 61 54 62 55 63 63 64 56 65
REMARK SMILES IDX 57 66 61 67 64 68 58 69 59 70 62 71 60 72 7 73 8 74 9 75
REMARK SMILES IDX 10 77 11 78 12 79 27 80 13 81 26 82 14 83 15 84 16 85 17 88
REMARK SMILES IDX 18 89 25 90 19 91 21 92 24 93 20 94 22 95 23 96
REMARK H PARENT 3 7 84 25 52 36 8 76 16 86 16 87
REMARK Flexibility Score: inf
ROOT
ATOM      1  C   UNL A   1      31.535  30.894  26.126  1.00  0.00     0.023 C 
ENDROOT
BRANCH   1   2
ATOM      2  C   UNL A   1      31.342  32.294  26.705  1.00  0.00     0.023 C 
BRANCH   2   3
ATOM      3  C   UNL A   1      32.612  32.958  27.221  1.00  0.00     0.116 C 
BRANCH   3   4
ATOM      4  N   UNL A   1      32.382  34.314  27.694  1.00  0.00    -0.352 N 
ATOM      5  O   UNL A   1      32.580  36.095  29.061  1.00  0.00    -0.269 OA
ATOM      6  C   UNL A   1      33.021  35.013  28.687  1.00  0.00     0.251 C 
ATOM      7  H   UNL A   1      31.661  34.802  27.233  1.00  0.00     0.163 HD
BRANCH   6   8
ATOM      8  C   UNL A   1      34.228  34.449  29.325  1.00  0.00     0.039 A 
ATOM      9  C   UNL A   1      35.496  34.658  28.776  1.00  0.00     0.014 A 
ATOM     10  C   UNL A   1      34.083  33.707  30.500  1.00  0.00     0.014 A 
ATOM     11  C   UNL A   1      36.602  34.016  29.323  1.00  0.00     0.010 A 
ATOM     12  C   UNL A   1      35.205  33.129  31.093  1.00  0.00     0.010 A 
ATOM     13  C   UNL A   1      36.469  33.255  30.493  1.00  0.00    -0.014 A 
BRANCH  13  14
ATOM     14  C   UNL A   1      37.657  32.627  31.120  1.00  0.00     0.031 A 
ATOM     15  C   UNL A   1      38.380  31.505  30.434  1.00  0.00     0.074 A 
ATOM     16  C   UNL A   1      38.056  33.048  32.335  1.00  0.00     0.049 A 
ATOM     17  N   UNL A   1      39.362  30.760  30.876  1.00  0.00    -0.248 NA
ATOM     18  C   UNL A   1      37.931  31.165  29.077  1.00  0.00     0.031 C 
ATOM     19  C   UNL A   1      37.432  34.131  33.094  1.00  0.00     0.029 A 
ATOM     20  N   UNL A   1      39.063  32.602  33.151  1.00  0.00    -0.354 N 
ATOM     21  C   UNL A   1      39.631  29.848  29.864  1.00  0.00     0.074 A 
ATOM     22  C   UNL A   1      38.691  30.117  28.796  1.00  0.00     0.031 C 
ATOM     23  C   UNL A   1      38.069  34.268  34.265  1.00  0.00     0.029 A 
ATOM     24  C   UNL A   1      39.101  33.241  34.365  1.00  0.00     0.049 A 
ATOM     25  H   UNL A   1      39.697  31.895  32.892  1.00  0.00     0.167 HD
ATOM     26  C   UNL A   1      40.578  28.879  29.834  1.00  0.00     0.037 A 
ATOM     27  C   UNL A   1      39.850  33.000  35.457  1.00  0.00     0.037 A 
ATOM     28  C   UNL A   1      41.508  28.626  30.905  1.00  0.00     0.049 A 
ATOM     29  C   UNL A   1      40.861  31.889  35.421  1.00  0.00     0.074 A 
ATOM     30  C   UNL A   1      42.533  27.697  30.958  1.00  0.00     0.029 A 
ATOM     31  N   UNL A   1      41.515  29.296  32.121  1.00  0.00    -0.354 N 
ATOM     32  N   UNL A   1      41.134  31.054  34.448  1.00  0.00    -0.248 NA
ATOM     33  C   UNL A   1      41.668  31.688  36.631  1.00  0.00     0.031 C 
ATOM     34  C   UNL A   1      43.116  27.760  32.226  1.00  0.00     0.029 A 
ATOM     35  C   UNL A   1      42.505  28.777  32.943  1.00  0.00     0.049 A 
ATOM     36  H   UNL A   1      40.907  30.029  32.366  1.00  0.00     0.167 HD
ATOM     37  C   UNL A   1      42.163  30.249  34.913  1.00  0.00     0.074 A 
ATOM     38  C   UNL A   1      42.465  30.695  36.259  1.00  0.00     0.031 C 
ATOM     39  C   UNL A   1      42.803  29.238  34.277  1.00  0.00     0.037 A 
BRANCH  26  40
ATOM     40  C   UNL A   1      40.626  27.993  28.620  1.00  0.00     0.064 A 
ATOM     41  C   UNL A   1      41.391  28.320  27.490  1.00  0.00     0.173 A 
ATOM     42  C   UNL A   1      39.900  26.792  28.592  1.00  0.00     0.173 A 
ATOM     43  F   UNL A   1      42.098  29.459  27.458  1.00  0.00    -0.203 F 
ATOM     44  C   UNL A   1      41.390  27.501  26.362  1.00  0.00     0.198 A 
ATOM     45  C   UNL A   1      39.930  25.958  27.477  1.00  0.00     0.198 A 
ATOM     46  F   UNL A   1      39.161  26.422  29.649  1.00  0.00    -0.203 F 
ATOM     47  F   UNL A   1      42.075  27.868  25.270  1.00  0.00    -0.200 F 
ATOM     48  C   UNL A   1      40.664  26.320  26.358  1.00  0.00     0.200 A 
ATOM     49  F   UNL A   1      39.241  24.809  27.482  1.00  0.00    -0.200 F 
ATOM     50  F   UNL A   1      40.662  25.535  25.271  1.00  0.00    -0.200 F 
ENDBRANCH  26  40
BRANCH  27  51
ATOM     51  C   UNL A   1      39.645  33.831  36.670  1.00  0.00     0.064 A 
ATOM     52  C   UNL A   1      40.229  35.098  36.783  1.00  0.00     0.173 A 
ATOM     53  C   UNL A   1      38.810  33.398  37.711  1.00  0.00     0.173 A 
ATOM     54  F   UNL A   1      41.046  35.548  35.818  1.00  0.00    -0.203 F 
ATOM     55  C   UNL A   1      39.987  35.903  37.894  1.00  0.00     0.198 A 
ATOM     56  C   UNL A   1      38.546  34.215  38.808  1.00  0.00     0.198 A 
ATOM     57  F   UNL A   1      38.219  32.196  37.644  1.00  0.00    -0.203 F 
ATOM     58  F   UNL A   1      40.576  37.103  37.989  1.00  0.00    -0.200 F 
ATOM     59  C   UNL A   1      39.138  35.466  38.900  1.00  0.00     0.200 A 
ATOM     60  F   UNL A   1      37.708  33.797  39.766  1.00  0.00    -0.200 F 
ATOM     61  F   UNL A   1      38.889  36.249  39.957  1.00  0.00    -0.200 F 
ENDBRANCH  27  51
BRANCH  39  62
ATOM     62  C   UNL A   1      43.937  28.570  34.998  1.00  0.00     0.064 A 
ATOM     63  C   UNL A   1      43.748  27.413  35.768  1.00  0.00     0.173 A 
ATOM     64  C   UNL A   1      45.247  29.052  34.847  1.00  0.00     0.173 A 
ATOM     65  F   UNL A   1      42.513  26.922  35.956  1.00  0.00    -0.203 F 
ATOM     66  C   UNL A   1      44.827  26.770  36.368  1.00  0.00     0.198 A 
ATOM     67  C   UNL A   1      46.326  28.390  35.423  1.00  0.00     0.198 A 
ATOM     68  F   UNL A   1      45.481  30.154  34.118  1.00  0.00    -0.203 F 
ATOM     69  F   UNL A   1      44.622  25.683  37.125  1.00  0.00    -0.200 F 
ATOM     70  C   UNL A   1      46.116  27.251  36.185  1.00  0.00     0.200 A 
ATOM     71  F   UNL A   1      47.571  28.848  35.232  1.00  0.00    -0.200 F 
ATOM     72  F   UNL A   1      47.156  26.617  36.745  1.00  0.00    -0.200 F 
ENDBRANCH  39  62
ENDBRANCH  13  14
ENDBRANCH   6   8
ENDBRANCH   3   4
ENDBRANCH   2   3
ENDBRANCH   1   2
BRANCH   1  73
ATOM     73  C   UNL A   1      31.925  29.824  27.141  1.00  0.00     0.116 C 
BRANCH  73  74
ATOM     74  N   UNL A   1      33.354  29.804  27.406  1.00  0.00    -0.352 N 
ATOM     75  C   UNL A   1      34.305  28.954  26.898  1.00  0.00     0.252 C 
ATOM     76  H   UNL A   1      33.684  30.489  28.031  1.00  0.00     0.163 HD
ATOM     77  O   UNL A   1      35.448  28.958  27.339  1.00  0.00    -0.269 OA
BRANCH  75  78
ATOM     78  C   UNL A   1      33.934  28.023  25.828  1.00  0.00     0.058 A 
ATOM     79  C   UNL A   1      33.842  28.427  24.497  1.00  0.00     0.017 A 
ATOM     80  C   UNL A   1      33.643  26.709  26.149  1.00  0.00     0.125 A 
ATOM     81  C   UNL A   1      33.402  27.515  23.544  1.00  0.00     0.030 A 
ATOM     82  N   UNL A   1      33.203  25.808  25.242  1.00  0.00    -0.255 NA
ATOM     83  C   UNL A   1      33.079  26.221  23.952  1.00  0.00     0.094 A 
BRANCH  83  84
ATOM     84  C   UNL A   1      32.612  25.202  22.931  1.00  0.00     0.318 C 
BRANCH  84  85
ATOM     85  N   UNL A   1      33.736  24.477  22.344  1.00  0.00    -0.335 N 
ATOM     86  H   UNL A   1      34.602  24.851  22.732  1.00  0.00     0.347 HD
ATOM     87  H   UNL A   1      33.686  24.603  21.333  1.00  0.00     0.347 HD
BRANCH  85  88
ATOM     88  C   UNL A   1      33.687  23.047  22.610  1.00  0.00     0.215 C 
ATOM     89  C   UNL A   1      32.343  22.750  23.309  1.00  0.00     0.071 C 
ATOM     90  C   UNL A   1      34.851  22.627  23.478  1.00  0.00     0.023 A 
ATOM     91  C   UNL A   1      32.308  21.310  23.836  1.00  0.00     0.012 C 
ATOM     92  C   UNL A   1      34.687  21.705  24.500  1.00  0.00     0.014 A 
ATOM     93  C   UNL A   1      36.222  23.036  23.384  1.00  0.00     0.022 A 
ATOM     94  C   UNL A   1      33.387  21.074  24.902  1.00  0.00     0.047 C 
ATOM     95  S   UNL A   1      36.131  21.370  25.336  1.00  0.00    -0.148 S 
ATOM     96  C   UNL A   1      37.017  22.441  24.341  1.00  0.00     0.065 A 
ENDBRANCH  85  88
ENDBRANCH  84  85
ENDBRANCH  83  84
ENDBRANCH  75  78
ENDBRANCH  73  74
ENDBRANCH   1  73
TORSDOF 14
ENDMDL
