MODEL 1
REMARK VINA RESULT:     -13.3      0.000      0.000
REMARK SMILES CC[NH+]1CCC2(CC1)OC[C@H](C(=O)NCCCCNC(=O)c1ccc(-c3c4nc(c(-c5c(F)c(F)c(F)c(F)c5F)c5ccc([nH]5)c(-c5c(F)c(F)c(F)c(F)c5F)c5nc(c(-c6c(F)c(F)c(F)c(F)c6F)c6ccc3[nH]6)C=C5)C=C4)cc1)N2C(=O)c1ccccc1
REMARK SMILES IDX 16 1 15 2 14 3 12 4 13 5 11 7 3 8 4 9 8 10 5 12 7 13 6 14
REMARK SMILES IDX 9 15 85 16 10 17 2 18 1 19 86 20 87 21 88 22 89 23 93 24
REMARK SMILES IDX 90 25 92 26 91 27 17 28 18 29 19 30 20 31 21 33 22 34 23 35
REMARK SMILES IDX 84 36 24 37 83 38 25 39 26 40 27 41 77 42 28 43 82 44 76 45
REMARK SMILES IDX 78 46 29 47 81 48 75 49 74 50 30 52 62 53 42 54 61 55 43 56
REMARK SMILES IDX 46 57 60 58 79 59 44 60 45 61 59 63 80 64 47 65 31 66 32 67
REMARK SMILES IDX 40 68 33 69 34 70 38 71 41 72 35 73 36 74 39 75 37 76 63 77
REMARK SMILES IDX 64 78 72 79 65 80 66 81 70 82 73 83 67 84 68 85 71 86 69 87
REMARK SMILES IDX 48 88 49 89 57 90 50 91 51 92 55 93 58 94 52 95 53 96 56 97
REMARK SMILES IDX 54 98
REMARK H PARENT 14 6 3 11 19 32 78 51 46 62
REMARK Flexibility Score: inf
ROOT
ATOM      1  C   UNL A   1      32.074  30.447  26.181  1.00  0.00     0.023 C 
ENDROOT
BRANCH   1   2
ATOM      2  C   UNL A   1      32.510  29.476  27.276  1.00  0.00     0.116 C 
BRANCH   2   3
ATOM      3  N   UNL A   1      31.611  28.347  27.374  1.00  0.00    -0.354 N 
ATOM      4  C   UNL A   1      31.512  27.242  26.582  1.00  0.00     0.245 C 
ATOM      5  O   UNL A   1      30.668  26.408  26.922  1.00  0.00    -0.273 OA
ATOM      6  H   UNL A   1      30.975  28.383  28.124  1.00  0.00     0.163 HD
BRANCH   4   7
ATOM      7  C   UNL A   1      32.381  27.084  25.307  1.00  0.00     0.203 C 
ATOM      8  N   UNL A   1      31.928  21.981  24.656  1.00  0.00    -0.335 N 
ATOM      9  C   UNL A   1      31.302  22.906  25.587  1.00  0.00     0.267 C 
ATOM     10  C   UNL A   1      32.862  22.574  23.694  1.00  0.00     0.267 C 
ATOM     11  H   UNL A   1      31.103  21.712  24.120  1.00  0.00     0.348 HD
ATOM     12  C   UNL A   1      32.238  23.932  26.167  1.00  0.00     0.120 C 
ATOM     13  C   UNL A   1      33.636  23.828  24.108  1.00  0.00     0.120 C 
ATOM     14  C   UNL A   1      32.915  24.766  25.077  1.00  0.00     0.155 C 
ATOM     15  O   UNL A   1      34.004  25.447  25.782  1.00  0.00    -0.352 OA
ATOM     16  N   UNL A   1      32.103  25.878  24.528  1.00  0.00    -0.295 N 
ATOM     17  C   UNL A   1      33.824  26.866  25.691  1.00  0.00     0.198 C 
BRANCH   8  18
ATOM     18  C   UNL A   1      32.431  20.721  25.200  1.00  0.00     0.258 C 
ATOM     19  C   UNL A   1      33.848  20.349  24.779  1.00  0.00     0.071 C 
ENDBRANCH   8  18
BRANCH  16  20
ATOM     20  C   UNL A   1      31.326  26.031  23.386  1.00  0.00     0.256 C 
ATOM     21  O   UNL A   1      31.378  25.244  22.440  1.00  0.00    -0.269 OA
BRANCH  20  22
ATOM     22  C   UNL A   1      30.335  27.098  23.206  1.00  0.00     0.040 A 
ATOM     23  C   UNL A   1      29.018  26.876  23.625  1.00  0.00     0.014 A 
ATOM     24  C   UNL A   1      30.645  28.241  22.464  1.00  0.00     0.014 A 
ATOM     25  C   UNL A   1      28.052  27.865  23.428  1.00  0.00     0.001 A 
ATOM     26  C   UNL A   1      29.688  29.244  22.301  1.00  0.00     0.001 A 
ATOM     27  C   UNL A   1      28.397  29.063  22.797  1.00  0.00     0.000 A 
ENDBRANCH  20  22
ENDBRANCH  16  20
ENDBRANCH   4   7
ENDBRANCH   2   3
ENDBRANCH   1   2
BRANCH   1  28
ATOM     28  C   UNL A   1      31.658  31.831  26.687  1.00  0.00     0.023 C 
BRANCH  28  29
ATOM     29  C   UNL A   1      32.739  32.602  27.437  1.00  0.00     0.116 C 
BRANCH  29  30
ATOM     30  N   UNL A   1      32.393  33.996  27.665  1.00  0.00    -0.352 N 
ATOM     31  C   UNL A   1      32.964  34.900  28.528  1.00  0.00     0.251 C 
ATOM     32  H   UNL A   1      31.644  34.340  27.127  1.00  0.00     0.163 HD
ATOM     33  O   UNL A   1      32.468  36.011  28.687  1.00  0.00    -0.269 OA
BRANCH  31  34
ATOM     34  C   UNL A   1      34.160  34.509  29.299  1.00  0.00     0.039 A 
ATOM     35  C   UNL A   1      33.988  33.968  30.575  1.00  0.00     0.014 A 
ATOM     36  C   UNL A   1      35.438  34.636  28.750  1.00  0.00     0.014 A 
ATOM     37  C   UNL A   1      35.094  33.469  31.266  1.00  0.00     0.010 A 
ATOM     38  C   UNL A   1      36.528  34.078  29.409  1.00  0.00     0.010 A 
ATOM     39  C   UNL A   1      36.363  33.472  30.666  1.00  0.00    -0.014 A 
BRANCH  39  40
ATOM     40  C   UNL A   1      37.521  32.802  31.308  1.00  0.00     0.031 A 
ATOM     41  C   UNL A   1      38.177  31.623  30.650  1.00  0.00     0.074 A 
ATOM     42  C   UNL A   1      37.922  33.206  32.529  1.00  0.00     0.049 A 
ATOM     43  N   UNL A   1      39.128  30.846  31.102  1.00  0.00    -0.248 NA
ATOM     44  C   UNL A   1      37.685  31.256  29.313  1.00  0.00     0.031 C 
ATOM     45  C   UNL A   1      37.337  34.313  33.288  1.00  0.00     0.029 A 
ATOM     46  N   UNL A   1      38.904  32.719  33.357  1.00  0.00    -0.354 N 
ATOM     47  C   UNL A   1      39.340  29.894  30.114  1.00  0.00     0.074 A 
ATOM     48  C   UNL A   1      38.386  30.162  29.058  1.00  0.00     0.031 C 
ATOM     49  C   UNL A   1      37.978  34.430  34.461  1.00  0.00     0.029 A 
ATOM     50  C   UNL A   1      38.985  33.378  34.560  1.00  0.00     0.049 A 
ATOM     51  H   UNL A   1      39.494  31.970  33.112  1.00  0.00     0.167 HD
ATOM     52  C   UNL A   1      40.260  28.901  30.085  1.00  0.00     0.037 A 
ATOM     53  C   UNL A   1      39.766  33.146  35.632  1.00  0.00     0.037 A 
ATOM     54  C   UNL A   1      41.214  28.648  31.136  1.00  0.00     0.049 A 
ATOM     55  C   UNL A   1      40.748  32.007  35.590  1.00  0.00     0.074 A 
ATOM     56  C   UNL A   1      42.229  27.709  31.169  1.00  0.00     0.029 A 
ATOM     57  N   UNL A   1      41.260  29.332  32.342  1.00  0.00    -0.354 N 
ATOM     58  N   UNL A   1      40.992  31.160  34.620  1.00  0.00    -0.248 NA
ATOM     59  C   UNL A   1      41.562  31.790  36.794  1.00  0.00     0.031 C 
ATOM     60  C   UNL A   1      42.852  27.783  32.420  1.00  0.00     0.029 A 
ATOM     61  C   UNL A   1      42.262  28.806  33.144  1.00  0.00     0.049 A 
ATOM     62  H   UNL A   1      40.670  30.078  32.591  1.00  0.00     0.167 HD
ATOM     63  C   UNL A   1      41.996  30.322  35.088  1.00  0.00     0.074 A 
ATOM     64  C   UNL A   1      42.333  30.779  36.420  1.00  0.00     0.031 C 
ATOM     65  C   UNL A   1      42.580  29.265  34.472  1.00  0.00     0.037 A 
BRANCH  52  66
ATOM     66  C   UNL A   1      40.279  28.004  28.880  1.00  0.00     0.064 A 
ATOM     67  C   UNL A   1      41.010  28.334  27.728  1.00  0.00     0.173 A 
ATOM     68  C   UNL A   1      39.595  26.779  28.894  1.00  0.00     0.173 A 
ATOM     69  F   UNL A   1      41.674  29.497  27.660  1.00  0.00    -0.203 F 
ATOM     70  C   UNL A   1      41.032  27.484  26.626  1.00  0.00     0.198 A 
ATOM     71  C   UNL A   1      39.646  25.917  27.802  1.00  0.00     0.198 A 
ATOM     72  F   UNL A   1      38.887  26.412  29.973  1.00  0.00    -0.203 F 
ATOM     73  F   UNL A   1      41.698  27.842  25.520  1.00  0.00    -0.200 F 
ATOM     74  C   UNL A   1      40.357  26.273  26.666  1.00  0.00     0.200 A 
ATOM     75  F   UNL A   1      39.005  24.741  27.849  1.00  0.00    -0.200 F 
ATOM     76  F   UNL A   1      40.388  25.452  25.609  1.00  0.00    -0.200 F 
ENDBRANCH  52  66
BRANCH  53  77
ATOM     77  C   UNL A   1      39.648  34.007  36.838  1.00  0.00     0.064 A 
ATOM     78  C   UNL A   1      38.847  33.622  37.922  1.00  0.00     0.173 A 
ATOM     79  C   UNL A   1      40.322  35.234  36.929  1.00  0.00     0.173 A 
ATOM     80  F   UNL A   1      38.163  32.469  37.874  1.00  0.00    -0.203 F 
ATOM     81  C   UNL A   1      38.710  34.439  39.043  1.00  0.00     0.198 A 
ATOM     82  C   UNL A   1      40.209  36.035  38.063  1.00  0.00     0.198 A 
ATOM     83  F   UNL A   1      41.103  35.648  35.921  1.00  0.00    -0.203 F 
ATOM     84  F   UNL A   1      37.899  34.069  40.044  1.00  0.00    -0.200 F 
ATOM     85  C   UNL A   1      39.396  35.642  39.115  1.00  0.00     0.200 A 
ATOM     86  F   UNL A   1      40.887  37.189  38.135  1.00  0.00    -0.200 F 
ATOM     87  F   UNL A   1      39.268  36.425  40.194  1.00  0.00    -0.200 F 
ENDBRANCH  53  77
BRANCH  65  88
ATOM     88  C   UNL A   1      43.652  28.536  35.229  1.00  0.00     0.064 A 
ATOM     89  C   UNL A   1      43.352  27.434  36.046  1.00  0.00     0.173 A 
ATOM     90  C   UNL A   1      44.998  28.912  35.105  1.00  0.00     0.173 A 
ATOM     91  F   UNL A   1      42.078  27.045  36.211  1.00  0.00    -0.203 F 
ATOM     92  C   UNL A   1      44.357  26.753  36.727  1.00  0.00     0.198 A 
ATOM     93  C   UNL A   1      46.004  28.209  35.763  1.00  0.00     0.198 A 
ATOM     94  F   UNL A   1      45.340  29.956  34.334  1.00  0.00    -0.203 F 
ATOM     95  F   UNL A   1      44.040  25.734  37.538  1.00  0.00    -0.200 F 
ATOM     96  C   UNL A   1      45.681  27.134  36.578  1.00  0.00     0.200 A 
ATOM     97  F   UNL A   1      47.284  28.570  35.605  1.00  0.00    -0.200 F 
ATOM     98  F   UNL A   1      46.647  26.471  37.226  1.00  0.00    -0.200 F 
ENDBRANCH  65  88
ENDBRANCH  39  40
ENDBRANCH  31  34
ENDBRANCH  29  30
ENDBRANCH  28  29
ENDBRANCH   1  28
TORSDOF 14
ENDMDL
MODEL 2
REMARK VINA RESULT:     -13.3      0.459      7.165
REMARK SMILES CC[NH+]1CCC2(CC1)OC[C@H](C(=O)NCCCCNC(=O)c1ccc(-c3c4nc(c(-c5c(F)c(F)c(F)c(F)c5F)c5ccc([nH]5)c(-c5c(F)c(F)c(F)c(F)c5F)c5nc(c(-c6c(F)c(F)c(F)c(F)c6F)c6ccc3[nH]6)C=C5)C=C4)cc1)N2C(=O)c1ccccc1
REMARK SMILES IDX 16 1 15 2 14 3 12 4 13 5 11 7 3 8 4 9 8 10 5 12 7 13 6 14
REMARK SMILES IDX 9 15 85 16 10 17 2 18 1 19 86 20 87 21 88 22 89 23 93 24
REMARK SMILES IDX 90 25 92 26 91 27 17 28 18 29 19 30 20 31 21 33 22 34 23 35
REMARK SMILES IDX 84 36 24 37 83 38 25 39 26 40 27 41 77 42 28 43 82 44 76 45
REMARK SMILES IDX 78 46 29 47 81 48 75 49 74 50 30 52 62 53 42 54 61 55 43 56
REMARK SMILES IDX 46 57 60 58 79 59 44 60 45 61 59 63 80 64 47 65 31 66 32 67
REMARK SMILES IDX 40 68 33 69 34 70 38 71 41 72 35 73 36 74 39 75 37 76 63 77
REMARK SMILES IDX 64 78 72 79 65 80 66 81 70 82 73 83 67 84 68 85 71 86 69 87
REMARK SMILES IDX 48 88 49 89 57 90 50 91 51 92 55 93 58 94 52 95 53 96 56 97
REMARK SMILES IDX 54 98
REMARK H PARENT 14 6 3 11 19 32 78 51 46 62
REMARK Flexibility Score: inf
ROOT
ATOM      1  C   UNL A   1      31.759  30.686  26.159  1.00  0.00     0.023 C 
ENDROOT
BRANCH   1   2
ATOM      2  C   UNL A   1      32.321  29.705  27.185  1.00  0.00     0.116 C 
BRANCH   2   3
ATOM      3  N   UNL A   1      31.483  28.532  27.312  1.00  0.00    -0.354 N 
ATOM      4  C   UNL A   1      31.473  27.386  26.574  1.00  0.00     0.245 C 
ATOM      5  O   UNL A   1      30.665  26.522  26.930  1.00  0.00    -0.273 OA
ATOM      6  H   UNL A   1      30.822  28.567  28.040  1.00  0.00     0.163 HD
BRANCH   4   7
ATOM      7  C   UNL A   1      32.389  27.217  25.334  1.00  0.00     0.203 C 
ATOM      8  N   UNL A   1      31.783  22.145  24.574  1.00  0.00    -0.335 N 
ATOM      9  C   UNL A   1      31.150  23.078  25.494  1.00  0.00     0.267 C 
ATOM     10  C   UNL A   1      32.779  22.720  23.663  1.00  0.00     0.267 C 
ATOM     11  H   UNL A   1      30.972  21.916  23.998  1.00  0.00     0.348 HD
ATOM     12  C   UNL A   1      32.097  24.059  26.132  1.00  0.00     0.120 C 
ATOM     13  C   UNL A   1      33.578  23.938  24.132  1.00  0.00     0.120 C 
ATOM     14  C   UNL A   1      32.849  24.886  25.086  1.00  0.00     0.155 C 
ATOM     15  O   UNL A   1      33.931  25.515  25.849  1.00  0.00    -0.352 OA
ATOM     16  N   UNL A   1      32.102  26.035  24.523  1.00  0.00    -0.295 N 
ATOM     17  C   UNL A   1      33.806  26.941  25.776  1.00  0.00     0.198 C 
BRANCH   8  18
ATOM     18  C   UNL A   1      32.216  20.859  25.117  1.00  0.00     0.258 C 
ATOM     19  C   UNL A   1      32.714  19.852  24.086  1.00  0.00     0.071 C 
ENDBRANCH   8  18
BRANCH  16  20
ATOM     20  C   UNL A   1      31.382  26.236  23.352  1.00  0.00     0.256 C 
ATOM     21  O   UNL A   1      31.477  25.484  22.379  1.00  0.00    -0.269 OA
BRANCH  20  22
ATOM     22  C   UNL A   1      30.404  27.313  23.165  1.00  0.00     0.040 A 
ATOM     23  C   UNL A   1      29.077  27.097  23.555  1.00  0.00     0.014 A 
ATOM     24  C   UNL A   1      30.738  28.461  22.443  1.00  0.00     0.014 A 
ATOM     25  C   UNL A   1      28.123  28.097  23.351  1.00  0.00     0.001 A 
ATOM     26  C   UNL A   1      29.793  29.475  22.273  1.00  0.00     0.001 A 
ATOM     27  C   UNL A   1      28.490  29.299  22.742  1.00  0.00     0.000 A 
ENDBRANCH  20  22
ENDBRANCH  16  20
ENDBRANCH   4   7
ENDBRANCH   2   3
ENDBRANCH   1   2
BRANCH   1  28
ATOM     28  C   UNL A   1      31.462  32.083  26.711  1.00  0.00     0.023 C 
BRANCH  28  29
ATOM     29  C   UNL A   1      32.659  32.811  27.315  1.00  0.00     0.116 C 
BRANCH  29  30
ATOM     30  N   UNL A   1      32.376  34.200  27.642  1.00  0.00    -0.352 N 
ATOM     31  C   UNL A   1      32.966  35.004  28.588  1.00  0.00     0.251 C 
ATOM     32  H   UNL A   1      31.662  34.624  27.113  1.00  0.00     0.163 HD
ATOM     33  O   UNL A   1      32.522  36.124  28.820  1.00  0.00    -0.269 OA
BRANCH  31  34
ATOM     34  C   UNL A   1      34.116  34.493  29.358  1.00  0.00     0.039 A 
ATOM     35  C   UNL A   1      33.883  33.914  30.608  1.00  0.00     0.014 A 
ATOM     36  C   UNL A   1      35.409  34.545  28.831  1.00  0.00     0.014 A 
ATOM     37  C   UNL A   1      34.937  33.305  31.291  1.00  0.00     0.010 A 
ATOM     38  C   UNL A   1      36.443  33.879  29.480  1.00  0.00     0.010 A 
ATOM     39  C   UNL A   1      36.213  33.237  30.708  1.00  0.00    -0.014 A 
BRANCH  39  40
ATOM     40  C   UNL A   1      37.306  32.455  31.337  1.00  0.00     0.031 A 
ATOM     41  C   UNL A   1      37.826  32.831  32.694  1.00  0.00     0.074 A 
ATOM     42  C   UNL A   1      37.889  31.458  30.642  1.00  0.00     0.049 A 
ATOM     43  N   UNL A   1      38.839  32.337  33.359  1.00  0.00    -0.248 NA
ATOM     44  C   UNL A   1      37.126  33.924  33.388  1.00  0.00     0.031 C 
ATOM     45  C   UNL A   1      37.499  31.026  29.298  1.00  0.00     0.029 A 
ATOM     46  N   UNL A   1      38.945  30.641  30.960  1.00  0.00    -0.354 N 
ATOM     47  C   UNL A   1      38.906  33.063  34.541  1.00  0.00     0.074 A 
ATOM     48  C   UNL A   1      37.861  34.063  34.482  1.00  0.00     0.031 C 
ATOM     49  C   UNL A   1      38.294  30.016  28.914  1.00  0.00     0.029 A 
ATOM     50  C   UNL A   1      39.280  29.761  29.960  1.00  0.00     0.049 A 
ATOM     51  H   UNL A   1      39.416  30.681  31.823  1.00  0.00     0.167 HD
ATOM     52  C   UNL A   1      39.750  32.894  35.586  1.00  0.00     0.037 A 
ATOM     53  C   UNL A   1      40.284  28.866  29.883  1.00  0.00     0.037 A 
ATOM     54  C   UNL A   1      40.781  31.888  35.642  1.00  0.00     0.049 A 
ATOM     55  C   UNL A   1      41.235  28.732  31.041  1.00  0.00     0.074 A 
ATOM     56  C   UNL A   1      41.642  31.595  36.684  1.00  0.00     0.029 A 
ATOM     57  N   UNL A   1      41.094  31.020  34.607  1.00  0.00    -0.354 N 
ATOM     58  N   UNL A   1      41.242  29.371  32.185  1.00  0.00    -0.248 NA
ATOM     59  C   UNL A   1      42.320  27.752  30.895  1.00  0.00     0.031 C 
ATOM     60  C   UNL A   1      42.517  30.590  36.258  1.00  0.00     0.029 A 
ATOM     61  C   UNL A   1      42.165  30.218  34.971  1.00  0.00     0.049 A 
ATOM     62  H   UNL A   1      40.627  30.980  33.741  1.00  0.00     0.167 HD
ATOM     63  C   UNL A   1      42.318  28.862  32.900  1.00  0.00     0.074 A 
ATOM     64  C   UNL A   1      42.924  27.842  32.071  1.00  0.00     0.031 C 
ATOM     65  C   UNL A   1      42.765  29.212  34.131  1.00  0.00     0.037 A 
BRANCH  52  66
ATOM     66  C   UNL A   1      39.603  33.822  36.757  1.00  0.00     0.064 A 
ATOM     67  C   UNL A   1      38.837  33.475  37.881  1.00  0.00     0.173 A 
ATOM     68  C   UNL A   1      40.271  35.056  36.776  1.00  0.00     0.173 A 
ATOM     69  F   UNL A   1      38.170  32.311  37.910  1.00  0.00    -0.203 F 
ATOM     70  C   UNL A   1      38.724  34.339  38.966  1.00  0.00     0.198 A 
ATOM     71  C   UNL A   1      40.182  35.903  37.878  1.00  0.00     0.198 A 
ATOM     72  F   UNL A   1      41.022  35.435  35.731  1.00  0.00    -0.203 F 
ATOM     73  F   UNL A   1      37.948  34.006  40.007  1.00  0.00    -0.200 F 
ATOM     74  C   UNL A   1      39.402  35.548  38.968  1.00  0.00     0.200 A 
ATOM     75  F   UNL A   1      40.850  37.065  37.883  1.00  0.00    -0.200 F 
ATOM     76  F   UNL A   1      39.301  36.374  40.018  1.00  0.00    -0.200 F 
ENDBRANCH  52  66
BRANCH  53  77
ATOM     77  C   UNL A   1      40.443  28.031  28.663  1.00  0.00     0.064 A 
ATOM     78  C   UNL A   1      39.831  26.773  28.568  1.00  0.00     0.173 A 
ATOM     79  C   UNL A   1      41.215  28.465  27.576  1.00  0.00     0.173 A 
ATOM     80  F   UNL A   1      39.102  26.303  29.591  1.00  0.00    -0.203 F 
ATOM     81  C   UNL A   1      40.000  25.974  27.438  1.00  0.00     0.198 A 
ATOM     82  C   UNL A   1      41.357  27.679  26.434  1.00  0.00     0.198 A 
ATOM     83  F   UNL A   1      41.820  29.661  27.615  1.00  0.00    -0.203 F 
ATOM     84  F   UNL A   1      39.444  24.756  27.394  1.00  0.00    -0.200 F 
ATOM     85  C   UNL A   1      40.758  26.430  26.370  1.00  0.00     0.200 A 
ATOM     86  F   UNL A   1      42.078  28.130  25.398  1.00  0.00    -0.200 F 
ATOM     87  F   UNL A   1      40.917  25.664  25.283  1.00  0.00    -0.200 F 
ENDBRANCH  53  77
BRANCH  65  88
ATOM     88  C   UNL A   1      43.966  28.481  34.659  1.00  0.00     0.064 A 
ATOM     89  C   UNL A   1      43.837  27.266  35.350  1.00  0.00     0.173 A 
ATOM     90  C   UNL A   1      45.260  28.975  34.437  1.00  0.00     0.173 A 
ATOM     91  F   UNL A   1      42.620  26.760  35.604  1.00  0.00    -0.203 F 
ATOM     92  C   UNL A   1      44.958  26.587  35.818  1.00  0.00     0.198 A 
ATOM     93  C   UNL A   1      46.380  28.277  34.878  1.00  0.00     0.198 A 
ATOM     94  F   UNL A   1      45.438  30.130  33.778  1.00  0.00    -0.203 F 
ATOM     95  F   UNL A   1      44.808  25.453  36.517  1.00  0.00    -0.200 F 
ATOM     96  C   UNL A   1      46.228  27.087  35.574  1.00  0.00     0.200 A 
ATOM     97  F   UNL A   1      47.606  28.755  34.628  1.00  0.00    -0.200 F 
ATOM     98  F   UNL A   1      47.306  26.426  36.016  1.00  0.00    -0.200 F 
ENDBRANCH  65  88
ENDBRANCH  39  40
ENDBRANCH  31  34
ENDBRANCH  29  30
ENDBRANCH  28  29
ENDBRANCH   1  28
TORSDOF 14
ENDMDL
MODEL 3
REMARK VINA RESULT:     -13.3      0.985      2.858
REMARK SMILES CC[NH+]1CCC2(CC1)OC[C@H](C(=O)NCCCCNC(=O)c1ccc(-c3c4nc(c(-c5c(F)c(F)c(F)c(F)c5F)c5ccc([nH]5)c(-c5c(F)c(F)c(F)c(F)c5F)c5nc(c(-c6c(F)c(F)c(F)c(F)c6F)c6ccc3[nH]6)C=C5)C=C4)cc1)N2C(=O)c1ccccc1
REMARK SMILES IDX 16 1 15 2 14 3 12 4 13 5 11 7 3 8 4 9 8 10 5 12 7 13 6 14
REMARK SMILES IDX 9 15 85 16 10 17 2 18 1 19 86 20 87 21 88 22 89 23 93 24
REMARK SMILES IDX 90 25 92 26 91 27 17 28 18 29 19 30 20 31 21 33 22 34 23 35
REMARK SMILES IDX 84 36 24 37 83 38 25 39 26 40 27 41 77 42 28 43 82 44 76 45
REMARK SMILES IDX 78 46 29 47 81 48 75 49 74 50 30 52 62 53 42 54 61 55 43 56
REMARK SMILES IDX 46 57 60 58 79 59 44 60 45 61 59 63 80 64 47 65 31 66 32 67
REMARK SMILES IDX 40 68 33 69 34 70 38 71 41 72 35 73 36 74 39 75 37 76 63 77
REMARK SMILES IDX 64 78 72 79 65 80 66 81 70 82 73 83 67 84 68 85 71 86 69 87
REMARK SMILES IDX 48 88 49 89 57 90 50 91 51 92 55 93 58 94 52 95 53 96 56 97
REMARK SMILES IDX 54 98
REMARK H PARENT 14 6 3 11 19 32 78 51 46 62
REMARK Flexibility Score: inf
ROOT
ATOM      1  C   UNL A   1      31.913  30.199  26.598  1.00  0.00     0.023 C 
ENDROOT
BRANCH   1   2
ATOM      2  C   UNL A   1      33.258  29.649  26.128  1.00  0.00     0.116 C 
BRANCH   2   3
ATOM      3  N   UNL A   1      33.299  29.504  24.690  1.00  0.00    -0.354 N 
ATOM      4  C   UNL A   1      32.412  28.897  23.850  1.00  0.00     0.245 C 
ATOM      5  O   UNL A   1      32.683  28.955  22.647  1.00  0.00    -0.273 OA
ATOM      6  H   UNL A   1      34.084  29.903  24.251  1.00  0.00     0.163 HD
BRANCH   4   7
ATOM      7  C   UNL A   1      31.173  28.142  24.396  1.00  0.00     0.203 C 
ATOM      8  N   UNL A   1      32.477  23.345  22.995  1.00  0.00    -0.335 N 
ATOM      9  C   UNL A   1      33.191  24.611  22.929  1.00  0.00     0.267 C 
ATOM     10  C   UNL A   1      31.132  23.399  23.577  1.00  0.00     0.267 C 
ATOM     11  H   UNL A   1      33.063  22.868  23.680  1.00  0.00     0.348 HD
ATOM     12  C   UNL A   1      32.352  25.774  22.473  1.00  0.00     0.120 C 
ATOM     13  C   UNL A   1      30.321  24.687  23.421  1.00  0.00     0.120 C 
ATOM     14  C   UNL A   1      31.132  25.983  23.373  1.00  0.00     0.155 C 
ATOM     15  O   UNL A   1      30.284  26.900  22.606  1.00  0.00    -0.352 OA
ATOM     16  N   UNL A   1      31.388  26.715  24.636  1.00  0.00    -0.295 N 
ATOM     17  C   UNL A   1      30.087  28.110  23.348  1.00  0.00     0.198 C 
BRANCH   8  18
ATOM     18  C   UNL A   1      32.528  22.485  21.814  1.00  0.00     0.258 C 
ATOM     19  C   UNL A   1      31.933  21.094  21.997  1.00  0.00     0.071 C 
ENDBRANCH   8  18
BRANCH  16  20
ATOM     20  C   UNL A   1      31.597  26.323  25.952  1.00  0.00     0.256 C 
ATOM     21  O   UNL A   1      31.082  26.908  26.907  1.00  0.00    -0.269 OA
BRANCH  20  22
ATOM     22  C   UNL A   1      32.394  25.155  26.343  1.00  0.00     0.040 A 
ATOM     23  C   UNL A   1      33.751  25.118  26.003  1.00  0.00     0.014 A 
ATOM     24  C   UNL A   1      31.779  24.018  26.875  1.00  0.00     0.014 A 
ATOM     25  C   UNL A   1      34.518  23.998  26.333  1.00  0.00     0.001 A 
ATOM     26  C   UNL A   1      32.554  22.915  27.239  1.00  0.00     0.001 A 
ATOM     27  C   UNL A   1      33.926  22.912  26.983  1.00  0.00     0.000 A 
ENDBRANCH  20  22
ENDBRANCH  16  20
ENDBRANCH   4   7
ENDBRANCH   2   3
ENDBRANCH   1   2
BRANCH   1  28
ATOM     28  C   UNL A   1      31.801  31.725  26.558  1.00  0.00     0.023 C 
BRANCH  28  29
ATOM     29  C   UNL A   1      32.830  32.475  27.398  1.00  0.00     0.116 C 
BRANCH  29  30
ATOM     30  N   UNL A   1      32.476  33.867  27.627  1.00  0.00    -0.352 N 
ATOM     31  C   UNL A   1      33.031  34.769  28.502  1.00  0.00     0.251 C 
ATOM     32  H   UNL A   1      31.735  34.211  27.079  1.00  0.00     0.163 HD
ATOM     33  O   UNL A   1      32.530  35.877  28.659  1.00  0.00    -0.269 OA
BRANCH  31  34
ATOM     34  C   UNL A   1      34.216  34.378  29.291  1.00  0.00     0.039 A 
ATOM     35  C   UNL A   1      34.026  33.820  30.557  1.00  0.00     0.014 A 
ATOM     36  C   UNL A   1      35.503  34.521  28.766  1.00  0.00     0.014 A 
ATOM     37  C   UNL A   1      35.123  33.322  31.261  1.00  0.00     0.010 A 
ATOM     38  C   UNL A   1      36.586  33.963  29.438  1.00  0.00     0.010 A 
ATOM     39  C   UNL A   1      36.403  33.342  30.684  1.00  0.00    -0.014 A 
BRANCH  39  40
ATOM     40  C   UNL A   1      37.554  32.673  31.339  1.00  0.00     0.031 A 
ATOM     41  C   UNL A   1      38.232  31.507  30.679  1.00  0.00     0.074 A 
ATOM     42  C   UNL A   1      37.931  33.065  32.572  1.00  0.00     0.049 A 
ATOM     43  N   UNL A   1      39.180  30.732  31.140  1.00  0.00    -0.248 NA
ATOM     44  C   UNL A   1      37.766  31.152  29.329  1.00  0.00     0.031 C 
ATOM     45  C   UNL A   1      37.323  34.158  33.333  1.00  0.00     0.029 A 
ATOM     46  N   UNL A   1      38.901  32.576  33.411  1.00  0.00    -0.354 N 
ATOM     47  C   UNL A   1      39.417  29.793  30.144  1.00  0.00     0.074 A 
ATOM     48  C   UNL A   1      38.481  30.066  29.074  1.00  0.00     0.031 C 
ATOM     49  C   UNL A   1      37.942  34.267  34.518  1.00  0.00     0.029 A 
ATOM     50  C   UNL A   1      38.956  33.222  34.623  1.00  0.00     0.049 A 
ATOM     51  H   UNL A   1      39.501  31.835  33.168  1.00  0.00     0.167 HD
ATOM     52  C   UNL A   1      40.346  28.808  30.120  1.00  0.00     0.037 A 
ATOM     53  C   UNL A   1      39.719  32.983  35.707  1.00  0.00     0.037 A 
ATOM     54  C   UNL A   1      41.282  28.549  31.184  1.00  0.00     0.049 A 
ATOM     55  C   UNL A   1      40.711  31.852  35.669  1.00  0.00     0.074 A 
ATOM     56  C   UNL A   1      42.304  27.618  31.226  1.00  0.00     0.029 A 
ATOM     57  N   UNL A   1      41.302  29.219  32.399  1.00  0.00    -0.354 N 
ATOM     58  N   UNL A   1      40.979  31.018  34.693  1.00  0.00    -0.248 NA
ATOM     59  C   UNL A   1      41.505  31.627  36.885  1.00  0.00     0.031 C 
ATOM     60  C   UNL A   1      42.904  27.682  32.488  1.00  0.00     0.029 A 
ATOM     61  C   UNL A   1      42.293  28.692  33.213  1.00  0.00     0.049 A 
ATOM     62  H   UNL A   1      40.702  29.958  32.647  1.00  0.00     0.167 HD
ATOM     63  C   UNL A   1      41.980  30.182  35.170  1.00  0.00     0.074 A 
ATOM     64  C   UNL A   1      42.290  30.626  36.512  1.00  0.00     0.031 C 
ATOM     65  C   UNL A   1      42.584  29.138  34.552  1.00  0.00     0.037 A 
BRANCH  52  66
ATOM     66  C   UNL A   1      40.393  27.925  28.905  1.00  0.00     0.064 A 
ATOM     67  C   UNL A   1      39.645  26.740  28.826  1.00  0.00     0.173 A 
ATOM     68  C   UNL A   1      41.162  28.291  27.789  1.00  0.00     0.173 A 
ATOM     69  F   UNL A   1      38.902  26.340  29.869  1.00  0.00    -0.203 F 
ATOM     70  C   UNL A   1      39.687  25.942  27.687  1.00  0.00     0.198 A 
ATOM     71  C   UNL A   1      41.174  27.506  26.639  1.00  0.00     0.198 A 
ATOM     72  F   UNL A   1      41.890  29.417  27.810  1.00  0.00    -0.203 F 
ATOM     73  F   UNL A   1      39.001  24.791  27.653  1.00  0.00    -0.200 F 
ATOM     74  C   UNL A   1      40.444  26.329  26.592  1.00  0.00     0.200 A 
ATOM     75  F   UNL A   1      41.896  27.890  25.577  1.00  0.00    -0.200 F 
ATOM     76  F   UNL A   1      40.475  25.564  25.492  1.00  0.00    -0.200 F 
ENDBRANCH  52  66
BRANCH  53  77
ATOM     77  C   UNL A   1      39.573  33.829  36.920  1.00  0.00     0.064 A 
ATOM     78  C   UNL A   1      38.763  33.420  37.989  1.00  0.00     0.173 A 
ATOM     79  C   UNL A   1      40.227  35.064  37.033  1.00  0.00     0.173 A 
ATOM     80  F   UNL A   1      38.098  32.257  37.920  1.00  0.00    -0.203 F 
ATOM     81  C   UNL A   1      38.600  34.222  39.117  1.00  0.00     0.198 A 
ATOM     82  C   UNL A   1      40.088  35.851  38.175  1.00  0.00     0.198 A 
ATOM     83  F   UNL A   1      41.014  35.501  36.040  1.00  0.00    -0.203 F 
ATOM     84  F   UNL A   1      37.782  33.829  40.103  1.00  0.00    -0.200 F 
ATOM     85  C   UNL A   1      39.268  35.434  39.212  1.00  0.00     0.200 A 
ATOM     86  F   UNL A   1      40.748  37.014  38.268  1.00  0.00    -0.200 F 
ATOM     87  F   UNL A   1      39.114  36.203  40.297  1.00  0.00    -0.200 F 
ENDBRANCH  53  77
BRANCH  65  88
ATOM     88  C   UNL A   1      43.648  28.407  35.320  1.00  0.00     0.064 A 
ATOM     89  C   UNL A   1      45.002  28.759  35.209  1.00  0.00     0.173 A 
ATOM     90  C   UNL A   1      43.309  27.375  36.207  1.00  0.00     0.173 A 
ATOM     91  F   UNL A   1      45.381  29.728  34.362  1.00  0.00    -0.203 F 
ATOM     92  C   UNL A   1      45.978  28.088  35.942  1.00  0.00     0.198 A 
ATOM     93  C   UNL A   1      44.284  26.727  36.961  1.00  0.00     0.198 A 
ATOM     94  F   UNL A   1      42.028  27.003  36.353  1.00  0.00    -0.203 F 
ATOM     95  F   UNL A   1      47.270  28.409  35.783  1.00  0.00    -0.200 F 
ATOM     96  C   UNL A   1      45.618  27.080  36.822  1.00  0.00     0.200 A 
ATOM     97  F   UNL A   1      43.931  25.764  37.822  1.00  0.00    -0.200 F 
ATOM     98  F   UNL A   1      46.557  26.442  37.533  1.00  0.00    -0.200 F 
ENDBRANCH  65  88
ENDBRANCH  39  40
ENDBRANCH  31  34
ENDBRANCH  29  30
ENDBRANCH  28  29
ENDBRANCH   1  28
TORSDOF 14
ENDMDL
