MODEL 1
REMARK VINA RESULT:     -12.0      0.000      0.000
REMARK SMILES C[C@@](NC(=O)c1ccc[nH]c1=O)(C(=O)NCCCCNC(=O)c1ccc(-c2c3nc(c(-c4c(F)c(F)c(F)c(F)c4F)c4ccc([nH]4)c(-c4c(F)c(F)c(F)c(F)c4F)c4nc(c(-c5c(F)c(F)c(F)c(F)c5F)c5ccc2[nH]5)C=C4)C=C3)cc1)C(F)(F)F
REMARK SMILES IDX 17 1 16 2 15 3 13 4 14 5 2 7 1 8 3 9 4 10 5 12 6 13 7 14
REMARK SMILES IDX 11 15 8 16 10 17 12 18 9 19 86 21 87 22 88 23 89 24 18 25
REMARK SMILES IDX 19 26 20 27 21 28 22 30 23 31 24 32 85 33 25 34 84 35 26 36
REMARK SMILES IDX 27 37 28 38 78 39 29 40 83 41 77 42 79 43 30 44 82 45 76 46
REMARK SMILES IDX 75 47 31 49 63 50 43 51 62 52 44 53 47 54 61 55 80 56 45 57
REMARK SMILES IDX 46 58 60 60 81 61 48 62 32 63 33 64 41 65 34 66 35 67 39 68
REMARK SMILES IDX 42 69 36 70 37 71 40 72 38 73 64 74 65 75 73 76 66 77 67 78
REMARK SMILES IDX 71 79 74 80 68 81 69 82 72 83 70 84 49 85 50 86 58 87 51 88
REMARK SMILES IDX 52 89 56 90 59 91 53 92 54 93 57 94 55 95
REMARK H PARENT 15 6 3 11 10 20 20 29 79 48 47 59
REMARK Flexibility Score: inf
ROOT
ATOM      1  C   UNL A   1      36.885  21.068  24.661  1.00  0.00     0.023 C 
ENDROOT
BRANCH   1   2
ATOM      2  C   UNL A   1      35.569  21.057  25.435  1.00  0.00     0.116 C 
BRANCH   2   3
ATOM      3  N   UNL A   1      34.476  20.532  24.628  1.00  0.00    -0.354 N 
ATOM      4  C   UNL A   1      33.344  21.125  24.129  1.00  0.00     0.254 C 
ATOM      5  O   UNL A   1      32.556  20.369  23.558  1.00  0.00    -0.272 OA
ATOM      6  H   UNL A   1      34.565  19.579  24.402  1.00  0.00     0.163 HD
BRANCH   4   7
ATOM      7  C   UNL A   1      33.035  22.610  24.382  1.00  0.00     0.212 C 
ATOM      8  C   UNL A   1      31.725  22.921  23.601  1.00  0.00     0.056 C 
BRANCH   7   9
ATOM      9  N   UNL A   1      32.806  22.918  25.839  1.00  0.00    -0.330 N 
ATOM     10  C   UNL A   1      32.153  23.947  26.468  1.00  0.00     0.257 C 
ATOM     11  H   UNL A   1      33.200  22.258  26.454  1.00  0.00     0.165 HD
ATOM     12  O   UNL A   1      31.778  23.749  27.626  1.00  0.00    -0.269 OA
BRANCH  10  13
ATOM     13  C   UNL A   1      32.159  25.326  25.923  1.00  0.00     0.104 A 
ATOM     14  C   UNL A   1      33.283  26.047  26.121  1.00  0.00     0.021 A 
ATOM     15  C   UNL A   1      31.024  25.991  25.236  1.00  0.00     0.260 A 
ATOM     16  C   UNL A   1      33.451  27.362  25.541  1.00  0.00     0.019 A 
ATOM     17  N   UNL A   1      31.296  27.205  24.643  1.00  0.00    -0.328 N 
ATOM     18  O   UNL A   1      29.900  25.515  25.196  1.00  0.00    -0.269 OA
ATOM     19  C   UNL A   1      32.474  27.884  24.792  1.00  0.00     0.086 A 
ATOM     20  H   UNL A   1      30.599  27.610  24.077  1.00  0.00     0.169 HD
ENDBRANCH  10  13
ENDBRANCH   7   9
BRANCH   7  21
ATOM     21  C   UNL A   1      34.094  23.531  23.720  1.00  0.00     0.420 C 
ATOM     22  F   UNL A   1      33.559  24.661  23.204  1.00  0.00    -0.168 F 
ATOM     23  F   UNL A   1      34.972  23.946  24.683  1.00  0.00    -0.168 F 
ATOM     24  F   UNL A   1      34.845  22.951  22.777  1.00  0.00    -0.168 F 
ENDBRANCH   7  21
ENDBRANCH   4   7
ENDBRANCH   2   3
ENDBRANCH   1   2
BRANCH   1  25
ATOM     25  C   UNL A   1      37.828  19.909  25.001  1.00  0.00     0.023 C 
BRANCH  25  26
ATOM     26  C   UNL A   1      39.074  20.290  25.799  1.00  0.00     0.116 C 
BRANCH  26  27
ATOM     27  N   UNL A   1      40.034  19.203  25.908  1.00  0.00    -0.352 N 
ATOM     28  C   UNL A   1      41.390  19.269  26.122  1.00  0.00     0.251 C 
ATOM     29  H   UNL A   1      39.662  18.297  25.816  1.00  0.00     0.163 HD
ATOM     30  O   UNL A   1      42.078  18.256  26.056  1.00  0.00    -0.269 OA
BRANCH  28  31
ATOM     31  C   UNL A   1      42.022  20.573  26.405  1.00  0.00     0.039 A 
ATOM     32  C   UNL A   1      42.438  21.366  25.333  1.00  0.00     0.014 A 
ATOM     33  C   UNL A   1      42.187  21.018  27.720  1.00  0.00     0.014 A 
ATOM     34  C   UNL A   1      42.958  22.638  25.576  1.00  0.00     0.010 A 
ATOM     35  C   UNL A   1      42.651  22.309  27.958  1.00  0.00     0.010 A 
ATOM     36  C   UNL A   1      43.036  23.133  26.888  1.00  0.00    -0.014 A 
BRANCH  36  37
ATOM     37  C   UNL A   1      43.506  24.514  27.159  1.00  0.00     0.031 A 
ATOM     38  C   UNL A   1      42.550  25.551  27.673  1.00  0.00     0.074 A 
ATOM     39  C   UNL A   1      44.779  24.849  26.877  1.00  0.00     0.049 A 
ATOM     40  N   UNL A   1      42.754  26.823  27.903  1.00  0.00    -0.248 NA
ATOM     41  C   UNL A   1      41.174  25.105  27.940  1.00  0.00     0.031 C 
ATOM     42  C   UNL A   1      45.790  23.944  26.328  1.00  0.00     0.029 A 
ATOM     43  N   UNL A   1      45.438  26.047  27.004  1.00  0.00    -0.354 N 
ATOM     44  C   UNL A   1      41.534  27.330  28.329  1.00  0.00     0.074 A 
ATOM     45  C   UNL A   1      40.583  26.241  28.279  1.00  0.00     0.031 C 
ATOM     46  C   UNL A   1      46.944  24.614  26.178  1.00  0.00     0.029 A 
ATOM     47  C   UNL A   1      46.748  26.000  26.592  1.00  0.00     0.049 A 
ATOM     48  H   UNL A   1      45.013  26.862  27.356  1.00  0.00     0.167 HD
ATOM     49  C   UNL A   1      41.240  28.585  28.746  1.00  0.00     0.037 A 
ATOM     50  C   UNL A   1      47.683  26.968  26.549  1.00  0.00     0.037 A 
ATOM     51  C   UNL A   1      42.194  29.660  28.820  1.00  0.00     0.049 A 
ATOM     52  C   UNL A   1      47.333  28.351  27.028  1.00  0.00     0.074 A 
ATOM     53  C   UNL A   1      42.005  30.951  29.281  1.00  0.00     0.029 A 
ATOM     54  N   UNL A   1      43.520  29.567  28.424  1.00  0.00    -0.354 N 
ATOM     55  N   UNL A   1      46.192  28.803  27.488  1.00  0.00    -0.248 NA
ATOM     56  C   UNL A   1      48.405  29.356  26.991  1.00  0.00     0.031 C 
ATOM     57  C   UNL A   1      43.208  31.650  29.132  1.00  0.00     0.029 A 
ATOM     58  C   UNL A   1      44.157  30.783  28.615  1.00  0.00     0.049 A 
ATOM     59  H   UNL A   1      43.945  28.758  28.061  1.00  0.00     0.167 HD
ATOM     60  C   UNL A   1      46.412  30.133  27.816  1.00  0.00     0.074 A 
ATOM     61  C   UNL A   1      47.801  30.413  27.516  1.00  0.00     0.031 C 
ATOM     62  C   UNL A   1      45.542  31.041  28.319  1.00  0.00     0.037 A 
BRANCH  49  63
ATOM     63  C   UNL A   1      39.826  28.860  29.165  1.00  0.00     0.064 A 
ATOM     64  C   UNL A   1      38.865  29.311  28.249  1.00  0.00     0.173 A 
ATOM     65  C   UNL A   1      39.419  28.639  30.489  1.00  0.00     0.173 A 
ATOM     66  F   UNL A   1      39.209  29.550  26.973  1.00  0.00    -0.203 F 
ATOM     67  C   UNL A   1      37.554  29.557  28.647  1.00  0.00     0.198 A 
ATOM     68  C   UNL A   1      38.099  28.859  30.878  1.00  0.00     0.198 A 
ATOM     69  F   UNL A   1      40.297  28.204  31.405  1.00  0.00    -0.203 F 
ATOM     70  F   UNL A   1      36.665  30.032  27.763  1.00  0.00    -0.200 F 
ATOM     71  C   UNL A   1      37.170  29.325  29.959  1.00  0.00     0.200 A 
ATOM     72  F   UNL A   1      37.727  28.626  32.145  1.00  0.00    -0.200 F 
ATOM     73  F   UNL A   1      35.907  29.558  30.340  1.00  0.00    -0.200 F 
ENDBRANCH  49  63
BRANCH  50  74
ATOM     74  C   UNL A   1      49.049  26.657  26.057  1.00  0.00     0.064 A 
ATOM     75  C   UNL A   1      49.422  26.949  24.738  1.00  0.00     0.173 A 
ATOM     76  C   UNL A   1      50.006  26.064  26.892  1.00  0.00     0.173 A 
ATOM     77  F   UNL A   1      48.534  27.499  23.897  1.00  0.00    -0.203 F 
ATOM     78  C   UNL A   1      50.698  26.643  24.267  1.00  0.00     0.198 A 
ATOM     79  C   UNL A   1      51.289  25.782  26.428  1.00  0.00     0.198 A 
ATOM     80  F   UNL A   1      49.699  25.771  28.165  1.00  0.00    -0.203 F 
ATOM     81  F   UNL A   1      51.016  26.897  22.991  1.00  0.00    -0.200 F 
ATOM     82  C   UNL A   1      51.631  26.064  25.114  1.00  0.00     0.200 A 
ATOM     83  F   UNL A   1      52.193  25.235  27.253  1.00  0.00    -0.200 F 
ATOM     84  F   UNL A   1      52.859  25.774  24.662  1.00  0.00    -0.200 F 
ENDBRANCH  50  74
BRANCH  62  85
ATOM     85  C   UNL A   1      46.072  32.415  28.605  1.00  0.00     0.064 A 
ATOM     86  C   UNL A   1      46.656  32.734  29.840  1.00  0.00     0.173 A 
ATOM     87  C   UNL A   1      46.032  33.410  27.618  1.00  0.00     0.173 A 
ATOM     88  F   UNL A   1      46.702  31.819  30.820  1.00  0.00    -0.203 F 
ATOM     89  C   UNL A   1      47.162  34.007  30.082  1.00  0.00     0.198 A 
ATOM     90  C   UNL A   1      46.563  34.675  27.856  1.00  0.00     0.198 A 
ATOM     91  F   UNL A   1      45.489  33.153  26.419  1.00  0.00    -0.203 F 
ATOM     92  F   UNL A   1      47.678  34.304  31.284  1.00  0.00    -0.200 F 
ATOM     93  C   UNL A   1      47.121  34.976  29.089  1.00  0.00     0.200 A 
ATOM     94  F   UNL A   1      46.532  35.606  26.890  1.00  0.00    -0.200 F 
ATOM     95  F   UNL A   1      47.614  36.199  29.323  1.00  0.00    -0.200 F 
ENDBRANCH  62  85
ENDBRANCH  36  37
ENDBRANCH  28  31
ENDBRANCH  26  27
ENDBRANCH  25  26
ENDBRANCH   1  25
TORSDOF 14
ENDMDL
MODEL 2
REMARK VINA RESULT:     -12.0      5.550     11.068
REMARK SMILES C[C@@](NC(=O)c1ccc[nH]c1=O)(C(=O)NCCCCNC(=O)c1ccc(-c2c3nc(c(-c4c(F)c(F)c(F)c(F)c4F)c4ccc([nH]4)c(-c4c(F)c(F)c(F)c(F)c4F)c4nc(c(-c5c(F)c(F)c(F)c(F)c5F)c5ccc2[nH]5)C=C4)C=C3)cc1)C(F)(F)F
REMARK SMILES IDX 17 1 16 2 15 3 13 4 14 5 2 7 1 8 3 9 4 10 5 12 6 13 7 14
REMARK SMILES IDX 11 15 8 16 10 17 12 18 9 19 86 21 87 22 88 23 89 24 18 25
REMARK SMILES IDX 19 26 20 27 21 28 22 30 23 31 24 32 85 33 25 34 84 35 26 36
REMARK SMILES IDX 27 37 28 38 78 39 29 40 83 41 77 42 79 43 30 44 82 45 76 46
REMARK SMILES IDX 75 47 31 49 63 50 43 51 62 52 44 53 47 54 61 55 80 56 45 57
REMARK SMILES IDX 46 58 60 60 81 61 48 62 32 63 33 64 41 65 34 66 35 67 39 68
REMARK SMILES IDX 42 69 36 70 37 71 40 72 38 73 64 74 65 75 73 76 66 77 67 78
REMARK SMILES IDX 71 79 74 80 68 81 69 82 72 83 70 84 49 85 50 86 58 87 51 88
REMARK SMILES IDX 52 89 56 90 59 91 53 92 54 93 57 94 55 95
REMARK H PARENT 15 6 3 11 10 20 20 29 79 48 47 59
REMARK Flexibility Score: inf
ROOT
ATOM      1  C   UNL A   1      31.751  30.416  26.573  1.00  0.00     0.023 C 
ENDROOT
BRANCH   1   2
ATOM      2  C   UNL A   1      32.030  29.864  25.178  1.00  0.00     0.116 C 
BRANCH   2   3
ATOM      3  N   UNL A   1      30.813  29.387  24.536  1.00  0.00    -0.354 N 
ATOM      4  C   UNL A   1      30.428  28.135  24.125  1.00  0.00     0.254 C 
ATOM      5  O   UNL A   1      29.358  28.082  23.517  1.00  0.00    -0.272 OA
ATOM      6  H   UNL A   1      30.146  30.090  24.365  1.00  0.00     0.163 HD
BRANCH   4   7
ATOM      7  C   UNL A   1      31.342  26.912  24.310  1.00  0.00     0.212 C 
ATOM      8  C   UNL A   1      30.494  25.672  23.905  1.00  0.00     0.056 C 
BRANCH   7   9
ATOM      9  N   UNL A   1      32.566  26.961  23.433  1.00  0.00    -0.330 N 
ATOM     10  C   UNL A   1      33.401  25.978  22.968  1.00  0.00     0.257 C 
ATOM     11  H   UNL A   1      32.811  27.867  23.140  1.00  0.00     0.165 HD
ATOM     12  O   UNL A   1      34.072  26.238  21.966  1.00  0.00    -0.269 OA
BRANCH  10  13
ATOM     13  C   UNL A   1      33.728  24.781  23.780  1.00  0.00     0.104 A 
ATOM     14  C   UNL A   1      34.642  24.949  24.759  1.00  0.00     0.021 A 
ATOM     15  C   UNL A   1      33.182  23.417  23.573  1.00  0.00     0.260 A 
ATOM     16  C   UNL A   1      34.961  23.886  25.688  1.00  0.00     0.019 A 
ATOM     17  N   UNL A   1      33.470  22.488  24.549  1.00  0.00    -0.328 N 
ATOM     18  O   UNL A   1      32.523  23.108  22.592  1.00  0.00    -0.269 OA
ATOM     19  C   UNL A   1      34.342  22.706  25.581  1.00  0.00     0.086 A 
ATOM     20  H   UNL A   1      33.022  21.613  24.501  1.00  0.00     0.169 HD
ENDBRANCH  10  13
ENDBRANCH   7   9
BRANCH   7  21
ATOM     21  C   UNL A   1      31.670  26.670  25.807  1.00  0.00     0.420 C 
ATOM     22  F   UNL A   1      30.739  27.192  26.640  1.00  0.00    -0.168 F 
ATOM     23  F   UNL A   1      31.660  25.323  26.042  1.00  0.00    -0.168 F 
ATOM     24  F   UNL A   1      32.875  27.094  26.204  1.00  0.00    -0.168 F 
ENDBRANCH   7  21
ENDBRANCH   4   7
ENDBRANCH   2   3
ENDBRANCH   1   2
BRANCH   1  25
ATOM     25  C   UNL A   1      31.567  31.936  26.627  1.00  0.00     0.023 C 
BRANCH  25  26
ATOM     26  C   UNL A   1      32.754  32.722  27.182  1.00  0.00     0.116 C 
BRANCH  26  27
ATOM     27  N   UNL A   1      32.409  34.081  27.565  1.00  0.00    -0.352 N 
ATOM     28  C   UNL A   1      32.957  34.865  28.551  1.00  0.00     0.251 C 
ATOM     29  H   UNL A   1      31.684  34.497  27.046  1.00  0.00     0.163 HD
ATOM     30  O   UNL A   1      32.457  35.950  28.832  1.00  0.00    -0.269 OA
BRANCH  28  31
ATOM     31  C   UNL A   1      34.137  34.382  29.295  1.00  0.00     0.039 A 
ATOM     32  C   UNL A   1      33.945  33.746  30.524  1.00  0.00     0.014 A 
ATOM     33  C   UNL A   1      35.425  34.542  28.776  1.00  0.00     0.014 A 
ATOM     34  C   UNL A   1      35.040  33.206  31.201  1.00  0.00     0.010 A 
ATOM     35  C   UNL A   1      36.508  33.953  29.423  1.00  0.00     0.010 A 
ATOM     36  C   UNL A   1      36.325  33.275  30.638  1.00  0.00    -0.014 A 
BRANCH  36  37
ATOM     37  C   UNL A   1      37.486  32.632  31.302  1.00  0.00     0.031 A 
ATOM     38  C   UNL A   1      38.207  31.498  30.633  1.00  0.00     0.074 A 
ATOM     39  C   UNL A   1      37.848  33.029  32.536  1.00  0.00     0.049 A 
ATOM     40  N   UNL A   1      39.195  30.765  31.082  1.00  0.00    -0.248 NA
ATOM     41  C   UNL A   1      37.737  31.117  29.292  1.00  0.00     0.031 C 
ATOM     42  C   UNL A   1      37.196  34.087  33.310  1.00  0.00     0.029 A 
ATOM     43  N   UNL A   1      38.848  32.580  33.363  1.00  0.00    -0.354 N 
ATOM     44  C   UNL A   1      39.457  29.834  30.087  1.00  0.00     0.074 A 
ATOM     45  C   UNL A   1      38.493  30.060  29.032  1.00  0.00     0.031 C 
ATOM     46  C   UNL A   1      37.821  34.215  34.492  1.00  0.00     0.029 A 
ATOM     47  C   UNL A   1      38.897  33.232  34.571  1.00  0.00     0.049 A 
ATOM     48  H   UNL A   1      39.471  31.860  33.114  1.00  0.00     0.167 HD
ATOM     49  C   UNL A   1      40.429  28.891  30.047  1.00  0.00     0.037 A 
ATOM     50  C   UNL A   1      39.714  33.052  35.626  1.00  0.00     0.037 A 
ATOM     51  C   UNL A   1      41.403  28.685  31.086  1.00  0.00     0.049 A 
ATOM     52  C   UNL A   1      40.792  32.005  35.552  1.00  0.00     0.074 A 
ATOM     53  C   UNL A   1      42.460  27.792  31.114  1.00  0.00     0.029 A 
ATOM     54  N   UNL A   1      41.440  29.386  32.282  1.00  0.00    -0.354 N 
ATOM     55  N   UNL A   1      41.070  31.172  34.579  1.00  0.00    -0.248 NA
ATOM     56  C   UNL A   1      41.676  31.880  36.720  1.00  0.00     0.031 C 
ATOM     57  C   UNL A   1      43.116  27.928  32.342  1.00  0.00     0.029 A 
ATOM     58  C   UNL A   1      42.493  28.934  33.062  1.00  0.00     0.049 A 
ATOM     59  H   UNL A   1      40.812  30.098  32.540  1.00  0.00     0.167 HD
ATOM     60  C   UNL A   1      42.170  30.441  35.005  1.00  0.00     0.074 A 
ATOM     61  C   UNL A   1      42.520  30.939  36.319  1.00  0.00     0.031 C 
ATOM     62  C   UNL A   1      42.831  29.447  34.365  1.00  0.00     0.037 A 
BRANCH  49  63
ATOM     63  C   UNL A   1      40.490  28.014  28.831  1.00  0.00     0.064 A 
ATOM     64  C   UNL A   1      41.267  28.360  27.717  1.00  0.00     0.173 A 
ATOM     65  C   UNL A   1      39.791  26.798  28.793  1.00  0.00     0.173 A 
ATOM     66  F   UNL A   1      41.944  29.519  27.700  1.00  0.00    -0.203 F 
ATOM     67  C   UNL A   1      41.322  27.535  26.597  1.00  0.00     0.198 A 
ATOM     68  C   UNL A   1      39.870  25.962  27.682  1.00  0.00     0.198 A 
ATOM     69  F   UNL A   1      39.036  26.418  29.835  1.00  0.00    -0.203 F 
ATOM     70  F   UNL A   1      42.035  27.910  25.525  1.00  0.00    -0.200 F 
ATOM     71  C   UNL A   1      40.629  26.334  26.583  1.00  0.00     0.200 A 
ATOM     72  F   UNL A   1      39.207  24.797  27.674  1.00  0.00    -0.200 F 
ATOM     73  F   UNL A   1      40.686  25.539  25.506  1.00  0.00    -0.200 F 
ENDBRANCH  49  63
BRANCH  50  74
ATOM     74  C   UNL A   1      39.562  33.902  36.834  1.00  0.00     0.064 A 
ATOM     75  C   UNL A   1      38.801  33.468  37.928  1.00  0.00     0.173 A 
ATOM     76  C   UNL A   1      40.173  35.161  36.921  1.00  0.00     0.173 A 
ATOM     77  F   UNL A   1      38.182  32.279  37.883  1.00  0.00    -0.203 F 
ATOM     78  C   UNL A   1      38.641  34.269  39.057  1.00  0.00     0.198 A 
ATOM     79  C   UNL A   1      40.034  35.951  38.060  1.00  0.00     0.198 A 
ATOM     80  F   UNL A   1      40.917  35.618  35.903  1.00  0.00    -0.203 F 
ATOM     81  F   UNL A   1      37.876  33.847  40.071  1.00  0.00    -0.200 F 
ATOM     82  C   UNL A   1      39.262  35.508  39.124  1.00  0.00     0.200 A 
ATOM     83  F   UNL A   1      40.646  37.141  38.126  1.00  0.00    -0.200 F 
ATOM     84  F   UNL A   1      39.111  36.277  40.211  1.00  0.00    -0.200 F 
ENDBRANCH  50  74
BRANCH  62  85
ATOM     85  C   UNL A   1      44.017  28.850  35.063  1.00  0.00     0.064 A 
ATOM     86  C   UNL A   1      45.311  29.359  34.876  1.00  0.00     0.173 A 
ATOM     87  C   UNL A   1      43.850  27.785  35.960  1.00  0.00     0.173 A 
ATOM     88  F   UNL A   1      45.522  30.366  34.016  1.00  0.00    -0.203 F 
ATOM     89  C   UNL A   1      46.398  28.807  35.547  1.00  0.00     0.198 A 
ATOM     90  C   UNL A   1      44.937  27.253  36.648  1.00  0.00     0.198 A 
ATOM     91  F   UNL A   1      42.632  27.268  36.177  1.00  0.00    -0.203 F 
ATOM     92  F   UNL A   1      47.632  29.280  35.322  1.00  0.00    -0.200 F 
ATOM     93  C   UNL A   1      46.210  27.759  36.437  1.00  0.00     0.200 A 
ATOM     94  F   UNL A   1      44.752  26.248  37.516  1.00  0.00    -0.200 F 
ATOM     95  F   UNL A   1      47.259  27.234  37.086  1.00  0.00    -0.200 F 
ENDBRANCH  62  85
ENDBRANCH  36  37
ENDBRANCH  28  31
ENDBRANCH  26  27
ENDBRANCH  25  26
ENDBRANCH   1  25
TORSDOF 14
ENDMDL
MODEL 3
REMARK VINA RESULT:     -12.0      4.500      8.182
REMARK SMILES C[C@@](NC(=O)c1ccc[nH]c1=O)(C(=O)NCCCCNC(=O)c1ccc(-c2c3nc(c(-c4c(F)c(F)c(F)c(F)c4F)c4ccc([nH]4)c(-c4c(F)c(F)c(F)c(F)c4F)c4nc(c(-c5c(F)c(F)c(F)c(F)c5F)c5ccc2[nH]5)C=C4)C=C3)cc1)C(F)(F)F
REMARK SMILES IDX 17 1 16 2 15 3 13 4 14 5 2 7 1 8 3 9 4 10 5 12 6 13 7 14
REMARK SMILES IDX 11 15 8 16 10 17 12 18 9 19 86 21 87 22 88 23 89 24 18 25
REMARK SMILES IDX 19 26 20 27 21 28 22 30 23 31 24 32 85 33 25 34 84 35 26 36
REMARK SMILES IDX 27 37 28 38 78 39 29 40 83 41 77 42 79 43 30 44 82 45 76 46
REMARK SMILES IDX 75 47 31 49 63 50 43 51 62 52 44 53 47 54 61 55 80 56 45 57
REMARK SMILES IDX 46 58 60 60 81 61 48 62 32 63 33 64 41 65 34 66 35 67 39 68
REMARK SMILES IDX 42 69 36 70 37 71 40 72 38 73 64 74 65 75 73 76 66 77 67 78
REMARK SMILES IDX 71 79 74 80 68 81 69 82 72 83 70 84 49 85 50 86 58 87 51 88
REMARK SMILES IDX 52 89 56 90 59 91 53 92 54 93 57 94 55 95
REMARK H PARENT 15 6 3 11 10 20 20 29 79 48 47 59
REMARK Flexibility Score: inf
ROOT
ATOM      1  C   UNL A   1      31.508  28.715  23.932  1.00  0.00     0.023 C 
ENDROOT
BRANCH   1   2
ATOM      2  C   UNL A   1      31.496  27.190  23.891  1.00  0.00     0.116 C 
BRANCH   2   3
ATOM      3  N   UNL A   1      31.037  26.622  25.151  1.00  0.00    -0.354 N 
ATOM      4  C   UNL A   1      31.482  25.552  25.887  1.00  0.00     0.254 C 
ATOM      5  O   UNL A   1      30.804  25.268  26.874  1.00  0.00    -0.272 OA
ATOM      6  H   UNL A   1      30.267  27.089  25.546  1.00  0.00     0.163 HD
BRANCH   4   7
ATOM      7  C   UNL A   1      32.676  24.700  25.424  1.00  0.00     0.212 C 
ATOM      8  C   UNL A   1      32.911  23.640  26.539  1.00  0.00     0.056 C 
BRANCH   7   9
ATOM      9  N   UNL A   1      32.412  23.979  24.128  1.00  0.00    -0.330 N 
ATOM     10  C   UNL A   1      32.893  22.800  23.618  1.00  0.00     0.257 C 
ATOM     11  H   UNL A   1      31.774  24.440  23.537  1.00  0.00     0.165 HD
ATOM     12  O   UNL A   1      32.225  22.254  22.738  1.00  0.00    -0.269 OA
BRANCH  10  13
ATOM     13  C   UNL A   1      34.284  22.351  23.870  1.00  0.00     0.104 A 
ATOM     14  C   UNL A   1      35.255  22.973  23.169  1.00  0.00     0.021 A 
ATOM     15  C   UNL A   1      34.687  21.247  24.778  1.00  0.00     0.260 A 
ATOM     16  C   UNL A   1      36.656  22.700  23.408  1.00  0.00     0.019 A 
ATOM     17  N   UNL A   1      36.038  21.111  25.011  1.00  0.00    -0.328 N 
ATOM     18  O   UNL A   1      33.884  20.482  25.290  1.00  0.00    -0.269 OA
ATOM     19  C   UNL A   1      37.006  21.811  24.344  1.00  0.00     0.086 A 
ATOM     20  H   UNL A   1      36.326  20.470  25.701  1.00  0.00     0.169 HD
ENDBRANCH  10  13
ENDBRANCH   7   9
BRANCH   7  21
ATOM     21  C   UNL A   1      33.990  25.526  25.409  1.00  0.00     0.420 C 
ATOM     22  F   UNL A   1      35.070  24.802  25.786  1.00  0.00    -0.168 F 
ATOM     23  F   UNL A   1      34.242  25.919  24.123  1.00  0.00    -0.168 F 
ATOM     24  F   UNL A   1      33.965  26.652  26.129  1.00  0.00    -0.168 F 
ENDBRANCH   7  21
ENDBRANCH   4   7
ENDBRANCH   2   3
ENDBRANCH   1   2
BRANCH   1  25
ATOM     25  C   UNL A   1      32.851  29.326  24.348  1.00  0.00     0.023 C 
BRANCH  25  26
ATOM     26  C   UNL A   1      33.054  29.502  25.852  1.00  0.00     0.116 C 
BRANCH  26  27
ATOM     27  N   UNL A   1      32.751  30.847  26.314  1.00  0.00    -0.352 N 
ATOM     28  C   UNL A   1      33.407  31.605  27.254  1.00  0.00     0.251 C 
ATOM     29  H   UNL A   1      31.969  31.274  25.895  1.00  0.00     0.163 HD
ATOM     30  O   UNL A   1      32.940  32.677  27.623  1.00  0.00    -0.269 OA
BRANCH  28  31
ATOM     31  C   UNL A   1      34.667  31.107  27.841  1.00  0.00     0.039 A 
ATOM     32  C   UNL A   1      35.733  31.996  28.001  1.00  0.00     0.014 A 
ATOM     33  C   UNL A   1      34.790  29.775  28.247  1.00  0.00     0.014 A 
ATOM     34  C   UNL A   1      36.901  31.567  28.633  1.00  0.00     0.010 A 
ATOM     35  C   UNL A   1      35.932  29.364  28.929  1.00  0.00     0.010 A 
ATOM     36  C   UNL A   1      36.996  30.258  29.133  1.00  0.00    -0.014 A 
BRANCH  36  37
ATOM     37  C   UNL A   1      38.196  29.810  29.883  1.00  0.00     0.031 A 
ATOM     38  C   UNL A   1      38.462  30.331  31.265  1.00  0.00     0.074 A 
ATOM     39  C   UNL A   1      39.079  28.984  29.289  1.00  0.00     0.049 A 
ATOM     40  N   UNL A   1      39.488  30.113  32.049  1.00  0.00    -0.248 NA
ATOM     41  C   UNL A   1      37.455  31.239  31.833  1.00  0.00     0.031 C 
ATOM     42  C   UNL A   1      38.957  28.449  27.932  1.00  0.00     0.029 A 
ATOM     43  N   UNL A   1      40.262  28.460  29.749  1.00  0.00    -0.354 N 
ATOM     44  C   UNL A   1      39.255  30.863  33.193  1.00  0.00     0.074 A 
ATOM     45  C   UNL A   1      38.017  31.581  32.983  1.00  0.00     0.031 C 
ATOM     46  C   UNL A   1      40.014  27.662  27.674  1.00  0.00     0.029 A 
ATOM     47  C   UNL A   1      40.901  27.660  28.834  1.00  0.00     0.049 A 
ATOM     48  H   UNL A   1      40.618  28.641  30.649  1.00  0.00     0.167 HD
ATOM     49  C   UNL A   1      39.996  30.928  34.325  1.00  0.00     0.037 A 
ATOM     50  C   UNL A   1      42.073  27.003  28.919  1.00  0.00     0.037 A 
ATOM     51  C   UNL A   1      41.213  30.192  34.543  1.00  0.00     0.049 A 
ATOM     52  C   UNL A   1      42.871  27.083  30.192  1.00  0.00     0.074 A 
ATOM     53  C   UNL A   1      42.006  30.149  35.676  1.00  0.00     0.029 A 
ATOM     54  N   UNL A   1      41.814  29.366  33.604  1.00  0.00    -0.354 N 
ATOM     55  N   UNL A   1      42.609  27.747  31.292  1.00  0.00    -0.248 NA
ATOM     56  C   UNL A   1      44.124  26.315  30.239  1.00  0.00     0.031 C 
ATOM     57  C   UNL A   1      43.105  29.325  35.412  1.00  0.00     0.029 A 
ATOM     58  C   UNL A   1      42.976  28.822  34.128  1.00  0.00     0.049 A 
ATOM     59  H   UNL A   1      41.467  29.192  32.700  1.00  0.00     0.167 HD
ATOM     60  C   UNL A   1      43.647  27.460  32.167  1.00  0.00     0.074 A 
ATOM     61  C   UNL A   1      44.537  26.550  31.476  1.00  0.00     0.031 C 
ATOM     62  C   UNL A   1      43.845  27.911  33.429  1.00  0.00     0.037 A 
BRANCH  49  63
ATOM     63  C   UNL A   1      39.501  31.823  35.424  1.00  0.00     0.064 A 
ATOM     64  C   UNL A   1      39.914  33.159  35.521  1.00  0.00     0.173 A 
ATOM     65  C   UNL A   1      38.579  31.349  36.368  1.00  0.00     0.173 A 
ATOM     66  F   UNL A   1      40.805  33.655  34.649  1.00  0.00    -0.203 F 
ATOM     67  C   UNL A   1      39.443  33.982  36.541  1.00  0.00     0.198 A 
ATOM     68  C   UNL A   1      38.089  32.183  37.371  1.00  0.00     0.198 A 
ATOM     69  F   UNL A   1      38.148  30.079  36.317  1.00  0.00    -0.203 F 
ATOM     70  F   UNL A   1      39.889  35.242  36.642  1.00  0.00    -0.200 F 
ATOM     71  C   UNL A   1      38.526  33.496  37.461  1.00  0.00     0.200 A 
ATOM     72  F   UNL A   1      37.195  31.714  38.253  1.00  0.00    -0.200 F 
ATOM     73  F   UNL A   1      38.071  34.290  38.439  1.00  0.00    -0.200 F 
ENDBRANCH  49  63
BRANCH  50  74
ATOM     74  C   UNL A   1      42.550  26.187  27.774  1.00  0.00     0.064 A 
ATOM     75  C   UNL A   1      42.072  24.886  27.569  1.00  0.00     0.173 A 
ATOM     76  C   UNL A   1      43.490  26.690  26.862  1.00  0.00     0.173 A 
ATOM     77  F   UNL A   1      41.187  24.356  28.425  1.00  0.00    -0.203 F 
ATOM     78  C   UNL A   1      42.529  24.110  26.505  1.00  0.00     0.198 A 
ATOM     79  C   UNL A   1      43.927  25.923  25.784  1.00  0.00     0.198 A 
ATOM     80  F   UNL A   1      43.973  27.932  27.012  1.00  0.00    -0.203 F 
ATOM     81  F   UNL A   1      42.085  22.856  26.355  1.00  0.00    -0.200 F 
ATOM     82  C   UNL A   1      43.453  24.632  25.611  1.00  0.00     0.200 A 
ATOM     83  F   UNL A   1      44.809  26.435  24.915  1.00  0.00    -0.200 F 
ATOM     84  F   UNL A   1      43.889  23.887  24.585  1.00  0.00    -0.200 F 
ENDBRANCH  50  74
BRANCH  62  85
ATOM     85  C   UNL A   1      45.056  27.406  34.156  1.00  0.00     0.064 A 
ATOM     86  C   UNL A   1      46.300  28.043  34.041  1.00  0.00     0.173 A 
ATOM     87  C   UNL A   1      44.959  26.296  35.009  1.00  0.00     0.173 A 
ATOM     88  F   UNL A   1      46.445  29.098  33.225  1.00  0.00    -0.203 F 
ATOM     89  C   UNL A   1      47.409  27.574  34.739  1.00  0.00     0.198 A 
ATOM     90  C   UNL A   1      46.065  25.846  35.724  1.00  0.00     0.198 A 
ATOM     91  F   UNL A   1      43.790  25.656  35.156  1.00  0.00    -0.203 F 
ATOM     92  F   UNL A   1      48.599  28.171  34.583  1.00  0.00    -0.200 F 
ATOM     93  C   UNL A   1      47.290  26.480  35.585  1.00  0.00     0.200 A 
ATOM     94  F   UNL A   1      45.945  24.796  36.549  1.00  0.00    -0.200 F 
ATOM     95  F   UNL A   1      48.359  26.034  36.260  1.00  0.00    -0.200 F 
ENDBRANCH  62  85
ENDBRANCH  36  37
ENDBRANCH  28  31
ENDBRANCH  26  27
ENDBRANCH  25  26
ENDBRANCH   1  25
TORSDOF 14
ENDMDL
