MODEL 1
REMARK VINA RESULT:     -14.1      0.000      0.000
REMARK SMILES Cc1nccn1C1(C(=O)NCCCCNC(=O)c2ccc(-c3c4nc(c(-c5c(F)c(F)c(F)c(F)c5F)c5ccc([nH]5)c(-c5c(F)c(F)c(F)c(F)c5F)c5nc(c(-c6c(F)c(F)c(F)c(F)c6F)c6ccc3[nH]6)C=C5)C=C4)cc2)CCN(C(=O)[C@@H]2C[C@H]2c2ccccc2)CC1
REMARK SMILES IDX 12 1 11 2 10 3 8 4 9 5 7 7 81 8 96 9 82 10 95 11 83 12 84 13
REMARK SMILES IDX 85 14 6 15 1 16 2 17 3 18 4 19 5 20 86 21 87 22 88 23 89 24
REMARK SMILES IDX 90 25 94 26 91 27 93 28 92 29 13 30 14 31 15 32 16 33 17 35
REMARK SMILES IDX 18 36 19 37 80 38 20 39 79 40 21 41 22 42 23 43 73 44 24 45
REMARK SMILES IDX 78 46 72 47 74 48 25 49 77 50 71 51 70 52 26 54 58 55 38 56
REMARK SMILES IDX 57 57 39 58 42 59 56 60 75 61 40 62 41 63 55 65 76 66 43 67
REMARK SMILES IDX 27 68 28 69 36 70 29 71 30 72 34 73 37 74 31 75 32 76 35 77
REMARK SMILES IDX 33 78 59 79 60 80 68 81 61 82 62 83 66 84 69 85 63 86 64 87
REMARK SMILES IDX 67 88 65 89 44 90 45 91 53 92 46 93 47 94 51 95 54 96 48 97
REMARK SMILES IDX 49 98 52 99 50 100
REMARK H PARENT 10 6 15 34 74 53 42 64
REMARK Flexibility Score: inf
ROOT
ATOM      1  C   UNL A   1      32.801  29.452  27.282  1.00  0.00     0.023 C 
ENDROOT
BRANCH   1   2
ATOM      2  C   UNL A   1      31.793  28.773  26.344  1.00  0.00     0.116 C 
BRANCH   2   3
ATOM      3  N   UNL A   1      31.427  27.435  26.780  1.00  0.00    -0.354 N 
ATOM      4  C   UNL A   1      31.292  26.236  26.144  1.00  0.00     0.246 C 
ATOM      5  O   UNL A   1      30.650  25.414  26.808  1.00  0.00    -0.272 OA
ATOM      6  H   UNL A   1      31.236  27.385  27.744  1.00  0.00     0.163 HD
BRANCH   4   7
ATOM      7  C   UNL A   1      31.831  25.934  24.686  1.00  0.00     0.127 C 
ATOM      8  C   UNL A   1      33.385  26.051  24.818  1.00  0.00     0.061 C 
ATOM      9  C   UNL A   1      31.315  24.549  24.218  1.00  0.00     0.061 C 
ATOM     10  C   UNL A   1      34.263  24.896  24.292  1.00  0.00     0.122 C 
ATOM     11  C   UNL A   1      32.307  23.940  23.259  1.00  0.00     0.122 C 
ATOM     12  N   UNL A   1      33.525  23.680  23.978  1.00  0.00    -0.342 N 
ATOM     13  C   UNL A   1      34.062  22.441  24.335  1.00  0.00     0.226 C 
ATOM     14  O   UNL A   1      35.187  22.371  24.829  1.00  0.00    -0.275 OA
BRANCH   7  15
ATOM     15  N   UNL A   1      31.253  26.922  23.700  1.00  0.00    -0.320 N 
ATOM     16  C   UNL A   1      28.665  26.664  23.876  1.00  0.00     0.087 C 
ATOM     17  C   UNL A   1      29.937  27.220  23.344  1.00  0.00     0.106 A 
ATOM     18  N   UNL A   1      29.905  28.188  22.445  1.00  0.00    -0.242 NA
ATOM     19  C   UNL A   1      31.180  28.618  22.283  1.00  0.00     0.131 A 
ATOM     20  C   UNL A   1      32.015  27.919  23.107  1.00  0.00     0.108 A 
ENDBRANCH   7  15
BRANCH  13  21
ATOM     21  C   UNL A   1      33.304  21.149  24.267  1.00  0.00     0.087 C 
ATOM     22  C   UNL A   1      32.005  21.003  25.026  1.00  0.00     0.023 C 
ATOM     23  C   UNL A   1      33.132  20.049  25.286  1.00  0.00     0.032 C 
BRANCH  23  24
ATOM     24  C   UNL A   1      33.134  18.595  24.894  1.00  0.00    -0.044 A 
ATOM     25  C   UNL A   1      32.528  17.658  25.747  1.00  0.00     0.004 A 
ATOM     26  C   UNL A   1      33.931  18.104  23.847  1.00  0.00     0.004 A 
ATOM     27  C   UNL A   1      32.779  16.292  25.621  1.00  0.00     0.000 A 
ATOM     28  C   UNL A   1      34.176  16.734  23.709  1.00  0.00     0.000 A 
ATOM     29  C   UNL A   1      33.623  15.832  24.615  1.00  0.00     0.000 A 
ENDBRANCH  23  24
ENDBRANCH  13  21
ENDBRANCH   4   7
ENDBRANCH   2   3
ENDBRANCH   1   2
BRANCH   1  30
ATOM     30  C   UNL A   1      32.849  30.987  27.251  1.00  0.00     0.023 C 
BRANCH  30  31
ATOM     31  C   UNL A   1      34.195  31.591  27.620  1.00  0.00     0.116 C 
BRANCH  31  32
ATOM     32  N   UNL A   1      34.187  32.229  28.933  1.00  0.00    -0.352 N 
ATOM     33  C   UNL A   1      34.995  31.946  30.020  1.00  0.00     0.251 C 
ATOM     34  H   UNL A   1      33.526  32.948  29.062  1.00  0.00     0.163 HD
ATOM     35  O   UNL A   1      34.673  32.251  31.152  1.00  0.00    -0.269 OA
BRANCH  33  36
ATOM     36  C   UNL A   1      36.276  31.263  29.767  1.00  0.00     0.039 A 
ATOM     37  C   UNL A   1      37.451  31.991  29.570  1.00  0.00     0.014 A 
ATOM     38  C   UNL A   1      36.283  29.869  29.789  1.00  0.00     0.014 A 
ATOM     39  C   UNL A   1      38.655  31.300  29.492  1.00  0.00     0.010 A 
ATOM     40  C   UNL A   1      37.481  29.200  29.843  1.00  0.00     0.010 A 
ATOM     41  C   UNL A   1      38.667  29.905  29.662  1.00  0.00    -0.014 A 
BRANCH  41  42
ATOM     42  C   UNL A   1      39.934  29.198  29.832  1.00  0.00     0.031 A 
ATOM     43  C   UNL A   1      40.355  29.072  31.255  1.00  0.00     0.074 A 
ATOM     44  C   UNL A   1      40.545  28.524  28.833  1.00  0.00     0.049 A 
ATOM     45  N   UNL A   1      41.377  29.623  31.822  1.00  0.00    -0.248 NA
ATOM     46  C   UNL A   1      39.460  28.380  32.199  1.00  0.00     0.031 C 
ATOM     47  C   UNL A   1      40.046  28.310  27.468  1.00  0.00     0.029 A 
ATOM     48  N   UNL A   1      41.691  27.782  28.848  1.00  0.00    -0.354 N 
ATOM     49  C   UNL A   1      41.382  29.156  33.136  1.00  0.00     0.074 A 
ATOM     50  C   UNL A   1      40.087  28.575  33.362  1.00  0.00     0.031 C 
ATOM     51  C   UNL A   1      40.739  27.312  26.880  1.00  0.00     0.029 A 
ATOM     52  C   UNL A   1      41.840  26.941  27.749  1.00  0.00     0.049 A 
ATOM     53  H   UNL A   1      42.355  27.838  29.574  1.00  0.00     0.167 HD
ATOM     54  C   UNL A   1      42.563  29.004  33.798  1.00  0.00     0.037 A 
ATOM     55  C   UNL A   1      42.793  25.994  27.568  1.00  0.00     0.037 A 
ATOM     56  C   UNL A   1      43.614  29.707  33.106  1.00  0.00     0.049 A 
ATOM     57  C   UNL A   1      43.925  26.339  28.454  1.00  0.00     0.074 A 
ATOM     58  C   UNL A   1      43.961  31.018  32.869  1.00  0.00     0.029 A 
ATOM     59  N   UNL A   1      44.258  28.940  32.174  1.00  0.00    -0.354 N 
ATOM     60  N   UNL A   1      44.672  27.395  28.290  1.00  0.00    -0.248 NA
ATOM     61  C   UNL A   1      44.025  25.697  29.759  1.00  0.00     0.031 C 
ATOM     62  C   UNL A   1      44.654  31.019  31.620  1.00  0.00     0.029 A 
ATOM     63  C   UNL A   1      44.759  29.706  31.161  1.00  0.00     0.049 A 
ATOM     64  H   UNL A   1      44.350  27.961  32.226  1.00  0.00     0.167 HD
ATOM     65  C   UNL A   1      44.971  27.801  29.576  1.00  0.00     0.074 A 
ATOM     66  C   UNL A   1      44.720  26.633  30.411  1.00  0.00     0.031 C 
ATOM     67  C   UNL A   1      45.068  29.130  29.871  1.00  0.00     0.037 A 
BRANCH  54  68
ATOM     68  C   UNL A   1      42.903  27.821  34.696  1.00  0.00     0.064 A 
ATOM     69  C   UNL A   1      43.322  28.080  36.022  1.00  0.00     0.173 A 
ATOM     70  C   UNL A   1      43.178  26.519  34.227  1.00  0.00     0.173 A 
ATOM     71  F   UNL A   1      43.134  29.290  36.573  1.00  0.00    -0.203 F 
ATOM     72  C   UNL A   1      44.037  27.141  36.773  1.00  0.00     0.198 A 
ATOM     73  C   UNL A   1      43.849  25.569  34.998  1.00  0.00     0.198 A 
ATOM     74  F   UNL A   1      42.925  26.140  32.970  1.00  0.00    -0.203 F 
ATOM     75  F   UNL A   1      44.530  27.482  37.972  1.00  0.00    -0.200 F 
ATOM     76  C   UNL A   1      44.307  25.888  36.257  1.00  0.00     0.200 A 
ATOM     77  F   UNL A   1      44.124  24.369  34.467  1.00  0.00    -0.200 F 
ATOM     78  F   UNL A   1      45.050  25.011  36.943  1.00  0.00    -0.200 F 
ENDBRANCH  54  68
BRANCH  55  79
ATOM     79  C   UNL A   1      42.715  24.696  26.857  1.00  0.00     0.064 A 
ATOM     80  C   UNL A   1      43.304  24.527  25.591  1.00  0.00     0.173 A 
ATOM     81  C   UNL A   1      42.328  23.521  27.528  1.00  0.00     0.173 A 
ATOM     82  F   UNL A   1      43.731  25.591  24.898  1.00  0.00    -0.203 F 
ATOM     83  C   UNL A   1      43.536  23.257  25.053  1.00  0.00     0.198 A 
ATOM     84  C   UNL A   1      42.555  22.254  26.987  1.00  0.00     0.198 A 
ATOM     85  F   UNL A   1      41.811  23.576  28.765  1.00  0.00    -0.203 F 
ATOM     86  F   UNL A   1      44.169  23.135  23.878  1.00  0.00    -0.200 F 
ATOM     87  C   UNL A   1      43.176  22.121  25.758  1.00  0.00     0.200 A 
ATOM     88  F   UNL A   1      42.232  21.163  27.695  1.00  0.00    -0.200 F 
ATOM     89  F   UNL A   1      43.464  20.903  25.278  1.00  0.00    -0.200 F 
ENDBRANCH  55  79
BRANCH  67  90
ATOM     90  C   UNL A   1      45.365  30.066  28.739  1.00  0.00     0.064 A 
ATOM     91  C   UNL A   1      44.397  30.704  27.949  1.00  0.00     0.173 A 
ATOM     92  C   UNL A   1      46.709  30.378  28.495  1.00  0.00     0.173 A 
ATOM     93  F   UNL A   1      43.089  30.524  28.174  1.00  0.00    -0.203 F 
ATOM     94  C   UNL A   1      44.766  31.581  26.928  1.00  0.00     0.198 A 
ATOM     95  C   UNL A   1      47.073  31.282  27.504  1.00  0.00     0.198 A 
ATOM     96  F   UNL A   1      47.674  29.827  29.248  1.00  0.00    -0.203 F 
ATOM     97  F   UNL A   1      43.826  32.160  26.167  1.00  0.00    -0.200 F 
ATOM     98  C   UNL A   1      46.103  31.873  26.712  1.00  0.00     0.200 A 
ATOM     99  F   UNL A   1      48.365  31.592  27.330  1.00  0.00    -0.200 F 
ATOM    100  F   UNL A   1      46.457  32.738  25.752  1.00  0.00    -0.200 F 
ENDBRANCH  67  90
ENDBRANCH  41  42
ENDBRANCH  33  36
ENDBRANCH  31  32
ENDBRANCH  30  31
ENDBRANCH   1  30
TORSDOF 14
ENDMDL
MODEL 2
REMARK VINA RESULT:     -14.0      2.803      8.422
REMARK SMILES Cc1nccn1C1(C(=O)NCCCCNC(=O)c2ccc(-c3c4nc(c(-c5c(F)c(F)c(F)c(F)c5F)c5ccc([nH]5)c(-c5c(F)c(F)c(F)c(F)c5F)c5nc(c(-c6c(F)c(F)c(F)c(F)c6F)c6ccc3[nH]6)C=C5)C=C4)cc2)CCN(C(=O)[C@@H]2C[C@H]2c2ccccc2)CC1
REMARK SMILES IDX 12 1 11 2 10 3 8 4 9 5 7 7 81 8 96 9 82 10 95 11 83 12 84 13
REMARK SMILES IDX 85 14 6 15 1 16 2 17 3 18 4 19 5 20 86 21 87 22 88 23 89 24
REMARK SMILES IDX 90 25 94 26 91 27 93 28 92 29 13 30 14 31 15 32 16 33 17 35
REMARK SMILES IDX 18 36 19 37 80 38 20 39 79 40 21 41 22 42 23 43 73 44 24 45
REMARK SMILES IDX 78 46 72 47 74 48 25 49 77 50 71 51 70 52 26 54 58 55 38 56
REMARK SMILES IDX 57 57 39 58 42 59 56 60 75 61 40 62 41 63 55 65 76 66 43 67
REMARK SMILES IDX 27 68 28 69 36 70 29 71 30 72 34 73 37 74 31 75 32 76 35 77
REMARK SMILES IDX 33 78 59 79 60 80 68 81 61 82 62 83 66 84 69 85 63 86 64 87
REMARK SMILES IDX 67 88 65 89 44 90 45 91 53 92 46 93 47 94 51 95 54 96 48 97
REMARK SMILES IDX 49 98 52 99 50 100
REMARK H PARENT 10 6 15 34 74 53 42 64
REMARK Flexibility Score: inf
ROOT
ATOM      1  C   UNL A   1      37.813  21.344  24.655  1.00  0.00     0.023 C 
ENDROOT
BRANCH   1   2
ATOM      2  C   UNL A   1      36.303  21.578  24.813  1.00  0.00     0.116 C 
BRANCH   2   3
ATOM      3  N   UNL A   1      35.758  22.459  23.793  1.00  0.00    -0.354 N 
ATOM      4  C   UNL A   1      34.502  22.901  23.497  1.00  0.00     0.246 C 
ATOM      5  O   UNL A   1      34.420  23.374  22.358  1.00  0.00    -0.272 OA
ATOM      6  H   UNL A   1      36.446  22.812  23.184  1.00  0.00     0.163 HD
BRANCH   4   7
ATOM      7  C   UNL A   1      33.258  22.769  24.468  1.00  0.00     0.127 C 
ATOM      8  C   UNL A   1      33.732  23.445  25.796  1.00  0.00     0.061 C 
ATOM      9  C   UNL A   1      32.013  23.417  23.808  1.00  0.00     0.061 C 
ATOM     10  C   UNL A   1      32.838  24.529  26.436  1.00  0.00     0.122 C 
ATOM     11  C   UNL A   1      31.092  23.943  24.881  1.00  0.00     0.122 C 
ATOM     12  N   UNL A   1      31.768  25.009  25.570  1.00  0.00    -0.342 N 
ATOM     13  C   UNL A   1      31.478  26.375  25.532  1.00  0.00     0.226 C 
ATOM     14  O   UNL A   1      32.059  27.154  26.287  1.00  0.00    -0.275 OA
BRANCH   7  15
ATOM     15  N   UNL A   1      32.891  21.315  24.652  1.00  0.00    -0.320 N 
ATOM     16  C   UNL A   1      32.095  20.484  22.313  1.00  0.00     0.087 C 
ATOM     17  C   UNL A   1      32.391  20.361  23.765  1.00  0.00     0.106 A 
ATOM     18  N   UNL A   1      32.245  19.194  24.368  1.00  0.00    -0.242 NA
ATOM     19  C   UNL A   1      32.752  19.330  25.618  1.00  0.00     0.131 A 
ATOM     20  C   UNL A   1      33.237  20.595  25.788  1.00  0.00     0.108 A 
ENDBRANCH   7  15
BRANCH  13  21
ATOM     21  C   UNL A   1      30.562  27.009  24.528  1.00  0.00     0.087 C 
ATOM     22  C   UNL A   1      30.798  26.781  23.052  1.00  0.00     0.023 C 
ATOM     23  C   UNL A   1      30.773  28.177  23.597  1.00  0.00     0.032 C 
BRANCH  23  24
ATOM     24  C   UNL A   1      29.688  29.185  23.327  1.00  0.00    -0.044 A 
ATOM     25  C   UNL A   1      29.871  30.513  23.746  1.00  0.00     0.004 A 
ATOM     26  C   UNL A   1      28.403  28.805  22.907  1.00  0.00     0.004 A 
ATOM     27  C   UNL A   1      28.800  31.403  23.830  1.00  0.00     0.000 A 
ATOM     28  C   UNL A   1      27.328  29.697  22.979  1.00  0.00     0.000 A 
ATOM     29  C   UNL A   1      27.523  30.986  23.469  1.00  0.00     0.000 A 
ENDBRANCH  23  24
ENDBRANCH  13  21
ENDBRANCH   4   7
ENDBRANCH   2   3
ENDBRANCH   1   2
BRANCH   1  30
ATOM     30  C   UNL A   1      38.341  19.954  25.041  1.00  0.00     0.023 C 
BRANCH  30  31
ATOM     31  C   UNL A   1      39.372  19.951  26.159  1.00  0.00     0.116 C 
BRANCH  31  32
ATOM     32  N   UNL A   1      40.553  19.156  25.836  1.00  0.00    -0.352 N 
ATOM     33  C   UNL A   1      41.862  19.588  25.720  1.00  0.00     0.251 C 
ATOM     34  H   UNL A   1      40.400  18.195  25.682  1.00  0.00     0.163 HD
ATOM     35  O   UNL A   1      42.691  18.956  25.094  1.00  0.00    -0.269 OA
BRANCH  33  36
ATOM     36  C   UNL A   1      42.233  20.848  26.389  1.00  0.00     0.039 A 
ATOM     37  C   UNL A   1      42.472  22.008  25.651  1.00  0.00     0.014 A 
ATOM     38  C   UNL A   1      42.280  20.854  27.782  1.00  0.00     0.014 A 
ATOM     39  C   UNL A   1      42.665  23.204  26.336  1.00  0.00     0.010 A 
ATOM     40  C   UNL A   1      42.339  22.050  28.452  1.00  0.00     0.010 A 
ATOM     41  C   UNL A   1      42.565  23.223  27.737  1.00  0.00    -0.014 A 
BRANCH  41  42
ATOM     42  C   UNL A   1      42.515  24.498  28.451  1.00  0.00     0.031 A 
ATOM     43  C   UNL A   1      41.288  25.290  28.162  1.00  0.00     0.074 A 
ATOM     44  C   UNL A   1      43.370  24.823  29.445  1.00  0.00     0.049 A 
ATOM     45  N   UNL A   1      41.212  26.421  27.542  1.00  0.00    -0.248 NA
ATOM     46  C   UNL A   1      39.973  24.692  28.459  1.00  0.00     0.031 C 
ATOM     47  C   UNL A   1      44.417  23.975  30.031  1.00  0.00     0.029 A 
ATOM     48  N   UNL A   1      43.419  25.938  30.230  1.00  0.00    -0.354 N 
ATOM     49  C   UNL A   1      39.867  26.787  27.578  1.00  0.00     0.074 A 
ATOM     50  C   UNL A   1      39.139  25.609  27.961  1.00  0.00     0.031 C 
ATOM     51  C   UNL A   1      44.816  24.494  31.212  1.00  0.00     0.029 A 
ATOM     52  C   UNL A   1      44.192  25.794  31.379  1.00  0.00     0.049 A 
ATOM     53  H   UNL A   1      42.949  26.774  30.002  1.00  0.00     0.167 HD
ATOM     54  C   UNL A   1      39.522  28.105  27.607  1.00  0.00     0.037 A 
ATOM     55  C   UNL A   1      44.304  26.673  32.403  1.00  0.00     0.037 A 
ATOM     56  C   UNL A   1      40.651  28.921  27.234  1.00  0.00     0.049 A 
ATOM     57  C   UNL A   1      43.901  27.999  31.888  1.00  0.00     0.074 A 
ATOM     58  C   UNL A   1      41.374  29.175  26.090  1.00  0.00     0.029 A 
ATOM     59  N   UNL A   1      41.425  29.297  28.298  1.00  0.00    -0.354 N 
ATOM     60  N   UNL A   1      44.582  28.661  30.995  1.00  0.00    -0.248 NA
ATOM     61  C   UNL A   1      42.534  28.457  32.101  1.00  0.00     0.031 C 
ATOM     62  C   UNL A   1      42.694  29.503  26.528  1.00  0.00     0.029 A 
ATOM     63  C   UNL A   1      42.722  29.496  27.922  1.00  0.00     0.049 A 
ATOM     64  H   UNL A   1      41.090  29.411  29.217  1.00  0.00     0.167 HD
ATOM     65  C   UNL A   1      43.617  29.293  30.235  1.00  0.00     0.074 A 
ATOM     66  C   UNL A   1      42.418  29.291  31.065  1.00  0.00     0.031 C 
ATOM     67  C   UNL A   1      43.795  29.450  28.891  1.00  0.00     0.037 A 
BRANCH  54  68
ATOM     68  C   UNL A   1      38.416  28.690  28.476  1.00  0.00     0.064 A 
ATOM     69  C   UNL A   1      37.614  29.724  27.941  1.00  0.00     0.173 A 
ATOM     70  C   UNL A   1      38.346  28.544  29.878  1.00  0.00     0.173 A 
ATOM     71  F   UNL A   1      37.613  29.973  26.622  1.00  0.00    -0.203 F 
ATOM     72  C   UNL A   1      36.879  30.592  28.754  1.00  0.00     0.198 A 
ATOM     73  C   UNL A   1      37.572  29.383  30.682  1.00  0.00     0.198 A 
ATOM     74  F   UNL A   1      39.105  27.672  30.550  1.00  0.00    -0.203 F 
ATOM     75  F   UNL A   1      36.244  31.639  28.210  1.00  0.00    -0.200 F 
ATOM     76  C   UNL A   1      36.865  30.426  30.126  1.00  0.00     0.200 A 
ATOM     77  F   UNL A   1      37.595  29.220  32.013  1.00  0.00    -0.200 F 
ATOM     78  F   UNL A   1      36.220  31.295  30.915  1.00  0.00    -0.200 F 
ENDBRANCH  54  68
BRANCH  55  79
ATOM     79  C   UNL A   1      44.520  26.420  33.848  1.00  0.00     0.064 A 
ATOM     80  C   UNL A   1      43.455  26.044  34.685  1.00  0.00     0.173 A 
ATOM     81  C   UNL A   1      45.816  26.249  34.371  1.00  0.00     0.173 A 
ATOM     82  F   UNL A   1      42.189  26.145  34.254  1.00  0.00    -0.203 F 
ATOM     83  C   UNL A   1      43.675  25.485  35.948  1.00  0.00     0.198 A 
ATOM     84  C   UNL A   1      46.034  25.696  35.634  1.00  0.00     0.198 A 
ATOM     85  F   UNL A   1      46.897  26.523  33.627  1.00  0.00    -0.203 F 
ATOM     86  F   UNL A   1      42.635  25.069  36.685  1.00  0.00    -0.200 F 
ATOM     87  C   UNL A   1      44.964  25.297  36.415  1.00  0.00     0.200 A 
ATOM     88  F   UNL A   1      47.288  25.487  36.060  1.00  0.00    -0.200 F 
ATOM     89  F   UNL A   1      45.179  24.694  37.593  1.00  0.00    -0.200 F 
ENDBRANCH  55  79
BRANCH  67  90
ATOM     90  C   UNL A   1      45.203  29.419  28.376  1.00  0.00     0.064 A 
ATOM     91  C   UNL A   1      46.112  30.485  28.459  1.00  0.00     0.173 A 
ATOM     92  C   UNL A   1      45.664  28.213  27.832  1.00  0.00     0.173 A 
ATOM     93  F   UNL A   1      45.774  31.641  29.041  1.00  0.00    -0.203 F 
ATOM     94  C   UNL A   1      47.414  30.357  27.973  1.00  0.00     0.198 A 
ATOM     95  C   UNL A   1      46.973  28.076  27.385  1.00  0.00     0.198 A 
ATOM     96  F   UNL A   1      44.848  27.150  27.766  1.00  0.00    -0.203 F 
ATOM     97  F   UNL A   1      48.259  31.396  28.037  1.00  0.00    -0.200 F 
ATOM     98  C   UNL A   1      47.843  29.151  27.442  1.00  0.00     0.200 A 
ATOM     99  F   UNL A   1      47.394  26.894  26.914  1.00  0.00    -0.200 F 
ATOM    100  F   UNL A   1      49.102  29.019  27.003  1.00  0.00    -0.200 F 
ENDBRANCH  67  90
ENDBRANCH  41  42
ENDBRANCH  33  36
ENDBRANCH  31  32
ENDBRANCH  30  31
ENDBRANCH   1  30
TORSDOF 14
ENDMDL
MODEL 3
REMARK VINA RESULT:     -13.9      2.993      9.171
REMARK SMILES Cc1nccn1C1(C(=O)NCCCCNC(=O)c2ccc(-c3c4nc(c(-c5c(F)c(F)c(F)c(F)c5F)c5ccc([nH]5)c(-c5c(F)c(F)c(F)c(F)c5F)c5nc(c(-c6c(F)c(F)c(F)c(F)c6F)c6ccc3[nH]6)C=C5)C=C4)cc2)CCN(C(=O)[C@@H]2C[C@H]2c2ccccc2)CC1
REMARK SMILES IDX 12 1 11 2 10 3 8 4 9 5 7 7 81 8 96 9 82 10 95 11 83 12 84 13
REMARK SMILES IDX 85 14 6 15 1 16 2 17 3 18 4 19 5 20 86 21 87 22 88 23 89 24
REMARK SMILES IDX 90 25 94 26 91 27 93 28 92 29 13 30 14 31 15 32 16 33 17 35
REMARK SMILES IDX 18 36 19 37 80 38 20 39 79 40 21 41 22 42 23 43 73 44 24 45
REMARK SMILES IDX 78 46 72 47 74 48 25 49 77 50 71 51 70 52 26 54 58 55 38 56
REMARK SMILES IDX 57 57 39 58 42 59 56 60 75 61 40 62 41 63 55 65 76 66 43 67
REMARK SMILES IDX 27 68 28 69 36 70 29 71 30 72 34 73 37 74 31 75 32 76 35 77
REMARK SMILES IDX 33 78 59 79 60 80 68 81 61 82 62 83 66 84 69 85 63 86 64 87
REMARK SMILES IDX 67 88 65 89 44 90 45 91 53 92 46 93 47 94 51 95 54 96 48 97
REMARK SMILES IDX 49 98 52 99 50 100
REMARK H PARENT 10 6 15 34 74 53 42 64
REMARK Flexibility Score: inf
ROOT
ATOM      1  C   UNL A   1      37.772  22.211  25.562  1.00  0.00     0.023 C 
ENDROOT
BRANCH   1   2
ATOM      2  C   UNL A   1      36.411  21.734  25.034  1.00  0.00     0.116 C 
BRANCH   2   3
ATOM      3  N   UNL A   1      35.893  22.572  23.967  1.00  0.00    -0.354 N 
ATOM      4  C   UNL A   1      34.643  22.992  23.614  1.00  0.00     0.246 C 
ATOM      5  O   UNL A   1      34.595  23.424  22.457  1.00  0.00    -0.272 OA
ATOM      6  H   UNL A   1      36.597  22.911  23.368  1.00  0.00     0.163 HD
BRANCH   4   7
ATOM      7  C   UNL A   1      33.369  22.882  24.547  1.00  0.00     0.127 C 
ATOM      8  C   UNL A   1      33.811  23.560  25.885  1.00  0.00     0.061 C 
ATOM      9  C   UNL A   1      32.153  23.542  23.847  1.00  0.00     0.061 C 
ATOM     10  C   UNL A   1      32.913  24.659  26.492  1.00  0.00     0.122 C 
ATOM     11  C   UNL A   1      31.207  24.086  24.888  1.00  0.00     0.122 C 
ATOM     12  N   UNL A   1      31.876  25.147  25.591  1.00  0.00    -0.342 N 
ATOM     13  C   UNL A   1      31.606  26.517  25.537  1.00  0.00     0.226 C 
ATOM     14  O   UNL A   1      32.173  27.293  26.305  1.00  0.00    -0.275 OA
BRANCH   7  15
ATOM     15  N   UNL A   1      32.977  21.434  24.729  1.00  0.00    -0.320 N 
ATOM     16  C   UNL A   1      32.133  20.632  22.396  1.00  0.00     0.087 C 
ATOM     17  C   UNL A   1      32.447  20.495  23.843  1.00  0.00     0.106 A 
ATOM     18  N   UNL A   1      32.287  19.327  24.441  1.00  0.00    -0.242 NA
ATOM     19  C   UNL A   1      32.815  19.446  25.685  1.00  0.00     0.131 A 
ATOM     20  C   UNL A   1      33.325  20.701  25.855  1.00  0.00     0.108 A 
ENDBRANCH   7  15
BRANCH  13  21
ATOM     21  C   UNL A   1      30.729  27.156  24.502  1.00  0.00     0.087 C 
ATOM     22  C   UNL A   1      31.084  27.028  23.039  1.00  0.00     0.023 C 
ATOM     23  C   UNL A   1      30.937  28.387  23.654  1.00  0.00     0.032 C 
BRANCH  23  24
ATOM     24  C   UNL A   1      29.816  29.348  23.358  1.00  0.00    -0.044 A 
ATOM     25  C   UNL A   1      29.890  30.657  23.859  1.00  0.00     0.004 A 
ATOM     26  C   UNL A   1      28.589  28.922  22.823  1.00  0.00     0.004 A 
ATOM     27  C   UNL A   1      28.765  31.480  23.910  1.00  0.00     0.000 A 
ATOM     28  C   UNL A   1      27.461  29.748  22.862  1.00  0.00     0.000 A 
ATOM     29  C   UNL A   1      27.544  31.016  23.432  1.00  0.00     0.000 A 
ENDBRANCH  23  24
ENDBRANCH  13  21
ENDBRANCH   4   7
ENDBRANCH   2   3
ENDBRANCH   1   2
BRANCH   1  30
ATOM     30  C   UNL A   1      38.916  21.187  25.551  1.00  0.00     0.023 C 
BRANCH  30  31
ATOM     31  C   UNL A   1      40.028  21.461  26.552  1.00  0.00     0.116 C 
BRANCH  31  32
ATOM     32  N   UNL A   1      41.335  21.605  25.918  1.00  0.00    -0.352 N 
ATOM     33  C   UNL A   1      42.070  22.763  25.741  1.00  0.00     0.251 C 
ATOM     34  H   UNL A   1      41.744  20.777  25.576  1.00  0.00     0.163 HD
ATOM     35  O   UNL A   1      42.939  22.846  24.894  1.00  0.00    -0.269 OA
BRANCH  33  36
ATOM     36  C   UNL A   1      41.775  23.908  26.621  1.00  0.00     0.039 A 
ATOM     37  C   UNL A   1      42.322  23.988  27.903  1.00  0.00     0.014 A 
ATOM     38  C   UNL A   1      40.982  24.932  26.108  1.00  0.00     0.014 A 
ATOM     39  C   UNL A   1      42.140  25.159  28.631  1.00  0.00     0.010 A 
ATOM     40  C   UNL A   1      40.913  26.132  26.771  1.00  0.00     0.010 A 
ATOM     41  C   UNL A   1      41.462  26.241  28.046  1.00  0.00    -0.014 A 
BRANCH  41  42
ATOM     42  C   UNL A   1      41.478  27.552  28.691  1.00  0.00     0.031 A 
ATOM     43  C   UNL A   1      42.609  28.415  28.249  1.00  0.00     0.074 A 
ATOM     44  C   UNL A   1      40.452  28.025  29.432  1.00  0.00     0.049 A 
ATOM     45  N   UNL A   1      43.611  28.818  28.958  1.00  0.00    -0.248 NA
ATOM     46  C   UNL A   1      42.728  28.748  26.818  1.00  0.00     0.031 C 
ATOM     47  C   UNL A   1      39.150  27.385  29.660  1.00  0.00     0.029 A 
ATOM     48  N   UNL A   1      40.300  29.233  30.048  1.00  0.00    -0.354 N 
ATOM     49  C   UNL A   1      44.360  29.646  28.122  1.00  0.00     0.074 A 
ATOM     50  C   UNL A   1      43.893  29.401  26.786  1.00  0.00     0.031 C 
ATOM     51  C   UNL A   1      38.273  28.293  30.137  1.00  0.00     0.029 A 
ATOM     52  C   UNL A   1      38.990  29.523  30.419  1.00  0.00     0.049 A 
ATOM     53  H   UNL A   1      41.052  29.847  30.217  1.00  0.00     0.167 HD
ATOM     54  C   UNL A   1      45.063  30.687  28.651  1.00  0.00     0.037 A 
ATOM     55  C   UNL A   1      38.520  30.695  30.910  1.00  0.00     0.037 A 
ATOM     56  C   UNL A   1      45.184  30.529  30.079  1.00  0.00     0.049 A 
ATOM     57  C   UNL A   1      39.676  31.429  31.467  1.00  0.00     0.074 A 
ATOM     58  C   UNL A   1      45.847  29.692  30.947  1.00  0.00     0.029 A 
ATOM     59  N   UNL A   1      44.163  31.114  30.778  1.00  0.00    -0.354 N 
ATOM     60  N   UNL A   1      40.340  31.036  32.518  1.00  0.00    -0.248 NA
ATOM     61  C   UNL A   1      40.338  32.437  30.648  1.00  0.00     0.031 C 
ATOM     62  C   UNL A   1      45.040  29.629  32.124  1.00  0.00     0.029 A 
ATOM     63  C   UNL A   1      43.942  30.473  31.963  1.00  0.00     0.049 A 
ATOM     64  H   UNL A   1      43.652  31.897  30.467  1.00  0.00     0.167 HD
ATOM     65  C   UNL A   1      41.647  31.391  32.244  1.00  0.00     0.074 A 
ATOM     66  C   UNL A   1      41.554  32.403  31.198  1.00  0.00     0.031 C 
ATOM     67  C   UNL A   1      42.675  30.592  32.651  1.00  0.00     0.037 A 
BRANCH  54  68
ATOM     68  C   UNL A   1      45.150  32.075  28.030  1.00  0.00     0.064 A 
ATOM     69  C   UNL A   1      46.429  32.626  27.788  1.00  0.00     0.173 A 
ATOM     70  C   UNL A   1      44.085  33.000  27.999  1.00  0.00     0.173 A 
ATOM     71  F   UNL A   1      47.523  31.849  27.810  1.00  0.00    -0.203 F 
ATOM     72  C   UNL A   1      46.628  34.001  27.622  1.00  0.00     0.198 A 
ATOM     73  C   UNL A   1      44.283  34.366  27.786  1.00  0.00     0.198 A 
ATOM     74  F   UNL A   1      42.826  32.658  28.292  1.00  0.00    -0.203 F 
ATOM     75  F   UNL A   1      47.873  34.489  27.532  1.00  0.00    -0.200 F 
ATOM     76  C   UNL A   1      45.554  34.871  27.630  1.00  0.00     0.200 A 
ATOM     77  F   UNL A   1      43.229  35.194  27.825  1.00  0.00    -0.200 F 
ATOM     78  F   UNL A   1      45.744  36.194  27.542  1.00  0.00    -0.200 F 
ENDBRANCH  54  68
BRANCH  55  79
ATOM     79  C   UNL A   1      37.190  31.328  30.740  1.00  0.00     0.064 A 
ATOM     80  C   UNL A   1      36.328  31.509  31.836  1.00  0.00     0.173 A 
ATOM     81  C   UNL A   1      36.866  32.036  29.567  1.00  0.00     0.173 A 
ATOM     82  F   UNL A   1      36.581  30.897  33.002  1.00  0.00    -0.203 F 
ATOM     83  C   UNL A   1      35.238  32.382  31.777  1.00  0.00     0.198 A 
ATOM     84  C   UNL A   1      35.774  32.903  29.508  1.00  0.00     0.198 A 
ATOM     85  F   UNL A   1      37.660  31.975  28.488  1.00  0.00    -0.203 F 
ATOM     86  F   UNL A   1      34.483  32.585  32.867  1.00  0.00    -0.200 F 
ATOM     87  C   UNL A   1      34.970  33.091  30.618  1.00  0.00     0.200 A 
ATOM     88  F   UNL A   1      35.547  33.609  28.391  1.00  0.00    -0.200 F 
ATOM     89  F   UNL A   1      33.971  33.983  30.582  1.00  0.00    -0.200 F 
ENDBRANCH  55  79
BRANCH  67  90
ATOM     90  C   UNL A   1      42.413  29.666  33.800  1.00  0.00     0.064 A 
ATOM     91  C   UNL A   1      41.921  28.357  33.680  1.00  0.00     0.173 A 
ATOM     92  C   UNL A   1      42.746  30.118  35.084  1.00  0.00     0.173 A 
ATOM     93  F   UNL A   1      41.659  27.821  32.482  1.00  0.00    -0.203 F 
ATOM     94  C   UNL A   1      41.730  27.556  34.806  1.00  0.00     0.198 A 
ATOM     95  C   UNL A   1      42.592  29.304  36.199  1.00  0.00     0.198 A 
ATOM     96  F   UNL A   1      43.258  31.348  35.251  1.00  0.00    -0.203 F 
ATOM     97  F   UNL A   1      41.233  26.317  34.673  1.00  0.00    -0.200 F 
ATOM     98  C   UNL A   1      42.071  28.029  36.063  1.00  0.00     0.200 A 
ATOM     99  F   UNL A   1      42.965  29.753  37.406  1.00  0.00    -0.200 F 
ATOM    100  F   UNL A   1      41.915  27.249  37.141  1.00  0.00    -0.200 F 
ENDBRANCH  67  90
ENDBRANCH  41  42
ENDBRANCH  33  36
ENDBRANCH  31  32
ENDBRANCH  30  31
ENDBRANCH   1  30
TORSDOF 14
ENDMDL
