MODEL 1
REMARK VINA RESULT:     -13.2      0.000      0.000
REMARK SMILES CC1(C)CC(=O)C(/C=N/Cc2ccc(C(=O)NCCCCNC(=O)c3ccc(-c4c5nc(c(-c6c(F)c(F)c(F)c(F)c6F)c6ccc([nH]6)c(-c6c(F)c(F)c(F)c(F)c6F)c6nc(c(-c7c(F)c(F)c(F)c(F)c7F)c7ccc4[nH]7)C=C6)C=C5)cc3)cc2)=C([O-])C1
REMARK SMILES IDX 19 1 18 2 17 3 15 4 16 5 14 7 11 8 12 9 89 10 13 11 88 12
REMARK SMILES IDX 10 13 9 14 8 15 7 16 1 17 2 18 3 19 4 20 92 21 5 22 90 23
REMARK SMILES IDX 6 24 91 25 20 26 21 27 22 28 23 29 24 31 25 32 26 33 87 34
REMARK SMILES IDX 27 35 86 36 28 37 29 38 30 39 80 40 31 41 85 42 79 43 81 44
REMARK SMILES IDX 32 45 84 46 78 47 77 48 33 50 65 51 45 52 64 53 46 54 49 55
REMARK SMILES IDX 63 56 82 57 47 58 48 59 62 61 83 62 50 63 34 64 35 65 43 66
REMARK SMILES IDX 36 67 37 68 41 69 44 70 38 71 39 72 42 73 40 74 66 75 67 76
REMARK SMILES IDX 75 77 68 78 69 79 73 80 76 81 70 82 71 83 74 84 72 85 51 86
REMARK SMILES IDX 52 87 60 88 53 89 54 90 58 91 61 92 55 93 56 94 59 95 57 96
REMARK H PARENT 17 6 22 30 81 49 49 60
REMARK Flexibility Score: inf
ROOT
ATOM      1  C   UNL A   1      37.328  21.174  24.644  1.00  0.00     0.023 C 
ENDROOT
BRANCH   1   2
ATOM      2  C   UNL A   1      36.021  21.288  25.428  1.00  0.00     0.116 C 
BRANCH   2   3
ATOM      3  N   UNL A   1      35.254  20.066  25.304  1.00  0.00    -0.352 N 
ATOM      4  C   UNL A   1      33.938  19.865  24.977  1.00  0.00     0.251 C 
ATOM      5  O   UNL A   1      33.520  18.709  24.926  1.00  0.00    -0.269 OA
ATOM      6  H   UNL A   1      35.761  19.243  25.485  1.00  0.00     0.163 HD
BRANCH   4   7
ATOM      7  C   UNL A   1      33.032  20.984  24.609  1.00  0.00     0.039 A 
ATOM      8  C   UNL A   1      31.397  23.105  23.736  1.00  0.00    -0.027 A 
ATOM      9  C   UNL A   1      32.188  22.391  22.825  1.00  0.00     0.006 A 
ATOM     10  C   UNL A   1      31.409  22.726  25.083  1.00  0.00     0.006 A 
ATOM     11  C   UNL A   1      32.989  21.335  23.256  1.00  0.00     0.014 A 
ATOM     12  C   UNL A   1      32.209  21.664  25.511  1.00  0.00     0.014 A 
BRANCH   8  13
ATOM     13  C   UNL A   1      30.477  24.203  23.261  1.00  0.00     0.177 C 
BRANCH  13  14
ATOM     14  N   UNL A   1      31.056  25.519  23.543  1.00  0.00    -0.288 NA
ATOM     15  C   UNL A   1      30.528  26.135  24.539  1.00  0.00     0.116 C 
BRANCH  15  16
ATOM     16  C   UNL A   1      30.992  27.432  25.093  1.00  0.00     0.024 C 
ATOM     17  C   UNL A   1      32.126  31.211  26.999  1.00  0.00     0.012 C 
ATOM     18  C   UNL A   1      32.168  29.894  26.206  1.00  0.00    -0.025 C 
ATOM     19  C   UNL A   1      33.614  29.668  25.720  1.00  0.00     0.012 C 
ATOM     20  C   UNL A   1      31.212  29.999  25.012  1.00  0.00     0.087 C 
ATOM     21  C   UNL A   1      31.717  28.743  27.125  1.00  0.00     0.026 C 
ATOM     22  C   UNL A   1      31.041  28.684  24.280  1.00  0.00     0.164 C 
ATOM     23  C   UNL A   1      31.326  27.482  26.399  1.00  0.00    -0.120 C 
ATOM     24  O   UNL A   1      30.879  28.685  23.062  1.00  0.00    -0.294 OA
ATOM     25  O   UNL A   1      31.357  26.372  27.225  1.00  0.00    -0.875 OA
ENDBRANCH  15  16
ENDBRANCH  13  14
ENDBRANCH   8  13
ENDBRANCH   4   7
ENDBRANCH   2   3
ENDBRANCH   1   2
BRANCH   1  26
ATOM     26  C   UNL A   1      38.156  19.932  24.984  1.00  0.00     0.023 C 
BRANCH  26  27
ATOM     27  C   UNL A   1      39.328  20.187  25.921  1.00  0.00     0.116 C 
BRANCH  27  28
ATOM     28  N   UNL A   1      40.292  19.100  25.940  1.00  0.00    -0.352 N 
ATOM     29  C   UNL A   1      41.655  19.169  26.119  1.00  0.00     0.251 C 
ATOM     30  H   UNL A   1      39.923  18.197  25.807  1.00  0.00     0.163 HD
ATOM     31  O   UNL A   1      42.351  18.177  26.002  1.00  0.00    -0.269 OA
BRANCH  29  32
ATOM     32  C   UNL A   1      42.264  20.481  26.415  1.00  0.00     0.039 A 
ATOM     33  C   UNL A   1      42.736  21.254  25.352  1.00  0.00     0.014 A 
ATOM     34  C   UNL A   1      42.331  20.957  27.727  1.00  0.00     0.014 A 
ATOM     35  C   UNL A   1      43.222  22.537  25.600  1.00  0.00     0.010 A 
ATOM     36  C   UNL A   1      42.750  22.262  27.963  1.00  0.00     0.010 A 
ATOM     37  C   UNL A   1      43.200  23.062  26.903  1.00  0.00    -0.014 A 
BRANCH  37  38
ATOM     38  C   UNL A   1      43.646  24.449  27.174  1.00  0.00     0.031 A 
ATOM     39  C   UNL A   1      42.668  25.465  27.691  1.00  0.00     0.074 A 
ATOM     40  C   UNL A   1      44.914  24.807  26.892  1.00  0.00     0.049 A 
ATOM     41  N   UNL A   1      42.848  26.738  27.935  1.00  0.00    -0.248 NA
ATOM     42  C   UNL A   1      41.297  24.994  27.942  1.00  0.00     0.031 C 
ATOM     43  C   UNL A   1      45.937  23.922  26.335  1.00  0.00     0.029 A 
ATOM     44  N   UNL A   1      45.554  26.012  27.026  1.00  0.00    -0.354 N 
ATOM     45  C   UNL A   1      41.615  27.219  28.351  1.00  0.00     0.074 A 
ATOM     46  C   UNL A   1      40.681  26.118  28.277  1.00  0.00     0.031 C 
ATOM     47  C   UNL A   1      47.083  24.608  26.195  1.00  0.00     0.029 A 
ATOM     48  C   UNL A   1      46.866  25.987  26.622  1.00  0.00     0.049 A 
ATOM     49  H   UNL A   1      45.114  26.820  27.379  1.00  0.00     0.167 HD
ATOM     50  C   UNL A   1      41.297  28.464  28.781  1.00  0.00     0.037 A 
ATOM     51  C   UNL A   1      47.786  26.969  26.595  1.00  0.00     0.037 A 
ATOM     52  C   UNL A   1      42.237  29.549  28.880  1.00  0.00     0.049 A 
ATOM     53  C   UNL A   1      47.409  28.339  27.086  1.00  0.00     0.074 A 
ATOM     54  C   UNL A   1      42.029  30.829  29.362  1.00  0.00     0.029 A 
ATOM     55  N   UNL A   1      43.565  29.479  28.485  1.00  0.00    -0.354 N 
ATOM     56  N   UNL A   1      46.259  28.766  27.549  1.00  0.00    -0.248 NA
ATOM     57  C   UNL A   1      48.461  29.365  27.059  1.00  0.00     0.031 C 
ATOM     58  C   UNL A   1      43.222  31.547  29.221  1.00  0.00     0.029 A 
ATOM     59  C   UNL A   1      44.185  30.700  28.696  1.00  0.00     0.049 A 
ATOM     60  H   UNL A   1      44.002  28.680  28.111  1.00  0.00     0.167 HD
ATOM     61  C   UNL A   1      46.454  30.095  27.894  1.00  0.00     0.074 A 
ATOM     62  C   UNL A   1      47.839  30.403  27.601  1.00  0.00     0.031 C 
ATOM     63  C   UNL A   1      45.567  30.984  28.406  1.00  0.00     0.037 A 
BRANCH  50  64
ATOM     64  C   UNL A   1      39.873  28.714  29.186  1.00  0.00     0.064 A 
ATOM     65  C   UNL A   1      38.918  29.175  28.268  1.00  0.00     0.173 A 
ATOM     66  C   UNL A   1      39.452  28.462  30.500  1.00  0.00     0.173 A 
ATOM     67  F   UNL A   1      39.273  29.444  27.001  1.00  0.00    -0.203 F 
ATOM     68  C   UNL A   1      37.600  29.400  28.656  1.00  0.00     0.198 A 
ATOM     69  C   UNL A   1      38.126  28.660  30.877  1.00  0.00     0.198 A 
ATOM     70  F   UNL A   1      40.324  28.018  31.417  1.00  0.00    -0.203 F 
ATOM     71  F   UNL A   1      36.717  29.888  27.774  1.00  0.00    -0.200 F 
ATOM     72  C   UNL A   1      37.204  29.136  29.958  1.00  0.00     0.200 A 
ATOM     73  F   UNL A   1      37.742  28.393  32.133  1.00  0.00    -0.200 F 
ATOM     74  F   UNL A   1      35.933  29.347  30.330  1.00  0.00    -0.200 F 
ENDBRANCH  50  64
BRANCH  51  75
ATOM     75  C   UNL A   1      49.164  26.683  26.117  1.00  0.00     0.064 A 
ATOM     76  C   UNL A   1      49.527  26.931  24.785  1.00  0.00     0.173 A 
ATOM     77  C   UNL A   1      50.140  26.155  26.972  1.00  0.00     0.173 A 
ATOM     78  F   UNL A   1      48.622  27.417  23.924  1.00  0.00    -0.203 F 
ATOM     79  C   UNL A   1      50.809  26.641  24.323  1.00  0.00     0.198 A 
ATOM     80  C   UNL A   1      51.430  25.890  26.516  1.00  0.00     0.198 A 
ATOM     81  F   UNL A   1      49.845  25.905  28.256  1.00  0.00    -0.203 F 
ATOM     82  F   UNL A   1      51.116  26.845  23.035  1.00  0.00    -0.200 F 
ATOM     83  C   UNL A   1      51.761  26.126  25.191  1.00  0.00     0.200 A 
ATOM     84  F   UNL A   1      52.352  25.406  27.360  1.00  0.00    -0.200 F 
ATOM     85  F   UNL A   1      52.995  25.850  24.746  1.00  0.00    -0.200 F 
ENDBRANCH  51  75
BRANCH  63  86
ATOM     86  C   UNL A   1      46.076  32.361  28.716  1.00  0.00     0.064 A 
ATOM     87  C   UNL A   1      46.010  33.399  27.774  1.00  0.00     0.173 A 
ATOM     88  C   UNL A   1      46.599  32.655  29.983  1.00  0.00     0.173 A 
ATOM     89  F   UNL A   1      45.532  33.163  26.542  1.00  0.00    -0.203 F 
ATOM     90  C   UNL A   1      46.472  34.674  28.084  1.00  0.00     0.198 A 
ATOM     91  C   UNL A   1      47.032  33.939  30.299  1.00  0.00     0.198 A 
ATOM     92  F   UNL A   1      46.677  31.699  30.922  1.00  0.00    -0.203 F 
ATOM     93  F   UNL A   1      46.444  35.639  27.154  1.00  0.00    -0.200 F 
ATOM     94  C   UNL A   1      46.976  34.945  29.347  1.00  0.00     0.200 A 
ATOM     95  F   UNL A   1      47.507  34.202  31.525  1.00  0.00    -0.200 F 
ATOM     96  F   UNL A   1      47.414  36.176  29.645  1.00  0.00    -0.200 F 
ENDBRANCH  63  86
ENDBRANCH  37  38
ENDBRANCH  29  32
ENDBRANCH  27  28
ENDBRANCH  26  27
ENDBRANCH   1  26
TORSDOF 14
ENDMDL
MODEL 2
REMARK VINA RESULT:     -13.1      0.503      7.377
REMARK SMILES CC1(C)CC(=O)C(/C=N/Cc2ccc(C(=O)NCCCCNC(=O)c3ccc(-c4c5nc(c(-c6c(F)c(F)c(F)c(F)c6F)c6ccc([nH]6)c(-c6c(F)c(F)c(F)c(F)c6F)c6nc(c(-c7c(F)c(F)c(F)c(F)c7F)c7ccc4[nH]7)C=C6)C=C5)cc3)cc2)=C([O-])C1
REMARK SMILES IDX 19 1 18 2 17 3 15 4 16 5 14 7 11 8 12 9 89 10 13 11 88 12
REMARK SMILES IDX 10 13 9 14 8 15 7 16 1 17 2 18 3 19 4 20 92 21 5 22 90 23
REMARK SMILES IDX 6 24 91 25 20 26 21 27 22 28 23 29 24 31 25 32 26 33 87 34
REMARK SMILES IDX 27 35 86 36 28 37 29 38 30 39 80 40 31 41 85 42 79 43 81 44
REMARK SMILES IDX 32 45 84 46 78 47 77 48 33 50 65 51 45 52 64 53 46 54 49 55
REMARK SMILES IDX 63 56 82 57 47 58 48 59 62 61 83 62 50 63 34 64 35 65 43 66
REMARK SMILES IDX 36 67 37 68 41 69 44 70 38 71 39 72 42 73 40 74 66 75 67 76
REMARK SMILES IDX 75 77 68 78 69 79 73 80 76 81 70 82 71 83 74 84 72 85 51 86
REMARK SMILES IDX 52 87 60 88 53 89 54 90 58 91 61 92 55 93 56 94 59 95 57 96
REMARK H PARENT 17 6 22 30 81 49 49 60
REMARK Flexibility Score: inf
ROOT
ATOM      1  C   UNL A   1      37.229  21.077  24.649  1.00  0.00     0.023 C 
ENDROOT
BRANCH   1   2
ATOM      2  C   UNL A   1      35.939  21.139  25.468  1.00  0.00     0.116 C 
BRANCH   2   3
ATOM      3  N   UNL A   1      35.162  19.933  25.272  1.00  0.00    -0.352 N 
ATOM      4  C   UNL A   1      33.854  19.762  24.904  1.00  0.00     0.251 C 
ATOM      5  O   UNL A   1      33.425  18.614  24.793  1.00  0.00    -0.269 OA
ATOM      6  H   UNL A   1      35.657  19.097  25.431  1.00  0.00     0.163 HD
BRANCH   4   7
ATOM      7  C   UNL A   1      32.969  20.905  24.562  1.00  0.00     0.039 A 
ATOM      8  C   UNL A   1      31.377  23.079  23.739  1.00  0.00    -0.027 A 
ATOM      9  C   UNL A   1      32.168  22.382  22.814  1.00  0.00     0.006 A 
ATOM     10  C   UNL A   1      31.367  22.657  25.073  1.00  0.00     0.006 A 
ATOM     11  C   UNL A   1      32.948  21.301  23.220  1.00  0.00     0.014 A 
ATOM     12  C   UNL A   1      32.145  21.569  25.476  1.00  0.00     0.014 A 
BRANCH   8  13
ATOM     13  C   UNL A   1      30.480  24.206  23.288  1.00  0.00     0.177 C 
BRANCH  13  14
ATOM     14  N   UNL A   1      31.090  25.503  23.592  1.00  0.00    -0.288 NA
ATOM     15  C   UNL A   1      30.522  26.154  24.543  1.00  0.00     0.116 C 
BRANCH  15  16
ATOM     16  C   UNL A   1      30.998  27.440  25.109  1.00  0.00     0.024 C 
ATOM     17  C   UNL A   1      32.169  31.188  27.056  1.00  0.00     0.012 C 
ATOM     18  C   UNL A   1      32.198  29.880  26.246  1.00  0.00    -0.025 C 
ATOM     19  C   UNL A   1      33.639  29.651  25.746  1.00  0.00     0.012 C 
ATOM     20  C   UNL A   1      31.234  30.006  25.060  1.00  0.00     0.087 C 
ATOM     21  C   UNL A   1      31.746  28.721  27.153  1.00  0.00     0.026 C 
ATOM     22  C   UNL A   1      31.049  28.703  24.312  1.00  0.00     0.164 C 
ATOM     23  C   UNL A   1      31.341  27.472  26.413  1.00  0.00    -0.120 C 
ATOM     24  O   UNL A   1      30.878  28.721  23.096  1.00  0.00    -0.294 OA
ATOM     25  O   UNL A   1      31.371  26.351  27.225  1.00  0.00    -0.875 OA
ENDBRANCH  15  16
ENDBRANCH  13  14
ENDBRANCH   8  13
ENDBRANCH   4   7
ENDBRANCH   2   3
ENDBRANCH   1   2
BRANCH   1  26
ATOM     26  C   UNL A   1      38.119  19.875  24.974  1.00  0.00     0.023 C 
BRANCH  26  27
ATOM     27  C   UNL A   1      39.260  20.171  25.936  1.00  0.00     0.116 C 
BRANCH  27  28
ATOM     28  N   UNL A   1      40.293  19.149  25.930  1.00  0.00    -0.352 N 
ATOM     29  C   UNL A   1      41.650  19.305  26.097  1.00  0.00     0.251 C 
ATOM     30  H   UNL A   1      39.982  18.226  25.787  1.00  0.00     0.163 HD
ATOM     31  O   UNL A   1      42.409  18.361  25.959  1.00  0.00    -0.269 OA
BRANCH  29  32
ATOM     32  C   UNL A   1      42.176  20.649  26.407  1.00  0.00     0.039 A 
ATOM     33  C   UNL A   1      42.503  21.499  25.349  1.00  0.00     0.014 A 
ATOM     34  C   UNL A   1      42.305  21.078  27.731  1.00  0.00     0.014 A 
ATOM     35  C   UNL A   1      42.904  22.807  25.618  1.00  0.00     0.010 A 
ATOM     36  C   UNL A   1      42.637  22.402  27.994  1.00  0.00     0.010 A 
ATOM     37  C   UNL A   1      42.941  23.277  26.941  1.00  0.00    -0.014 A 
BRANCH  37  38
ATOM     38  C   UNL A   1      43.296  24.684  27.241  1.00  0.00     0.031 A 
ATOM     39  C   UNL A   1      44.699  25.169  27.014  1.00  0.00     0.074 A 
ATOM     40  C   UNL A   1      42.371  25.503  27.779  1.00  0.00     0.049 A 
ATOM     41  N   UNL A   1      45.221  26.343  27.268  1.00  0.00    -0.248 NA
ATOM     42  C   UNL A   1      45.651  24.198  26.453  1.00  0.00     0.031 C 
ATOM     43  C   UNL A   1      40.993  25.128  28.095  1.00  0.00     0.029 A 
ATOM     44  N   UNL A   1      42.455  26.816  28.163  1.00  0.00    -0.354 N 
ATOM     45  C   UNL A   1      46.558  26.244  26.912  1.00  0.00     0.074 A 
ATOM     46  C   UNL A   1      46.784  24.885  26.476  1.00  0.00     0.031 C 
ATOM     47  C   UNL A   1      40.354  26.193  28.605  1.00  0.00     0.029 A 
ATOM     48  C   UNL A   1      41.285  27.314  28.681  1.00  0.00     0.049 A 
ATOM     49  H   UNL A   1      43.277  27.352  28.076  1.00  0.00     0.167 HD
ATOM     50  C   UNL A   1      47.507  27.211  26.925  1.00  0.00     0.037 A 
ATOM     51  C   UNL A   1      41.000  28.537  29.166  1.00  0.00     0.037 A 
ATOM     52  C   UNL A   1      47.270  28.571  27.333  1.00  0.00     0.049 A 
ATOM     53  C   UNL A   1      42.070  29.594  29.161  1.00  0.00     0.074 A 
ATOM     54  C   UNL A   1      48.148  29.640  27.324  1.00  0.00     0.029 A 
ATOM     55  N   UNL A   1      46.065  29.045  27.829  1.00  0.00    -0.354 N 
ATOM     56  N   UNL A   1      43.313  29.513  28.752  1.00  0.00    -0.248 NA
ATOM     57  C   UNL A   1      41.695  30.918  29.678  1.00  0.00     0.031 C 
ATOM     58  C   UNL A   1      47.485  30.753  27.852  1.00  0.00     0.029 A 
ATOM     59  C   UNL A   1      46.180  30.388  28.146  1.00  0.00     0.049 A 
ATOM     60  H   UNL A   1      45.247  28.506  27.939  1.00  0.00     0.167 HD
ATOM     61  C   UNL A   1      43.859  30.775  28.934  1.00  0.00     0.074 A 
ATOM     62  C   UNL A   1      42.808  31.610  29.478  1.00  0.00     0.031 C 
ATOM     63  C   UNL A   1      45.119  31.205  28.677  1.00  0.00     0.037 A 
BRANCH  50  64
ATOM     64  C   UNL A   1      48.888  26.833  26.475  1.00  0.00     0.064 A 
ATOM     65  C   UNL A   1      49.834  26.305  27.367  1.00  0.00     0.173 A 
ATOM     66  C   UNL A   1      49.261  26.969  25.129  1.00  0.00     0.173 A 
ATOM     67  F   UNL A   1      49.532  26.167  28.667  1.00  0.00    -0.203 F 
ATOM     68  C   UNL A   1      51.111  25.956  26.935  1.00  0.00     0.198 A 
ATOM     69  C   UNL A   1      50.528  26.590  24.695  1.00  0.00     0.198 A 
ATOM     70  F   UNL A   1      48.394  27.464  24.234  1.00  0.00    -0.203 F 
ATOM     71  F   UNL A   1      52.013  25.502  27.815  1.00  0.00    -0.200 F 
ATOM     72  C   UNL A   1      51.454  26.092  25.599  1.00  0.00     0.200 A 
ATOM     73  F   UNL A   1      50.855  26.711  23.400  1.00  0.00    -0.200 F 
ATOM     74  F   UNL A   1      52.681  25.749  25.182  1.00  0.00    -0.200 F 
ENDBRANCH  50  64
BRANCH  51  75
ATOM     75  C   UNL A   1      39.634  28.838  29.667  1.00  0.00     0.064 A 
ATOM     76  C   UNL A   1      39.286  28.582  31.001  1.00  0.00     0.173 A 
ATOM     77  C   UNL A   1      38.650  29.380  28.828  1.00  0.00     0.173 A 
ATOM     78  F   UNL A   1      40.186  28.046  31.837  1.00  0.00    -0.203 F 
ATOM     79  C   UNL A   1      37.999  28.837  31.471  1.00  0.00     0.198 A 
ATOM     80  C   UNL A   1      37.371  29.660  29.305  1.00  0.00     0.198 A 
ATOM     81  F   UNL A   1      38.935  29.648  27.545  1.00  0.00    -0.203 F 
ATOM     82  F   UNL A   1      37.680  28.541  32.738  1.00  0.00    -0.200 F 
ATOM     83  C   UNL A   1      37.044  29.381  30.624  1.00  0.00     0.200 A 
ATOM     84  F   UNL A   1      36.456  30.198  28.488  1.00  0.00    -0.200 F 
ATOM     85  F   UNL A   1      35.808  29.628  31.077  1.00  0.00    -0.200 F 
ENDBRANCH  51  75
BRANCH  63  86
ATOM     86  C   UNL A   1      45.419  32.651  28.946  1.00  0.00     0.064 A 
ATOM     87  C   UNL A   1      45.967  33.074  30.166  1.00  0.00     0.173 A 
ATOM     88  C   UNL A   1      45.193  33.618  27.955  1.00  0.00     0.173 A 
ATOM     89  F   UNL A   1      46.187  32.189  31.150  1.00  0.00    -0.203 F 
ATOM     90  C   UNL A   1      46.253  34.417  30.392  1.00  0.00     0.198 A 
ATOM     91  C   UNL A   1      45.509  34.955  28.174  1.00  0.00     0.198 A 
ATOM     92  F   UNL A   1      44.677  33.262  26.768  1.00  0.00    -0.203 F 
ATOM     93  F   UNL A   1      46.732  34.807  31.582  1.00  0.00    -0.200 F 
ATOM     94  C   UNL A   1      46.031  35.355  29.394  1.00  0.00     0.200 A 
ATOM     95  F   UNL A   1      45.306  35.858  27.204  1.00  0.00    -0.200 F 
ATOM     96  F   UNL A   1      46.315  36.646  29.612  1.00  0.00    -0.200 F 
ENDBRANCH  63  86
ENDBRANCH  37  38
ENDBRANCH  29  32
ENDBRANCH  27  28
ENDBRANCH  26  27
ENDBRANCH   1  26
TORSDOF 14
ENDMDL
MODEL 3
REMARK VINA RESULT:     -13.1      3.515      8.170
REMARK SMILES CC1(C)CC(=O)C(/C=N/Cc2ccc(C(=O)NCCCCNC(=O)c3ccc(-c4c5nc(c(-c6c(F)c(F)c(F)c(F)c6F)c6ccc([nH]6)c(-c6c(F)c(F)c(F)c(F)c6F)c6nc(c(-c7c(F)c(F)c(F)c(F)c7F)c7ccc4[nH]7)C=C6)C=C5)cc3)cc2)=C([O-])C1
REMARK SMILES IDX 19 1 18 2 17 3 15 4 16 5 14 7 11 8 12 9 89 10 13 11 88 12
REMARK SMILES IDX 10 13 9 14 8 15 7 16 1 17 2 18 3 19 4 20 92 21 5 22 90 23
REMARK SMILES IDX 6 24 91 25 20 26 21 27 22 28 23 29 24 31 25 32 26 33 87 34
REMARK SMILES IDX 27 35 86 36 28 37 29 38 30 39 80 40 31 41 85 42 79 43 81 44
REMARK SMILES IDX 32 45 84 46 78 47 77 48 33 50 65 51 45 52 64 53 46 54 49 55
REMARK SMILES IDX 63 56 82 57 47 58 48 59 62 61 83 62 50 63 34 64 35 65 43 66
REMARK SMILES IDX 36 67 37 68 41 69 44 70 38 71 39 72 42 73 40 74 66 75 67 76
REMARK SMILES IDX 75 77 68 78 69 79 73 80 76 81 70 82 71 83 74 84 72 85 51 86
REMARK SMILES IDX 52 87 60 88 53 89 54 90 58 91 61 92 55 93 56 94 59 95 57 96
REMARK H PARENT 17 6 22 30 81 49 49 60
REMARK Flexibility Score: inf
ROOT
ATOM      1  C   UNL A   1      32.731  29.399  24.909  1.00  0.00     0.023 C 
ENDROOT
BRANCH   1   2
ATOM      2  C   UNL A   1      31.257  29.795  24.993  1.00  0.00     0.116 C 
BRANCH   2   3
ATOM      3  N   UNL A   1      30.726  30.036  23.668  1.00  0.00    -0.352 N 
ATOM      4  C   UNL A   1      30.429  29.166  22.651  1.00  0.00     0.251 C 
ATOM      5  O   UNL A   1      29.969  29.626  21.606  1.00  0.00    -0.269 OA
ATOM      6  H   UNL A   1      30.549  30.982  23.463  1.00  0.00     0.163 HD
BRANCH   4   7
ATOM      7  C   UNL A   1      30.571  27.695  22.798  1.00  0.00     0.039 A 
ATOM      8  C   UNL A   1      30.721  24.915  23.230  1.00  0.00    -0.027 A 
ATOM      9  C   UNL A   1      29.775  25.694  23.911  1.00  0.00     0.006 A 
ATOM     10  C   UNL A   1      31.571  25.537  22.309  1.00  0.00     0.006 A 
ATOM     11  C   UNL A   1      29.695  27.068  23.690  1.00  0.00     0.014 A 
ATOM     12  C   UNL A   1      31.484  26.913  22.084  1.00  0.00     0.014 A 
BRANCH   8  13
ATOM     13  C   UNL A   1      30.764  23.418  23.418  1.00  0.00     0.177 C 
BRANCH  13  14
ATOM     14  N   UNL A   1      32.148  22.941  23.446  1.00  0.00    -0.288 NA
ATOM     15  C   UNL A   1      32.852  23.390  24.423  1.00  0.00     0.116 C 
BRANCH  15  16
ATOM     16  C   UNL A   1      34.246  22.988  24.735  1.00  0.00     0.024 C 
ATOM     17  C   UNL A   1      38.370  21.635  25.337  1.00  0.00     0.012 C 
ATOM     18  C   UNL A   1      37.075  22.463  25.373  1.00  0.00    -0.025 C 
ATOM     19  C   UNL A   1      37.361  23.776  26.131  1.00  0.00     0.012 C 
ATOM     20  C   UNL A   1      35.987  21.656  26.091  1.00  0.00     0.087 C 
ATOM     21  C   UNL A   1      36.627  22.756  23.930  1.00  0.00     0.026 C 
ATOM     22  C   UNL A   1      34.623  22.309  26.012  1.00  0.00     0.164 C 
ATOM     23  C   UNL A   1      35.193  23.198  23.799  1.00  0.00    -0.120 C 
ATOM     24  O   UNL A   1      33.844  22.204  26.956  1.00  0.00    -0.294 OA
ATOM     25  O   UNL A   1      34.957  23.859  22.605  1.00  0.00    -0.875 OA
ENDBRANCH  15  16
ENDBRANCH  13  14
ENDBRANCH   8  13
ENDBRANCH   4   7
ENDBRANCH   2   3
ENDBRANCH   1   2
BRANCH   1  26
ATOM     26  C   UNL A   1      33.095  28.164  25.736  1.00  0.00     0.023 C 
BRANCH  26  27
ATOM     27  C   UNL A   1      33.899  28.457  26.995  1.00  0.00     0.116 C 
BRANCH  27  28
ATOM     28  N   UNL A   1      33.749  29.824  27.464  1.00  0.00    -0.352 N 
ATOM     29  C   UNL A   1      34.659  30.598  28.147  1.00  0.00     0.251 C 
ATOM     30  H   UNL A   1      32.883  30.251  27.269  1.00  0.00     0.163 HD
ATOM     31  O   UNL A   1      34.349  31.697  28.572  1.00  0.00    -0.269 OA
BRANCH  29  32
ATOM     32  C   UNL A   1      36.009  30.054  28.392  1.00  0.00     0.039 A 
ATOM     33  C   UNL A   1      36.971  30.174  27.388  1.00  0.00     0.014 A 
ATOM     34  C   UNL A   1      36.329  29.466  29.619  1.00  0.00     0.014 A 
ATOM     35  C   UNL A   1      38.278  29.758  27.637  1.00  0.00     0.010 A 
ATOM     36  C   UNL A   1      37.648  29.118  29.889  1.00  0.00     0.010 A 
ATOM     37  C   UNL A   1      38.633  29.259  28.901  1.00  0.00    -0.014 A 
BRANCH  37  38
ATOM     38  C   UNL A   1      40.032  28.879  29.206  1.00  0.00     0.031 A 
ATOM     39  C   UNL A   1      40.916  29.820  29.974  1.00  0.00     0.074 A 
ATOM     40  C   UNL A   1      40.523  27.717  28.734  1.00  0.00     0.049 A 
ATOM     41  N   UNL A   1      42.180  29.697  30.291  1.00  0.00    -0.248 NA
ATOM     42  C   UNL A   1      40.304  31.080  30.425  1.00  0.00     0.031 C 
ATOM     43  C   UNL A   1      39.777  26.749  27.929  1.00  0.00     0.029 A 
ATOM     44  N   UNL A   1      41.770  27.158  28.855  1.00  0.00    -0.354 N 
ATOM     45  C   UNL A   1      42.515  30.865  30.960  1.00  0.00     0.074 A 
ATOM     46  C   UNL A   1      41.341  31.708  30.960  1.00  0.00     0.031 C 
ATOM     47  C   UNL A   1      40.573  25.706  27.646  1.00  0.00     0.029 A 
ATOM     48  C   UNL A   1      41.893  25.946  28.222  1.00  0.00     0.049 A 
ATOM     49  H   UNL A   1      42.507  27.586  29.348  1.00  0.00     0.167 HD
ATOM     50  C   UNL A   1      43.692  31.193  31.545  1.00  0.00     0.037 A 
ATOM     51  C   UNL A   1      42.955  25.124  28.116  1.00  0.00     0.037 A 
ATOM     52  C   UNL A   1      44.849  30.337  31.568  1.00  0.00     0.049 A 
ATOM     53  C   UNL A   1      44.247  25.509  28.782  1.00  0.00     0.074 A 
ATOM     54  C   UNL A   1      46.068  30.550  32.187  1.00  0.00     0.029 A 
ATOM     55  N   UNL A   1      44.929  29.104  30.937  1.00  0.00    -0.354 N 
ATOM     56  N   UNL A   1      44.533  26.583  29.478  1.00  0.00    -0.248 NA
ATOM     57  C   UNL A   1      45.364  24.562  28.655  1.00  0.00     0.031 C 
ATOM     58  C   UNL A   1      46.900  29.463  31.897  1.00  0.00     0.029 A 
ATOM     59  C   UNL A   1      46.184  28.552  31.138  1.00  0.00     0.049 A 
ATOM     60  H   UNL A   1      44.201  28.683  30.423  1.00  0.00     0.167 HD
ATOM     61  C   UNL A   1      45.847  26.430  29.895  1.00  0.00     0.074 A 
ATOM     62  C   UNL A   1      46.300  25.151  29.387  1.00  0.00     0.031 C 
ATOM     63  C   UNL A   1      46.612  27.273  30.631  1.00  0.00     0.037 A 
BRANCH  50  64
ATOM     64  C   UNL A   1      43.783  32.531  32.217  1.00  0.00     0.064 A 
ATOM     65  C   UNL A   1      44.205  33.676  31.524  1.00  0.00     0.173 A 
ATOM     66  C   UNL A   1      43.414  32.679  33.563  1.00  0.00     0.173 A 
ATOM     67  F   UNL A   1      44.582  33.586  30.239  1.00  0.00    -0.203 F 
ATOM     68  C   UNL A   1      44.281  34.912  32.160  1.00  0.00     0.198 A 
ATOM     69  C   UNL A   1      43.462  33.923  34.187  1.00  0.00     0.198 A 
ATOM     70  F   UNL A   1      42.999  31.618  34.271  1.00  0.00    -0.203 F 
ATOM     71  F   UNL A   1      44.735  35.980  31.491  1.00  0.00    -0.200 F 
ATOM     72  C   UNL A   1      43.903  35.036  33.488  1.00  0.00     0.200 A 
ATOM     73  F   UNL A   1      43.085  34.043  35.467  1.00  0.00    -0.200 F 
ATOM     74  F   UNL A   1      43.971  36.228  34.097  1.00  0.00    -0.200 F 
ENDBRANCH  50  64
BRANCH  51  75
ATOM     75  C   UNL A   1      42.830  23.842  27.376  1.00  0.00     0.064 A 
ATOM     76  C   UNL A   1      42.334  22.693  28.009  1.00  0.00     0.173 A 
ATOM     77  C   UNL A   1      43.205  23.735  26.030  1.00  0.00     0.173 A 
ATOM     78  F   UNL A   1      41.980  22.741  29.301  1.00  0.00    -0.203 F 
ATOM     79  C   UNL A   1      42.239  21.481  27.328  1.00  0.00     0.198 A 
ATOM     80  C   UNL A   1      43.084  22.529  25.342  1.00  0.00     0.198 A 
ATOM     81  F   UNL A   1      43.680  24.806  25.377  1.00  0.00    -0.203 F 
ATOM     82  F   UNL A   1      41.805  20.388  27.970  1.00  0.00    -0.200 F 
ATOM     83  C   UNL A   1      42.609  21.401  25.994  1.00  0.00     0.200 A 
ATOM     84  F   UNL A   1      43.430  22.459  24.049  1.00  0.00    -0.200 F 
ATOM     85  F   UNL A   1      42.515  20.236  25.340  1.00  0.00    -0.200 F 
ENDBRANCH  51  75
BRANCH  63  86
ATOM     86  C   UNL A   1      48.006  26.823  30.962  1.00  0.00     0.064 A 
ATOM     87  C   UNL A   1      48.273  26.021  32.081  1.00  0.00     0.173 A 
ATOM     88  C   UNL A   1      49.079  27.166  30.127  1.00  0.00     0.173 A 
ATOM     89  F   UNL A   1      47.282  25.679  32.918  1.00  0.00    -0.203 F 
ATOM     90  C   UNL A   1      49.569  25.600  32.364  1.00  0.00     0.198 A 
ATOM     91  C   UNL A   1      50.368  26.718  30.397  1.00  0.00     0.198 A 
ATOM     92  F   UNL A   1      48.874  27.927  29.040  1.00  0.00    -0.203 F 
ATOM     93  F   UNL A   1      49.809  24.873  33.464  1.00  0.00    -0.200 F 
ATOM     94  C   UNL A   1      50.613  25.942  31.519  1.00  0.00     0.200 A 
ATOM     95  F   UNL A   1      51.375  27.040  29.571  1.00  0.00    -0.200 F 
ATOM     96  F   UNL A   1      51.859  25.529  31.790  1.00  0.00    -0.200 F 
ENDBRANCH  63  86
ENDBRANCH  37  38
ENDBRANCH  29  32
ENDBRANCH  27  28
ENDBRANCH  26  27
ENDBRANCH   1  26
TORSDOF 14
ENDMDL
