MODEL 1
REMARK VINA RESULT:     -10.6      0.000      0.000
REMARK SMILES CC[C@@H](NC(=O)[C@H](C)C[NH2+]C)C(=O)NCCCCNC(=O)c1ccc(-c2c3nc(c(-c4c(F)c(F)c(F)c(F)c4F)c4ccc([nH]4)c(-c4c(F)c(F)c(F)c(F)c4F)c4nc(c(-c5c(F)c(F)c(F)c(F)c5F)c5ccc2[nH]5)C=C4)C=C3)cc1
REMARK SMILES IDX 15 1 14 2 12 3 13 4 3 6 2 7 1 8 4 9 5 10 6 12 7 13 8 14 9 15
REMARK SMILES IDX 10 16 11 17 16 20 17 21 18 22 19 23 20 24 21 26 22 27 23 28
REMARK SMILES IDX 84 29 24 30 83 31 25 32 26 33 27 34 77 35 28 36 82 37 76 38
REMARK SMILES IDX 78 39 29 40 81 41 75 42 74 43 30 45 62 46 42 47 61 48 43 49
REMARK SMILES IDX 46 50 60 51 79 52 44 53 45 54 59 56 80 57 47 58 31 59 32 60
REMARK SMILES IDX 40 61 33 62 34 63 38 64 41 65 35 66 36 67 39 68 37 69 63 70
REMARK SMILES IDX 64 71 72 72 65 73 66 74 70 75 73 76 67 77 68 78 71 79 69 80
REMARK SMILES IDX 48 81 49 82 57 83 50 84 51 85 55 86 58 87 52 88 53 89 56 90
REMARK SMILES IDX 54 91
REMARK H PARENT 14 5 4 11 10 18 10 19 19 25 78 44 46 55
REMARK Flexibility Score: inf
ROOT
ATOM      1  C   UNL A   1      31.991  29.752  26.293  1.00  0.00     0.116 C 
ENDROOT
BRANCH   1   2
ATOM      2  N   UNL A   1      31.394  28.593  25.643  1.00  0.00    -0.354 N 
ATOM      3  C   UNL A   1      31.449  28.211  24.330  1.00  0.00     0.242 C 
ATOM      4  O   UNL A   1      30.924  27.139  24.021  1.00  0.00    -0.273 OA
ATOM      5  H   UNL A   1      30.875  28.000  26.233  1.00  0.00     0.163 HD
BRANCH   3   6
ATOM      6  C   UNL A   1      31.996  29.170  23.254  1.00  0.00     0.171 C 
BRANCH   6   7
ATOM      7  C   UNL A   1      33.386  28.591  22.878  1.00  0.00     0.031 C 
ATOM      8  C   UNL A   1      33.413  27.275  22.121  1.00  0.00     0.006 C 
ENDBRANCH   6   7
BRANCH   6   9
ATOM      9  N   UNL A   1      31.084  29.340  22.114  1.00  0.00    -0.344 N 
ATOM     10  C   UNL A   1      29.818  29.839  22.023  1.00  0.00     0.229 C 
ATOM     11  H   UNL A   1      31.458  29.038  21.255  1.00  0.00     0.164 HD
ATOM     12  O   UNL A   1      29.420  30.078  20.877  1.00  0.00    -0.275 OA
BRANCH  10  13
ATOM     13  C   UNL A   1      28.853  30.008  23.205  1.00  0.00     0.130 C 
ATOM     14  C   UNL A   1      27.549  29.237  23.051  1.00  0.00     0.024 C 
BRANCH  13  15
ATOM     15  C   UNL A   1      28.730  31.498  23.578  1.00  0.00     0.273 C 
BRANCH  15  16
ATOM     16  N   UNL A   1      29.187  32.472  22.580  1.00  0.00    -0.348 N 
ATOM     17  C   UNL A   1      29.151  33.827  23.126  1.00  0.00     0.330 C 
ATOM     18  H   UNL A   1      28.579  32.422  21.762  1.00  0.00     0.346 HD
ATOM     19  H   UNL A   1      30.147  32.247  22.321  1.00  0.00     0.346 HD
ENDBRANCH  15  16
ENDBRANCH  13  15
ENDBRANCH  10  13
ENDBRANCH   6   9
ENDBRANCH   3   6
ENDBRANCH   1   2
BRANCH   1  20
ATOM     20  C   UNL A   1      31.323  31.058  25.874  1.00  0.00     0.023 C 
BRANCH  20  21
ATOM     21  C   UNL A   1      31.401  32.179  26.914  1.00  0.00     0.023 C 
BRANCH  21  22
ATOM     22  C   UNL A   1      32.749  32.887  27.006  1.00  0.00     0.116 C 
BRANCH  22  23
ATOM     23  N   UNL A   1      32.647  34.193  27.631  1.00  0.00    -0.352 N 
ATOM     24  C   UNL A   1      33.326  34.691  28.717  1.00  0.00     0.251 C 
ATOM     25  H   UNL A   1      32.000  34.810  27.220  1.00  0.00     0.163 HD
ATOM     26  O   UNL A   1      32.990  35.758  29.218  1.00  0.00    -0.269 OA
BRANCH  24  27
ATOM     27  C   UNL A   1      34.449  33.928  29.304  1.00  0.00     0.039 A 
ATOM     28  C   UNL A   1      35.755  34.276  28.946  1.00  0.00     0.014 A 
ATOM     29  C   UNL A   1      34.223  32.861  30.180  1.00  0.00     0.014 A 
ATOM     30  C   UNL A   1      36.835  33.587  29.503  1.00  0.00     0.010 A 
ATOM     31  C   UNL A   1      35.304  32.214  30.780  1.00  0.00     0.010 A 
ATOM     32  C   UNL A   1      36.620  32.566  30.443  1.00  0.00    -0.014 A 
BRANCH  32  33
ATOM     33  C   UNL A   1      37.765  31.849  31.062  1.00  0.00     0.031 A 
ATOM     34  C   UNL A   1      38.209  32.191  32.458  1.00  0.00     0.074 A 
ATOM     35  C   UNL A   1      38.432  30.913  30.359  1.00  0.00     0.049 A 
ATOM     36  N   UNL A   1      39.207  31.704  33.154  1.00  0.00    -0.248 NA
ATOM     37  C   UNL A   1      37.439  33.229  33.159  1.00  0.00     0.031 C 
ATOM     38  C   UNL A   1      38.122  30.508  28.988  1.00  0.00     0.029 A 
ATOM     39  N   UNL A   1      39.515  30.139  30.699  1.00  0.00    -0.354 N 
ATOM     40  C   UNL A   1      39.190  32.382  34.365  1.00  0.00     0.074 A 
ATOM     41  C   UNL A   1      38.115  33.349  34.292  1.00  0.00     0.031 C 
ATOM     42  C   UNL A   1      38.983  29.549  28.609  1.00  0.00     0.029 A 
ATOM     43  C   UNL A   1      39.928  29.299  29.694  1.00  0.00     0.049 A 
ATOM     44  H   UNL A   1      39.953  30.183  31.579  1.00  0.00     0.167 HD
ATOM     45  C   UNL A   1      39.983  32.202  35.448  1.00  0.00     0.037 A 
ATOM     46  C   UNL A   1      40.957  28.432  29.649  1.00  0.00     0.037 A 
ATOM     47  C   UNL A   1      41.045  31.231  35.527  1.00  0.00     0.049 A 
ATOM     48  C   UNL A   1      41.843  28.270  30.855  1.00  0.00     0.074 A 
ATOM     49  C   UNL A   1      41.869  30.939  36.600  1.00  0.00     0.029 A 
ATOM     50  N   UNL A   1      41.433  30.398  34.488  1.00  0.00    -0.354 N 
ATOM     51  N   UNL A   1      41.777  28.870  32.019  1.00  0.00    -0.248 NA
ATOM     52  C   UNL A   1      42.946  27.304  30.743  1.00  0.00     0.031 C 
ATOM     53  C   UNL A   1      42.791  29.970  36.194  1.00  0.00     0.029 A 
ATOM     54  C   UNL A   1      42.504  29.612  34.886  1.00  0.00     0.049 A 
ATOM     55  H   UNL A   1      41.011  30.369  33.599  1.00  0.00     0.167 HD
ATOM     56  C   UNL A   1      42.802  28.333  32.785  1.00  0.00     0.074 A 
ATOM     57  C   UNL A   1      43.471  27.350  31.959  1.00  0.00     0.031 C 
ATOM     58  C   UNL A   1      43.157  28.629  34.061  1.00  0.00     0.037 A 
BRANCH  45  59
ATOM     59  C   UNL A   1      39.739  33.081  36.641  1.00  0.00     0.064 A 
ATOM     60  C   UNL A   1      40.446  34.280  36.831  1.00  0.00     0.173 A 
ATOM     61  C   UNL A   1      38.761  32.741  37.588  1.00  0.00     0.173 A 
ATOM     62  F   UNL A   1      41.397  34.647  35.960  1.00  0.00    -0.203 F 
ATOM     63  C   UNL A   1      40.206  35.085  37.942  1.00  0.00     0.198 A 
ATOM     64  C   UNL A   1      38.502  33.564  38.680  1.00  0.00     0.198 A 
ATOM     65  F   UNL A   1      38.050  31.611  37.451  1.00  0.00    -0.203 F 
ATOM     66  F   UNL A   1      40.929  36.198  38.128  1.00  0.00    -0.200 F 
ATOM     67  C   UNL A   1      39.230  34.731  38.861  1.00  0.00     0.200 A 
ATOM     68  F   UNL A   1      37.547  33.230  39.559  1.00  0.00    -0.200 F 
ATOM     69  F   UNL A   1      38.995  35.512  39.925  1.00  0.00    -0.200 F 
ENDBRANCH  45  59
BRANCH  46  70
ATOM     70  C   UNL A   1      41.199  27.633  28.419  1.00  0.00     0.064 A 
ATOM     71  C   UNL A   1      40.541  26.411  28.210  1.00  0.00     0.173 A 
ATOM     72  C   UNL A   1      42.095  28.066  27.432  1.00  0.00     0.173 A 
ATOM     73  F   UNL A   1      39.691  25.944  29.136  1.00  0.00    -0.203 F 
ATOM     74  C   UNL A   1      40.786  25.647  27.073  1.00  0.00     0.198 A 
ATOM     75  C   UNL A   1      42.317  27.315  26.280  1.00  0.00     0.198 A 
ATOM     76  F   UNL A   1      42.748  29.228  27.581  1.00  0.00    -0.203 F 
ATOM     77  F   UNL A   1      40.179  24.462  26.921  1.00  0.00    -0.200 F 
ATOM     78  C   UNL A   1      41.669  26.102  26.105  1.00  0.00     0.200 A 
ATOM     79  F   UNL A   1      43.160  27.765  25.341  1.00  0.00    -0.200 F 
ATOM     80  F   UNL A   1      41.900  25.368  25.008  1.00  0.00    -0.200 F 
ENDBRANCH  46  70
BRANCH  58  81
ATOM     81  C   UNL A   1      44.294  27.852  34.662  1.00  0.00     0.064 A 
ATOM     82  C   UNL A   1      45.616  28.318  34.611  1.00  0.00     0.173 A 
ATOM     83  C   UNL A   1      44.049  26.646  35.336  1.00  0.00     0.173 A 
ATOM     84  F   UNL A   1      45.906  29.458  33.966  1.00  0.00    -0.203 F 
ATOM     85  C   UNL A   1      46.653  27.592  35.191  1.00  0.00     0.198 A 
ATOM     86  C   UNL A   1      45.084  25.938  35.942  1.00  0.00     0.198 A 
ATOM     87  F   UNL A   1      42.802  26.159  35.419  1.00  0.00    -0.203 F 
ATOM     88  F   UNL A   1      47.916  28.032  35.089  1.00  0.00    -0.200 F 
ATOM     89  C   UNL A   1      46.386  26.409  35.863  1.00  0.00     0.200 A 
ATOM     90  F   UNL A   1      44.820  24.803  36.604  1.00  0.00    -0.200 F 
ATOM     91  F   UNL A   1      47.384  25.716  36.428  1.00  0.00    -0.200 F 
ENDBRANCH  58  81
ENDBRANCH  32  33
ENDBRANCH  24  27
ENDBRANCH  22  23
ENDBRANCH  21  22
ENDBRANCH  20  21
ENDBRANCH   1  20
TORSDOF 16
ENDMDL
MODEL 2
REMARK VINA RESULT:     -10.4      0.975      7.591
REMARK SMILES CC[C@@H](NC(=O)[C@H](C)C[NH2+]C)C(=O)NCCCCNC(=O)c1ccc(-c2c3nc(c(-c4c(F)c(F)c(F)c(F)c4F)c4ccc([nH]4)c(-c4c(F)c(F)c(F)c(F)c4F)c4nc(c(-c5c(F)c(F)c(F)c(F)c5F)c5ccc2[nH]5)C=C4)C=C3)cc1
REMARK SMILES IDX 15 1 14 2 12 3 13 4 3 6 2 7 1 8 4 9 5 10 6 12 7 13 8 14 9 15
REMARK SMILES IDX 10 16 11 17 16 20 17 21 18 22 19 23 20 24 21 26 22 27 23 28
REMARK SMILES IDX 84 29 24 30 83 31 25 32 26 33 27 34 77 35 28 36 82 37 76 38
REMARK SMILES IDX 78 39 29 40 81 41 75 42 74 43 30 45 62 46 42 47 61 48 43 49
REMARK SMILES IDX 46 50 60 51 79 52 44 53 45 54 59 56 80 57 47 58 31 59 32 60
REMARK SMILES IDX 40 61 33 62 34 63 38 64 41 65 35 66 36 67 39 68 37 69 63 70
REMARK SMILES IDX 64 71 72 72 65 73 66 74 70 75 73 76 67 77 68 78 71 79 69 80
REMARK SMILES IDX 48 81 49 82 57 83 50 84 51 85 55 86 58 87 52 88 53 89 56 90
REMARK SMILES IDX 54 91
REMARK H PARENT 14 5 4 11 10 18 10 19 19 25 78 44 46 55
REMARK Flexibility Score: inf
ROOT
ATOM      1  C   UNL A   1      32.268  29.753  25.499  1.00  0.00     0.116 C 
ENDROOT
BRANCH   1   2
ATOM      2  N   UNL A   1      31.801  28.399  25.762  1.00  0.00    -0.354 N 
ATOM      3  C   UNL A   1      31.145  27.531  24.931  1.00  0.00     0.242 C 
ATOM      4  O   UNL A   1      30.914  26.395  25.353  1.00  0.00    -0.273 OA
ATOM      5  H   UNL A   1      31.984  28.058  26.667  1.00  0.00     0.163 HD
BRANCH   3   6
ATOM      6  C   UNL A   1      30.564  28.016  23.587  1.00  0.00     0.171 C 
BRANCH   6   7
ATOM      7  C   UNL A   1      31.253  27.128  22.517  1.00  0.00     0.031 C 
ATOM      8  C   UNL A   1      32.766  27.204  22.415  1.00  0.00     0.006 C 
ENDBRANCH   6   7
BRANCH   6   9
ATOM      9  N   UNL A   1      29.097  27.982  23.547  1.00  0.00    -0.344 N 
ATOM     10  C   UNL A   1      28.175  28.865  23.067  1.00  0.00     0.229 C 
ATOM     11  H   UNL A   1      28.704  27.169  23.939  1.00  0.00     0.164 HD
ATOM     12  O   UNL A   1      27.023  28.427  22.956  1.00  0.00    -0.275 OA
BRANCH  10  13
ATOM     13  C   UNL A   1      28.447  30.348  22.774  1.00  0.00     0.130 C 
ATOM     14  C   UNL A   1      27.667  31.305  23.664  1.00  0.00     0.024 C 
BRANCH  13  15
ATOM     15  C   UNL A   1      28.375  30.609  21.257  1.00  0.00     0.273 C 
BRANCH  15  16
ATOM     16  N   UNL A   1      28.822  31.924  20.787  1.00  0.00    -0.348 N 
ATOM     17  C   UNL A   1      27.677  32.777  20.471  1.00  0.00     0.330 C 
ATOM     18  H   UNL A   1      29.393  31.804  19.951  1.00  0.00     0.346 HD
ATOM     19  H   UNL A   1      29.367  32.367  21.527  1.00  0.00     0.346 HD
ENDBRANCH  15  16
ENDBRANCH  13  15
ENDBRANCH  10  13
ENDBRANCH   6   9
ENDBRANCH   3   6
ENDBRANCH   1   2
BRANCH   1  20
ATOM     20  C   UNL A   1      31.147  30.782  25.607  1.00  0.00     0.023 C 
BRANCH  20  21
ATOM     21  C   UNL A   1      31.262  31.730  26.805  1.00  0.00     0.023 C 
BRANCH  21  22
ATOM     22  C   UNL A   1      32.582  32.489  26.907  1.00  0.00     0.116 C 
BRANCH  22  23
ATOM     23  N   UNL A   1      32.404  33.845  27.394  1.00  0.00    -0.352 N 
ATOM     24  C   UNL A   1      33.062  34.496  28.410  1.00  0.00     0.251 C 
ATOM     25  H   UNL A   1      31.716  34.374  26.930  1.00  0.00     0.163 HD
ATOM     26  O   UNL A   1      32.665  35.587  28.801  1.00  0.00    -0.269 OA
BRANCH  24  27
ATOM     27  C   UNL A   1      34.237  33.869  29.054  1.00  0.00     0.039 A 
ATOM     28  C   UNL A   1      35.511  34.334  28.718  1.00  0.00     0.014 A 
ATOM     29  C   UNL A   1      34.091  32.816  29.962  1.00  0.00     0.014 A 
ATOM     30  C   UNL A   1      36.637  33.776  29.329  1.00  0.00     0.010 A 
ATOM     31  C   UNL A   1      35.212  32.302  30.615  1.00  0.00     0.010 A 
ATOM     32  C   UNL A   1      36.497  32.772  30.300  1.00  0.00    -0.014 A 
BRANCH  32  33
ATOM     33  C   UNL A   1      37.688  32.195  30.976  1.00  0.00     0.031 A 
ATOM     34  C   UNL A   1      38.501  31.126  30.298  1.00  0.00     0.074 A 
ATOM     35  C   UNL A   1      38.022  32.604  32.215  1.00  0.00     0.049 A 
ATOM     36  N   UNL A   1      39.548  30.475  30.741  1.00  0.00    -0.248 NA
ATOM     37  C   UNL A   1      38.070  30.724  28.951  1.00  0.00     0.031 C 
ATOM     38  C   UNL A   1      37.302  33.612  32.993  1.00  0.00     0.029 A 
ATOM     39  N   UNL A   1      39.048  32.215  33.041  1.00  0.00    -0.354 N 
ATOM     40  C   UNL A   1      39.893  29.583  29.734  1.00  0.00     0.074 A 
ATOM     41  C   UNL A   1      38.914  29.741  28.679  1.00  0.00     0.031 C 
ATOM     42  C   UNL A   1      37.918  33.775  34.176  1.00  0.00     0.029 A 
ATOM     43  C   UNL A   1      39.052  32.858  34.255  1.00  0.00     0.049 A 
ATOM     44  H   UNL A   1      39.719  31.541  32.787  1.00  0.00     0.167 HD
ATOM     45  C   UNL A   1      40.940  28.726  29.683  1.00  0.00     0.037 A 
ATOM     46  C   UNL A   1      39.869  32.717  35.316  1.00  0.00     0.037 A 
ATOM     47  C   UNL A   1      41.922  28.578  30.727  1.00  0.00     0.049 A 
ATOM     48  C   UNL A   1      41.010  31.736  35.246  1.00  0.00     0.074 A 
ATOM     49  C   UNL A   1      43.049  27.773  30.744  1.00  0.00     0.029 A 
ATOM     50  N   UNL A   1      41.891  29.246  31.942  1.00  0.00    -0.354 N 
ATOM     51  N   UNL A   1      41.364  30.945  34.263  1.00  0.00    -0.248 NA
ATOM     52  C   UNL A   1      41.869  31.633  36.435  1.00  0.00     0.031 C 
ATOM     53  C   UNL A   1      43.667  27.912  31.990  1.00  0.00     0.029 A 
ATOM     54  C   UNL A   1      42.962  28.849  32.728  1.00  0.00     0.049 A 
ATOM     55  H   UNL A   1      41.209  29.904  32.208  1.00  0.00     0.167 HD
ATOM     56  C   UNL A   1      42.501  30.278  34.699  1.00  0.00     0.074 A 
ATOM     57  C   UNL A   1      42.785  30.764  36.033  1.00  0.00     0.031 C 
ATOM     58  C   UNL A   1      43.243  29.346  34.051  1.00  0.00     0.037 A 
BRANCH  45  59
ATOM     59  C   UNL A   1      41.078  27.871  28.456  1.00  0.00     0.064 A 
ATOM     60  C   UNL A   1      40.435  26.627  28.348  1.00  0.00     0.173 A 
ATOM     61  C   UNL A   1      41.833  28.315  27.360  1.00  0.00     0.173 A 
ATOM     62  F   UNL A   1      39.708  26.152  29.371  1.00  0.00    -0.203 F 
ATOM     63  C   UNL A   1      40.571  25.847  27.202  1.00  0.00     0.198 A 
ATOM     64  C   UNL A   1      41.940  27.547  26.204  1.00  0.00     0.198 A 
ATOM     65  F   UNL A   1      42.461  29.500  27.405  1.00  0.00    -0.203 F 
ATOM     66  F   UNL A   1      39.990  24.641  27.143  1.00  0.00    -0.200 F 
ATOM     67  C   UNL A   1      41.317  26.310  26.129  1.00  0.00     0.200 A 
ATOM     68  F   UNL A   1      42.648  28.003  25.160  1.00  0.00    -0.200 F 
ATOM     69  F   UNL A   1      41.440  25.561  25.024  1.00  0.00    -0.200 F 
ENDBRANCH  45  59
BRANCH  46  70
ATOM     70  C   UNL A   1      39.650  33.539  36.534  1.00  0.00     0.064 A 
ATOM     71  C   UNL A   1      38.750  33.129  37.530  1.00  0.00     0.173 A 
ATOM     72  C   UNL A   1      40.326  34.752  36.728  1.00  0.00     0.173 A 
ATOM     73  F   UNL A   1      38.062  31.987  37.380  1.00  0.00    -0.203 F 
ATOM     74  C   UNL A   1      38.521  33.911  38.659  1.00  0.00     0.198 A 
ATOM     75  C   UNL A   1      40.119  35.518  37.872  1.00  0.00     0.198 A 
ATOM     76  F   UNL A   1      41.200  35.188  35.808  1.00  0.00    -0.203 F 
ATOM     77  F   UNL A   1      37.622  33.519  39.571  1.00  0.00    -0.200 F 
ATOM     78  C   UNL A   1      39.210  35.101  38.833  1.00  0.00     0.200 A 
ATOM     79  F   UNL A   1      40.797  36.660  38.043  1.00  0.00    -0.200 F 
ATOM     80  F   UNL A   1      38.994  35.850  39.923  1.00  0.00    -0.200 F 
ENDBRANCH  46  70
BRANCH  58  81
ATOM     81  C   UNL A   1      44.462  28.818  34.754  1.00  0.00     0.064 A 
ATOM     82  C   UNL A   1      45.698  29.478  34.686  1.00  0.00     0.173 A 
ATOM     83  C   UNL A   1      44.378  27.660  35.542  1.00  0.00     0.173 A 
ATOM     84  F   UNL A   1      45.834  30.580  33.935  1.00  0.00    -0.203 F 
ATOM     85  C   UNL A   1      46.811  28.983  35.361  1.00  0.00     0.198 A 
ATOM     86  C   UNL A   1      45.486  27.185  36.241  1.00  0.00     0.198 A 
ATOM     87  F   UNL A   1      43.218  26.994  35.646  1.00  0.00    -0.203 F 
ATOM     88  F   UNL A   1      47.994  29.602  35.243  1.00  0.00    -0.200 F 
ATOM     89  C   UNL A   1      46.703  27.843  36.143  1.00  0.00     0.200 A 
ATOM     90  F   UNL A   1      45.374  26.093  37.009  1.00  0.00    -0.200 F 
ATOM     91  F   UNL A   1      47.773  27.374  36.799  1.00  0.00    -0.200 F 
ENDBRANCH  58  81
ENDBRANCH  32  33
ENDBRANCH  24  27
ENDBRANCH  22  23
ENDBRANCH  21  22
ENDBRANCH  20  21
ENDBRANCH   1  20
TORSDOF 16
ENDMDL
MODEL 3
REMARK VINA RESULT:     -10.4      4.257      9.058
REMARK SMILES CC[C@@H](NC(=O)[C@H](C)C[NH2+]C)C(=O)NCCCCNC(=O)c1ccc(-c2c3nc(c(-c4c(F)c(F)c(F)c(F)c4F)c4ccc([nH]4)c(-c4c(F)c(F)c(F)c(F)c4F)c4nc(c(-c5c(F)c(F)c(F)c(F)c5F)c5ccc2[nH]5)C=C4)C=C3)cc1
REMARK SMILES IDX 15 1 14 2 12 3 13 4 3 6 2 7 1 8 4 9 5 10 6 12 7 13 8 14 9 15
REMARK SMILES IDX 10 16 11 17 16 20 17 21 18 22 19 23 20 24 21 26 22 27 23 28
REMARK SMILES IDX 84 29 24 30 83 31 25 32 26 33 27 34 77 35 28 36 82 37 76 38
REMARK SMILES IDX 78 39 29 40 81 41 75 42 74 43 30 45 62 46 42 47 61 48 43 49
REMARK SMILES IDX 46 50 60 51 79 52 44 53 45 54 59 56 80 57 47 58 31 59 32 60
REMARK SMILES IDX 40 61 33 62 34 63 38 64 41 65 35 66 36 67 39 68 37 69 63 70
REMARK SMILES IDX 64 71 72 72 65 73 66 74 70 75 73 76 67 77 68 78 71 79 69 80
REMARK SMILES IDX 48 81 49 82 57 83 50 84 51 85 55 86 58 87 52 88 53 89 56 90
REMARK SMILES IDX 54 91
REMARK H PARENT 14 5 4 11 10 18 10 19 19 25 78 44 46 55
REMARK Flexibility Score: inf
ROOT
ATOM      1  C   UNL A   1      33.042  22.956  24.883  1.00  0.00     0.116 C 
ENDROOT
BRANCH   1   2
ATOM      2  N   UNL A   1      32.061  22.878  25.958  1.00  0.00    -0.354 N 
ATOM      3  C   UNL A   1      31.159  23.818  26.378  1.00  0.00     0.242 C 
ATOM      4  O   UNL A   1      30.368  23.498  27.268  1.00  0.00    -0.273 OA
ATOM      5  H   UNL A   1      32.045  22.028  26.453  1.00  0.00     0.163 HD
BRANCH   3   6
ATOM      6  C   UNL A   1      31.248  25.274  25.876  1.00  0.00     0.171 C 
BRANCH   6   7
ATOM      7  C   UNL A   1      30.108  25.401  24.831  1.00  0.00     0.031 C 
ATOM      8  C   UNL A   1      30.437  26.087  23.518  1.00  0.00     0.006 C 
ENDBRANCH   6   7
BRANCH   6   9
ATOM      9  N   UNL A   1      31.188  26.263  26.960  1.00  0.00    -0.344 N 
ATOM     10  C   UNL A   1      31.616  27.555  27.044  1.00  0.00     0.229 C 
ATOM     11  H   UNL A   1      30.756  25.931  27.781  1.00  0.00     0.164 HD
ATOM     12  O   UNL A   1      31.189  28.197  28.010  1.00  0.00    -0.275 OA
BRANCH  10  13
ATOM     13  C   UNL A   1      32.648  28.202  26.107  1.00  0.00     0.130 C 
ATOM     14  C   UNL A   1      33.947  27.417  25.987  1.00  0.00     0.024 C 
BRANCH  13  15
ATOM     15  C   UNL A   1      32.779  29.704  26.423  1.00  0.00     0.273 C 
BRANCH  15  16
ATOM     16  N   UNL A   1      33.331  30.061  27.734  1.00  0.00    -0.348 N 
ATOM     17  C   UNL A   1      34.428  31.017  27.591  1.00  0.00     0.330 C 
ATOM     18  H   UNL A   1      33.678  29.218  28.192  1.00  0.00     0.346 HD
ATOM     19  H   UNL A   1      32.594  30.489  28.294  1.00  0.00     0.346 HD
ENDBRANCH  15  16
ENDBRANCH  13  15
ENDBRANCH  10  13
ENDBRANCH   6   9
ENDBRANCH   3   6
ENDBRANCH   1   2
BRANCH   1  20
ATOM     20  C   UNL A   1      34.398  22.394  25.298  1.00  0.00     0.023 C 
BRANCH  20  21
ATOM     21  C   UNL A   1      35.165  23.254  26.307  1.00  0.00     0.023 C 
BRANCH  21  22
ATOM     22  C   UNL A   1      36.504  23.795  25.814  1.00  0.00     0.116 C 
BRANCH  22  23
ATOM     23  N   UNL A   1      37.566  22.810  25.904  1.00  0.00    -0.352 N 
ATOM     24  C   UNL A   1      38.867  22.971  26.315  1.00  0.00     0.251 C 
ATOM     25  H   UNL A   1      37.320  21.897  25.633  1.00  0.00     0.163 HD
ATOM     26  O   UNL A   1      39.678  22.065  26.164  1.00  0.00    -0.269 OA
BRANCH  24  27
ATOM     27  C   UNL A   1      39.302  24.251  26.917  1.00  0.00     0.039 A 
ATOM     28  C   UNL A   1      38.993  24.499  28.257  1.00  0.00     0.014 A 
ATOM     29  C   UNL A   1      39.986  25.212  26.165  1.00  0.00     0.014 A 
ATOM     30  C   UNL A   1      39.411  25.689  28.857  1.00  0.00     0.010 A 
ATOM     31  C   UNL A   1      40.454  26.372  26.782  1.00  0.00     0.010 A 
ATOM     32  C   UNL A   1      40.166  26.625  28.133  1.00  0.00    -0.014 A 
BRANCH  32  33
ATOM     33  C   UNL A   1      40.641  27.880  28.773  1.00  0.00     0.031 A 
ATOM     34  C   UNL A   1      42.083  28.028  29.175  1.00  0.00     0.074 A 
ATOM     35  C   UNL A   1      39.770  28.875  29.028  1.00  0.00     0.049 A 
ATOM     36  N   UNL A   1      42.677  29.028  29.778  1.00  0.00    -0.248 NA
ATOM     37  C   UNL A   1      42.971  26.895  28.874  1.00  0.00     0.031 C 
ATOM     38  C   UNL A   1      38.341  28.847  28.715  1.00  0.00     0.029 A 
ATOM     39  N   UNL A   1      39.959  30.102  29.617  1.00  0.00    -0.354 N 
ATOM     40  C   UNL A   1      44.001  28.641  29.936  1.00  0.00     0.074 A 
ATOM     41  C   UNL A   1      44.113  27.296  29.411  1.00  0.00     0.031 C 
ATOM     42  C   UNL A   1      37.786  30.008  29.099  1.00  0.00     0.029 A 
ATOM     43  C   UNL A   1      38.809  30.846  29.719  1.00  0.00     0.049 A 
ATOM     44  H   UNL A   1      40.835  30.418  29.935  1.00  0.00     0.167 HD
ATOM     45  C   UNL A   1      45.035  29.348  30.451  1.00  0.00     0.037 A 
ATOM     46  C   UNL A   1      38.601  32.062  30.259  1.00  0.00     0.037 A 
ATOM     47  C   UNL A   1      44.928  30.692  30.961  1.00  0.00     0.049 A 
ATOM     48  C   UNL A   1      39.760  32.817  30.852  1.00  0.00     0.074 A 
ATOM     49  C   UNL A   1      45.929  31.509  31.456  1.00  0.00     0.029 A 
ATOM     50  N   UNL A   1      43.745  31.413  31.048  1.00  0.00    -0.354 N 
ATOM     51  N   UNL A   1      41.021  32.468  30.937  1.00  0.00    -0.248 NA
ATOM     52  C   UNL A   1      39.467  34.141  31.422  1.00  0.00     0.031 C 
ATOM     53  C   UNL A   1      45.345  32.702  31.893  1.00  0.00     0.029 A 
ATOM     54  C   UNL A   1      43.989  32.654  31.615  1.00  0.00     0.049 A 
ATOM     55  H   UNL A   1      42.864  31.090  30.751  1.00  0.00     0.167 HD
ATOM     56  C   UNL A   1      41.675  33.537  31.535  1.00  0.00     0.074 A 
ATOM     57  C   UNL A   1      40.674  34.553  31.784  1.00  0.00     0.031 C 
ATOM     58  C   UNL A   1      42.988  33.664  31.850  1.00  0.00     0.037 A 
BRANCH  45  59
ATOM     59  C   UNL A   1      46.379  28.680  30.497  1.00  0.00     0.064 A 
ATOM     60  C   UNL A   1      46.792  27.929  31.610  1.00  0.00     0.173 A 
ATOM     61  C   UNL A   1      47.252  28.760  29.402  1.00  0.00     0.173 A 
ATOM     62  F   UNL A   1      45.999  27.828  32.687  1.00  0.00    -0.203 F 
ATOM     63  C   UNL A   1      48.040  27.314  31.636  1.00  0.00     0.198 A 
ATOM     64  C   UNL A   1      48.486  28.117  29.418  1.00  0.00     0.198 A 
ATOM     65  F   UNL A   1      46.905  29.457  28.308  1.00  0.00    -0.203 F 
ATOM     66  F   UNL A   1      48.433  26.646  32.730  1.00  0.00    -0.200 F 
ATOM     67  C   UNL A   1      48.883  27.401  30.539  1.00  0.00     0.200 A 
ATOM     68  F   UNL A   1      49.293  28.188  28.350  1.00  0.00    -0.200 F 
ATOM     69  F   UNL A   1      50.082  26.801  30.563  1.00  0.00    -0.200 F 
ENDBRANCH  45  59
BRANCH  46  70
ATOM     70  C   UNL A   1      37.237  32.653  30.250  1.00  0.00     0.064 A 
ATOM     71  C   UNL A   1      36.313  32.352  31.262  1.00  0.00     0.173 A 
ATOM     72  C   UNL A   1      36.825  33.521  29.229  1.00  0.00     0.173 A 
ATOM     73  F   UNL A   1      36.653  31.509  32.248  1.00  0.00    -0.203 F 
ATOM     74  C   UNL A   1      35.025  32.882  31.241  1.00  0.00     0.198 A 
ATOM     75  C   UNL A   1      35.547  34.074  29.226  1.00  0.00     0.198 A 
ATOM     76  F   UNL A   1      37.671  33.844  28.239  1.00  0.00    -0.203 F 
ATOM     77  F   UNL A   1      34.148  32.541  32.195  1.00  0.00    -0.200 F 
ATOM     78  C   UNL A   1      34.645  33.747  30.227  1.00  0.00     0.200 A 
ATOM     79  F   UNL A   1      35.187  34.921  28.252  1.00  0.00    -0.200 F 
ATOM     80  F   UNL A   1      33.407  34.261  30.211  1.00  0.00    -0.200 F 
ENDBRANCH  46  70
BRANCH  58  81
ATOM     81  C   UNL A   1      43.433  34.964  32.458  1.00  0.00     0.064 A 
ATOM     82  C   UNL A   1      43.500  35.144  33.848  1.00  0.00     0.173 A 
ATOM     83  C   UNL A   1      43.838  36.027  31.638  1.00  0.00     0.173 A 
ATOM     84  F   UNL A   1      43.111  34.164  34.676  1.00  0.00    -0.203 F 
ATOM     85  C   UNL A   1      43.933  36.350  34.392  1.00  0.00     0.198 A 
ATOM     86  C   UNL A   1      44.300  37.221  32.186  1.00  0.00     0.198 A 
ATOM     87  F   UNL A   1      43.798  35.905  30.303  1.00  0.00    -0.203 F 
ATOM     88  F   UNL A   1      43.944  36.518  35.722  1.00  0.00    -0.200 F 
ATOM     89  C   UNL A   1      44.340  37.385  33.562  1.00  0.00     0.200 A 
ATOM     90  F   UNL A   1      44.708  38.213  31.381  1.00  0.00    -0.200 F 
ATOM     91  F   UNL A   1      44.765  38.541  34.088  1.00  0.00    -0.200 F 
ENDBRANCH  58  81
ENDBRANCH  32  33
ENDBRANCH  24  27
ENDBRANCH  22  23
ENDBRANCH  21  22
ENDBRANCH  20  21
ENDBRANCH   1  20
TORSDOF 16
ENDMDL
