MODEL 1
REMARK VINA RESULT:     -11.5      0.000      0.000
REMARK SMILES CCCCNC(=O)[C@@H](C)Oc1ccc(N)cc1C(=O)NCCCCNC(=O)c1ccc(-c2c3nc(c(-c4c(F)c(F)c(F)c(F)c4F)c4ccc([nH]4)c(-c4c(F)c(F)c(F)c(F)c4F)c4nc(c(-c5c(F)c(F)c(F)c(F)c5F)c5ccc2[nH]5)C=C4)C=C3)cc1
REMARK SMILES IDX 18 1 19 2 20 3 17 5 11 6 12 7 13 8 16 9 14 10 10 11 8 12
REMARK SMILES IDX 9 13 6 14 5 15 7 17 4 18 3 19 2 20 1 21 15 22 21 25 22 26
REMARK SMILES IDX 23 27 24 28 25 29 26 30 27 32 28 33 29 34 90 35 30 36 89 37
REMARK SMILES IDX 31 38 32 39 33 40 83 41 34 42 88 43 82 44 84 45 35 46 87 47
REMARK SMILES IDX 81 48 80 49 36 51 68 52 48 53 67 54 49 55 52 56 66 57 85 58
REMARK SMILES IDX 50 59 51 60 65 62 86 63 53 64 37 65 38 66 46 67 39 68 40 69
REMARK SMILES IDX 44 70 47 71 41 72 42 73 45 74 43 75 69 76 70 77 78 78 71 79
REMARK SMILES IDX 72 80 76 81 79 82 73 83 74 84 77 85 75 86 54 87 55 88 63 89
REMARK SMILES IDX 56 90 57 91 61 92 64 93 58 94 59 95 62 96 60 97
REMARK H PARENT 20 4 5 16 15 23 15 24 25 31 84 50 52 61
REMARK Flexibility Score: inf
ROOT
ATOM      1  C   UNL A   1      34.021  25.639  23.512  1.00  0.00     0.255 C 
ATOM      2  O   UNL A   1      33.907  25.137  22.387  1.00  0.00    -0.269 OA
ATOM      3  N   UNL A   1      33.607  26.944  23.569  1.00  0.00    -0.352 N 
ATOM      4  H   UNL A   1      33.206  27.279  22.734  1.00  0.00     0.163 HD
ENDROOT
BRANCH   1   5
ATOM      5  C   UNL A   1      34.542  24.765  24.639  1.00  0.00     0.083 A 
ATOM      6  C   UNL A   1      34.001  24.443  25.897  1.00  0.00     0.133 A 
ATOM      7  C   UNL A   1      34.434  23.276  26.545  1.00  0.00     0.049 A 
ATOM      8  C   UNL A   1      35.569  22.587  26.120  1.00  0.00     0.029 A 
ATOM      9  C   UNL A   1      35.728  24.074  24.270  1.00  0.00     0.043 A 
ATOM     10  C   UNL A   1      36.291  23.052  25.035  1.00  0.00     0.032 A 
BRANCH   6  11
ATOM     11  O   UNL A   1      32.982  25.104  26.508  1.00  0.00    -0.480 OA
BRANCH  11  12
ATOM     12  C   UNL A   1      31.631  24.918  26.032  1.00  0.00     0.258 C 
ATOM     13  C   UNL A   1      30.671  26.129  26.125  1.00  0.00     0.064 C 
BRANCH  12  14
ATOM     14  C   UNL A   1      30.860  23.589  26.233  1.00  0.00     0.260 C 
ATOM     15  N   UNL A   1      30.927  22.569  25.329  1.00  0.00    -0.353 N 
ATOM     16  H   UNL A   1      30.640  21.689  25.664  1.00  0.00     0.163 HD
ATOM     17  O   UNL A   1      30.186  23.402  27.251  1.00  0.00    -0.271 OA
BRANCH  15  18
ATOM     18  C   UNL A   1      31.358  22.595  23.945  1.00  0.00     0.116 C 
BRANCH  18  19
ATOM     19  C   UNL A   1      32.653  21.838  23.697  1.00  0.00     0.021 C 
BRANCH  19  20
ATOM     20  C   UNL A   1      32.528  20.323  23.876  1.00  0.00    -0.002 C 
ATOM     21  C   UNL A   1      33.659  19.714  24.696  1.00  0.00     0.004 C 
ENDBRANCH  19  20
ENDBRANCH  18  19
ENDBRANCH  15  18
ENDBRANCH  12  14
ENDBRANCH  11  12
ENDBRANCH   6  11
BRANCH  10  22
ATOM     22  N   UNL A   1      37.449  22.415  24.626  1.00  0.00    -0.399 N 
ATOM     23  H   UNL A   1      37.990  21.914  25.277  1.00  0.00     0.156 HD
ATOM     24  H   UNL A   1      37.731  22.465  23.684  1.00  0.00     0.156 HD
ENDBRANCH  10  22
ENDBRANCH   1   5
BRANCH   3  25
ATOM     25  C   UNL A   1      33.654  27.902  24.627  1.00  0.00     0.116 C 
BRANCH  25  26
ATOM     26  C   UNL A   1      32.959  29.218  24.323  1.00  0.00     0.023 C 
BRANCH  26  27
ATOM     27  C   UNL A   1      31.907  29.621  25.334  1.00  0.00     0.023 C 
BRANCH  27  28
ATOM     28  C   UNL A   1      32.463  30.008  26.695  1.00  0.00     0.116 C 
BRANCH  28  29
ATOM     29  N   UNL A   1      32.417  31.443  26.978  1.00  0.00    -0.352 N 
ATOM     30  C   UNL A   1      33.402  32.249  27.504  1.00  0.00     0.251 C 
ATOM     31  H   UNL A   1      31.567  31.892  26.763  1.00  0.00     0.163 HD
ATOM     32  O   UNL A   1      33.201  33.429  27.760  1.00  0.00    -0.269 OA
BRANCH  30  33
ATOM     33  C   UNL A   1      34.703  31.627  27.807  1.00  0.00     0.039 A 
ATOM     34  C   UNL A   1      35.802  32.444  28.076  1.00  0.00     0.014 A 
ATOM     35  C   UNL A   1      34.761  30.249  28.013  1.00  0.00     0.014 A 
ATOM     36  C   UNL A   1      36.929  31.889  28.681  1.00  0.00     0.010 A 
ATOM     37  C   UNL A   1      35.828  29.728  28.726  1.00  0.00     0.010 A 
ATOM     38  C   UNL A   1      36.919  30.542  29.077  1.00  0.00    -0.014 A 
BRANCH  38  39
ATOM     39  C   UNL A   1      38.029  29.929  29.852  1.00  0.00     0.031 A 
ATOM     40  C   UNL A   1      38.240  30.362  31.277  1.00  0.00     0.074 A 
ATOM     41  C   UNL A   1      38.914  29.107  29.254  1.00  0.00     0.049 A 
ATOM     42  N   UNL A   1      39.268  30.169  32.060  1.00  0.00    -0.248 NA
ATOM     43  C   UNL A   1      37.171  31.179  31.876  1.00  0.00     0.031 C 
ATOM     44  C   UNL A   1      38.855  28.652  27.863  1.00  0.00     0.029 A 
ATOM     45  N   UNL A   1      40.058  28.523  29.742  1.00  0.00    -0.354 N 
ATOM     46  C   UNL A   1      38.995  30.890  33.215  1.00  0.00     0.074 A 
ATOM     47  C   UNL A   1      37.731  31.563  33.012  1.00  0.00     0.031 C 
ATOM     48  C   UNL A   1      39.901  27.844  27.618  1.00  0.00     0.029 A 
ATOM     49  C   UNL A   1      40.731  27.763  28.815  1.00  0.00     0.049 A 
ATOM     50  H   UNL A   1      40.368  28.639  30.669  1.00  0.00     0.167 HD
ATOM     51  C   UNL A   1      39.723  30.967  34.352  1.00  0.00     0.037 A 
ATOM     52  C   UNL A   1      41.893  27.090  28.920  1.00  0.00     0.037 A 
ATOM     53  C   UNL A   1      40.933  30.227  34.579  1.00  0.00     0.049 A 
ATOM     54  C   UNL A   1      42.647  27.131  30.222  1.00  0.00     0.074 A 
ATOM     55  C   UNL A   1      41.707  30.169  35.723  1.00  0.00     0.029 A 
ATOM     56  N   UNL A   1      41.530  29.394  33.645  1.00  0.00    -0.354 N 
ATOM     57  N   UNL A   1      42.362  27.784  31.323  1.00  0.00    -0.248 NA
ATOM     58  C   UNL A   1      43.883  26.339  30.301  1.00  0.00     0.031 C 
ATOM     59  C   UNL A   1      42.784  29.313  35.477  1.00  0.00     0.029 A 
ATOM     60  C   UNL A   1      42.661  28.813  34.190  1.00  0.00     0.049 A 
ATOM     61  H   UNL A   1      41.199  29.240  32.730  1.00  0.00     0.167 HD
ATOM     62  C   UNL A   1      43.356  27.455  32.233  1.00  0.00     0.074 A 
ATOM     63  C   UNL A   1      44.255  26.541  31.558  1.00  0.00     0.031 C 
ATOM     64  C   UNL A   1      43.512  27.871  33.512  1.00  0.00     0.037 A 
BRANCH  51  65
ATOM     65  C   UNL A   1      39.217  31.866  35.440  1.00  0.00     0.064 A 
ATOM     66  C   UNL A   1      39.566  33.224  35.494  1.00  0.00     0.173 A 
ATOM     67  C   UNL A   1      38.357  31.368  36.429  1.00  0.00     0.173 A 
ATOM     68  F   UNL A   1      40.400  33.744  34.580  1.00  0.00    -0.203 F 
ATOM     69  C   UNL A   1      39.099  34.042  36.519  1.00  0.00     0.198 A 
ATOM     70  C   UNL A   1      37.865  32.197  37.434  1.00  0.00     0.198 A 
ATOM     71  F   UNL A   1      37.989  30.078  36.420  1.00  0.00    -0.203 F 
ATOM     72  F   UNL A   1      39.493  35.321  36.583  1.00  0.00    -0.200 F 
ATOM     73  C   UNL A   1      38.244  33.530  37.484  1.00  0.00     0.200 A 
ATOM     74  F   UNL A   1      37.030  31.704  38.359  1.00  0.00    -0.200 F 
ATOM     75  F   UNL A   1      37.792  34.321  38.466  1.00  0.00    -0.200 F 
ENDBRANCH  51  65
BRANCH  52  76
ATOM     76  C   UNL A   1      42.403  26.294  27.773  1.00  0.00     0.064 A 
ATOM     77  C   UNL A   1      41.938  24.991  27.546  1.00  0.00     0.173 A 
ATOM     78  C   UNL A   1      43.368  26.804  26.894  1.00  0.00     0.173 A 
ATOM     79  F   UNL A   1      41.031  24.451  28.373  1.00  0.00    -0.203 F 
ATOM     80  C   UNL A   1      42.435  24.220  26.496  1.00  0.00     0.198 A 
ATOM     81  C   UNL A   1      43.846  26.042  25.829  1.00  0.00     0.198 A 
ATOM     82  F   UNL A   1      43.842  28.047  27.063  1.00  0.00    -0.203 F 
ATOM     83  F   UNL A   1      42.006  22.961  26.331  1.00  0.00    -0.200 F 
ATOM     84  C   UNL A   1      43.385  24.748  25.637  1.00  0.00     0.200 A 
ATOM     85  F   UNL A   1      44.756  26.558  24.992  1.00  0.00    -0.200 F 
ATOM     86  F   UNL A   1      43.864  24.006  24.628  1.00  0.00    -0.200 F 
ENDBRANCH  52  76
BRANCH  64  87
ATOM     87  C   UNL A   1      44.650  27.295  34.296  1.00  0.00     0.064 A 
ATOM     88  C   UNL A   1      45.892  27.940  34.375  1.00  0.00     0.173 A 
ATOM     89  C   UNL A   1      44.463  26.124  35.047  1.00  0.00     0.173 A 
ATOM     90  F   UNL A   1      46.119  29.055  33.663  1.00  0.00    -0.203 F 
ATOM     91  C   UNL A   1      46.911  27.429  35.173  1.00  0.00     0.198 A 
ATOM     92  C   UNL A   1      45.475  25.629  35.861  1.00  0.00     0.198 A 
ATOM     93  F   UNL A   1      43.289  25.476  35.008  1.00  0.00    -0.203 F 
ATOM     94  F   UNL A   1      48.098  28.047  35.217  1.00  0.00    -0.200 F 
ATOM     95  C   UNL A   1      46.699  26.280  35.922  1.00  0.00     0.200 A 
ATOM     96  F   UNL A   1      45.266  24.527  36.594  1.00  0.00    -0.200 F 
ATOM     97  F   UNL A   1      47.675  25.799  36.704  1.00  0.00    -0.200 F 
ENDBRANCH  64  87
ENDBRANCH  38  39
ENDBRANCH  30  33
ENDBRANCH  28  29
ENDBRANCH  27  28
ENDBRANCH  26  27
ENDBRANCH  25  26
ENDBRANCH   3  25
TORSDOF 18
ENDMDL
MODEL 2
REMARK VINA RESULT:     -11.4      1.209      7.602
REMARK SMILES CCCCNC(=O)[C@@H](C)Oc1ccc(N)cc1C(=O)NCCCCNC(=O)c1ccc(-c2c3nc(c(-c4c(F)c(F)c(F)c(F)c4F)c4ccc([nH]4)c(-c4c(F)c(F)c(F)c(F)c4F)c4nc(c(-c5c(F)c(F)c(F)c(F)c5F)c5ccc2[nH]5)C=C4)C=C3)cc1
REMARK SMILES IDX 18 1 19 2 20 3 17 5 11 6 12 7 13 8 16 9 14 10 10 11 8 12
REMARK SMILES IDX 9 13 6 14 5 15 7 17 4 18 3 19 2 20 1 21 15 22 21 25 22 26
REMARK SMILES IDX 23 27 24 28 25 29 26 30 27 32 28 33 29 34 90 35 30 36 89 37
REMARK SMILES IDX 31 38 32 39 33 40 83 41 34 42 88 43 82 44 84 45 35 46 87 47
REMARK SMILES IDX 81 48 80 49 36 51 68 52 48 53 67 54 49 55 52 56 66 57 85 58
REMARK SMILES IDX 50 59 51 60 65 62 86 63 53 64 37 65 38 66 46 67 39 68 40 69
REMARK SMILES IDX 44 70 47 71 41 72 42 73 45 74 43 75 69 76 70 77 78 78 71 79
REMARK SMILES IDX 72 80 76 81 79 82 73 83 74 84 77 85 75 86 54 87 55 88 63 89
REMARK SMILES IDX 56 90 57 91 61 92 64 93 58 94 59 95 62 96 60 97
REMARK H PARENT 20 4 5 16 15 23 15 24 25 31 84 50 52 61
REMARK Flexibility Score: inf
ROOT
ATOM      1  C   UNL A   1      32.938  26.684  22.039  1.00  0.00     0.255 C 
ATOM      2  O   UNL A   1      33.293  25.797  21.251  1.00  0.00    -0.269 OA
ATOM      3  N   UNL A   1      33.862  27.686  22.180  1.00  0.00    -0.352 N 
ATOM      4  H   UNL A   1      34.641  27.607  21.583  1.00  0.00     0.163 HD
ENDROOT
BRANCH   1   5
ATOM      5  C   UNL A   1      31.568  26.566  22.681  1.00  0.00     0.083 A 
ATOM      6  C   UNL A   1      31.062  25.673  23.644  1.00  0.00     0.133 A 
ATOM      7  C   UNL A   1      29.943  26.052  24.401  1.00  0.00     0.049 A 
ATOM      8  C   UNL A   1      29.157  27.146  24.040  1.00  0.00     0.029 A 
ATOM      9  C   UNL A   1      30.712  27.637  22.307  1.00  0.00     0.043 A 
ATOM     10  C   UNL A   1      29.481  27.885  22.916  1.00  0.00     0.032 A 
BRANCH   6  11
ATOM     11  O   UNL A   1      31.642  24.499  24.009  1.00  0.00    -0.480 OA
BRANCH  11  12
ATOM     12  C   UNL A   1      32.080  24.319  25.373  1.00  0.00     0.258 C 
ATOM     13  C   UNL A   1      33.599  24.429  25.653  1.00  0.00     0.064 C 
BRANCH  12  14
ATOM     14  C   UNL A   1      31.420  23.288  26.323  1.00  0.00     0.260 C 
ATOM     15  N   UNL A   1      31.632  21.946  26.197  1.00  0.00    -0.353 N 
ATOM     16  H   UNL A   1      31.405  21.406  26.988  1.00  0.00     0.163 HD
ATOM     17  O   UNL A   1      30.703  23.663  27.257  1.00  0.00    -0.271 OA
BRANCH  15  18
ATOM     18  C   UNL A   1      32.144  21.200  25.064  1.00  0.00     0.116 C 
BRANCH  18  19
ATOM     19  C   UNL A   1      33.412  20.420  25.372  1.00  0.00     0.021 C 
BRANCH  19  20
ATOM     20  C   UNL A   1      33.595  19.171  24.507  1.00  0.00    -0.002 C 
ATOM     21  C   UNL A   1      32.464  18.954  23.508  1.00  0.00     0.004 C 
ENDBRANCH  19  20
ENDBRANCH  18  19
ENDBRANCH  15  18
ENDBRANCH  12  14
ENDBRANCH  11  12
ENDBRANCH   6  11
BRANCH  10  22
ATOM     22  N   UNL A   1      28.688  28.943  22.508  1.00  0.00    -0.399 N 
ATOM     23  H   UNL A   1      27.973  28.796  21.850  1.00  0.00     0.156 HD
ATOM     24  H   UNL A   1      28.841  29.843  22.878  1.00  0.00     0.156 HD
ENDBRANCH  10  22
ENDBRANCH   1   5
BRANCH   3  25
ATOM     25  C   UNL A   1      33.890  28.825  23.040  1.00  0.00     0.116 C 
BRANCH  25  26
ATOM     26  C   UNL A   1      33.808  28.504  24.522  1.00  0.00     0.023 C 
BRANCH  26  27
ATOM     27  C   UNL A   1      32.550  28.997  25.204  1.00  0.00     0.023 C 
BRANCH  27  28
ATOM     28  C   UNL A   1      32.754  29.448  26.642  1.00  0.00     0.116 C 
BRANCH  28  29
ATOM     29  N   UNL A   1      32.457  30.863  26.875  1.00  0.00    -0.352 N 
ATOM     30  C   UNL A   1      33.280  31.841  27.387  1.00  0.00     0.251 C 
ATOM     31  H   UNL A   1      31.548  31.152  26.634  1.00  0.00     0.163 HD
ATOM     32  O   UNL A   1      32.874  32.977  27.600  1.00  0.00    -0.269 OA
BRANCH  30  33
ATOM     33  C   UNL A   1      34.662  31.462  27.729  1.00  0.00     0.039 A 
ATOM     34  C   UNL A   1      35.633  32.457  27.839  1.00  0.00     0.014 A 
ATOM     35  C   UNL A   1      34.923  30.152  28.128  1.00  0.00     0.014 A 
ATOM     36  C   UNL A   1      36.838  32.163  28.476  1.00  0.00     0.010 A 
ATOM     37  C   UNL A   1      36.066  29.897  28.868  1.00  0.00     0.010 A 
ATOM     38  C   UNL A   1      37.031  30.901  29.060  1.00  0.00    -0.014 A 
BRANCH  38  39
ATOM     39  C   UNL A   1      38.230  30.572  29.874  1.00  0.00     0.031 A 
ATOM     40  C   UNL A   1      39.247  29.618  29.309  1.00  0.00     0.074 A 
ATOM     41  C   UNL A   1      38.342  31.009  31.144  1.00  0.00     0.049 A 
ATOM     42  N   UNL A   1      40.223  28.992  29.912  1.00  0.00    -0.248 NA
ATOM     43  C   UNL A   1      39.099  29.274  27.885  1.00  0.00     0.031 C 
ATOM     44  C   UNL A   1      37.399  31.896  31.830  1.00  0.00     0.029 A 
ATOM     45  N   UNL A   1      39.294  30.743  32.098  1.00  0.00    -0.354 N 
ATOM     46  C   UNL A   1      40.761  28.139  28.957  1.00  0.00     0.074 A 
ATOM     47  C   UNL A   1      39.975  28.291  27.753  1.00  0.00     0.031 C 
ATOM     48  C   UNL A   1      37.832  32.117  33.082  1.00  0.00     0.029 A 
ATOM     49  C   UNL A   1      39.053  31.351  33.307  1.00  0.00     0.049 A 
ATOM     50  H   UNL A   1      40.077  30.170  31.931  1.00  0.00     0.167 HD
ATOM     51  C   UNL A   1      41.830  27.318  29.068  1.00  0.00     0.037 A 
ATOM     52  C   UNL A   1      39.736  31.284  34.466  1.00  0.00     0.037 A 
ATOM     53  C   UNL A   1      42.659  27.237  30.239  1.00  0.00     0.049 A 
ATOM     54  C   UNL A   1      40.966  30.420  34.542  1.00  0.00     0.074 A 
ATOM     55  C   UNL A   1      43.812  26.498  30.431  1.00  0.00     0.029 A 
ATOM     56  N   UNL A   1      42.432  27.942  31.411  1.00  0.00    -0.354 N 
ATOM     57  N   UNL A   1      41.491  29.647  33.622  1.00  0.00    -0.248 NA
ATOM     58  C   UNL A   1      41.703  30.421  35.813  1.00  0.00     0.031 C 
ATOM     59  C   UNL A   1      44.276  26.744  31.726  1.00  0.00     0.029 A 
ATOM     60  C   UNL A   1      43.428  27.661  32.328  1.00  0.00     0.049 A 
ATOM     61  H   UNL A   1      41.674  28.552  31.567  1.00  0.00     0.167 HD
ATOM     62  C   UNL A   1      42.635  29.101  34.187  1.00  0.00     0.074 A 
ATOM     63  C   UNL A   1      42.731  29.630  35.532  1.00  0.00     0.031 C 
ATOM     64  C   UNL A   1      43.525  28.238  33.644  1.00  0.00     0.037 A 
BRANCH  51  65
ATOM     65  C   UNL A   1      42.172  26.461  27.887  1.00  0.00     0.064 A 
ATOM     66  C   UNL A   1      43.139  26.853  26.949  1.00  0.00     0.173 A 
ATOM     67  C   UNL A   1      41.538  25.225  27.700  1.00  0.00     0.173 A 
ATOM     68  F   UNL A   1      43.762  28.036  27.075  1.00  0.00    -0.203 F 
ATOM     69  C   UNL A   1      43.434  26.054  25.848  1.00  0.00     0.198 A 
ATOM     70  C   UNL A   1      41.860  24.412  26.615  1.00  0.00     0.198 A 
ATOM     71  F   UNL A   1      40.609  24.801  28.569  1.00  0.00    -0.203 F 
ATOM     72  F   UNL A   1      44.320  26.476  24.936  1.00  0.00    -0.200 F 
ATOM     73  C   UNL A   1      42.801  24.831  25.686  1.00  0.00     0.200 A 
ATOM     74  F   UNL A   1      41.255  23.226  26.466  1.00  0.00    -0.200 F 
ATOM     75  F   UNL A   1      43.091  24.060  24.630  1.00  0.00    -0.200 F 
ENDBRANCH  51  65
BRANCH  52  76
ATOM     76  C   UNL A   1      39.294  32.078  35.642  1.00  0.00     0.064 A 
ATOM     77  C   UNL A   1      39.743  33.393  35.825  1.00  0.00     0.173 A 
ATOM     78  C   UNL A   1      38.432  31.543  36.610  1.00  0.00     0.173 A 
ATOM     79  F   UNL A   1      40.586  33.941  34.937  1.00  0.00    -0.203 F 
ATOM     80  C   UNL A   1      39.365  34.136  36.942  1.00  0.00     0.198 A 
ATOM     81  C   UNL A   1      38.034  32.296  37.713  1.00  0.00     0.198 A 
ATOM     82  F   UNL A   1      37.968  30.292  36.479  1.00  0.00    -0.203 F 
ATOM     83  F   UNL A   1      39.848  35.375  37.114  1.00  0.00    -0.200 F 
ATOM     84  C   UNL A   1      38.508  33.588  37.883  1.00  0.00     0.200 A 
ATOM     85  F   UNL A   1      37.196  31.768  38.616  1.00  0.00    -0.200 F 
ATOM     86  F   UNL A   1      38.146  34.302  38.958  1.00  0.00    -0.200 F 
ENDBRANCH  52  76
BRANCH  64  87
ATOM     87  C   UNL A   1      44.720  27.863  34.465  1.00  0.00     0.064 A 
ATOM     88  C   UNL A   1      45.891  28.633  34.455  1.00  0.00     0.173 A 
ATOM     89  C   UNL A   1      44.656  26.764  35.335  1.00  0.00     0.173 A 
ATOM     90  F   UNL A   1      46.001  29.684  33.629  1.00  0.00    -0.203 F 
ATOM     91  C   UNL A   1      46.961  28.312  35.285  1.00  0.00     0.198 A 
ATOM     92  C   UNL A   1      45.718  26.460  36.180  1.00  0.00     0.198 A 
ATOM     93  F   UNL A   1      43.553  26.002  35.383  1.00  0.00    -0.203 F 
ATOM     94  F   UNL A   1      48.080  29.046  35.245  1.00  0.00    -0.200 F 
ATOM     95  C   UNL A   1      46.870  27.233  36.153  1.00  0.00     0.200 A 
ATOM     96  F   UNL A   1      45.625  25.425  37.026  1.00  0.00    -0.200 F 
ATOM     97  F   UNL A   1      47.895  26.935  36.964  1.00  0.00    -0.200 F 
ENDBRANCH  64  87
ENDBRANCH  38  39
ENDBRANCH  30  33
ENDBRANCH  28  29
ENDBRANCH  27  28
ENDBRANCH  26  27
ENDBRANCH  25  26
ENDBRANCH   3  25
TORSDOF 18
ENDMDL
MODEL 3
REMARK VINA RESULT:     -11.4      0.994      2.007
REMARK SMILES CCCCNC(=O)[C@@H](C)Oc1ccc(N)cc1C(=O)NCCCCNC(=O)c1ccc(-c2c3nc(c(-c4c(F)c(F)c(F)c(F)c4F)c4ccc([nH]4)c(-c4c(F)c(F)c(F)c(F)c4F)c4nc(c(-c5c(F)c(F)c(F)c(F)c5F)c5ccc2[nH]5)C=C4)C=C3)cc1
REMARK SMILES IDX 18 1 19 2 20 3 17 5 11 6 12 7 13 8 16 9 14 10 10 11 8 12
REMARK SMILES IDX 9 13 6 14 5 15 7 17 4 18 3 19 2 20 1 21 15 22 21 25 22 26
REMARK SMILES IDX 23 27 24 28 25 29 26 30 27 32 28 33 29 34 90 35 30 36 89 37
REMARK SMILES IDX 31 38 32 39 33 40 83 41 34 42 88 43 82 44 84 45 35 46 87 47
REMARK SMILES IDX 81 48 80 49 36 51 68 52 48 53 67 54 49 55 52 56 66 57 85 58
REMARK SMILES IDX 50 59 51 60 65 62 86 63 53 64 37 65 38 66 46 67 39 68 40 69
REMARK SMILES IDX 44 70 47 71 41 72 42 73 45 74 43 75 69 76 70 77 78 78 71 79
REMARK SMILES IDX 72 80 76 81 79 82 73 83 74 84 77 85 75 86 54 87 55 88 63 89
REMARK SMILES IDX 56 90 57 91 61 92 64 93 58 94 59 95 62 96 60 97
REMARK H PARENT 20 4 5 16 15 23 15 24 25 31 84 50 52 61
REMARK Flexibility Score: inf
ROOT
ATOM      1  C   UNL A   1      33.239  26.537  22.581  1.00  0.00     0.255 C 
ATOM      2  O   UNL A   1      33.886  25.827  21.799  1.00  0.00    -0.269 OA
ATOM      3  N   UNL A   1      33.055  27.816  22.125  1.00  0.00    -0.352 N 
ATOM      4  H   UNL A   1      33.390  27.975  21.214  1.00  0.00     0.163 HD
ENDROOT
BRANCH   1   5
ATOM      5  C   UNL A   1      32.724  25.908  23.862  1.00  0.00     0.083 A 
ATOM      6  C   UNL A   1      33.394  25.442  25.009  1.00  0.00     0.133 A 
ATOM      7  C   UNL A   1      32.687  25.343  26.216  1.00  0.00     0.049 A 
ATOM      8  C   UNL A   1      31.295  25.419  26.252  1.00  0.00     0.029 A 
ATOM      9  C   UNL A   1      31.304  25.921  23.926  1.00  0.00     0.043 A 
ATOM     10  C   UNL A   1      30.585  25.602  25.079  1.00  0.00     0.032 A 
BRANCH   6  11
ATOM     11  O   UNL A   1      34.727  25.190  25.092  1.00  0.00    -0.480 OA
BRANCH  11  12
ATOM     12  C   UNL A   1      35.210  23.848  24.866  1.00  0.00     0.258 C 
ATOM     13  C   UNL A   1      36.466  23.401  25.654  1.00  0.00     0.064 C 
BRANCH  12  14
ATOM     14  C   UNL A   1      35.173  23.181  23.467  1.00  0.00     0.260 C 
ATOM     15  N   UNL A   1      34.026  22.659  22.944  1.00  0.00    -0.353 N 
ATOM     16  H   UNL A   1      34.035  22.514  21.971  1.00  0.00     0.163 HD
ATOM     17  O   UNL A   1      36.188  23.139  22.765  1.00  0.00    -0.271 OA
BRANCH  15  18
ATOM     18  C   UNL A   1      32.796  22.287  23.615  1.00  0.00     0.116 C 
BRANCH  18  19
ATOM     19  C   UNL A   1      32.575  20.785  23.691  1.00  0.00     0.021 C 
BRANCH  19  20
ATOM     20  C   UNL A   1      33.545  20.064  24.629  1.00  0.00    -0.002 C 
ATOM     21  C   UNL A   1      32.910  18.895  25.375  1.00  0.00     0.004 C 
ENDBRANCH  19  20
ENDBRANCH  18  19
ENDBRANCH  15  18
ENDBRANCH  12  14
ENDBRANCH  11  12
ENDBRANCH   6  11
BRANCH  10  22
ATOM     22  N   UNL A   1      29.201  25.630  25.082  1.00  0.00    -0.399 N 
ATOM     23  H   UNL A   1      28.705  25.522  24.239  1.00  0.00     0.156 HD
ATOM     24  H   UNL A   1      28.714  25.756  25.928  1.00  0.00     0.156 HD
ENDBRANCH  10  22
ENDBRANCH   1   5
BRANCH   3  25
ATOM     25  C   UNL A   1      32.460  28.958  22.742  1.00  0.00     0.116 C 
BRANCH  25  26
ATOM     26  C   UNL A   1      33.039  29.321  24.099  1.00  0.00     0.023 C 
BRANCH  26  27
ATOM     27  C   UNL A   1      32.009  29.693  25.143  1.00  0.00     0.023 C 
BRANCH  27  28
ATOM     28  C   UNL A   1      32.591  30.001  26.514  1.00  0.00     0.116 C 
BRANCH  28  29
ATOM     29  N   UNL A   1      32.526  31.414  26.891  1.00  0.00    -0.352 N 
ATOM     30  C   UNL A   1      33.490  32.188  27.499  1.00  0.00     0.251 C 
ATOM     31  H   UNL A   1      31.680  31.872  26.682  1.00  0.00     0.163 HD
ATOM     32  O   UNL A   1      33.272  33.347  27.827  1.00  0.00    -0.269 OA
BRANCH  30  33
ATOM     33  C   UNL A   1      34.786  31.554  27.798  1.00  0.00     0.039 A 
ATOM     34  C   UNL A   1      35.905  32.360  28.009  1.00  0.00     0.014 A 
ATOM     35  C   UNL A   1      34.823  30.185  28.058  1.00  0.00     0.014 A 
ATOM     36  C   UNL A   1      37.035  31.809  28.612  1.00  0.00     0.010 A 
ATOM     37  C   UNL A   1      35.897  29.672  28.767  1.00  0.00     0.010 A 
ATOM     38  C   UNL A   1      37.010  30.479  29.062  1.00  0.00    -0.014 A 
BRANCH  38  39
ATOM     39  C   UNL A   1      38.126  29.877  29.836  1.00  0.00     0.031 A 
ATOM     40  C   UNL A   1      38.339  30.318  31.258  1.00  0.00     0.074 A 
ATOM     41  C   UNL A   1      39.014  29.055  29.240  1.00  0.00     0.049 A 
ATOM     42  N   UNL A   1      39.371  30.135  32.039  1.00  0.00    -0.248 NA
ATOM     43  C   UNL A   1      37.268  31.133  31.856  1.00  0.00     0.031 C 
ATOM     44  C   UNL A   1      38.953  28.593  27.851  1.00  0.00     0.029 A 
ATOM     45  N   UNL A   1      40.162  28.481  29.727  1.00  0.00    -0.354 N 
ATOM     46  C   UNL A   1      39.097  30.861  33.191  1.00  0.00     0.074 A 
ATOM     47  C   UNL A   1      37.829  31.525  32.988  1.00  0.00     0.031 C 
ATOM     48  C   UNL A   1      40.001  27.789  27.607  1.00  0.00     0.029 A 
ATOM     49  C   UNL A   1      40.836  27.720  28.802  1.00  0.00     0.049 A 
ATOM     50  H   UNL A   1      40.474  28.604  30.652  1.00  0.00     0.167 HD
ATOM     51  C   UNL A   1      39.829  30.948  34.325  1.00  0.00     0.037 A 
ATOM     52  C   UNL A   1      42.002  27.054  28.907  1.00  0.00     0.037 A 
ATOM     53  C   UNL A   1      41.044  30.216  34.552  1.00  0.00     0.049 A 
ATOM     54  C   UNL A   1      42.761  27.105  30.206  1.00  0.00     0.074 A 
ATOM     55  C   UNL A   1      41.823  30.169  35.693  1.00  0.00     0.029 A 
ATOM     56  N   UNL A   1      41.643  29.382  33.620  1.00  0.00    -0.354 N 
ATOM     57  N   UNL A   1      42.475  27.764  31.304  1.00  0.00    -0.248 NA
ATOM     58  C   UNL A   1      44.001  26.321  30.285  1.00  0.00     0.031 C 
ATOM     59  C   UNL A   1      42.903  29.317  35.448  1.00  0.00     0.029 A 
ATOM     60  C   UNL A   1      42.778  28.809  34.165  1.00  0.00     0.049 A 
ATOM     61  H   UNL A   1      41.309  29.220  32.707  1.00  0.00     0.167 HD
ATOM     62  C   UNL A   1      43.475  27.444  32.212  1.00  0.00     0.074 A 
ATOM     63  C   UNL A   1      44.377  26.532  31.540  1.00  0.00     0.031 C 
ATOM     64  C   UNL A   1      43.633  27.868  33.488  1.00  0.00     0.037 A 
BRANCH  51  65
ATOM     65  C   UNL A   1      39.321  31.850  35.409  1.00  0.00     0.064 A 
ATOM     66  C   UNL A   1      39.709  33.196  35.488  1.00  0.00     0.173 A 
ATOM     67  C   UNL A   1      38.422  31.367  36.370  1.00  0.00     0.173 A 
ATOM     68  F   UNL A   1      40.581  33.701  34.602  1.00  0.00    -0.203 F 
ATOM     69  C   UNL A   1      39.241  34.017  36.510  1.00  0.00     0.198 A 
ATOM     70  C   UNL A   1      37.929  32.200  37.372  1.00  0.00     0.198 A 
ATOM     71  F   UNL A   1      38.017  30.089  36.338  1.00  0.00    -0.203 F 
ATOM     72  F   UNL A   1      39.670  35.283  36.598  1.00  0.00    -0.200 F 
ATOM     73  C   UNL A   1      38.346  33.521  37.446  1.00  0.00     0.200 A 
ATOM     74  F   UNL A   1      37.056  31.723  38.270  1.00  0.00    -0.200 F 
ATOM     75  F   UNL A   1      37.891  34.314  38.426  1.00  0.00    -0.200 F 
ENDBRANCH  51  65
BRANCH  52  76
ATOM     76  C   UNL A   1      42.513  26.254  27.762  1.00  0.00     0.064 A 
ATOM     77  C   UNL A   1      42.204  24.891  27.650  1.00  0.00     0.173 A 
ATOM     78  C   UNL A   1      43.326  26.822  26.771  1.00  0.00     0.173 A 
ATOM     79  F   UNL A   1      41.448  24.298  28.585  1.00  0.00    -0.203 F 
ATOM     80  C   UNL A   1      42.706  24.121  26.602  1.00  0.00     0.198 A 
ATOM     81  C   UNL A   1      43.807  26.057  25.710  1.00  0.00     0.198 A 
ATOM     82  F   UNL A   1      43.647  28.123  26.829  1.00  0.00    -0.203 F 
ATOM     83  F   UNL A   1      42.432  22.810  26.545  1.00  0.00    -0.200 F 
ATOM     84  C   UNL A   1      43.504  24.706  25.631  1.00  0.00     0.200 A 
ATOM     85  F   UNL A   1      44.568  26.627  24.766  1.00  0.00    -0.200 F 
ATOM     86  F   UNL A   1      43.988  23.966  24.624  1.00  0.00    -0.200 F 
ENDBRANCH  52  76
BRANCH  64  87
ATOM     87  C   UNL A   1      44.777  27.303  34.272  1.00  0.00     0.064 A 
ATOM     88  C   UNL A   1      46.015  27.954  34.341  1.00  0.00     0.173 A 
ATOM     89  C   UNL A   1      44.598  26.136  35.031  1.00  0.00     0.173 A 
ATOM     90  F   UNL A   1      46.235  29.066  33.622  1.00  0.00    -0.203 F 
ATOM     91  C   UNL A   1      47.039  27.453  35.139  1.00  0.00     0.198 A 
ATOM     92  C   UNL A   1      45.616  25.651  35.845  1.00  0.00     0.198 A 
ATOM     93  F   UNL A   1      43.427  25.482  35.000  1.00  0.00    -0.203 F 
ATOM     94  F   UNL A   1      48.224  28.077  35.174  1.00  0.00    -0.200 F 
ATOM     95  C   UNL A   1      46.836  26.309  35.897  1.00  0.00     0.200 A 
ATOM     96  F   UNL A   1      45.415  24.552  36.585  1.00  0.00    -0.200 F 
ATOM     97  F   UNL A   1      47.818  25.837  36.677  1.00  0.00    -0.200 F 
ENDBRANCH  64  87
ENDBRANCH  38  39
ENDBRANCH  30  33
ENDBRANCH  28  29
ENDBRANCH  27  28
ENDBRANCH  26  27
ENDBRANCH  25  26
ENDBRANCH   3  25
TORSDOF 18
ENDMDL
