MODEL 1
REMARK VINA RESULT:     -14.5      0.000      0.000
REMARK SMILES CC1=C(C)C[C@@H](C(=O)NCCCCNC(=O)c2ccc(-c3c4nc(c(-c5c(F)c(F)c(F)c(F)c5F)c5ccc([nH]5)c(-c5c(F)c(F)c(F)c(F)c5F)c5nc(c(-c6c(F)c(F)c(F)c(F)c6F)c6ccc3[nH]6)C=C5)C=C4)cc2)[C@@H](C(=O)N2CCN(c3cccc(C(F)(F)F)c3)CC2)C1
REMARK SMILES IDX 11 1 10 2 9 3 7 4 8 5 6 7 1 8 2 9 3 10 99 11 4 12 5 13 80 14
REMARK SMILES IDX 81 15 82 16 83 17 84 18 98 19 85 20 97 21 86 22 87 23 88 24
REMARK SMILES IDX 96 25 89 26 91 27 90 28 92 29 93 30 94 31 95 32 12 33 13 34
REMARK SMILES IDX 14 35 15 36 16 38 17 39 18 40 79 41 19 42 78 43 20 44 21 45
REMARK SMILES IDX 22 46 72 47 23 48 77 49 71 50 73 51 24 52 76 53 70 54 69 55
REMARK SMILES IDX 25 57 57 58 37 59 56 60 38 61 41 62 55 63 74 64 39 65 40 66
REMARK SMILES IDX 54 68 75 69 42 70 26 71 27 72 35 73 28 74 29 75 33 76 36 77
REMARK SMILES IDX 30 78 31 79 34 80 32 81 58 82 59 83 67 84 60 85 61 86 65 87
REMARK SMILES IDX 68 88 62 89 63 90 66 91 64 92 43 93 44 94 52 95 45 96 46 97
REMARK SMILES IDX 50 98 53 99 47 100 48 101 51 102 49 103
REMARK H PARENT 9 6 14 37 73 56 41 67
REMARK Flexibility Score: inf
ROOT
ATOM      1  C   UNL A   1      31.956  30.429  26.715  1.00  0.00     0.023 C 
ENDROOT
BRANCH   1   2
ATOM      2  C   UNL A   1      31.767  29.885  25.314  1.00  0.00     0.116 C 
BRANCH   2   3
ATOM      3  N   UNL A   1      33.019  29.481  24.718  1.00  0.00    -0.356 N 
ATOM      4  C   UNL A   1      33.303  28.687  23.654  1.00  0.00     0.224 C 
ATOM      5  O   UNL A   1      34.481  28.684  23.277  1.00  0.00    -0.275 OA
ATOM      6  H   UNL A   1      33.814  29.850  25.166  1.00  0.00     0.163 HD
BRANCH   4   7
ATOM      7  C   UNL A   1      32.246  27.887  22.869  1.00  0.00     0.095 C 
ATOM      8  C   UNL A   1      27.846  28.217  23.486  1.00  0.00     0.039 C 
ATOM      9  C   UNL A   1      29.305  28.127  23.107  1.00  0.00    -0.074 C 
ATOM     10  C   UNL A   1      29.963  29.041  22.376  1.00  0.00    -0.074 C 
ATOM     11  C   UNL A   1      29.972  26.898  23.648  1.00  0.00     0.045 C 
ATOM     12  C   UNL A   1      29.368  30.350  21.924  1.00  0.00     0.039 C 
ATOM     13  C   UNL A   1      31.408  28.838  21.992  1.00  0.00     0.045 C 
ATOM     14  C   UNL A   1      31.492  26.704  23.560  1.00  0.00     0.095 C 
BRANCH  14  15
ATOM     15  C   UNL A   1      32.156  26.231  24.882  1.00  0.00     0.226 C 
ATOM     16  O   UNL A   1      31.838  26.761  25.950  1.00  0.00    -0.275 OA
ATOM     17  N   UNL A   1      33.095  25.212  24.911  1.00  0.00    -0.339 N 
ATOM     18  C   UNL A   1      33.248  24.465  26.167  1.00  0.00     0.141 C 
ATOM     19  C   UNL A   1      34.113  24.848  23.902  1.00  0.00     0.141 C 
ATOM     20  C   UNL A   1      33.224  22.954  25.900  1.00  0.00     0.138 C 
ATOM     21  C   UNL A   1      34.149  23.316  23.627  1.00  0.00     0.138 C 
ATOM     22  N   UNL A   1      34.237  22.590  24.903  1.00  0.00    -0.368 N 
BRANCH  22  23
ATOM     23  C   UNL A   1      34.554  21.239  24.917  1.00  0.00     0.037 A 
ATOM     24  C   UNL A   1      35.851  20.748  25.112  1.00  0.00     0.026 A 
ATOM     25  C   UNL A   1      33.551  20.345  24.535  1.00  0.00     0.039 A 
ATOM     26  C   UNL A   1      36.139  19.397  24.895  1.00  0.00     0.003 A 
ATOM     27  C   UNL A   1      33.825  18.994  24.294  1.00  0.00     0.058 A 
ATOM     28  C   UNL A   1      35.133  18.525  24.478  1.00  0.00     0.013 A 
BRANCH  27  29
ATOM     29  C   UNL A   1      32.737  18.081  23.794  1.00  0.00     0.416 C 
ATOM     30  F   UNL A   1      31.916  18.696  22.897  1.00  0.00    -0.166 F 
ATOM     31  F   UNL A   1      33.225  16.979  23.162  1.00  0.00    -0.166 F 
ATOM     32  F   UNL A   1      31.919  17.614  24.779  1.00  0.00    -0.166 F 
ENDBRANCH  27  29
ENDBRANCH  22  23
ENDBRANCH  14  15
ENDBRANCH   4   7
ENDBRANCH   2   3
ENDBRANCH   1   2
BRANCH   1  33
ATOM     33  C   UNL A   1      31.668  31.922  26.790  1.00  0.00     0.023 C 
BRANCH  33  34
ATOM     34  C   UNL A   1      32.800  32.713  27.416  1.00  0.00     0.116 C 
BRANCH  34  35
ATOM     35  N   UNL A   1      32.456  34.102  27.715  1.00  0.00    -0.352 N 
ATOM     36  C   UNL A   1      33.009  34.992  28.608  1.00  0.00     0.251 C 
ATOM     37  H   UNL A   1      31.705  34.461  27.191  1.00  0.00     0.163 HD
ATOM     38  O   UNL A   1      32.514  36.100  28.753  1.00  0.00    -0.269 OA
BRANCH  36  39
ATOM     39  C   UNL A   1      34.170  34.582  29.429  1.00  0.00     0.039 A 
ATOM     40  C   UNL A   1      33.947  33.995  30.677  1.00  0.00     0.014 A 
ATOM     41  C   UNL A   1      35.469  34.723  28.948  1.00  0.00     0.014 A 
ATOM     42  C   UNL A   1      35.022  33.458  31.388  1.00  0.00     0.010 A 
ATOM     43  C   UNL A   1      36.507  34.055  29.576  1.00  0.00     0.010 A 
ATOM     44  C   UNL A   1      36.303  33.431  30.815  1.00  0.00    -0.014 A 
BRANCH  44  45
ATOM     45  C   UNL A   1      37.470  32.814  31.491  1.00  0.00     0.031 A 
ATOM     46  C   UNL A   1      38.194  31.682  30.809  1.00  0.00     0.074 A 
ATOM     47  C   UNL A   1      37.814  33.191  32.738  1.00  0.00     0.049 A 
ATOM     48  N   UNL A   1      39.096  30.863  31.285  1.00  0.00    -0.248 NA
ATOM     49  C   UNL A   1      37.805  31.396  29.416  1.00  0.00     0.031 C 
ATOM     50  C   UNL A   1      37.160  34.238  33.524  1.00  0.00     0.029 A 
ATOM     51  N   UNL A   1      38.800  32.723  33.570  1.00  0.00    -0.354 N 
ATOM     52  C   UNL A   1      39.346  29.949  30.269  1.00  0.00     0.074 A 
ATOM     53  C   UNL A   1      38.448  30.263  29.181  1.00  0.00     0.031 C 
ATOM     54  C   UNL A   1      37.784  34.357  34.708  1.00  0.00     0.029 A 
ATOM     55  C   UNL A   1      38.848  33.363  34.785  1.00  0.00     0.049 A 
ATOM     56  H   UNL A   1      39.414  31.995  33.320  1.00  0.00     0.167 HD
ATOM     57  C   UNL A   1      40.270  28.962  30.227  1.00  0.00     0.037 A 
ATOM     58  C   UNL A   1      39.659  33.159  35.840  1.00  0.00     0.037 A 
ATOM     59  C   UNL A   1      41.207  28.701  31.285  1.00  0.00     0.049 A 
ATOM     60  C   UNL A   1      40.699  32.072  35.757  1.00  0.00     0.074 A 
ATOM     61  C   UNL A   1      42.217  27.758  31.333  1.00  0.00     0.029 A 
ATOM     62  N   UNL A   1      41.261  29.412  32.475  1.00  0.00    -0.354 N 
ATOM     63  N   UNL A   1      40.946  31.236  34.778  1.00  0.00    -0.248 NA
ATOM     64  C   UNL A   1      41.573  31.903  36.925  1.00  0.00     0.031 C 
ATOM     65  C   UNL A   1      42.872  27.885  32.562  1.00  0.00     0.029 A 
ATOM     66  C   UNL A   1      42.293  28.932  33.263  1.00  0.00     0.049 A 
ATOM     67  H   UNL A   1      40.656  30.148  32.722  1.00  0.00     0.167 HD
ATOM     68  C   UNL A   1      42.025  30.469  35.195  1.00  0.00     0.074 A 
ATOM     69  C   UNL A   1      42.394  30.948  36.511  1.00  0.00     0.031 C 
ATOM     70  C   UNL A   1      42.654  29.454  34.554  1.00  0.00     0.037 A 
BRANCH  57  71
ATOM     71  C   UNL A   1      40.334  28.124  28.983  1.00  0.00     0.064 A 
ATOM     72  C   UNL A   1      39.622  26.919  28.875  1.00  0.00     0.173 A 
ATOM     73  C   UNL A   1      41.095  28.535  27.880  1.00  0.00     0.173 A 
ATOM     74  F   UNL A   1      38.893  26.471  29.909  1.00  0.00    -0.203 F 
ATOM     75  C   UNL A   1      39.696  26.141  27.724  1.00  0.00     0.198 A 
ATOM     76  C   UNL A   1      41.140  27.771  26.715  1.00  0.00     0.198 A 
ATOM     77  F   UNL A   1      41.794  29.680  27.927  1.00  0.00    -0.203 F 
ATOM     78  F   UNL A   1      39.056  24.966  27.669  1.00  0.00    -0.200 F 
ATOM     79  C   UNL A   1      40.449  26.571  26.642  1.00  0.00     0.200 A 
ATOM     80  F   UNL A   1      41.859  28.194  25.665  1.00  0.00    -0.200 F 
ATOM     81  F   UNL A   1      40.515  25.824  25.532  1.00  0.00    -0.200 F 
ENDBRANCH  57  71
BRANCH  58  82
ATOM     82  C   UNL A   1      39.553  34.016  37.051  1.00  0.00     0.064 A 
ATOM     83  C   UNL A   1      38.799  33.598  38.158  1.00  0.00     0.173 A 
ATOM     84  C   UNL A   1      40.167  35.274  37.122  1.00  0.00     0.173 A 
ATOM     85  F   UNL A   1      38.176  32.410  38.131  1.00  0.00    -0.203 F 
ATOM     86  C   UNL A   1      38.635  34.418  39.272  1.00  0.00     0.198 A 
ATOM     87  C   UNL A   1      40.028  36.081  38.250  1.00  0.00     0.198 A 
ATOM     88  F   UNL A   1      40.905  35.720  36.095  1.00  0.00    -0.203 F 
ATOM     89  F   UNL A   1      37.859  34.016  40.288  1.00  0.00    -0.200 F 
ATOM     90  C   UNL A   1      39.252  35.658  39.318  1.00  0.00     0.200 A 
ATOM     91  F   UNL A   1      40.635  37.275  38.296  1.00  0.00    -0.200 F 
ATOM     92  F   UNL A   1      39.087  36.450  40.386  1.00  0.00    -0.200 F 
ENDBRANCH  58  82
BRANCH  70  93
ATOM     93  C   UNL A   1      43.838  28.840  35.239  1.00  0.00     0.064 A 
ATOM     94  C   UNL A   1      43.698  27.767  36.129  1.00  0.00     0.173 A 
ATOM     95  C   UNL A   1      45.132  29.305  34.962  1.00  0.00     0.173 A 
ATOM     96  F   UNL A   1      42.478  27.298  36.434  1.00  0.00    -0.203 F 
ATOM     97  C   UNL A   1      44.810  27.197  36.738  1.00  0.00     0.198 A 
ATOM     98  C   UNL A   1      46.245  28.713  35.550  1.00  0.00     0.198 A 
ATOM     99  F   UNL A   1      45.317  30.324  34.110  1.00  0.00    -0.203 F 
ATOM    100  F   UNL A   1      44.652  26.200  37.621  1.00  0.00    -0.200 F 
ATOM    101  C   UNL A   1      46.083  27.664  36.443  1.00  0.00     0.200 A 
ATOM    102  F   UNL A   1      47.474  29.156  35.254  1.00  0.00    -0.200 F 
ATOM    103  F   UNL A   1      47.154  27.107  37.025  1.00  0.00    -0.200 F 
ENDBRANCH  70  93
ENDBRANCH  44  45
ENDBRANCH  36  39
ENDBRANCH  34  35
ENDBRANCH  33  34
ENDBRANCH   1  33
TORSDOF 14
ENDMDL
MODEL 2
REMARK VINA RESULT:     -14.5      0.578      7.063
REMARK SMILES CC1=C(C)C[C@@H](C(=O)NCCCCNC(=O)c2ccc(-c3c4nc(c(-c5c(F)c(F)c(F)c(F)c5F)c5ccc([nH]5)c(-c5c(F)c(F)c(F)c(F)c5F)c5nc(c(-c6c(F)c(F)c(F)c(F)c6F)c6ccc3[nH]6)C=C5)C=C4)cc2)[C@@H](C(=O)N2CCN(c3cccc(C(F)(F)F)c3)CC2)C1
REMARK SMILES IDX 11 1 10 2 9 3 7 4 8 5 6 7 1 8 2 9 3 10 99 11 4 12 5 13 80 14
REMARK SMILES IDX 81 15 82 16 83 17 84 18 98 19 85 20 97 21 86 22 87 23 88 24
REMARK SMILES IDX 96 25 89 26 91 27 90 28 92 29 93 30 94 31 95 32 12 33 13 34
REMARK SMILES IDX 14 35 15 36 16 38 17 39 18 40 79 41 19 42 78 43 20 44 21 45
REMARK SMILES IDX 22 46 72 47 23 48 77 49 71 50 73 51 24 52 76 53 70 54 69 55
REMARK SMILES IDX 25 57 57 58 37 59 56 60 38 61 41 62 55 63 74 64 39 65 40 66
REMARK SMILES IDX 54 68 75 69 42 70 26 71 27 72 35 73 28 74 29 75 33 76 36 77
REMARK SMILES IDX 30 78 31 79 34 80 32 81 58 82 59 83 67 84 60 85 61 86 65 87
REMARK SMILES IDX 68 88 62 89 63 90 66 91 64 92 43 93 44 94 52 95 45 96 46 97
REMARK SMILES IDX 50 98 53 99 47 100 48 101 51 102 49 103
REMARK H PARENT 9 6 14 37 73 56 41 67
REMARK Flexibility Score: inf
ROOT
ATOM      1  C   UNL A   1      31.551  30.659  26.602  1.00  0.00     0.023 C 
ENDROOT
BRANCH   1   2
ATOM      2  C   UNL A   1      31.441  30.134  25.185  1.00  0.00     0.116 C 
BRANCH   2   3
ATOM      3  N   UNL A   1      32.704  29.631  24.696  1.00  0.00    -0.356 N 
ATOM      4  C   UNL A   1      33.009  28.759  23.701  1.00  0.00     0.224 C 
ATOM      5  O   UNL A   1      34.207  28.674  23.402  1.00  0.00    -0.275 OA
ATOM      6  H   UNL A   1      33.489  29.987  25.172  1.00  0.00     0.163 HD
BRANCH   4   7
ATOM      7  C   UNL A   1      31.961  27.967  22.898  1.00  0.00     0.095 C 
ATOM      8  C   UNL A   1      27.552  28.353  23.413  1.00  0.00     0.039 C 
ATOM      9  C   UNL A   1      29.018  28.243  23.067  1.00  0.00    -0.074 C 
ATOM     10  C   UNL A   1      29.704  29.144  22.346  1.00  0.00    -0.074 C 
ATOM     11  C   UNL A   1      29.658  27.010  23.631  1.00  0.00     0.045 C 
ATOM     12  C   UNL A   1      29.134  30.457  21.871  1.00  0.00     0.039 C 
ATOM     13  C   UNL A   1      31.154  28.922  21.996  1.00  0.00     0.045 C 
ATOM     14  C   UNL A   1      31.177  26.797  23.579  1.00  0.00     0.095 C 
BRANCH  14  15
ATOM     15  C   UNL A   1      31.806  26.325  24.919  1.00  0.00     0.226 C 
ATOM     16  O   UNL A   1      31.419  26.818  25.982  1.00  0.00    -0.275 OA
ATOM     17  N   UNL A   1      32.787  25.348  24.968  1.00  0.00    -0.339 N 
ATOM     18  C   UNL A   1      32.921  24.582  26.215  1.00  0.00     0.141 C 
ATOM     19  C   UNL A   1      33.862  25.052  23.997  1.00  0.00     0.141 C 
ATOM     20  C   UNL A   1      32.976  23.077  25.917  1.00  0.00     0.138 C 
ATOM     21  C   UNL A   1      33.979  23.529  23.694  1.00  0.00     0.138 C 
ATOM     22  N   UNL A   1      34.045  22.781  24.958  1.00  0.00    -0.368 N 
BRANCH  22  23
ATOM     23  C   UNL A   1      34.422  21.444  24.958  1.00  0.00     0.037 A 
ATOM     24  C   UNL A   1      35.733  21.009  25.184  1.00  0.00     0.026 A 
ATOM     25  C   UNL A   1      33.471  20.514  24.532  1.00  0.00     0.039 A 
ATOM     26  C   UNL A   1      36.088  19.676  24.952  1.00  0.00     0.003 A 
ATOM     27  C   UNL A   1      33.812  19.181  24.278  1.00  0.00     0.058 A 
ATOM     28  C   UNL A   1      35.134  18.767  24.492  1.00  0.00     0.013 A 
BRANCH  27  29
ATOM     29  C   UNL A   1      32.781  18.230  23.730  1.00  0.00     0.416 C 
ATOM     30  F   UNL A   1      33.321  17.033  23.366  1.00  0.00    -0.166 F 
ATOM     31  F   UNL A   1      31.802  17.941  24.631  1.00  0.00    -0.166 F 
ATOM     32  F   UNL A   1      32.141  18.696  22.621  1.00  0.00    -0.166 F 
ENDBRANCH  27  29
ENDBRANCH  22  23
ENDBRANCH  14  15
ENDBRANCH   4   7
ENDBRANCH   2   3
ENDBRANCH   1   2
BRANCH   1  33
ATOM     33  C   UNL A   1      31.413  32.174  26.661  1.00  0.00     0.023 C 
BRANCH  33  34
ATOM     34  C   UNL A   1      32.635  32.857  27.242  1.00  0.00     0.116 C 
BRANCH  34  35
ATOM     35  N   UNL A   1      32.388  34.225  27.695  1.00  0.00    -0.352 N 
ATOM     36  C   UNL A   1      33.008  34.974  28.670  1.00  0.00     0.251 C 
ATOM     37  H   UNL A   1      31.658  34.687  27.225  1.00  0.00     0.163 HD
ATOM     38  O   UNL A   1      32.589  36.090  28.942  1.00  0.00    -0.269 OA
BRANCH  36  39
ATOM     39  C   UNL A   1      34.146  34.402  29.423  1.00  0.00     0.039 A 
ATOM     40  C   UNL A   1      33.891  33.633  30.561  1.00  0.00     0.014 A 
ATOM     41  C   UNL A   1      35.455  34.574  28.977  1.00  0.00     0.014 A 
ATOM     42  C   UNL A   1      34.941  32.956  31.184  1.00  0.00     0.010 A 
ATOM     43  C   UNL A   1      36.463  33.781  29.498  1.00  0.00     0.010 A 
ATOM     44  C   UNL A   1      36.226  32.977  30.621  1.00  0.00    -0.014 A 
BRANCH  44  45
ATOM     45  C   UNL A   1      37.366  32.223  31.199  1.00  0.00     0.031 A 
ATOM     46  C   UNL A   1      37.866  32.594  32.571  1.00  0.00     0.074 A 
ATOM     47  C   UNL A   1      38.007  31.290  30.468  1.00  0.00     0.049 A 
ATOM     48  N   UNL A   1      38.959  32.223  33.187  1.00  0.00    -0.248 NA
ATOM     49  C   UNL A   1      37.054  33.562  33.329  1.00  0.00     0.031 C 
ATOM     50  C   UNL A   1      37.651  30.878  29.109  1.00  0.00     0.029 A 
ATOM     51  N   UNL A   1      39.106  30.524  30.767  1.00  0.00    -0.354 N 
ATOM     52  C   UNL A   1      38.979  32.941  34.376  1.00  0.00     0.074 A 
ATOM     53  C   UNL A   1      37.837  33.826  34.362  1.00  0.00     0.031 C 
ATOM     54  C   UNL A   1      38.492  29.910  28.706  1.00  0.00     0.029 A 
ATOM     55  C   UNL A   1      39.476  29.670  29.756  1.00  0.00     0.049 A 
ATOM     56  H   UNL A   1      39.585  30.583  31.624  1.00  0.00     0.167 HD
ATOM     57  C   UNL A   1      39.849  32.843  35.408  1.00  0.00     0.037 A 
ATOM     58  C   UNL A   1      40.499  28.798  29.689  1.00  0.00     0.037 A 
ATOM     59  C   UNL A   1      40.942  31.912  35.445  1.00  0.00     0.049 A 
ATOM     60  C   UNL A   1      41.436  28.689  30.864  1.00  0.00     0.074 A 
ATOM     61  C   UNL A   1      41.858  31.692  36.457  1.00  0.00     0.029 A 
ATOM     62  N   UNL A   1      41.246  31.022  34.425  1.00  0.00    -0.354 N 
ATOM     63  N   UNL A   1      41.427  29.350  31.996  1.00  0.00    -0.248 NA
ATOM     64  C   UNL A   1      42.524  27.708  30.752  1.00  0.00     0.031 C 
ATOM     65  C   UNL A   1      42.730  30.681  36.042  1.00  0.00     0.029 A 
ATOM     66  C   UNL A   1      42.333  30.246  34.787  1.00  0.00     0.049 A 
ATOM     67  H   UNL A   1      40.760  30.952  33.572  1.00  0.00     0.167 HD
ATOM     68  C   UNL A   1      42.480  28.843  32.744  1.00  0.00     0.074 A 
ATOM     69  C   UNL A   1      43.099  27.807  31.942  1.00  0.00     0.031 C 
ATOM     70  C   UNL A   1      42.904  29.201  33.980  1.00  0.00     0.037 A 
BRANCH  57  71
ATOM     71  C   UNL A   1      39.624  33.740  36.592  1.00  0.00     0.064 A 
ATOM     72  C   UNL A   1      40.187  35.024  36.654  1.00  0.00     0.173 A 
ATOM     73  C   UNL A   1      38.823  33.324  37.665  1.00  0.00     0.173 A 
ATOM     74  F   UNL A   1      40.977  35.464  35.662  1.00  0.00    -0.203 F 
ATOM     75  C   UNL A   1      39.985  35.845  37.760  1.00  0.00     0.198 A 
ATOM     76  C   UNL A   1      38.595  34.161  38.755  1.00  0.00     0.198 A 
ATOM     77  F   UNL A   1      38.258  32.107  37.657  1.00  0.00    -0.203 F 
ATOM     78  F   UNL A   1      40.583  37.042  37.821  1.00  0.00    -0.200 F 
ATOM     79  C   UNL A   1      39.183  35.416  38.805  1.00  0.00     0.200 A 
ATOM     80  F   UNL A   1      37.810  33.749  39.761  1.00  0.00    -0.200 F 
ATOM     81  F   UNL A   1      38.984  36.209  39.867  1.00  0.00    -0.200 F 
ENDBRANCH  57  71
BRANCH  58  82
ATOM     82  C   UNL A   1      40.680  27.934  28.493  1.00  0.00     0.064 A 
ATOM     83  C   UNL A   1      41.443  28.376  27.401  1.00  0.00     0.173 A 
ATOM     84  C   UNL A   1      40.076  26.673  28.394  1.00  0.00     0.173 A 
ATOM     85  F   UNL A   1      42.025  29.584  27.439  1.00  0.00    -0.203 F 
ATOM     86  C   UNL A   1      41.565  27.607  26.246  1.00  0.00     0.198 A 
ATOM     87  C   UNL A   1      40.224  25.891  27.250  1.00  0.00     0.198 A 
ATOM     88  F   UNL A   1      39.342  26.199  29.411  1.00  0.00    -0.203 F 
ATOM     89  F   UNL A   1      42.249  28.084  25.197  1.00  0.00    -0.200 F 
ATOM     90  C   UNL A   1      40.958  26.364  26.172  1.00  0.00     0.200 A 
ATOM     91  F   UNL A   1      39.645  24.683  27.187  1.00  0.00    -0.200 F 
ATOM     92  F   UNL A   1      41.069  25.627  25.058  1.00  0.00    -0.200 F 
ENDBRANCH  58  82
BRANCH  70  93
ATOM     93  C   UNL A   1      44.051  28.429  34.561  1.00  0.00     0.064 A 
ATOM     94  C   UNL A   1      43.849  27.246  35.284  1.00  0.00     0.173 A 
ATOM     95  C   UNL A   1      45.369  28.858  34.349  1.00  0.00     0.173 A 
ATOM     96  F   UNL A   1      42.604  26.805  35.524  1.00  0.00    -0.203 F 
ATOM     97  C   UNL A   1      44.927  26.532  35.798  1.00  0.00     0.198 A 
ATOM     98  C   UNL A   1      46.446  28.126  34.838  1.00  0.00     0.198 A 
ATOM     99  F   UNL A   1      45.613  29.980  33.654  1.00  0.00    -0.203 F 
ATOM    100  F   UNL A   1      44.711  25.427  36.525  1.00  0.00    -0.200 F 
ATOM    101  C   UNL A   1      46.224  26.968  35.568  1.00  0.00     0.200 A 
ATOM    102  F   UNL A   1      47.699  28.540  34.604  1.00  0.00    -0.200 F 
ATOM    103  F   UNL A   1      47.261  26.274  36.056  1.00  0.00    -0.200 F 
ENDBRANCH  70  93
ENDBRANCH  44  45
ENDBRANCH  36  39
ENDBRANCH  34  35
ENDBRANCH  33  34
ENDBRANCH   1  33
TORSDOF 14
ENDMDL
MODEL 3
REMARK VINA RESULT:     -14.3      1.094      7.045
REMARK SMILES CC1=C(C)C[C@@H](C(=O)NCCCCNC(=O)c2ccc(-c3c4nc(c(-c5c(F)c(F)c(F)c(F)c5F)c5ccc([nH]5)c(-c5c(F)c(F)c(F)c(F)c5F)c5nc(c(-c6c(F)c(F)c(F)c(F)c6F)c6ccc3[nH]6)C=C5)C=C4)cc2)[C@@H](C(=O)N2CCN(c3cccc(C(F)(F)F)c3)CC2)C1
REMARK SMILES IDX 11 1 10 2 9 3 7 4 8 5 6 7 1 8 2 9 3 10 99 11 4 12 5 13 80 14
REMARK SMILES IDX 81 15 82 16 83 17 84 18 98 19 85 20 97 21 86 22 87 23 88 24
REMARK SMILES IDX 96 25 89 26 91 27 90 28 92 29 93 30 94 31 95 32 12 33 13 34
REMARK SMILES IDX 14 35 15 36 16 38 17 39 18 40 79 41 19 42 78 43 20 44 21 45
REMARK SMILES IDX 22 46 72 47 23 48 77 49 71 50 73 51 24 52 76 53 70 54 69 55
REMARK SMILES IDX 25 57 57 58 37 59 56 60 38 61 41 62 55 63 74 64 39 65 40 66
REMARK SMILES IDX 54 68 75 69 42 70 26 71 27 72 35 73 28 74 29 75 33 76 36 77
REMARK SMILES IDX 30 78 31 79 34 80 32 81 58 82 59 83 67 84 60 85 61 86 65 87
REMARK SMILES IDX 68 88 62 89 63 90 66 91 64 92 43 93 44 94 52 95 45 96 46 97
REMARK SMILES IDX 50 98 53 99 47 100 48 101 51 102 49 103
REMARK H PARENT 9 6 14 37 73 56 41 67
REMARK Flexibility Score: inf
ROOT
ATOM      1  C   UNL A   1      31.572  30.299  26.691  1.00  0.00     0.023 C 
ENDROOT
BRANCH   1   2
ATOM      2  C   UNL A   1      31.522  30.067  25.194  1.00  0.00     0.116 C 
BRANCH   2   3
ATOM      3  N   UNL A   1      32.780  29.578  24.680  1.00  0.00    -0.356 N 
ATOM      4  C   UNL A   1      33.075  28.723  23.668  1.00  0.00     0.224 C 
ATOM      5  O   UNL A   1      34.269  28.648  23.352  1.00  0.00    -0.275 OA
ATOM      6  H   UNL A   1      33.569  29.929  25.153  1.00  0.00     0.163 HD
BRANCH   4   7
ATOM      7  C   UNL A   1      32.020  27.940  22.865  1.00  0.00     0.095 C 
ATOM      8  C   UNL A   1      27.615  28.405  23.344  1.00  0.00     0.039 C 
ATOM      9  C   UNL A   1      29.081  28.267  23.010  1.00  0.00    -0.074 C 
ATOM     10  C   UNL A   1      29.787  29.149  22.284  1.00  0.00    -0.074 C 
ATOM     11  C   UNL A   1      29.696  27.030  23.591  1.00  0.00     0.045 C 
ATOM     12  C   UNL A   1      29.243  30.466  21.792  1.00  0.00     0.039 C 
ATOM     13  C   UNL A   1      31.236  28.899  21.947  1.00  0.00     0.045 C 
ATOM     14  C   UNL A   1      31.212  26.791  23.553  1.00  0.00     0.095 C 
BRANCH  14  15
ATOM     15  C   UNL A   1      31.823  26.323  24.902  1.00  0.00     0.226 C 
ATOM     16  O   UNL A   1      31.421  26.817  25.959  1.00  0.00    -0.275 OA
ATOM     17  N   UNL A   1      32.805  25.348  24.966  1.00  0.00    -0.339 N 
ATOM     18  C   UNL A   1      32.923  24.584  26.216  1.00  0.00     0.141 C 
ATOM     19  C   UNL A   1      33.894  25.052  24.011  1.00  0.00     0.141 C 
ATOM     20  C   UNL A   1      32.985  23.079  25.923  1.00  0.00     0.138 C 
ATOM     21  C   UNL A   1      34.017  23.528  23.712  1.00  0.00     0.138 C 
ATOM     22  N   UNL A   1      34.068  22.782  24.978  1.00  0.00    -0.368 N 
BRANCH  22  23
ATOM     23  C   UNL A   1      34.446  21.447  24.987  1.00  0.00     0.037 A 
ATOM     24  C   UNL A   1      35.768  21.017  25.161  1.00  0.00     0.026 A 
ATOM     25  C   UNL A   1      33.480  20.507  24.622  1.00  0.00     0.039 A 
ATOM     26  C   UNL A   1      36.114  19.680  24.938  1.00  0.00     0.003 A 
ATOM     27  C   UNL A   1      33.811  19.170  24.377  1.00  0.00     0.058 A 
ATOM     28  C   UNL A   1      35.142  18.762  24.539  1.00  0.00     0.013 A 
BRANCH  27  29
ATOM     29  C   UNL A   1      32.758  18.207  23.896  1.00  0.00     0.416 C 
ATOM     30  F   UNL A   1      31.939  18.762  22.958  1.00  0.00    -0.166 F 
ATOM     31  F   UNL A   1      33.287  17.094  23.320  1.00  0.00    -0.166 F 
ATOM     32  F   UNL A   1      31.933  17.760  24.884  1.00  0.00    -0.166 F 
ENDBRANCH  27  29
ENDBRANCH  22  23
ENDBRANCH  14  15
ENDBRANCH   4   7
ENDBRANCH   2   3
ENDBRANCH   1   2
BRANCH   1  33
ATOM     33  C   UNL A   1      31.258  31.743  27.054  1.00  0.00     0.023 C 
BRANCH  33  34
ATOM     34  C   UNL A   1      32.383  32.698  26.706  1.00  0.00     0.116 C 
BRANCH  34  35
ATOM     35  N   UNL A   1      32.361  33.943  27.473  1.00  0.00    -0.352 N 
ATOM     36  C   UNL A   1      33.208  34.410  28.453  1.00  0.00     0.251 C 
ATOM     37  H   UNL A   1      31.616  34.548  27.252  1.00  0.00     0.163 HD
ATOM     38  O   UNL A   1      32.960  35.462  29.024  1.00  0.00    -0.269 OA
BRANCH  36  39
ATOM     39  C   UNL A   1      34.387  33.608  28.847  1.00  0.00     0.039 A 
ATOM     40  C   UNL A   1      35.655  34.193  28.798  1.00  0.00     0.014 A 
ATOM     41  C   UNL A   1      34.238  32.305  29.316  1.00  0.00     0.014 A 
ATOM     42  C   UNL A   1      36.752  33.503  29.319  1.00  0.00     0.010 A 
ATOM     43  C   UNL A   1      35.292  31.690  29.971  1.00  0.00     0.010 A 
ATOM     44  C   UNL A   1      36.568  32.270  29.963  1.00  0.00    -0.014 A 
BRANCH  44  45
ATOM     45  C   UNL A   1      37.683  31.523  30.596  1.00  0.00     0.031 A 
ATOM     46  C   UNL A   1      38.061  31.844  32.019  1.00  0.00     0.074 A 
ATOM     47  C   UNL A   1      38.410  30.645  29.878  1.00  0.00     0.049 A 
ATOM     48  N   UNL A   1      39.114  31.477  32.704  1.00  0.00    -0.248 NA
ATOM     49  C   UNL A   1      37.160  32.751  32.752  1.00  0.00     0.031 C 
ATOM     50  C   UNL A   1      38.176  30.287  28.478  1.00  0.00     0.029 A 
ATOM     51  N   UNL A   1      39.507  29.899  30.229  1.00  0.00    -0.354 N 
ATOM     52  C   UNL A   1      39.017  32.139  33.921  1.00  0.00     0.074 A 
ATOM     53  C   UNL A   1      37.850  32.989  33.855  1.00  0.00     0.031 C 
ATOM     54  C   UNL A   1      39.078  29.364  28.101  1.00  0.00     0.029 A 
ATOM     55  C   UNL A   1      39.983  29.104  29.214  1.00  0.00     0.049 A 
ATOM     56  H   UNL A   1      39.915  29.932  31.124  1.00  0.00     0.167 HD
ATOM     57  C   UNL A   1      39.806  32.018  35.014  1.00  0.00     0.037 A 
ATOM     58  C   UNL A   1      41.037  28.268  29.191  1.00  0.00     0.037 A 
ATOM     59  C   UNL A   1      40.923  31.119  35.097  1.00  0.00     0.049 A 
ATOM     60  C   UNL A   1      41.882  28.131  30.431  1.00  0.00     0.074 A 
ATOM     61  C   UNL A   1      41.764  30.880  36.168  1.00  0.00     0.029 A 
ATOM     62  N   UNL A   1      41.335  30.287  34.065  1.00  0.00    -0.354 N 
ATOM     63  N   UNL A   1      41.762  28.738  31.586  1.00  0.00    -0.248 NA
ATOM     64  C   UNL A   1      43.008  27.190  30.363  1.00  0.00     0.031 C 
ATOM     65  C   UNL A   1      42.699  29.915  35.779  1.00  0.00     0.029 A 
ATOM     66  C   UNL A   1      42.416  29.528  34.479  1.00  0.00     0.049 A 
ATOM     67  H   UNL A   1      40.921  30.244  33.174  1.00  0.00     0.167 HD
ATOM     68  C   UNL A   1      42.770  28.227  32.393  1.00  0.00     0.074 A 
ATOM     69  C   UNL A   1      43.484  27.250  31.598  1.00  0.00     0.031 C 
ATOM     70  C   UNL A   1      43.083  28.539  33.674  1.00  0.00     0.037 A 
BRANCH  57  71
ATOM     71  C   UNL A   1      39.459  32.851  36.215  1.00  0.00     0.064 A 
ATOM     72  C   UNL A   1      38.512  32.419  37.156  1.00  0.00     0.173 A 
ATOM     73  C   UNL A   1      40.090  34.083  36.439  1.00  0.00     0.173 A 
ATOM     74  F   UNL A   1      37.865  31.256  36.979  1.00  0.00    -0.203 F 
ATOM     75  C   UNL A   1      38.186  33.202  38.260  1.00  0.00     0.198 A 
ATOM     76  C   UNL A   1      39.787  34.849  37.563  1.00  0.00     0.198 A 
ATOM     77  F   UNL A   1      41.005  34.544  35.573  1.00  0.00    -0.203 F 
ATOM     78  F   UNL A   1      37.236  32.794  39.111  1.00  0.00    -0.200 F 
ATOM     79  C   UNL A   1      38.829  34.412  38.466  1.00  0.00     0.200 A 
ATOM     80  F   UNL A   1      40.417  36.014  37.768  1.00  0.00    -0.200 F 
ATOM     81  F   UNL A   1      38.519  35.163  39.532  1.00  0.00    -0.200 F 
ENDBRANCH  57  71
BRANCH  58  82
ATOM     82  C   UNL A   1      41.340  27.467  27.975  1.00  0.00     0.064 A 
ATOM     83  C   UNL A   1      40.834  26.166  27.832  1.00  0.00     0.173 A 
ATOM     84  C   UNL A   1      42.160  27.960  26.951  1.00  0.00     0.173 A 
ATOM     85  F   UNL A   1      40.061  25.641  28.794  1.00  0.00    -0.203 F 
ATOM     86  C   UNL A   1      41.164  25.379  26.732  1.00  0.00     0.198 A 
ATOM     87  C   UNL A   1      42.466  27.183  25.835  1.00  0.00     0.198 A 
ATOM     88  F   UNL A   1      42.665  29.200  27.033  1.00  0.00    -0.203 F 
ATOM     89  F   UNL A   1      40.715  24.119  26.654  1.00  0.00    -0.200 F 
ATOM     90  C   UNL A   1      41.978  25.889  25.732  1.00  0.00     0.200 A 
ATOM     91  F   UNL A   1      43.243  27.684  24.865  1.00  0.00    -0.200 F 
ATOM     92  F   UNL A   1      42.302  25.129  24.677  1.00  0.00    -0.200 F 
ENDBRANCH  58  82
BRANCH  70  93
ATOM     93  C   UNL A   1      44.205  27.775  34.310  1.00  0.00     0.064 A 
ATOM     94  C   UNL A   1      45.521  28.258  34.302  1.00  0.00     0.173 A 
ATOM     95  C   UNL A   1      43.948  26.568  34.975  1.00  0.00     0.173 A 
ATOM     96  F   UNL A   1      45.817  29.402  33.665  1.00  0.00    -0.203 F 
ATOM     97  C   UNL A   1      46.545  27.545  34.916  1.00  0.00     0.198 A 
ATOM     98  C   UNL A   1      44.969  25.872  35.614  1.00  0.00     0.198 A 
ATOM     99  F   UNL A   1      42.702  26.071  35.018  1.00  0.00    -0.203 F 
ATOM    100  F   UNL A   1      47.805  28.000  34.859  1.00  0.00    -0.200 F 
ATOM    101  C   UNL A   1      46.268  26.357  35.578  1.00  0.00     0.200 A 
ATOM    102  F   UNL A   1      44.698  24.733  36.265  1.00  0.00    -0.200 F 
ATOM    103  F   UNL A   1      47.255  25.677  36.176  1.00  0.00    -0.200 F 
ENDBRANCH  70  93
ENDBRANCH  44  45
ENDBRANCH  36  39
ENDBRANCH  34  35
ENDBRANCH  33  34
ENDBRANCH   1  33
TORSDOF 14
ENDMDL
