MODEL 1
REMARK VINA RESULT:     -13.4      0.000      0.000
REMARK SMILES CO[C@@H]1C[NH2+][C@@H](O[C@@H]2C[C@@H](C(=O)NCCCCNC(=O)c3ccc(-c4c5nc(c(-c6c(F)c(F)c(F)c(F)c6F)c6ccc([nH]6)c(-c6c(F)c(F)c(F)c(F)c6F)c6nc(c(-c7c(F)c(F)c(F)c(F)c7F)c7ccc4[nH]7)C=C6)C=C5)cc3)N(C(=O)OC(C)(C)C)C2)c2cc(Cl)ccc21
REMARK SMILES IDX 15 1 14 2 13 3 11 4 12 5 10 7 8 8 9 9 92 10 84 11 7 12 6 13
REMARK SMILES IDX 3 14 4 15 99 16 5 17 93 18 98 19 94 22 97 23 95 24 96 25
REMARK SMILES IDX 2 26 1 27 85 28 86 29 87 30 88 31 89 32 90 33 91 34 16 35
REMARK SMILES IDX 17 36 18 37 19 38 20 40 21 41 22 42 83 43 23 44 82 45 24 46
REMARK SMILES IDX 25 47 26 48 76 49 27 50 81 51 75 52 77 53 28 54 80 55 74 56
REMARK SMILES IDX 73 57 29 59 61 60 41 61 60 62 42 63 45 64 59 65 78 66 43 67
REMARK SMILES IDX 44 68 58 70 79 71 46 72 30 73 31 74 39 75 32 76 33 77 37 78
REMARK SMILES IDX 40 79 34 80 35 81 38 82 36 83 62 84 63 85 71 86 64 87 65 88
REMARK SMILES IDX 69 89 72 90 66 91 67 92 70 93 68 94 47 95 48 96 56 97 49 98
REMARK SMILES IDX 50 99 54 100 57 101 51 102 52 103 55 104 53 105
REMARK H PARENT 13 6 5 20 5 21 18 39 77 58 45 69
REMARK Flexibility Score: inf
ROOT
ATOM      1  C   UNL A   1      31.640  30.656  26.755  1.00  0.00     0.023 C 
ENDROOT
BRANCH   1   2
ATOM      2  C   UNL A   1      32.727  29.873  26.013  1.00  0.00     0.116 C 
BRANCH   2   3
ATOM      3  N   UNL A   1      32.859  28.539  26.571  1.00  0.00    -0.354 N 
ATOM      4  C   UNL A   1      32.065  27.475  26.209  1.00  0.00     0.243 C 
ATOM      5  O   UNL A   1      31.392  26.927  27.081  1.00  0.00    -0.273 OA
ATOM      6  H   UNL A   1      33.558  28.387  27.248  1.00  0.00     0.163 HD
BRANCH   4   7
ATOM      7  C   UNL A   1      32.248  26.936  24.782  1.00  0.00     0.180 C 
ATOM      8  C   UNL A   1      33.550  26.803  22.769  1.00  0.00     0.147 C 
ATOM      9  C   UNL A   1      33.686  26.845  24.283  1.00  0.00     0.069 C 
ATOM     10  C   UNL A   1      32.340  27.702  22.498  1.00  0.00     0.156 C 
ATOM     11  N   UNL A   1      31.546  27.644  23.714  1.00  0.00    -0.293 N 
BRANCH   8  12
ATOM     12  O   UNL A   1      33.615  25.529  22.136  1.00  0.00    -0.320 OA
BRANCH  12  13
ATOM     13  C   UNL A   1      33.395  24.220  22.653  1.00  0.00     0.354 C 
ATOM     14  C   UNL A   1      31.680  23.494  24.960  1.00  0.00     0.203 C 
ATOM     15  C   UNL A   1      31.151  23.956  23.574  1.00  0.00     0.300 C 
ATOM     16  C   UNL A   1      33.197  23.432  25.071  1.00  0.00    -0.002 A 
ATOM     17  N   UNL A   1      32.039  23.737  22.438  1.00  0.00    -0.315 N 
ATOM     18  C   UNL A   1      34.009  23.796  23.975  1.00  0.00     0.046 A 
ATOM     19  C   UNL A   1      33.794  23.136  26.310  1.00  0.00     0.009 A 
ATOM     20  H   UNL A   1      31.650  24.219  21.628  1.00  0.00     0.349 HD
ATOM     21  H   UNL A   1      32.102  22.729  22.300  1.00  0.00     0.349 HD
ATOM     22  C   UNL A   1      35.409  23.746  24.119  1.00  0.00     0.033 A 
ATOM     23  C   UNL A   1      35.181  23.143  26.451  1.00  0.00     0.021 A 
ATOM     24  C   UNL A   1      35.983  23.425  25.350  1.00  0.00     0.041 A 
ATOM     25  Cl  UNL A   1      37.695  23.424  25.520  1.00  0.00    -0.084 Cl
BRANCH  14  26
ATOM     26  O   UNL A   1      31.031  22.339  25.496  1.00  0.00    -0.371 OA
ATOM     27  C   UNL A   1      30.098  22.587  26.533  1.00  0.00     0.196 C 
ENDBRANCH  14  26
ENDBRANCH  12  13
ENDBRANCH   8  12
BRANCH  11  28
ATOM     28  C   UNL A   1      30.184  27.876  23.670  1.00  0.00     0.411 C 
ATOM     29  O   UNL A   1      29.362  26.995  23.492  1.00  0.00    -0.224 OA
BRANCH  28  30
ATOM     30  O   UNL A   1      29.890  29.170  23.953  1.00  0.00    -0.444 OA
BRANCH  30  31
ATOM     31  C   UNL A   1      29.031  29.970  23.100  1.00  0.00     0.106 C 
ATOM     32  C   UNL A   1      29.631  30.127  21.701  1.00  0.00     0.056 C 
ATOM     33  C   UNL A   1      27.603  29.412  23.047  1.00  0.00     0.056 C 
ATOM     34  C   UNL A   1      28.992  31.346  23.781  1.00  0.00     0.056 C 
ENDBRANCH  30  31
ENDBRANCH  28  30
ENDBRANCH  11  28
ENDBRANCH   4   7
ENDBRANCH   2   3
ENDBRANCH   1   2
BRANCH   1  35
ATOM     35  C   UNL A   1      31.737  32.170  26.553  1.00  0.00     0.023 C 
BRANCH  35  36
ATOM     36  C   UNL A   1      32.721  32.858  27.486  1.00  0.00     0.116 C 
BRANCH  36  37
ATOM     37  N   UNL A   1      32.401  34.263  27.686  1.00  0.00    -0.352 N 
ATOM     38  C   UNL A   1      32.930  35.136  28.607  1.00  0.00     0.251 C 
ATOM     39  H   UNL A   1      31.718  34.636  27.084  1.00  0.00     0.163 HD
ATOM     40  O   UNL A   1      32.431  36.240  28.786  1.00  0.00    -0.269 OA
BRANCH  38  41
ATOM     41  C   UNL A   1      34.091  34.700  29.411  1.00  0.00     0.039 A 
ATOM     42  C   UNL A   1      35.363  34.658  28.835  1.00  0.00     0.014 A 
ATOM     43  C   UNL A   1      33.889  34.249  30.716  1.00  0.00     0.014 A 
ATOM     44  C   UNL A   1      36.387  33.987  29.490  1.00  0.00     0.010 A 
ATOM     45  C   UNL A   1      34.950  33.666  31.413  1.00  0.00     0.010 A 
ATOM     46  C   UNL A   1      36.192  33.475  30.785  1.00  0.00    -0.014 A 
BRANCH  46  47
ATOM     47  C   UNL A   1      37.294  32.731  31.449  1.00  0.00     0.031 A 
ATOM     48  C   UNL A   1      37.975  31.580  30.756  1.00  0.00     0.074 A 
ATOM     49  C   UNL A   1      37.717  33.131  32.664  1.00  0.00     0.049 A 
ATOM     50  N   UNL A   1      38.948  30.816  31.189  1.00  0.00    -0.248 NA
ATOM     51  C   UNL A   1      37.505  31.234  29.405  1.00  0.00     0.031 C 
ATOM     52  C   UNL A   1      37.147  34.240  33.430  1.00  0.00     0.029 A 
ATOM     53  N   UNL A   1      38.734  32.666  33.459  1.00  0.00    -0.354 N 
ATOM     54  C   UNL A   1      39.189  29.892  30.179  1.00  0.00     0.074 A 
ATOM     55  C   UNL A   1      38.242  30.170  29.119  1.00  0.00     0.031 C 
ATOM     56  C   UNL A   1      37.848  34.399  34.562  1.00  0.00     0.029 A 
ATOM     57  C   UNL A   1      38.869  33.360  34.637  1.00  0.00     0.049 A 
ATOM     58  H   UNL A   1      39.312  31.908  33.210  1.00  0.00     0.167 HD
ATOM     59  C   UNL A   1      40.124  28.914  30.135  1.00  0.00     0.037 A 
ATOM     60  C   UNL A   1      39.704  33.168  35.676  1.00  0.00     0.037 A 
ATOM     61  C   UNL A   1      41.088  28.666  31.177  1.00  0.00     0.049 A 
ATOM     62  C   UNL A   1      40.703  32.047  35.617  1.00  0.00     0.074 A 
ATOM     63  C   UNL A   1      42.101  27.722  31.201  1.00  0.00     0.029 A 
ATOM     64  N   UNL A   1      41.161  29.363  32.372  1.00  0.00    -0.354 N 
ATOM     65  N   UNL A   1      40.932  31.198  34.646  1.00  0.00    -0.248 NA
ATOM     66  C   UNL A   1      41.555  31.855  36.797  1.00  0.00     0.031 C 
ATOM     67  C   UNL A   1      42.750  27.810  32.435  1.00  0.00     0.029 A 
ATOM     68  C   UNL A   1      42.183  28.848  33.155  1.00  0.00     0.049 A 
ATOM     69  H   UNL A   1      40.575  30.112  32.628  1.00  0.00     0.167 HD
ATOM     70  C   UNL A   1      41.962  30.381  35.091  1.00  0.00     0.074 A 
ATOM     71  C   UNL A   1      42.331  30.853  36.409  1.00  0.00     0.031 C 
ATOM     72  C   UNL A   1      42.543  29.328  34.465  1.00  0.00     0.037 A 
BRANCH  59  73
ATOM     73  C   UNL A   1      40.167  28.022  28.927  1.00  0.00     0.064 A 
ATOM     74  C   UNL A   1      40.910  28.359  27.787  1.00  0.00     0.173 A 
ATOM     75  C   UNL A   1      39.546  26.762  28.956  1.00  0.00     0.173 A 
ATOM     76  F   UNL A   1      41.516  29.554  27.706  1.00  0.00    -0.203 F 
ATOM     77  C   UNL A   1      41.027  27.472  26.720  1.00  0.00     0.198 A 
ATOM     78  C   UNL A   1      39.687  25.867  27.900  1.00  0.00     0.198 A 
ATOM     79  F   UNL A   1      38.830  26.386  30.027  1.00  0.00    -0.203 F 
ATOM     80  F   UNL A   1      41.724  27.824  25.632  1.00  0.00    -0.200 F 
ATOM     81  C   UNL A   1      40.426  26.223  26.782  1.00  0.00     0.200 A 
ATOM     82  F   UNL A   1      39.122  24.654  27.970  1.00  0.00    -0.200 F 
ATOM     83  F   UNL A   1      40.563  25.361  25.765  1.00  0.00    -0.200 F 
ENDBRANCH  59  73
BRANCH  60  84
ATOM     84  C   UNL A   1      39.612  34.057  36.865  1.00  0.00     0.064 A 
ATOM     85  C   UNL A   1      38.840  33.699  37.977  1.00  0.00     0.173 A 
ATOM     86  C   UNL A   1      40.311  35.273  36.919  1.00  0.00     0.173 A 
ATOM     87  F   UNL A   1      38.139  32.556  37.966  1.00  0.00    -0.203 F 
ATOM     88  C   UNL A   1      38.762  34.528  39.095  1.00  0.00     0.198 A 
ATOM     89  C   UNL A   1      40.259  36.084  38.049  1.00  0.00     0.198 A 
ATOM     90  F   UNL A   1      41.067  35.661  35.881  1.00  0.00    -0.203 F 
ATOM     91  F   UNL A   1      37.985  34.182  40.130  1.00  0.00    -0.200 F 
ATOM     92  C   UNL A   1      39.478  35.715  39.133  1.00  0.00     0.200 A 
ATOM     93  F   UNL A   1      40.969  37.220  38.089  1.00  0.00    -0.200 F 
ATOM     94  F   UNL A   1      39.415  36.505  40.214  1.00  0.00    -0.200 F 
ENDBRANCH  60  84
BRANCH  72  95
ATOM     95  C   UNL A   1      43.652  28.617  35.184  1.00  0.00     0.064 A 
ATOM     96  C   UNL A   1      43.393  27.551  36.057  1.00  0.00     0.173 A 
ATOM     97  C   UNL A   1      44.992  28.954  34.939  1.00  0.00     0.173 A 
ATOM     98  F   UNL A   1      42.128  27.198  36.334  1.00  0.00    -0.203 F 
ATOM     99  C   UNL A   1      44.433  26.859  36.671  1.00  0.00     0.198 A 
ATOM    100  C   UNL A   1      46.031  28.240  35.529  1.00  0.00     0.198 A 
ATOM    101  F   UNL A   1      45.295  29.961  34.106  1.00  0.00    -0.203 F 
ATOM    102  F   UNL A   1      44.161  25.868  37.531  1.00  0.00    -0.200 F 
ATOM    103  C   UNL A   1      45.750  27.196  36.397  1.00  0.00     0.200 A 
ATOM    104  F   UNL A   1      47.302  28.556  35.249  1.00  0.00    -0.200 F 
ATOM    105  F   UNL A   1      46.751  26.516  36.974  1.00  0.00    -0.200 F 
ENDBRANCH  72  95
ENDBRANCH  46  47
ENDBRANCH  38  41
ENDBRANCH  36  37
ENDBRANCH  35  36
ENDBRANCH   1  35
TORSDOF 17
ENDMDL
MODEL 2
REMARK VINA RESULT:     -13.3      0.162      7.014
REMARK SMILES CO[C@@H]1C[NH2+][C@@H](O[C@@H]2C[C@@H](C(=O)NCCCCNC(=O)c3ccc(-c4c5nc(c(-c6c(F)c(F)c(F)c(F)c6F)c6ccc([nH]6)c(-c6c(F)c(F)c(F)c(F)c6F)c6nc(c(-c7c(F)c(F)c(F)c(F)c7F)c7ccc4[nH]7)C=C6)C=C5)cc3)N(C(=O)OC(C)(C)C)C2)c2cc(Cl)ccc21
REMARK SMILES IDX 15 1 14 2 13 3 11 4 12 5 10 7 8 8 9 9 92 10 84 11 7 12 6 13
REMARK SMILES IDX 3 14 4 15 99 16 5 17 93 18 98 19 94 22 97 23 95 24 96 25
REMARK SMILES IDX 2 26 1 27 85 28 86 29 87 30 88 31 89 32 90 33 91 34 16 35
REMARK SMILES IDX 17 36 18 37 19 38 20 40 21 41 22 42 83 43 23 44 82 45 24 46
REMARK SMILES IDX 25 47 26 48 76 49 27 50 81 51 75 52 77 53 28 54 80 55 74 56
REMARK SMILES IDX 73 57 29 59 61 60 41 61 60 62 42 63 45 64 59 65 78 66 43 67
REMARK SMILES IDX 44 68 58 70 79 71 46 72 30 73 31 74 39 75 32 76 33 77 37 78
REMARK SMILES IDX 40 79 34 80 35 81 38 82 36 83 62 84 63 85 71 86 64 87 65 88
REMARK SMILES IDX 69 89 72 90 66 91 67 92 70 93 68 94 47 95 48 96 56 97 49 98
REMARK SMILES IDX 50 99 54 100 57 101 51 102 52 103 55 104 53 105
REMARK H PARENT 13 6 5 20 5 21 18 39 77 58 45 69
REMARK Flexibility Score: inf
ROOT
ATOM      1  C   UNL A   1      31.668  30.608  26.728  1.00  0.00     0.023 C 
ENDROOT
BRANCH   1   2
ATOM      2  C   UNL A   1      32.744  29.822  25.974  1.00  0.00     0.116 C 
BRANCH   2   3
ATOM      3  N   UNL A   1      32.894  28.495  26.542  1.00  0.00    -0.354 N 
ATOM      4  C   UNL A   1      32.098  27.423  26.206  1.00  0.00     0.243 C 
ATOM      5  O   UNL A   1      31.445  26.881  27.096  1.00  0.00    -0.273 OA
ATOM      6  H   UNL A   1      33.606  28.353  27.207  1.00  0.00     0.163 HD
BRANCH   4   7
ATOM      7  C   UNL A   1      32.257  26.872  24.782  1.00  0.00     0.180 C 
ATOM      8  C   UNL A   1      33.533  26.705  22.754  1.00  0.00     0.147 C 
ATOM      9  C   UNL A   1      33.687  26.756  24.267  1.00  0.00     0.069 C 
ATOM     10  C   UNL A   1      32.332  27.619  22.491  1.00  0.00     0.156 C 
ATOM     11  N   UNL A   1      31.552  27.581  23.716  1.00  0.00    -0.293 N 
BRANCH   8  12
ATOM     12  O   UNL A   1      33.572  25.425  22.130  1.00  0.00    -0.320 OA
BRANCH  12  13
ATOM     13  C   UNL A   1      33.358  24.122  22.665  1.00  0.00     0.354 C 
ATOM     14  C   UNL A   1      31.741  23.431  25.052  1.00  0.00     0.203 C 
ATOM     15  C   UNL A   1      31.155  23.892  23.688  1.00  0.00     0.300 C 
ATOM     16  C   UNL A   1      33.260  23.349  25.094  1.00  0.00    -0.002 A 
ATOM     17  N   UNL A   1      31.988  23.655  22.515  1.00  0.00    -0.315 N 
ATOM     18  C   UNL A   1      34.027  23.697  23.960  1.00  0.00     0.046 A 
ATOM     19  C   UNL A   1      33.909  23.052  26.306  1.00  0.00     0.009 A 
ATOM     20  H   UNL A   1      31.569  24.138  21.720  1.00  0.00     0.349 HD
ATOM     21  H   UNL A   1      32.032  22.646  22.379  1.00  0.00     0.349 HD
ATOM     22  C   UNL A   1      35.431  23.629  24.041  1.00  0.00     0.033 A 
ATOM     23  C   UNL A   1      35.301  23.041  26.385  1.00  0.00     0.021 A 
ATOM     24  C   UNL A   1      36.056  23.307  25.246  1.00  0.00     0.041 A 
ATOM     25  Cl  UNL A   1      37.773  23.284  25.339  1.00  0.00    -0.084 Cl
BRANCH  14  26
ATOM     26  O   UNL A   1      31.102  22.287  25.623  1.00  0.00    -0.371 OA
ATOM     27  C   UNL A   1      30.035  22.563  26.512  1.00  0.00     0.196 C 
ENDBRANCH  14  26
ENDBRANCH  12  13
ENDBRANCH   8  12
BRANCH  11  28
ATOM     28  C   UNL A   1      30.192  27.832  23.687  1.00  0.00     0.411 C 
ATOM     29  O   UNL A   1      29.356  26.959  23.546  1.00  0.00    -0.224 OA
BRANCH  28  30
ATOM     30  O   UNL A   1      29.922  29.138  23.937  1.00  0.00    -0.444 OA
BRANCH  30  31
ATOM     31  C   UNL A   1      29.055  29.923  23.080  1.00  0.00     0.106 C 
ATOM     32  C   UNL A   1      29.658  30.091  21.684  1.00  0.00     0.056 C 
ATOM     33  C   UNL A   1      27.636  29.343  23.021  1.00  0.00     0.056 C 
ATOM     34  C   UNL A   1      28.990  31.299  23.762  1.00  0.00     0.056 C 
ENDBRANCH  30  31
ENDBRANCH  28  30
ENDBRANCH  11  28
ENDBRANCH   4   7
ENDBRANCH   2   3
ENDBRANCH   1   2
BRANCH   1  35
ATOM     35  C   UNL A   1      31.764  32.122  26.524  1.00  0.00     0.023 C 
BRANCH  35  36
ATOM     36  C   UNL A   1      32.736  32.814  27.467  1.00  0.00     0.116 C 
BRANCH  36  37
ATOM     37  N   UNL A   1      32.402  34.215  27.671  1.00  0.00    -0.352 N 
ATOM     38  C   UNL A   1      32.937  35.096  28.581  1.00  0.00     0.251 C 
ATOM     39  H   UNL A   1      31.704  34.579  27.081  1.00  0.00     0.163 HD
ATOM     40  O   UNL A   1      32.427  36.194  28.768  1.00  0.00    -0.269 OA
BRANCH  38  41
ATOM     41  C   UNL A   1      34.118  34.675  29.364  1.00  0.00     0.039 A 
ATOM     42  C   UNL A   1      35.389  34.709  28.784  1.00  0.00     0.014 A 
ATOM     43  C   UNL A   1      33.939  34.164  30.650  1.00  0.00     0.014 A 
ATOM     44  C   UNL A   1      36.441  34.055  29.409  1.00  0.00     0.010 A 
ATOM     45  C   UNL A   1      35.026  33.596  31.320  1.00  0.00     0.010 A 
ATOM     46  C   UNL A   1      36.273  33.483  30.682  1.00  0.00    -0.014 A 
BRANCH  46  47
ATOM     47  C   UNL A   1      37.407  32.758  31.313  1.00  0.00     0.031 A 
ATOM     48  C   UNL A   1      37.893  33.133  32.688  1.00  0.00     0.074 A 
ATOM     49  C   UNL A   1      37.966  31.720  30.661  1.00  0.00     0.049 A 
ATOM     50  N   UNL A   1      38.872  32.612  33.387  1.00  0.00    -0.248 NA
ATOM     51  C   UNL A   1      37.197  34.236  33.371  1.00  0.00     0.031 C 
ATOM     52  C   UNL A   1      37.574  31.253  29.330  1.00  0.00     0.029 A 
ATOM     53  N   UNL A   1      38.968  30.860  31.033  1.00  0.00    -0.354 N 
ATOM     54  C   UNL A   1      38.922  33.334  34.573  1.00  0.00     0.074 A 
ATOM     55  C   UNL A   1      37.895  34.350  34.493  1.00  0.00     0.031 C 
ATOM     56  C   UNL A   1      38.294  30.167  29.015  1.00  0.00     0.029 A 
ATOM     57  C   UNL A   1      39.248  29.903  30.087  1.00  0.00     0.049 A 
ATOM     58  H   UNL A   1      39.442  30.922  31.894  1.00  0.00     0.167 HD
ATOM     59  C   UNL A   1      39.741  33.154  35.636  1.00  0.00     0.037 A 
ATOM     60  C   UNL A   1      40.184  28.935  30.070  1.00  0.00     0.037 A 
ATOM     61  C   UNL A   1      40.738  32.118  35.727  1.00  0.00     0.049 A 
ATOM     62  C   UNL A   1      41.107  28.788  31.247  1.00  0.00     0.074 A 
ATOM     63  C   UNL A   1      41.586  31.833  36.784  1.00  0.00     0.029 A 
ATOM     64  N   UNL A   1      41.019  31.198  34.729  1.00  0.00    -0.354 N 
ATOM     65  N   UNL A   1      41.127  29.464  32.369  1.00  0.00    -0.248 NA
ATOM     66  C   UNL A   1      42.139  27.747  31.153  1.00  0.00     0.031 C 
ATOM     67  C   UNL A   1      42.420  30.778  36.403  1.00  0.00     0.029 A 
ATOM     68  C   UNL A   1      42.051  30.365  35.134  1.00  0.00     0.049 A 
ATOM     69  H   UNL A   1      40.555  31.144  33.862  1.00  0.00     0.167 HD
ATOM     70  C   UNL A   1      42.161  28.923  33.121  1.00  0.00     0.074 A 
ATOM     71  C   UNL A   1      42.728  27.845  32.337  1.00  0.00     0.031 C 
ATOM     72  C   UNL A   1      42.605  29.293  34.347  1.00  0.00     0.037 A 
BRANCH  59  73
ATOM     73  C   UNL A   1      39.612  34.092  36.803  1.00  0.00     0.064 A 
ATOM     74  C   UNL A   1      38.836  33.771  37.925  1.00  0.00     0.173 A 
ATOM     75  C   UNL A   1      40.365  35.278  36.843  1.00  0.00     0.173 A 
ATOM     76  F   UNL A   1      38.092  32.654  37.934  1.00  0.00    -0.203 F 
ATOM     77  C   UNL A   1      38.814  34.602  39.042  1.00  0.00     0.198 A 
ATOM     78  C   UNL A   1      40.362  36.092  37.972  1.00  0.00     0.198 A 
ATOM     79  F   UNL A   1      41.132  35.628  35.799  1.00  0.00    -0.203 F 
ATOM     80  F   UNL A   1      38.048  34.287  40.096  1.00  0.00    -0.200 F 
ATOM     81  C   UNL A   1      39.586  35.755  39.070  1.00  0.00     0.200 A 
ATOM     82  F   UNL A   1      41.123  37.195  38.004  1.00  0.00    -0.200 F 
ATOM     83  F   UNL A   1      39.584  36.539  40.157  1.00  0.00    -0.200 F 
ENDBRANCH  59  73
BRANCH  60  84
ATOM     84  C   UNL A   1      40.296  28.044  28.886  1.00  0.00     0.064 A 
ATOM     85  C   UNL A   1      39.636  26.809  28.845  1.00  0.00     0.173 A 
ATOM     86  C   UNL A   1      41.051  28.418  27.763  1.00  0.00     0.173 A 
ATOM     87  F   UNL A   1      38.918  26.398  29.900  1.00  0.00    -0.203 F 
ATOM     88  C   UNL A   1      39.735  25.978  27.730  1.00  0.00     0.198 A 
ATOM     89  C   UNL A   1      41.120  27.602  26.637  1.00  0.00     0.198 A 
ATOM     90  F   UNL A   1      41.700  29.592  27.750  1.00  0.00    -0.203 F 
ATOM     91  F   UNL A   1      39.126  24.784  27.732  1.00  0.00    -0.200 F 
ATOM     92  C   UNL A   1      40.469  26.379  26.624  1.00  0.00     0.200 A 
ATOM     93  F   UNL A   1      41.814  28.005  25.563  1.00  0.00    -0.200 F 
ATOM     94  F   UNL A   1      40.550  25.587  25.547  1.00  0.00    -0.200 F 
ENDBRANCH  60  84
BRANCH  72  95
ATOM     95  C   UNL A   1      43.751  28.523  34.934  1.00  0.00     0.064 A 
ATOM     96  C   UNL A   1      45.076  28.958  34.789  1.00  0.00     0.173 A 
ATOM     97  C   UNL A   1      43.517  27.379  35.711  1.00  0.00     0.173 A 
ATOM     98  F   UNL A   1      45.354  30.039  34.045  1.00  0.00    -0.203 F 
ATOM     99  C   UNL A   1      46.125  28.269  35.390  1.00  0.00     0.198 A 
ATOM    100  C   UNL A   1      44.565  26.710  36.338  1.00  0.00     0.198 A 
ATOM    101  F   UNL A   1      42.267  26.924  35.888  1.00  0.00    -0.203 F 
ATOM    102  F   UNL A   1      47.387  28.682  35.208  1.00  0.00    -0.200 F 
ATOM    103  C   UNL A   1      45.869  27.153  36.173  1.00  0.00     0.200 A 
ATOM    104  F   UNL A   1      44.312  25.643  37.108  1.00  0.00    -0.200 F 
ATOM    105  F   UNL A   1      46.878  26.502  36.766  1.00  0.00    -0.200 F 
ENDBRANCH  72  95
ENDBRANCH  46  47
ENDBRANCH  38  41
ENDBRANCH  36  37
ENDBRANCH  35  36
ENDBRANCH   1  35
TORSDOF 17
ENDMDL
MODEL 3
REMARK VINA RESULT:     -13.1      5.265      9.944
REMARK SMILES CO[C@@H]1C[NH2+][C@@H](O[C@@H]2C[C@@H](C(=O)NCCCCNC(=O)c3ccc(-c4c5nc(c(-c6c(F)c(F)c(F)c(F)c6F)c6ccc([nH]6)c(-c6c(F)c(F)c(F)c(F)c6F)c6nc(c(-c7c(F)c(F)c(F)c(F)c7F)c7ccc4[nH]7)C=C6)C=C5)cc3)N(C(=O)OC(C)(C)C)C2)c2cc(Cl)ccc21
REMARK SMILES IDX 15 1 14 2 13 3 11 4 12 5 10 7 8 8 9 9 92 10 84 11 7 12 6 13
REMARK SMILES IDX 3 14 4 15 99 16 5 17 93 18 98 19 94 22 97 23 95 24 96 25
REMARK SMILES IDX 2 26 1 27 85 28 86 29 87 30 88 31 89 32 90 33 91 34 16 35
REMARK SMILES IDX 17 36 18 37 19 38 20 40 21 41 22 42 83 43 23 44 82 45 24 46
REMARK SMILES IDX 25 47 26 48 76 49 27 50 81 51 75 52 77 53 28 54 80 55 74 56
REMARK SMILES IDX 73 57 29 59 61 60 41 61 60 62 42 63 45 64 59 65 78 66 43 67
REMARK SMILES IDX 44 68 58 70 79 71 46 72 30 73 31 74 39 75 32 76 33 77 37 78
REMARK SMILES IDX 40 79 34 80 35 81 38 82 36 83 62 84 63 85 71 86 64 87 65 88
REMARK SMILES IDX 69 89 72 90 66 91 67 92 70 93 68 94 47 95 48 96 56 97 49 98
REMARK SMILES IDX 50 99 54 100 57 101 51 102 52 103 55 104 53 105
REMARK H PARENT 13 6 5 20 5 21 18 39 77 58 45 69
REMARK Flexibility Score: inf
ROOT
ATOM      1  C   UNL A   1      37.196  21.590  24.467  1.00  0.00     0.023 C 
ENDROOT
BRANCH   1   2
ATOM      2  C   UNL A   1      36.259  22.310  25.441  1.00  0.00     0.116 C 
BRANCH   2   3
ATOM      3  N   UNL A   1      35.347  21.364  26.058  1.00  0.00    -0.354 N 
ATOM      4  C   UNL A   1      34.258  21.731  26.814  1.00  0.00     0.243 C 
ATOM      5  O   UNL A   1      34.205  21.353  27.983  1.00  0.00    -0.273 OA
ATOM      6  H   UNL A   1      35.518  20.403  25.928  1.00  0.00     0.163 HD
BRANCH   4   7
ATOM      7  C   UNL A   1      33.103  22.414  26.066  1.00  0.00     0.180 C 
ATOM      8  C   UNL A   1      30.965  23.508  26.110  1.00  0.00     0.147 C 
ATOM      9  C   UNL A   1      32.273  23.401  26.880  1.00  0.00     0.069 C 
ATOM     10  C   UNL A   1      30.769  22.096  25.549  1.00  0.00     0.156 C 
ATOM     11  N   UNL A   1      32.109  21.541  25.446  1.00  0.00    -0.293 N 
BRANCH   8  12
ATOM     12  O   UNL A   1      30.802  24.623  25.239  1.00  0.00    -0.320 OA
BRANCH  12  13
ATOM     13  C   UNL A   1      30.200  25.895  25.457  1.00  0.00     0.354 C 
ATOM     14  C   UNL A   1      29.635  27.961  23.407  1.00  0.00     0.203 C 
ATOM     15  C   UNL A   1      28.860  26.623  23.552  1.00  0.00     0.300 C 
ATOM     16  C   UNL A   1      30.750  28.161  24.424  1.00  0.00    -0.002 A 
ATOM     17  N   UNL A   1      28.871  26.010  24.876  1.00  0.00    -0.315 N 
ATOM     18  C   UNL A   1      31.027  27.166  25.387  1.00  0.00     0.046 A 
ATOM     19  C   UNL A   1      31.593  29.283  24.323  1.00  0.00     0.009 A 
ATOM     20  H   UNL A   1      28.470  25.075  24.801  1.00  0.00     0.349 HD
ATOM     21  H   UNL A   1      28.329  26.618  25.490  1.00  0.00     0.349 HD
ATOM     22  C   UNL A   1      32.078  27.376  26.299  1.00  0.00     0.033 A 
ATOM     23  C   UNL A   1      32.664  29.450  25.200  1.00  0.00     0.021 A 
ATOM     24  C   UNL A   1      32.888  28.508  26.199  1.00  0.00     0.041 A 
ATOM     25  Cl  UNL A   1      34.203  28.717  27.288  1.00  0.00    -0.084 Cl
BRANCH  14  26
ATOM     26  O   UNL A   1      28.811  29.118  23.245  1.00  0.00    -0.371 OA
ATOM     27  C   UNL A   1      27.465  28.863  22.883  1.00  0.00     0.196 C 
ENDBRANCH  14  26
ENDBRANCH  12  13
ENDBRANCH   8  12
BRANCH  11  28
ATOM     28  C   UNL A   1      32.382  20.544  24.529  1.00  0.00     0.411 C 
ATOM     29  O   UNL A   1      32.830  20.764  23.418  1.00  0.00    -0.224 OA
BRANCH  28  30
ATOM     30  O   UNL A   1      32.190  19.311  25.062  1.00  0.00    -0.444 OA
BRANCH  30  31
ATOM     31  C   UNL A   1      32.890  18.141  24.569  1.00  0.00     0.106 C 
ATOM     32  C   UNL A   1      34.397  18.392  24.480  1.00  0.00     0.056 C 
ATOM     33  C   UNL A   1      32.571  16.893  25.402  1.00  0.00     0.056 C 
ATOM     34  C   UNL A   1      32.337  17.934  23.150  1.00  0.00     0.056 C 
ENDBRANCH  30  31
ENDBRANCH  28  30
ENDBRANCH  11  28
ENDBRANCH   4   7
ENDBRANCH   2   3
ENDBRANCH   1   2
BRANCH   1  35
ATOM     35  C   UNL A   1      37.858  20.347  25.066  1.00  0.00     0.023 C 
BRANCH  35  36
ATOM     36  C   UNL A   1      39.180  20.624  25.765  1.00  0.00     0.116 C 
BRANCH  36  37
ATOM     37  N   UNL A   1      40.024  19.443  25.836  1.00  0.00    -0.352 N 
ATOM     38  C   UNL A   1      41.378  19.374  26.070  1.00  0.00     0.251 C 
ATOM     39  H   UNL A   1      39.569  18.582  25.699  1.00  0.00     0.163 HD
ATOM     40  O   UNL A   1      41.990  18.324  25.914  1.00  0.00    -0.269 OA
BRANCH  38  41
ATOM     41  C   UNL A   1      42.091  20.604  26.474  1.00  0.00     0.039 A 
ATOM     42  C   UNL A   1      42.173  20.951  27.825  1.00  0.00     0.014 A 
ATOM     43  C   UNL A   1      42.599  21.453  25.491  1.00  0.00     0.014 A 
ATOM     44  C   UNL A   1      42.584  22.230  28.175  1.00  0.00     0.010 A 
ATOM     45  C   UNL A   1      43.108  22.701  25.858  1.00  0.00     0.010 A 
ATOM     46  C   UNL A   1      43.051  23.125  27.196  1.00  0.00    -0.014 A 
BRANCH  46  47
ATOM     47  C   UNL A   1      43.452  24.500  27.595  1.00  0.00     0.031 A 
ATOM     48  C   UNL A   1      44.900  24.914  27.586  1.00  0.00     0.074 A 
ATOM     49  C   UNL A   1      42.498  25.394  27.917  1.00  0.00     0.049 A 
ATOM     50  N   UNL A   1      45.429  26.069  27.910  1.00  0.00    -0.248 NA
ATOM     51  C   UNL A   1      45.886  23.906  27.165  1.00  0.00     0.031 C 
ATOM     52  C   UNL A   1      41.060  25.117  27.950  1.00  0.00     0.029 A 
ATOM     53  N   UNL A   1      42.587  26.720  28.259  1.00  0.00    -0.354 N 
ATOM     54  C   UNL A   1      46.801  25.919  27.753  1.00  0.00     0.074 A 
ATOM     55  C   UNL A   1      47.031  24.553  27.332  1.00  0.00     0.031 C 
ATOM     56  C   UNL A   1      40.401  26.245  28.248  1.00  0.00     0.029 A 
ATOM     57  C   UNL A   1      41.368  27.307  28.499  1.00  0.00     0.049 A 
ATOM     58  H   UNL A   1      43.442  27.204  28.326  1.00  0.00     0.167 HD
ATOM     59  C   UNL A   1      47.776  26.842  27.929  1.00  0.00     0.037 A 
ATOM     60  C   UNL A   1      41.061  28.555  28.902  1.00  0.00     0.037 A 
ATOM     61  C   UNL A   1      47.539  28.210  28.312  1.00  0.00     0.049 A 
ATOM     62  C   UNL A   1      42.169  29.544  29.131  1.00  0.00     0.074 A 
ATOM     63  C   UNL A   1      48.464  29.229  28.474  1.00  0.00     0.029 A 
ATOM     64  N   UNL A   1      46.294  28.752  28.589  1.00  0.00    -0.354 N 
ATOM     65  N   UNL A   1      43.459  29.394  28.957  1.00  0.00    -0.248 NA
ATOM     66  C   UNL A   1      41.779  30.875  29.616  1.00  0.00     0.031 C 
ATOM     67  C   UNL A   1      47.784  30.371  28.906  1.00  0.00     0.029 A 
ATOM     68  C   UNL A   1      46.431  30.083  28.953  1.00  0.00     0.049 A 
ATOM     69  H   UNL A   1      45.440  28.264  28.536  1.00  0.00     0.167 HD
ATOM     70  C   UNL A   1      44.033  30.611  29.296  1.00  0.00     0.074 A 
ATOM     71  C   UNL A   1      42.949  31.498  29.662  1.00  0.00     0.031 C 
ATOM     72  C   UNL A   1      45.343  30.958  29.311  1.00  0.00     0.037 A 
BRANCH  59  73
ATOM     73  C   UNL A   1      49.203  26.422  27.716  1.00  0.00     0.064 A 
ATOM     74  C   UNL A   1      49.764  26.338  26.434  1.00  0.00     0.173 A 
ATOM     75  C   UNL A   1      50.049  26.208  28.817  1.00  0.00     0.173 A 
ATOM     76  F   UNL A   1      48.997  26.524  25.349  1.00  0.00    -0.203 F 
ATOM     77  C   UNL A   1      51.115  26.051  26.260  1.00  0.00     0.198 A 
ATOM     78  C   UNL A   1      51.405  25.951  28.641  1.00  0.00     0.198 A 
ATOM     79  F   UNL A   1      49.565  26.286  30.066  1.00  0.00    -0.203 F 
ATOM     80  F   UNL A   1      51.626  25.955  25.025  1.00  0.00    -0.200 F 
ATOM     81  C   UNL A   1      51.937  25.871  27.364  1.00  0.00     0.200 A 
ATOM     82  F   UNL A   1      52.201  25.795  29.708  1.00  0.00    -0.200 F 
ATOM     83  F   UNL A   1      53.244  25.623  27.194  1.00  0.00    -0.200 F 
ENDBRANCH  59  73
BRANCH  60  84
ATOM     84  C   UNL A   1      39.639  28.924  29.127  1.00  0.00     0.064 A 
ATOM     85  C   UNL A   1      39.048  28.789  30.390  1.00  0.00     0.173 A 
ATOM     86  C   UNL A   1      38.848  29.438  28.088  1.00  0.00     0.173 A 
ATOM     87  F   UNL A   1      39.755  28.284  31.411  1.00  0.00    -0.203 F 
ATOM     88  C   UNL A   1      37.716  29.143  30.601  1.00  0.00     0.198 A 
ATOM     89  C   UNL A   1      37.529  29.824  28.309  1.00  0.00     0.198 A 
ATOM     90  F   UNL A   1      39.367  29.591  26.860  1.00  0.00    -0.203 F 
ATOM     91  F   UNL A   1      37.162  28.966  31.809  1.00  0.00    -0.200 F 
ATOM     92  C   UNL A   1      36.962  29.669  29.564  1.00  0.00     0.200 A 
ATOM     93  F   UNL A   1      36.810  30.351  27.308  1.00  0.00    -0.200 F 
ATOM     94  F   UNL A   1      35.686  30.024  29.772  1.00  0.00    -0.200 F 
ENDBRANCH  60  84
BRANCH  72  95
ATOM     95  C   UNL A   1      45.687  32.359  29.721  1.00  0.00     0.064 A 
ATOM     96  C   UNL A   1      46.004  32.678  31.049  1.00  0.00     0.173 A 
ATOM     97  C   UNL A   1      45.775  33.381  28.762  1.00  0.00     0.173 A 
ATOM     98  F   UNL A   1      45.923  31.740  32.005  1.00  0.00    -0.203 F 
ATOM     99  C   UNL A   1      46.381  33.969  31.405  1.00  0.00     0.198 A 
ATOM    100  C   UNL A   1      46.184  34.664  29.116  1.00  0.00     0.198 A 
ATOM    101  F   UNL A   1      45.490  33.128  27.475  1.00  0.00    -0.203 F 
ATOM    102  F   UNL A   1      46.643  34.260  32.687  1.00  0.00    -0.200 F 
ATOM    103  C   UNL A   1      46.482  34.958  30.438  1.00  0.00     0.200 A 
ATOM    104  F   UNL A   1      46.297  35.612  28.176  1.00  0.00    -0.200 F 
ATOM    105  F   UNL A   1      46.864  36.196  30.779  1.00  0.00    -0.200 F 
ENDBRANCH  72  95
ENDBRANCH  46  47
ENDBRANCH  38  41
ENDBRANCH  36  37
ENDBRANCH  35  36
ENDBRANCH   1  35
TORSDOF 17
ENDMDL
