MODEL 1
REMARK VINA RESULT:     -13.9      0.000      0.000
REMARK SMILES Cc1nc(-c2ccccc2)sc1C(=O)N[C@@H](CC1=c2ccccc2=NC1)C(=O)NCCCCNC(=O)c1ccc(-c2c3nc(c(-c4c(F)c(F)c(F)c(F)c4F)c4ccc([nH]4)c(-c4c(F)c(F)c(F)c(F)c4F)c4nc(c(-c5c(F)c(F)c(F)c(F)c5F)c5ccc2[nH]5)C=C4)C=C3)cc1
REMARK SMILES IDX 31 1 30 2 29 3 27 4 28 5 16 7 15 8 13 9 14 10 12 12 1 13
REMARK SMILES IDX 2 14 3 15 4 16 11 17 5 18 6 19 10 20 7 21 9 22 8 23 17 24
REMARK SMILES IDX 18 25 19 26 26 27 20 28 24 29 25 30 21 31 23 32 22 33 32 34
REMARK SMILES IDX 33 35 34 36 35 37 36 39 37 40 38 41 99 42 39 43 98 44 40 45
REMARK SMILES IDX 41 46 42 47 92 48 43 49 97 50 91 51 93 52 44 53 96 54 90 55
REMARK SMILES IDX 89 56 45 58 77 59 57 60 76 61 58 62 61 63 75 64 94 65 59 66
REMARK SMILES IDX 60 67 74 69 95 70 62 71 46 72 47 73 55 74 48 75 49 76 53 77
REMARK SMILES IDX 56 78 50 79 51 80 54 81 52 82 78 83 79 84 87 85 80 86 81 87
REMARK SMILES IDX 85 88 88 89 82 90 83 91 86 92 84 93 63 94 64 95 72 96 65 97
REMARK SMILES IDX 66 98 70 99 73 100 67 101 68 102 71 103 69 104
REMARK H PARENT 29 6 15 11 34 38 93 57 61 68
REMARK Flexibility Score: inf
ROOT
ATOM      1  C   UNL A   1      32.016  30.073  27.110  1.00  0.00     0.023 C 
ENDROOT
BRANCH   1   2
ATOM      2  C   UNL A   1      32.079  29.202  25.868  1.00  0.00     0.116 C 
BRANCH   2   3
ATOM      3  N   UNL A   1      33.197  29.461  24.995  1.00  0.00    -0.354 N 
ATOM      4  C   UNL A   1      33.646  28.726  23.940  1.00  0.00     0.242 C 
ATOM      5  O   UNL A   1      34.242  29.347  23.052  1.00  0.00    -0.273 OA
ATOM      6  H   UNL A   1      33.705  30.282  25.188  1.00  0.00     0.163 HD
BRANCH   4   7
ATOM      7  C   UNL A   1      33.373  27.214  23.762  1.00  0.00     0.175 C 
BRANCH   7   8
ATOM      8  N   UNL A   1      33.361  26.736  22.391  1.00  0.00    -0.339 N 
ATOM      9  C   UNL A   1      32.995  25.567  21.781  1.00  0.00     0.263 C 
ATOM     10  O   UNL A   1      33.269  25.586  20.573  1.00  0.00    -0.268 OA
ATOM     11  H   UNL A   1      33.693  27.408  21.752  1.00  0.00     0.164 HD
BRANCH   9  12
ATOM     12  C   UNL A   1      32.338  24.426  22.416  1.00  0.00     0.115 A 
ATOM     13  C   UNL A   1      29.977  24.937  23.496  1.00  0.00     0.068 C 
ATOM     14  C   UNL A   1      31.146  24.124  23.075  1.00  0.00     0.062 A 
ATOM     15  N   UNL A   1      30.997  22.794  23.439  1.00  0.00    -0.241 NA
ATOM     16  C   UNL A   1      32.068  22.095  23.173  1.00  0.00     0.124 A 
ATOM     17  S   UNL A   1      33.312  22.956  22.407  1.00  0.00    -0.108 S 
BRANCH  16  18
ATOM     18  C   UNL A   1      32.179  20.678  23.492  1.00  0.00     0.010 A 
ATOM     19  C   UNL A   1      32.449  20.302  24.816  1.00  0.00     0.011 A 
ATOM     20  C   UNL A   1      32.170  19.701  22.489  1.00  0.00     0.011 A 
ATOM     21  C   UNL A   1      32.718  18.972  25.133  1.00  0.00     0.001 A 
ATOM     22  C   UNL A   1      32.449  18.370  22.808  1.00  0.00     0.001 A 
ATOM     23  C   UNL A   1      32.729  18.010  24.127  1.00  0.00     0.000 A 
ENDBRANCH  16  18
ENDBRANCH   9  12
ENDBRANCH   7   8
BRANCH   7  24
ATOM     24  C   UNL A   1      34.167  26.278  24.711  1.00  0.00     0.068 C 
BRANCH  24  25
ATOM     25  C   UNL A   1      33.397  25.291  25.537  1.00  0.00    -0.037 C 
ATOM     26  C   UNL A   1      33.739  24.066  25.934  1.00  0.00     0.001 A 
ATOM     27  C   UNL A   1      32.052  25.662  26.091  1.00  0.00     0.174 C 
ATOM     28  C   UNL A   1      34.863  23.208  25.737  1.00  0.00     0.010 A 
ATOM     29  C   UNL A   1      32.698  23.753  26.932  1.00  0.00     0.065 A 
ATOM     30  N   UNL A   1      31.724  24.601  27.070  1.00  0.00    -0.280 NA
ATOM     31  C   UNL A   1      35.013  22.144  26.543  1.00  0.00     0.001 A 
ATOM     32  C   UNL A   1      32.926  22.559  27.773  1.00  0.00     0.028 A 
ATOM     33  C   UNL A   1      34.046  21.840  27.586  1.00  0.00     0.002 A 
ENDBRANCH  24  25
ENDBRANCH   7  24
ENDBRANCH   4   7
ENDBRANCH   2   3
ENDBRANCH   1   2
BRANCH   1  34
ATOM     34  C   UNL A   1      31.847  31.565  26.845  1.00  0.00     0.023 C 
BRANCH  34  35
ATOM     35  C   UNL A   1      32.942  32.466  27.404  1.00  0.00     0.116 C 
BRANCH  35  36
ATOM     36  N   UNL A   1      32.521  33.844  27.615  1.00  0.00    -0.352 N 
ATOM     37  C   UNL A   1      33.008  34.777  28.506  1.00  0.00     0.251 C 
ATOM     38  H   UNL A   1      31.784  34.152  27.040  1.00  0.00     0.163 HD
ATOM     39  O   UNL A   1      32.464  35.855  28.649  1.00  0.00    -0.269 OA
BRANCH  37  40
ATOM     40  C   UNL A   1      34.190  34.419  29.319  1.00  0.00     0.039 A 
ATOM     41  C   UNL A   1      33.998  33.911  30.605  1.00  0.00     0.014 A 
ATOM     42  C   UNL A   1      35.471  34.508  28.772  1.00  0.00     0.014 A 
ATOM     43  C   UNL A   1      35.090  33.395  31.305  1.00  0.00     0.010 A 
ATOM     44  C   UNL A   1      36.539  33.914  29.433  1.00  0.00     0.010 A 
ATOM     45  C   UNL A   1      36.359  33.343  30.703  1.00  0.00    -0.014 A 
BRANCH  45  46
ATOM     46  C   UNL A   1      37.509  32.688  31.374  1.00  0.00     0.031 A 
ATOM     47  C   UNL A   1      38.217  31.544  30.704  1.00  0.00     0.074 A 
ATOM     48  C   UNL A   1      37.860  33.065  32.619  1.00  0.00     0.049 A 
ATOM     49  N   UNL A   1      39.182  30.786  31.159  1.00  0.00    -0.248 NA
ATOM     50  C   UNL A   1      37.752  31.180  29.356  1.00  0.00     0.031 C 
ATOM     51  C   UNL A   1      37.209  34.115  33.404  1.00  0.00     0.029 A 
ATOM     52  N   UNL A   1      38.847  32.596  33.451  1.00  0.00    -0.354 N 
ATOM     53  C   UNL A   1      39.421  29.846  30.166  1.00  0.00     0.074 A 
ATOM     54  C   UNL A   1      38.465  30.092  29.110  1.00  0.00     0.031 C 
ATOM     55  C   UNL A   1      37.829  34.229  34.589  1.00  0.00     0.029 A 
ATOM     56  C   UNL A   1      38.898  33.239  34.664  1.00  0.00     0.049 A 
ATOM     57  H   UNL A   1      39.460  31.867  33.201  1.00  0.00     0.167 HD
ATOM     58  C   UNL A   1      40.371  28.882  30.126  1.00  0.00     0.037 A 
ATOM     59  C   UNL A   1      39.717  33.049  35.717  1.00  0.00     0.037 A 
ATOM     60  C   UNL A   1      41.347  28.666  31.161  1.00  0.00     0.049 A 
ATOM     61  C   UNL A   1      40.784  31.991  35.635  1.00  0.00     0.074 A 
ATOM     62  C   UNL A   1      42.396  27.764  31.184  1.00  0.00     0.029 A 
ATOM     63  N   UNL A   1      41.395  29.367  32.357  1.00  0.00    -0.354 N 
ATOM     64  N   UNL A   1      41.050  31.157  34.659  1.00  0.00    -0.248 NA
ATOM     65  C   UNL A   1      41.670  31.853  36.799  1.00  0.00     0.031 C 
ATOM     66  C   UNL A   1      43.058  27.894  32.409  1.00  0.00     0.029 A 
ATOM     67  C   UNL A   1      42.447  28.908  33.131  1.00  0.00     0.049 A 
ATOM     68  H   UNL A   1      40.773  30.085  32.617  1.00  0.00     0.167 HD
ATOM     69  C   UNL A   1      42.147  30.417  35.076  1.00  0.00     0.074 A 
ATOM     70  C   UNL A   1      42.508  30.910  36.390  1.00  0.00     0.031 C 
ATOM     71  C   UNL A   1      42.798  29.420  34.431  1.00  0.00     0.037 A 
BRANCH  58  72
ATOM     72  C   UNL A   1      40.408  27.999  28.914  1.00  0.00     0.064 A 
ATOM     73  C   UNL A   1      41.164  28.337  27.782  1.00  0.00     0.173 A 
ATOM     74  C   UNL A   1      39.700  26.788  28.893  1.00  0.00     0.173 A 
ATOM     75  F   UNL A   1      41.848  29.491  27.748  1.00  0.00    -0.203 F 
ATOM     76  C   UNL A   1      41.184  27.513  26.660  1.00  0.00     0.198 A 
ATOM     77  C   UNL A   1      39.746  25.951  27.781  1.00  0.00     0.198 A 
ATOM     78  F   UNL A   1      38.965  26.415  29.951  1.00  0.00    -0.203 F 
ATOM     79  F   UNL A   1      41.871  27.883  25.571  1.00  0.00    -0.200 F 
ATOM     80  C   UNL A   1      40.481  26.318  26.663  1.00  0.00     0.200 A 
ATOM     81  F   UNL A   1      39.076  24.790  27.789  1.00  0.00    -0.200 F 
ATOM     82  F   UNL A   1      40.505  25.522  25.584  1.00  0.00    -0.200 F 
ENDBRANCH  58  72
BRANCH  59  83
ATOM     83  C   UNL A   1      39.588  33.904  36.924  1.00  0.00     0.064 A 
ATOM     84  C   UNL A   1      38.834  33.478  38.027  1.00  0.00     0.173 A 
ATOM     85  C   UNL A   1      40.205  35.161  37.002  1.00  0.00     0.173 A 
ATOM     86  F   UNL A   1      38.209  32.292  37.991  1.00  0.00    -0.203 F 
ATOM     87  C   UNL A   1      38.684  34.285  39.152  1.00  0.00     0.198 A 
ATOM     88  C   UNL A   1      40.075  35.956  38.139  1.00  0.00     0.198 A 
ATOM     89  F   UNL A   1      40.941  35.612  35.976  1.00  0.00    -0.203 F 
ATOM     90  F   UNL A   1      37.921  33.872  40.173  1.00  0.00    -0.200 F 
ATOM     91  C   UNL A   1      39.308  35.521  39.209  1.00  0.00     0.200 A 
ATOM     92  F   UNL A   1      40.691  37.145  38.196  1.00  0.00    -0.200 F 
ATOM     93  F   UNL A   1      39.165  36.297  40.293  1.00  0.00    -0.200 F 
ENDBRANCH  59  83
BRANCH  71  94
ATOM     94  C   UNL A   1      43.989  28.819  35.118  1.00  0.00     0.064 A 
ATOM     95  C   UNL A   1      43.866  27.712  35.969  1.00  0.00     0.173 A 
ATOM     96  C   UNL A   1      45.274  29.336  34.889  1.00  0.00     0.173 A 
ATOM     97  F   UNL A   1      42.657  27.193  36.232  1.00  0.00    -0.203 F 
ATOM     98  C   UNL A   1      44.985  27.157  36.584  1.00  0.00     0.198 A 
ATOM     99  C   UNL A   1      46.392  28.761  35.483  1.00  0.00     0.198 A 
ATOM    100  F   UNL A   1      45.443  30.390  34.078  1.00  0.00    -0.203 F 
ATOM    101  F   UNL A   1      44.840  26.126  37.429  1.00  0.00    -0.200 F 
ATOM    102  C   UNL A   1      46.247  27.676  36.335  1.00  0.00     0.200 A 
ATOM    103  F   UNL A   1      47.612  29.256  35.232  1.00  0.00    -0.200 F 
ATOM    104  F   UNL A   1      47.323  27.136  36.923  1.00  0.00    -0.200 F 
ENDBRANCH  71  94
ENDBRANCH  45  46
ENDBRANCH  37  40
ENDBRANCH  35  36
ENDBRANCH  34  35
ENDBRANCH   1  34
TORSDOF 16
ENDMDL
MODEL 2
REMARK VINA RESULT:     -13.9      0.632      6.954
REMARK SMILES Cc1nc(-c2ccccc2)sc1C(=O)N[C@@H](CC1=c2ccccc2=NC1)C(=O)NCCCCNC(=O)c1ccc(-c2c3nc(c(-c4c(F)c(F)c(F)c(F)c4F)c4ccc([nH]4)c(-c4c(F)c(F)c(F)c(F)c4F)c4nc(c(-c5c(F)c(F)c(F)c(F)c5F)c5ccc2[nH]5)C=C4)C=C3)cc1
REMARK SMILES IDX 31 1 30 2 29 3 27 4 28 5 16 7 15 8 13 9 14 10 12 12 1 13
REMARK SMILES IDX 2 14 3 15 4 16 11 17 5 18 6 19 10 20 7 21 9 22 8 23 17 24
REMARK SMILES IDX 18 25 19 26 26 27 20 28 24 29 25 30 21 31 23 32 22 33 32 34
REMARK SMILES IDX 33 35 34 36 35 37 36 39 37 40 38 41 99 42 39 43 98 44 40 45
REMARK SMILES IDX 41 46 42 47 92 48 43 49 97 50 91 51 93 52 44 53 96 54 90 55
REMARK SMILES IDX 89 56 45 58 77 59 57 60 76 61 58 62 61 63 75 64 94 65 59 66
REMARK SMILES IDX 60 67 74 69 95 70 62 71 46 72 47 73 55 74 48 75 49 76 53 77
REMARK SMILES IDX 56 78 50 79 51 80 54 81 52 82 78 83 79 84 87 85 80 86 81 87
REMARK SMILES IDX 85 88 88 89 82 90 83 91 86 92 84 93 63 94 64 95 72 96 65 97
REMARK SMILES IDX 66 98 70 99 73 100 67 101 68 102 71 103 69 104
REMARK H PARENT 29 6 15 11 34 38 93 57 61 68
REMARK Flexibility Score: inf
ROOT
ATOM      1  C   UNL A   1      31.785  30.170  26.860  1.00  0.00     0.023 C 
ENDROOT
BRANCH   1   2
ATOM      2  C   UNL A   1      31.788  29.396  25.555  1.00  0.00     0.116 C 
BRANCH   2   3
ATOM      3  N   UNL A   1      32.912  29.658  24.689  1.00  0.00    -0.354 N 
ATOM      4  C   UNL A   1      33.419  28.888  23.688  1.00  0.00     0.242 C 
ATOM      5  O   UNL A   1      34.005  29.486  22.777  1.00  0.00    -0.273 OA
ATOM      6  H   UNL A   1      33.377  30.512  24.845  1.00  0.00     0.163 HD
BRANCH   4   7
ATOM      7  C   UNL A   1      33.221  27.357  23.592  1.00  0.00     0.175 C 
BRANCH   7   8
ATOM      8  N   UNL A   1      33.272  26.801  22.251  1.00  0.00    -0.339 N 
ATOM      9  C   UNL A   1      32.961  25.588  21.699  1.00  0.00     0.263 C 
ATOM     10  O   UNL A   1      33.278  25.546  20.502  1.00  0.00    -0.268 OA
ATOM     11  H   UNL A   1      33.608  27.445  21.586  1.00  0.00     0.164 HD
BRANCH   9  12
ATOM     12  C   UNL A   1      32.314  24.466  22.376  1.00  0.00     0.115 A 
ATOM     13  C   UNL A   1      29.982  25.015  23.499  1.00  0.00     0.068 C 
ATOM     14  C   UNL A   1      31.137  24.186  23.071  1.00  0.00     0.062 A 
ATOM     15  N   UNL A   1      30.990  22.866  23.470  1.00  0.00    -0.241 NA
ATOM     16  C   UNL A   1      32.052  22.156  23.196  1.00  0.00     0.124 A 
ATOM     17  S   UNL A   1      33.281  22.992  22.380  1.00  0.00    -0.108 S 
BRANCH  16  18
ATOM     18  C   UNL A   1      32.163  20.746  23.546  1.00  0.00     0.010 A 
ATOM     19  C   UNL A   1      32.436  20.400  24.877  1.00  0.00     0.011 A 
ATOM     20  C   UNL A   1      32.153  19.747  22.565  1.00  0.00     0.011 A 
ATOM     21  C   UNL A   1      32.706  19.077  25.224  1.00  0.00     0.001 A 
ATOM     22  C   UNL A   1      32.433  18.423  22.913  1.00  0.00     0.001 A 
ATOM     23  C   UNL A   1      32.715  18.093  24.239  1.00  0.00     0.000 A 
ENDBRANCH  16  18
ENDBRANCH   9  12
ENDBRANCH   7   8
BRANCH   7  24
ATOM     24  C   UNL A   1      34.029  26.516  24.615  1.00  0.00     0.068 C 
BRANCH  24  25
ATOM     25  C   UNL A   1      33.286  25.519  25.454  1.00  0.00    -0.037 C 
ATOM     26  C   UNL A   1      33.661  24.309  25.867  1.00  0.00     0.001 A 
ATOM     27  C   UNL A   1      31.930  25.860  26.002  1.00  0.00     0.174 C 
ATOM     28  C   UNL A   1      34.808  23.480  25.681  1.00  0.00     0.010 A 
ATOM     29  C   UNL A   1      32.628  23.980  26.868  1.00  0.00     0.065 A 
ATOM     30  N   UNL A   1      31.631  24.802  26.995  1.00  0.00    -0.280 NA
ATOM     31  C   UNL A   1      34.986  22.431  26.501  1.00  0.00     0.001 A 
ATOM     32  C   UNL A   1      32.888  22.804  27.725  1.00  0.00     0.028 A 
ATOM     33  C   UNL A   1      34.028  22.114  27.547  1.00  0.00     0.002 A 
ENDBRANCH  24  25
ENDBRANCH   7  24
ENDBRANCH   4   7
ENDBRANCH   2   3
ENDBRANCH   1   2
BRANCH   1  34
ATOM     34  C   UNL A   1      31.685  31.684  26.714  1.00  0.00     0.023 C 
BRANCH  34  35
ATOM     35  C   UNL A   1      32.854  32.485  27.278  1.00  0.00     0.116 C 
BRANCH  35  36
ATOM     36  N   UNL A   1      32.526  33.870  27.583  1.00  0.00    -0.352 N 
ATOM     37  C   UNL A   1      33.074  34.707  28.533  1.00  0.00     0.251 C 
ATOM     38  H   UNL A   1      31.812  34.266  27.034  1.00  0.00     0.163 HD
ATOM     39  O   UNL A   1      32.604  35.807  28.751  1.00  0.00    -0.269 OA
BRANCH  37  40
ATOM     40  C   UNL A   1      34.229  34.215  29.315  1.00  0.00     0.039 A 
ATOM     41  C   UNL A   1      33.996  33.503  30.493  1.00  0.00     0.014 A 
ATOM     42  C   UNL A   1      35.528  34.389  28.833  1.00  0.00     0.014 A 
ATOM     43  C   UNL A   1      35.065  32.876  31.134  1.00  0.00     0.010 A 
ATOM     44  C   UNL A   1      36.575  33.691  29.422  1.00  0.00     0.010 A 
ATOM     45  C   UNL A   1      36.353  32.920  30.574  1.00  0.00    -0.014 A 
BRANCH  45  46
ATOM     46  C   UNL A   1      37.482  32.159  31.166  1.00  0.00     0.031 A 
ATOM     47  C   UNL A   1      37.967  32.490  32.549  1.00  0.00     0.074 A 
ATOM     48  C   UNL A   1      38.124  31.232  30.428  1.00  0.00     0.049 A 
ATOM     49  N   UNL A   1      38.989  32.005  33.208  1.00  0.00    -0.248 NA
ATOM     50  C   UNL A   1      37.226  33.534  33.275  1.00  0.00     0.031 C 
ATOM     51  C   UNL A   1      37.794  30.866  29.050  1.00  0.00     0.029 A 
ATOM     52  N   UNL A   1      39.200  30.434  30.732  1.00  0.00    -0.354 N 
ATOM     53  C   UNL A   1      39.025  32.699  34.409  1.00  0.00     0.074 A 
ATOM     54  C   UNL A   1      37.960  33.676  34.368  1.00  0.00     0.031 C 
ATOM     55  C   UNL A   1      38.630  29.900  28.637  1.00  0.00     0.029 A 
ATOM     56  C   UNL A   1      39.577  29.601  29.707  1.00  0.00     0.049 A 
ATOM     57  H   UNL A   1      39.659  30.458  31.603  1.00  0.00     0.167 HD
ATOM     58  C   UNL A   1      39.854  32.518  35.465  1.00  0.00     0.037 A 
ATOM     59  C   UNL A   1      40.574  28.699  29.640  1.00  0.00     0.037 A 
ATOM     60  C   UNL A   1      40.886  31.518  35.520  1.00  0.00     0.049 A 
ATOM     61  C   UNL A   1      41.462  28.496  30.837  1.00  0.00     0.074 A 
ATOM     62  C   UNL A   1      41.732  31.206  36.569  1.00  0.00     0.029 A 
ATOM     63  N   UNL A   1      41.209  30.662  34.477  1.00  0.00    -0.354 N 
ATOM     64  N   UNL A   1      41.440  29.106  31.998  1.00  0.00    -0.248 NA
ATOM     65  C   UNL A   1      42.511  27.473  30.718  1.00  0.00     0.031 C 
ATOM     66  C   UNL A   1      42.591  30.185  36.151  1.00  0.00     0.029 A 
ATOM     67  C   UNL A   1      42.251  29.831  34.854  1.00  0.00     0.049 A 
ATOM     68  H   UNL A   1      40.764  30.647  33.599  1.00  0.00     0.167 HD
ATOM     69  C   UNL A   1      42.446  28.524  32.755  1.00  0.00     0.074 A 
ATOM     70  C   UNL A   1      43.054  27.502  31.927  1.00  0.00     0.031 C 
ATOM     71  C   UNL A   1      42.834  28.811  34.021  1.00  0.00     0.037 A 
BRANCH  58  72
ATOM     72  C   UNL A   1      39.665  33.415  36.653  1.00  0.00     0.064 A 
ATOM     73  C   UNL A   1      38.806  33.066  37.706  1.00  0.00     0.173 A 
ATOM     74  C   UNL A   1      40.368  34.624  36.752  1.00  0.00     0.173 A 
ATOM     75  F   UNL A   1      38.100  31.926  37.652  1.00  0.00    -0.203 F 
ATOM     76  C   UNL A   1      38.633  33.910  38.799  1.00  0.00     0.198 A 
ATOM     77  C   UNL A   1      40.216  35.452  37.862  1.00  0.00     0.198 A 
ATOM     78  F   UNL A   1      41.206  35.003  35.775  1.00  0.00    -0.203 F 
ATOM     79  F   UNL A   1      37.767  33.581  39.767  1.00  0.00    -0.200 F 
ATOM     80  C   UNL A   1      39.343  35.098  38.880  1.00  0.00     0.200 A 
ATOM     81  F   UNL A   1      40.912  36.595  37.944  1.00  0.00    -0.200 F 
ATOM     82  F   UNL A   1      39.180  35.908  39.936  1.00  0.00    -0.200 F 
ENDBRANCH  58  72
BRANCH  59  83
ATOM     83  C   UNL A   1      40.763  27.889  28.409  1.00  0.00     0.064 A 
ATOM     84  C   UNL A   1      40.137  26.642  28.269  1.00  0.00     0.173 A 
ATOM     85  C   UNL A   1      41.572  28.335  27.354  1.00  0.00     0.173 A 
ATOM     86  F   UNL A   1      39.370  26.164  29.259  1.00  0.00    -0.203 F 
ATOM     87  C   UNL A   1      40.330  25.863  27.130  1.00  0.00     0.198 A 
ATOM     88  C   UNL A   1      41.743  27.567  26.205  1.00  0.00     0.198 A 
ATOM     89  F   UNL A   1      42.188  29.523  27.437  1.00  0.00    -0.203 F 
ATOM     90  F   UNL A   1      39.756  24.656  27.042  1.00  0.00    -0.200 F 
ATOM     91  C   UNL A   1      41.129  26.328  26.097  1.00  0.00     0.200 A 
ATOM     92  F   UNL A   1      42.506  28.024  25.202  1.00  0.00    -0.200 F 
ATOM     93  F   UNL A   1      41.313  25.579  25.001  1.00  0.00    -0.200 F 
ENDBRANCH  59  83
BRANCH  71  94
ATOM     94  C   UNL A   1      43.942  27.984  34.604  1.00  0.00     0.064 A 
ATOM     95  C   UNL A   1      43.689  26.769  35.255  1.00  0.00     0.173 A 
ATOM     96  C   UNL A   1      45.277  28.396  34.472  1.00  0.00     0.173 A 
ATOM     97  F   UNL A   1      42.428  26.341  35.420  1.00  0.00    -0.203 F 
ATOM     98  C   UNL A   1      44.731  26.006  35.774  1.00  0.00     0.198 A 
ATOM     99  C   UNL A   1      46.318  27.617  34.968  1.00  0.00     0.198 A 
ATOM    100  F   UNL A   1      45.571  29.548  33.852  1.00  0.00    -0.203 F 
ATOM    101  F   UNL A   1      44.463  24.869  36.432  1.00  0.00    -0.200 F 
ATOM    102  C   UNL A   1      46.044  26.427  35.624  1.00  0.00     0.200 A 
ATOM    103  F   UNL A   1      47.587  28.019  34.810  1.00  0.00    -0.200 F 
ATOM    104  F   UNL A   1      47.046  25.687  36.118  1.00  0.00    -0.200 F 
ENDBRANCH  71  94
ENDBRANCH  45  46
ENDBRANCH  37  40
ENDBRANCH  35  36
ENDBRANCH  34  35
ENDBRANCH   1  34
TORSDOF 16
ENDMDL
MODEL 3
REMARK VINA RESULT:     -13.8      2.445      7.953
REMARK SMILES Cc1nc(-c2ccccc2)sc1C(=O)N[C@@H](CC1=c2ccccc2=NC1)C(=O)NCCCCNC(=O)c1ccc(-c2c3nc(c(-c4c(F)c(F)c(F)c(F)c4F)c4ccc([nH]4)c(-c4c(F)c(F)c(F)c(F)c4F)c4nc(c(-c5c(F)c(F)c(F)c(F)c5F)c5ccc2[nH]5)C=C4)C=C3)cc1
REMARK SMILES IDX 31 1 30 2 29 3 27 4 28 5 16 7 15 8 13 9 14 10 12 12 1 13
REMARK SMILES IDX 2 14 3 15 4 16 11 17 5 18 6 19 10 20 7 21 9 22 8 23 17 24
REMARK SMILES IDX 18 25 19 26 26 27 20 28 24 29 25 30 21 31 23 32 22 33 32 34
REMARK SMILES IDX 33 35 34 36 35 37 36 39 37 40 38 41 99 42 39 43 98 44 40 45
REMARK SMILES IDX 41 46 42 47 92 48 43 49 97 50 91 51 93 52 44 53 96 54 90 55
REMARK SMILES IDX 89 56 45 58 77 59 57 60 76 61 58 62 61 63 75 64 94 65 59 66
REMARK SMILES IDX 60 67 74 69 95 70 62 71 46 72 47 73 55 74 48 75 49 76 53 77
REMARK SMILES IDX 56 78 50 79 51 80 54 81 52 82 78 83 79 84 87 85 80 86 81 87
REMARK SMILES IDX 85 88 88 89 82 90 83 91 86 92 84 93 63 94 64 95 72 96 65 97
REMARK SMILES IDX 66 98 70 99 73 100 67 101 68 102 71 103 69 104
REMARK H PARENT 29 6 15 11 34 38 93 57 61 68
REMARK Flexibility Score: inf
ROOT
ATOM      1  C   UNL A   1      32.615  28.499  25.184  1.00  0.00     0.023 C 
ENDROOT
BRANCH   1   2
ATOM      2  C   UNL A   1      32.642  27.176  25.927  1.00  0.00     0.116 C 
BRANCH   2   3
ATOM      3  N   UNL A   1      31.383  26.770  26.502  1.00  0.00    -0.354 N 
ATOM      4  C   UNL A   1      30.387  26.030  25.942  1.00  0.00     0.242 C 
ATOM      5  O   UNL A   1      29.678  25.383  26.722  1.00  0.00    -0.273 OA
ATOM      6  H   UNL A   1      31.222  27.070  27.426  1.00  0.00     0.163 HD
BRANCH   4   7
ATOM      7  C   UNL A   1      30.165  25.892  24.418  1.00  0.00     0.175 C 
BRANCH   7   8
ATOM      8  N   UNL A   1      30.227  24.539  23.895  1.00  0.00    -0.339 N 
ATOM      9  C   UNL A   1      31.234  23.716  23.469  1.00  0.00     0.263 C 
ATOM     10  O   UNL A   1      30.784  22.662  22.998  1.00  0.00    -0.268 OA
ATOM     11  H   UNL A   1      29.341  24.115  23.832  1.00  0.00     0.164 HD
BRANCH   9  12
ATOM     12  C   UNL A   1      32.669  23.982  23.558  1.00  0.00     0.115 A 
ATOM     13  C   UNL A   1      33.487  26.192  22.353  1.00  0.00     0.068 C 
ATOM     14  C   UNL A   1      33.592  24.950  23.161  1.00  0.00     0.062 A 
ATOM     15  N   UNL A   1      34.894  24.729  23.585  1.00  0.00    -0.241 NA
ATOM     16  C   UNL A   1      35.015  23.583  24.200  1.00  0.00     0.124 A 
ATOM     17  S   UNL A   1      33.572  22.711  24.380  1.00  0.00    -0.108 S 
BRANCH  16  18
ATOM     18  C   UNL A   1      36.291  23.099  24.712  1.00  0.00     0.010 A 
ATOM     19  C   UNL A   1      36.654  21.767  24.471  1.00  0.00     0.011 A 
ATOM     20  C   UNL A   1      37.084  23.885  25.557  1.00  0.00     0.011 A 
ATOM     21  C   UNL A   1      37.786  21.221  25.074  1.00  0.00     0.001 A 
ATOM     22  C   UNL A   1      38.213  23.334  26.167  1.00  0.00     0.001 A 
ATOM     23  C   UNL A   1      38.558  22.003  25.929  1.00  0.00     0.000 A 
ENDBRANCH  16  18
ENDBRANCH   9  12
ENDBRANCH   7   8
BRANCH   7  24
ATOM     24  C   UNL A   1      28.970  26.697  23.843  1.00  0.00     0.068 C 
BRANCH  24  25
ATOM     25  C   UNL A   1      29.266  27.942  23.062  1.00  0.00    -0.037 C 
ATOM     26  C   UNL A   1      28.600  29.096  23.017  1.00  0.00     0.001 A 
ATOM     27  C   UNL A   1      30.502  28.021  22.214  1.00  0.00     0.174 C 
ATOM     28  C   UNL A   1      27.400  29.602  23.601  1.00  0.00     0.010 A 
ATOM     29  C   UNL A   1      29.546  29.982  22.313  1.00  0.00     0.065 A 
ATOM     30  N   UNL A   1      30.629  29.447  21.836  1.00  0.00    -0.280 NA
ATOM     31  C   UNL A   1      27.181  30.927  23.581  1.00  0.00     0.001 A 
ATOM     32  C   UNL A   1      29.232  31.426  22.323  1.00  0.00     0.028 A 
ATOM     33  C   UNL A   1      28.124  31.842  22.960  1.00  0.00     0.002 A 
ENDBRANCH  24  25
ENDBRANCH   7  24
ENDBRANCH   4   7
ENDBRANCH   2   3
ENDBRANCH   1   2
BRANCH   1  34
ATOM     34  C   UNL A   1      31.786  29.595  25.844  1.00  0.00     0.023 C 
BRANCH  34  35
ATOM     35  C   UNL A   1      32.372  30.194  27.118  1.00  0.00     0.116 C 
BRANCH  35  36
ATOM     36  N   UNL A   1      32.447  31.648  27.105  1.00  0.00    -0.352 N 
ATOM     37  C   UNL A   1      33.475  32.471  27.518  1.00  0.00     0.251 C 
ATOM     38  H   UNL A   1      31.653  32.109  26.752  1.00  0.00     0.163 HD
ATOM     39  O   UNL A   1      33.337  33.678  27.559  1.00  0.00    -0.269 OA
BRANCH  37  40
ATOM     40  C   UNL A   1      34.742  31.844  27.951  1.00  0.00     0.039 A 
ATOM     41  C   UNL A   1      35.874  32.646  28.109  1.00  0.00     0.014 A 
ATOM     42  C   UNL A   1      34.778  30.487  28.279  1.00  0.00     0.014 A 
ATOM     43  C   UNL A   1      37.019  32.103  28.695  1.00  0.00     0.010 A 
ATOM     44  C   UNL A   1      35.886  29.975  28.944  1.00  0.00     0.010 A 
ATOM     45  C   UNL A   1      37.015  30.779  29.166  1.00  0.00    -0.014 A 
BRANCH  45  46
ATOM     46  C   UNL A   1      38.173  30.216  29.905  1.00  0.00     0.031 A 
ATOM     47  C   UNL A   1      38.445  30.651  31.318  1.00  0.00     0.074 A 
ATOM     48  C   UNL A   1      39.025  29.382  29.277  1.00  0.00     0.049 A 
ATOM     49  N   UNL A   1      39.449  30.345  32.100  1.00  0.00    -0.248 NA
ATOM     50  C   UNL A   1      37.479  31.585  31.918  1.00  0.00     0.031 C 
ATOM     51  C   UNL A   1      38.909  28.937  27.888  1.00  0.00     0.029 A 
ATOM     52  N   UNL A   1      40.168  28.767  29.726  1.00  0.00    -0.354 N 
ATOM     53  C   UNL A   1      39.246  31.064  33.270  1.00  0.00     0.074 A 
ATOM     54  C   UNL A   1      38.057  31.863  33.076  1.00  0.00     0.031 C 
ATOM     55  C   UNL A   1      39.922  28.103  27.605  1.00  0.00     0.029 A 
ATOM     56  C   UNL A   1      40.778  27.979  28.781  1.00  0.00     0.049 A 
ATOM     57  H   UNL A   1      40.518  28.883  30.639  1.00  0.00     0.167 HD
ATOM     58  C   UNL A   1      39.970  31.038  34.414  1.00  0.00     0.037 A 
ATOM     59  C   UNL A   1      41.902  27.240  28.856  1.00  0.00     0.037 A 
ATOM     60  C   UNL A   1      41.129  30.210  34.618  1.00  0.00     0.049 A 
ATOM     61  C   UNL A   1      42.671  27.205  30.148  1.00  0.00     0.074 A 
ATOM     62  C   UNL A   1      41.890  30.057  35.763  1.00  0.00     0.029 A 
ATOM     63  N   UNL A   1      41.692  29.391  33.651  1.00  0.00    -0.354 N 
ATOM     64  N   UNL A   1      42.428  27.831  31.274  1.00  0.00    -0.248 NA
ATOM     65  C   UNL A   1      43.869  26.354  30.183  1.00  0.00     0.031 C 
ATOM     66  C   UNL A   1      42.935  29.172  35.480  1.00  0.00     0.029 A 
ATOM     67  C   UNL A   1      42.798  28.739  34.169  1.00  0.00     0.049 A 
ATOM     68  H   UNL A   1      41.354  29.287  32.732  1.00  0.00     0.167 HD
ATOM     69  C   UNL A   1      43.421  27.430  32.157  1.00  0.00     0.074 A 
ATOM     70  C   UNL A   1      44.264  26.494  31.441  1.00  0.00     0.031 C 
ATOM     71  C   UNL A   1      43.617  27.802  33.445  1.00  0.00     0.037 A 
BRANCH  58  72
ATOM     72  C   UNL A   1      39.517  31.922  35.538  1.00  0.00     0.064 A 
ATOM     73  C   UNL A   1      40.017  33.224  35.694  1.00  0.00     0.173 A 
ATOM     74  C   UNL A   1      38.554  31.475  36.454  1.00  0.00     0.173 A 
ATOM     75  F   UNL A   1      40.951  33.693  34.852  1.00  0.00    -0.203 F 
ATOM     76  C   UNL A   1      39.595  34.033  36.745  1.00  0.00     0.198 A 
ATOM     77  C   UNL A   1      38.111  32.298  37.486  1.00  0.00     0.198 A 
ATOM     78  F   UNL A   1      38.039  30.240  36.346  1.00  0.00    -0.203 F 
ATOM     79  F   UNL A   1      40.126  35.252  36.905  1.00  0.00    -0.200 F 
ATOM     80  C   UNL A   1      38.637  33.572  37.636  1.00  0.00     0.200 A 
ATOM     81  F   UNL A   1      37.177  31.855  38.340  1.00  0.00    -0.200 F 
ATOM     82  F   UNL A   1      38.227  34.354  38.645  1.00  0.00    -0.200 F 
ENDBRANCH  58  72
BRANCH  59  83
ATOM     83  C   UNL A   1      42.346  26.440  27.686  1.00  0.00     0.064 A 
ATOM     84  C   UNL A   1      41.798  25.174  27.434  1.00  0.00     0.173 A 
ATOM     85  C   UNL A   1      43.325  26.915  26.802  1.00  0.00     0.173 A 
ATOM     86  F   UNL A   1      40.873  24.668  28.262  1.00  0.00    -0.203 F 
ATOM     87  C   UNL A   1      42.228  24.405  26.354  1.00  0.00     0.198 A 
ATOM     88  C   UNL A   1      43.736  26.156  25.708  1.00  0.00     0.198 A 
ATOM     89  F   UNL A   1      43.876  28.122  26.997  1.00  0.00    -0.203 F 
ATOM     90  F   UNL A   1      41.720  23.180  26.163  1.00  0.00    -0.200 F 
ATOM     91  C   UNL A   1      43.193  24.899  25.490  1.00  0.00     0.200 A 
ATOM     92  F   UNL A   1      44.660  26.641  24.867  1.00  0.00    -0.200 F 
ATOM     93  F   UNL A   1      43.605  24.159  24.451  1.00  0.00    -0.200 F 
ENDBRANCH  59  83
BRANCH  71  94
ATOM     94  C   UNL A   1      44.766  27.170  34.175  1.00  0.00     0.064 A 
ATOM     95  C   UNL A   1      44.626  25.950  34.850  1.00  0.00     0.173 A 
ATOM     96  C   UNL A   1      46.031  27.777  34.163  1.00  0.00     0.173 A 
ATOM     97  F   UNL A   1      43.432  25.340  34.903  1.00  0.00    -0.203 F 
ATOM     98  C   UNL A   1      45.707  25.369  35.507  1.00  0.00     0.198 A 
ATOM     99  C   UNL A   1      47.116  27.179  34.797  1.00  0.00     0.198 A 
ATOM    100  F   UNL A   1      46.217  28.942  33.526  1.00  0.00    -0.203 F 
ATOM    101  F   UNL A   1      45.541  24.224  36.183  1.00  0.00    -0.200 F 
ATOM    102  C   UNL A   1      46.952  25.980  35.474  1.00  0.00     0.200 A 
ATOM    103  F   UNL A   1      48.321  27.764  34.754  1.00  0.00    -0.200 F 
ATOM    104  F   UNL A   1      47.993  25.415  36.102  1.00  0.00    -0.200 F 
ENDBRANCH  71  94
ENDBRANCH  45  46
ENDBRANCH  37  40
ENDBRANCH  35  36
ENDBRANCH  34  35
ENDBRANCH   1  34
TORSDOF 16
ENDMDL
