MODEL 1
REMARK VINA RESULT:     -12.7      0.000      0.000
REMARK SMILES CC(C)Nc1cc2ccccc2cc1C(=O)NCCCCNC(=O)c1ccc(-c2c3nc(c(-c4c(F)c(F)c(F)c(F)c4F)c4ccc([nH]4)c(-c4c(F)c(F)c(F)c(F)c4F)c4nc(c(-c5c(F)c(F)c(F)c(F)c5F)c5ccc2[nH]5)C=C4)C=C3)cc1
REMARK SMILES IDX 19 1 18 2 17 3 15 4 16 5 14 7 5 8 6 9 7 10 13 11 8 12 12 13
REMARK SMILES IDX 9 14 11 15 10 16 4 17 2 19 1 20 3 21 20 22 21 23 22 24 23 25
REMARK SMILES IDX 24 27 25 28 26 29 87 30 27 31 86 32 28 33 29 34 30 35 80 36
REMARK SMILES IDX 31 37 85 38 79 39 81 40 32 41 84 42 78 43 77 44 33 46 65 47
REMARK SMILES IDX 45 48 64 49 46 50 49 51 63 52 82 53 47 54 48 55 62 57 83 58
REMARK SMILES IDX 50 59 34 60 35 61 43 62 36 63 37 64 41 65 44 66 38 67 39 68
REMARK SMILES IDX 42 69 40 70 66 71 67 72 75 73 68 74 69 75 73 76 76 77 70 78
REMARK SMILES IDX 71 79 74 80 72 81 51 82 52 83 60 84 53 85 54 86 58 87 61 88
REMARK SMILES IDX 55 89 56 90 59 91 57 92
REMARK H PARENT 17 6 4 18 22 26 81 45 49 56
REMARK Flexibility Score: inf
ROOT
ATOM      1  C   UNL A   1      31.623  30.488  26.335  1.00  0.00     0.023 C 
ENDROOT
BRANCH   1   2
ATOM      2  C   UNL A   1      33.008  29.927  26.029  1.00  0.00     0.116 C 
BRANCH   2   3
ATOM      3  N   UNL A   1      33.280  29.704  24.623  1.00  0.00    -0.352 N 
ATOM      4  C   UNL A   1      33.152  28.537  23.896  1.00  0.00     0.253 C 
ATOM      5  O   UNL A   1      33.351  28.577  22.681  1.00  0.00    -0.269 OA
ATOM      6  H   UNL A   1      33.599  30.487  24.120  1.00  0.00     0.163 HD
BRANCH   4   7
ATOM      7  C   UNL A   1      32.892  27.222  24.545  1.00  0.00     0.063 A 
ATOM      8  C   UNL A   1      31.665  26.805  25.086  1.00  0.00     0.048 A 
ATOM      9  C   UNL A   1      31.657  25.619  25.848  1.00  0.00     0.035 A 
ATOM     10  C   UNL A   1      32.803  24.819  26.020  1.00  0.00    -0.016 A 
ATOM     11  C   UNL A   1      34.028  26.391  24.649  1.00  0.00     0.024 A 
ATOM     12  C   UNL A   1      32.784  23.655  26.808  1.00  0.00     0.009 A 
ATOM     13  C   UNL A   1      33.996  25.187  25.370  1.00  0.00    -0.017 A 
ATOM     14  C   UNL A   1      33.920  22.851  26.928  1.00  0.00     0.001 A 
ATOM     15  C   UNL A   1      35.125  24.354  25.477  1.00  0.00     0.009 A 
ATOM     16  C   UNL A   1      35.084  23.191  26.248  1.00  0.00     0.001 A 
BRANCH   8  17
ATOM     17  N   UNL A   1      30.428  27.413  24.845  1.00  0.00    -0.382 N 
ATOM     18  H   UNL A   1      30.021  27.992  25.530  1.00  0.00     0.160 HD
BRANCH  17  19
ATOM     19  C   UNL A   1      29.739  27.185  23.568  1.00  0.00     0.073 C 
ATOM     20  C   UNL A   1      28.318  26.699  23.874  1.00  0.00     0.030 C 
ATOM     21  C   UNL A   1      29.635  28.472  22.756  1.00  0.00     0.030 C 
ENDBRANCH  17  19
ENDBRANCH   8  17
ENDBRANCH   4   7
ENDBRANCH   2   3
ENDBRANCH   1   2
BRANCH   1  22
ATOM     22  C   UNL A   1      31.505  32.006  26.508  1.00  0.00     0.023 C 
BRANCH  22  23
ATOM     23  C   UNL A   1      32.636  32.743  27.223  1.00  0.00     0.116 C 
BRANCH  23  24
ATOM     24  N   UNL A   1      32.319  34.102  27.632  1.00  0.00    -0.352 N 
ATOM     25  C   UNL A   1      32.961  34.927  28.531  1.00  0.00     0.251 C 
ATOM     26  H   UNL A   1      31.525  34.493  27.200  1.00  0.00     0.163 HD
ATOM     27  O   UNL A   1      32.529  36.052  28.750  1.00  0.00    -0.269 OA
BRANCH  25  28
ATOM     28  C   UNL A   1      34.144  34.442  29.281  1.00  0.00     0.039 A 
ATOM     29  C   UNL A   1      33.944  33.875  30.544  1.00  0.00     0.014 A 
ATOM     30  C   UNL A   1      35.434  34.522  28.750  1.00  0.00     0.014 A 
ATOM     31  C   UNL A   1      35.018  33.294  31.226  1.00  0.00     0.010 A 
ATOM     32  C   UNL A   1      36.495  33.893  29.407  1.00  0.00     0.010 A 
ATOM     33  C   UNL A   1      36.293  33.249  30.638  1.00  0.00    -0.014 A 
BRANCH  33  34
ATOM     34  C   UNL A   1      37.399  32.477  31.268  1.00  0.00     0.031 A 
ATOM     35  C   UNL A   1      37.904  32.829  32.640  1.00  0.00     0.074 A 
ATOM     36  C   UNL A   1      38.000  31.492  30.570  1.00  0.00     0.049 A 
ATOM     37  N   UNL A   1      38.894  32.303  33.317  1.00  0.00    -0.248 NA
ATOM     38  C   UNL A   1      37.217  33.927  33.334  1.00  0.00     0.031 C 
ATOM     39  C   UNL A   1      37.640  31.078  29.213  1.00  0.00     0.029 A 
ATOM     40  N   UNL A   1      39.048  30.667  30.900  1.00  0.00    -0.354 N 
ATOM     41  C   UNL A   1      38.955  33.007  34.511  1.00  0.00     0.074 A 
ATOM     42  C   UNL A   1      37.931  34.029  34.448  1.00  0.00     0.031 C 
ATOM     43  C   UNL A   1      38.440  30.068  28.834  1.00  0.00     0.029 A 
ATOM     44  C   UNL A   1      39.390  29.784  29.905  1.00  0.00     0.049 A 
ATOM     45  H   UNL A   1      39.509  30.704  31.769  1.00  0.00     0.167 HD
ATOM     46  C   UNL A   1      39.774  32.808  35.573  1.00  0.00     0.037 A 
ATOM     47  C   UNL A   1      40.364  28.855  29.855  1.00  0.00     0.037 A 
ATOM     48  C   UNL A   1      40.786  31.785  35.645  1.00  0.00     0.049 A 
ATOM     49  C   UNL A   1      41.268  28.664  31.043  1.00  0.00     0.074 A 
ATOM     50  C   UNL A   1      41.633  31.483  36.698  1.00  0.00     0.029 A 
ATOM     51  N   UNL A   1      41.089  30.897  34.624  1.00  0.00    -0.354 N 
ATOM     52  N   UNL A   1      41.269  29.293  32.192  1.00  0.00    -0.248 NA
ATOM     53  C   UNL A   1      42.304  27.627  30.928  1.00  0.00     0.031 C 
ATOM     54  C   UNL A   1      42.475  30.438  36.300  1.00  0.00     0.029 A 
ATOM     55  C   UNL A   1      42.120  30.059  35.017  1.00  0.00     0.049 A 
ATOM     56  H   UNL A   1      40.638  30.868  33.750  1.00  0.00     0.167 HD
ATOM     57  C   UNL A   1      42.276  28.708  32.947  1.00  0.00     0.074 A 
ATOM     58  C   UNL A   1      42.859  27.664  32.131  1.00  0.00     0.031 C 
ATOM     59  C   UNL A   1      42.681  29.009  34.205  1.00  0.00     0.037 A 
BRANCH  46  60
ATOM     60  C   UNL A   1      39.606  33.714  36.757  1.00  0.00     0.064 A 
ATOM     61  C   UNL A   1      40.210  34.980  36.801  1.00  0.00     0.173 A 
ATOM     62  C   UNL A   1      38.789  33.340  37.835  1.00  0.00     0.173 A 
ATOM     63  F   UNL A   1      41.007  35.382  35.798  1.00  0.00    -0.203 F 
ATOM     64  C   UNL A   1      40.023  35.828  37.889  1.00  0.00     0.198 A 
ATOM     65  C   UNL A   1      38.581  34.202  38.909  1.00  0.00     0.198 A 
ATOM     66  F   UNL A   1      38.181  32.145  37.839  1.00  0.00    -0.203 F 
ATOM     67  F   UNL A   1      40.643  37.014  37.926  1.00  0.00    -0.200 F 
ATOM     68  C   UNL A   1      39.203  35.440  38.939  1.00  0.00     0.200 A 
ATOM     69  F   UNL A   1      37.778  33.833  39.916  1.00  0.00    -0.200 F 
ATOM     70  F   UNL A   1      39.015  36.262  39.981  1.00  0.00    -0.200 F 
ENDBRANCH  46  60
BRANCH  47  71
ATOM     71  C   UNL A   1      40.526  28.006  28.645  1.00  0.00     0.064 A 
ATOM     72  C   UNL A   1      41.308  28.438  27.565  1.00  0.00     0.173 A 
ATOM     73  C   UNL A   1      39.883  26.765  28.530  1.00  0.00     0.173 A 
ATOM     74  F   UNL A   1      41.924  29.629  27.617  1.00  0.00    -0.203 F 
ATOM     75  C   UNL A   1      41.420  27.674  26.405  1.00  0.00     0.198 A 
ATOM     76  C   UNL A   1      40.019  25.989  27.382  1.00  0.00     0.198 A 
ATOM     77  F   UNL A   1      39.126  26.305  29.537  1.00  0.00    -0.203 F 
ATOM     78  F   UNL A   1      42.129  28.135  25.367  1.00  0.00    -0.200 F 
ATOM     79  C   UNL A   1      40.778  26.448  26.316  1.00  0.00     0.200 A 
ATOM     80  F   UNL A   1      39.407  24.799  27.304  1.00  0.00    -0.200 F 
ATOM     81  F   UNL A   1      40.884  25.714  25.200  1.00  0.00    -0.200 F 
ENDBRANCH  47  71
BRANCH  59  82
ATOM     82  C   UNL A   1      43.775  28.169  34.797  1.00  0.00     0.064 A 
ATOM     83  C   UNL A   1      43.502  26.980  35.490  1.00  0.00     0.173 A 
ATOM     84  C   UNL A   1      45.119  28.545  34.641  1.00  0.00     0.173 A 
ATOM     85  F   UNL A   1      42.233  26.586  35.680  1.00  0.00    -0.203 F 
ATOM     86  C   UNL A   1      44.532  26.212  36.027  1.00  0.00     0.198 A 
ATOM     87  C   UNL A   1      46.147  27.759  35.154  1.00  0.00     0.198 A 
ATOM     88  F   UNL A   1      45.434  29.671  33.983  1.00  0.00    -0.203 F 
ATOM     89  F   UNL A   1      44.245  25.105  36.725  1.00  0.00    -0.200 F 
ATOM     90  C   UNL A   1      45.853  26.598  35.852  1.00  0.00     0.200 A 
ATOM     91  F   UNL A   1      47.423  28.128  34.975  1.00  0.00    -0.200 F 
ATOM     92  F   UNL A   1      46.842  25.855  36.365  1.00  0.00    -0.200 F 
ENDBRANCH  59  82
ENDBRANCH  33  34
ENDBRANCH  25  28
ENDBRANCH  23  24
ENDBRANCH  22  23
ENDBRANCH   1  22
TORSDOF 13
ENDMDL
MODEL 2
REMARK VINA RESULT:     -12.7      0.492      7.567
REMARK SMILES CC(C)Nc1cc2ccccc2cc1C(=O)NCCCCNC(=O)c1ccc(-c2c3nc(c(-c4c(F)c(F)c(F)c(F)c4F)c4ccc([nH]4)c(-c4c(F)c(F)c(F)c(F)c4F)c4nc(c(-c5c(F)c(F)c(F)c(F)c5F)c5ccc2[nH]5)C=C4)C=C3)cc1
REMARK SMILES IDX 19 1 18 2 17 3 15 4 16 5 14 7 5 8 6 9 7 10 13 11 8 12 12 13
REMARK SMILES IDX 9 14 11 15 10 16 4 17 2 19 1 20 3 21 20 22 21 23 22 24 23 25
REMARK SMILES IDX 24 27 25 28 26 29 87 30 27 31 86 32 28 33 29 34 30 35 80 36
REMARK SMILES IDX 31 37 85 38 79 39 81 40 32 41 84 42 78 43 77 44 33 46 65 47
REMARK SMILES IDX 45 48 64 49 46 50 49 51 63 52 82 53 47 54 48 55 62 57 83 58
REMARK SMILES IDX 50 59 34 60 35 61 43 62 36 63 37 64 41 65 44 66 38 67 39 68
REMARK SMILES IDX 42 69 40 70 66 71 67 72 75 73 68 74 69 75 73 76 76 77 70 78
REMARK SMILES IDX 71 79 74 80 72 81 51 82 52 83 60 84 53 85 54 86 58 87 61 88
REMARK SMILES IDX 55 89 56 90 59 91 57 92
REMARK H PARENT 17 6 4 18 22 26 81 45 49 56
REMARK Flexibility Score: inf
ROOT
ATOM      1  C   UNL A   1      32.020  30.179  26.812  1.00  0.00     0.023 C 
ENDROOT
BRANCH   1   2
ATOM      2  C   UNL A   1      33.415  29.755  26.366  1.00  0.00     0.116 C 
BRANCH   2   3
ATOM      3  N   UNL A   1      33.585  29.620  24.933  1.00  0.00    -0.352 N 
ATOM      4  C   UNL A   1      33.339  28.518  24.138  1.00  0.00     0.253 C 
ATOM      5  O   UNL A   1      33.464  28.636  22.918  1.00  0.00    -0.269 OA
ATOM      6  H   UNL A   1      33.921  30.418  24.466  1.00  0.00     0.163 HD
BRANCH   4   7
ATOM      7  C   UNL A   1      33.038  27.177  24.710  1.00  0.00     0.063 A 
ATOM      8  C   UNL A   1      31.780  26.742  25.157  1.00  0.00     0.048 A 
ATOM      9  C   UNL A   1      31.724  25.523  25.863  1.00  0.00     0.035 A 
ATOM     10  C   UNL A   1      32.857  24.711  26.069  1.00  0.00    -0.016 A 
ATOM     11  C   UNL A   1      34.164  26.337  24.845  1.00  0.00     0.024 A 
ATOM     12  C   UNL A   1      32.788  23.513  26.801  1.00  0.00     0.009 A 
ATOM     13  C   UNL A   1      34.087  25.103  25.509  1.00  0.00    -0.017 A 
ATOM     14  C   UNL A   1      33.913  22.700  26.953  1.00  0.00     0.001 A 
ATOM     15  C   UNL A   1      35.206  24.261  25.646  1.00  0.00     0.009 A 
ATOM     16  C   UNL A   1      35.116  23.065  26.360  1.00  0.00     0.001 A 
BRANCH   8  17
ATOM     17  N   UNL A   1      30.561  27.366  24.870  1.00  0.00    -0.382 N 
ATOM     18  H   UNL A   1      30.160  27.987  25.520  1.00  0.00     0.160 HD
BRANCH  17  19
ATOM     19  C   UNL A   1      29.882  27.089  23.597  1.00  0.00     0.073 C 
ATOM     20  C   UNL A   1      28.486  26.540  23.912  1.00  0.00     0.030 C 
ATOM     21  C   UNL A   1      29.716  28.359  22.769  1.00  0.00     0.030 C 
ENDBRANCH  17  19
ENDBRANCH   8  17
ENDBRANCH   4   7
ENDBRANCH   2   3
ENDBRANCH   1   2
BRANCH   1  22
ATOM     22  C   UNL A   1      31.724  31.682  26.852  1.00  0.00     0.023 C 
BRANCH  22  23
ATOM     23  C   UNL A   1      32.857  32.633  27.235  1.00  0.00     0.116 C 
BRANCH  23  24
ATOM     24  N   UNL A   1      32.431  33.967  27.629  1.00  0.00    -0.352 N 
ATOM     25  C   UNL A   1      32.990  34.841  28.536  1.00  0.00     0.251 C 
ATOM     26  H   UNL A   1      31.620  34.295  27.178  1.00  0.00     0.163 HD
ATOM     27  O   UNL A   1      32.471  35.932  28.738  1.00  0.00    -0.269 OA
BRANCH  25  28
ATOM     28  C   UNL A   1      34.189  34.449  29.314  1.00  0.00     0.039 A 
ATOM     29  C   UNL A   1      34.005  33.893  30.585  1.00  0.00     0.014 A 
ATOM     30  C   UNL A   1      35.480  34.605  28.803  1.00  0.00     0.014 A 
ATOM     31  C   UNL A   1      35.103  33.397  31.295  1.00  0.00     0.010 A 
ATOM     32  C   UNL A   1      36.568  34.059  29.489  1.00  0.00     0.010 A 
ATOM     33  C   UNL A   1      36.387  33.425  30.728  1.00  0.00    -0.014 A 
BRANCH  33  34
ATOM     34  C   UNL A   1      37.531  32.740  31.391  1.00  0.00     0.031 A 
ATOM     35  C   UNL A   1      38.223  31.578  30.734  1.00  0.00     0.074 A 
ATOM     36  C   UNL A   1      37.907  33.126  32.627  1.00  0.00     0.049 A 
ATOM     37  N   UNL A   1      39.196  30.829  31.191  1.00  0.00    -0.248 NA
ATOM     38  C   UNL A   1      37.748  31.197  29.397  1.00  0.00     0.031 C 
ATOM     39  C   UNL A   1      37.291  34.208  33.398  1.00  0.00     0.029 A 
ATOM     40  N   UNL A   1      38.889  32.645  33.460  1.00  0.00    -0.354 N 
ATOM     41  C   UNL A   1      39.446  29.886  30.203  1.00  0.00     0.074 A 
ATOM     42  C   UNL A   1      38.491  30.129  29.141  1.00  0.00     0.031 C 
ATOM     43  C   UNL A   1      37.920  34.319  34.580  1.00  0.00     0.029 A 
ATOM     44  C   UNL A   1      38.959  33.298  34.666  1.00  0.00     0.049 A 
ATOM     45  H   UNL A   1      39.487  31.902  33.214  1.00  0.00     0.167 HD
ATOM     46  C   UNL A   1      40.396  28.920  30.173  1.00  0.00     0.037 A 
ATOM     47  C   UNL A   1      39.764  33.094  35.727  1.00  0.00     0.037 A 
ATOM     48  C   UNL A   1      41.356  28.683  31.221  1.00  0.00     0.049 A 
ATOM     49  C   UNL A   1      40.802  32.006  35.672  1.00  0.00     0.074 A 
ATOM     50  C   UNL A   1      42.382  27.754  31.258  1.00  0.00     0.029 A 
ATOM     51  N   UNL A   1      41.407  29.380  32.420  1.00  0.00    -0.354 N 
ATOM     52  N   UNL A   1      41.070  31.166  34.703  1.00  0.00    -0.248 NA
ATOM     53  C   UNL A   1      41.654  31.842  36.859  1.00  0.00     0.031 C 
ATOM     54  C   UNL A   1      43.030  27.863  32.493  1.00  0.00     0.029 A 
ATOM     55  C   UNL A   1      42.437  28.890  33.207  1.00  0.00     0.049 A 
ATOM     56  H   UNL A   1      40.801  30.113  32.673  1.00  0.00     0.167 HD
ATOM     57  C   UNL A   1      42.140  30.401  35.146  1.00  0.00     0.074 A 
ATOM     58  C   UNL A   1      42.481  30.883  36.468  1.00  0.00     0.031 C 
ATOM     59  C   UNL A   1      42.782  29.389  34.514  1.00  0.00     0.037 A 
BRANCH  46  60
ATOM     60  C   UNL A   1      40.455  28.043  28.956  1.00  0.00     0.064 A 
ATOM     61  C   UNL A   1      39.709  26.858  28.873  1.00  0.00     0.173 A 
ATOM     62  C   UNL A   1      41.219  28.417  27.840  1.00  0.00     0.173 A 
ATOM     63  F   UNL A   1      38.968  26.453  29.916  1.00  0.00    -0.203 F 
ATOM     64  C   UNL A   1      39.744  26.068  27.728  1.00  0.00     0.198 A 
ATOM     65  C   UNL A   1      41.230  27.639  26.686  1.00  0.00     0.198 A 
ATOM     66  F   UNL A   1      41.943  29.546  27.865  1.00  0.00    -0.203 F 
ATOM     67  F   UNL A   1      39.055  24.919  27.687  1.00  0.00    -0.200 F 
ATOM     68  C   UNL A   1      40.500  26.462  26.633  1.00  0.00     0.200 A 
ATOM     69  F   UNL A   1      41.949  28.028  25.624  1.00  0.00    -0.200 F 
ATOM     70  F   UNL A   1      40.524  25.705  25.527  1.00  0.00    -0.200 F 
ENDBRANCH  46  60
BRANCH  47  71
ATOM     71  C   UNL A   1      39.644  33.957  36.932  1.00  0.00     0.064 A 
ATOM     72  C   UNL A   1      38.851  33.566  38.019  1.00  0.00     0.173 A 
ATOM     73  C   UNL A   1      40.293  35.197  37.011  1.00  0.00     0.173 A 
ATOM     74  F   UNL A   1      38.191  32.398  37.981  1.00  0.00    -0.203 F 
ATOM     75  C   UNL A   1      38.689  34.393  39.129  1.00  0.00     0.198 A 
ATOM     76  C   UNL A   1      40.154  36.011  38.133  1.00  0.00     0.198 A 
ATOM     77  F   UNL A   1      41.066  35.617  35.999  1.00  0.00    -0.203 F 
ATOM     78  F   UNL A   1      37.882  34.018  40.130  1.00  0.00    -0.200 F 
ATOM     79  C   UNL A   1      39.344  35.613  39.186  1.00  0.00     0.200 A 
ATOM     80  F   UNL A   1      40.798  37.185  38.191  1.00  0.00    -0.200 F 
ATOM     81  F   UNL A   1      39.187  36.411  40.252  1.00  0.00    -0.200 F 
ENDBRANCH  47  71
BRANCH  59  82
ATOM     82  C   UNL A   1      43.951  28.765  35.220  1.00  0.00     0.064 A 
ATOM     83  C   UNL A   1      45.262  29.226  35.029  1.00  0.00     0.173 A 
ATOM     84  C   UNL A   1      43.750  27.711  36.125  1.00  0.00     0.173 A 
ATOM     85  F   UNL A   1      45.508  30.220  34.161  1.00  0.00    -0.203 F 
ATOM     86  C   UNL A   1      46.332  28.638  35.698  1.00  0.00     0.198 A 
ATOM     87  C   UNL A   1      44.819  27.145  36.814  1.00  0.00     0.198 A 
ATOM     88  F   UNL A   1      42.515  27.237  36.348  1.00  0.00    -0.203 F 
ATOM     89  F   UNL A   1      47.581  29.062  35.464  1.00  0.00    -0.200 F 
ATOM     90  C   UNL A   1      46.109  27.603  36.595  1.00  0.00     0.200 A 
ATOM     91  F   UNL A   1      44.600  26.152  37.688  1.00  0.00    -0.200 F 
ATOM     92  F   UNL A   1      47.139  27.042  37.242  1.00  0.00    -0.200 F 
ENDBRANCH  59  82
ENDBRANCH  33  34
ENDBRANCH  25  28
ENDBRANCH  23  24
ENDBRANCH  22  23
ENDBRANCH   1  22
TORSDOF 13
ENDMDL
MODEL 3
REMARK VINA RESULT:     -12.6      0.325      1.190
REMARK SMILES CC(C)Nc1cc2ccccc2cc1C(=O)NCCCCNC(=O)c1ccc(-c2c3nc(c(-c4c(F)c(F)c(F)c(F)c4F)c4ccc([nH]4)c(-c4c(F)c(F)c(F)c(F)c4F)c4nc(c(-c5c(F)c(F)c(F)c(F)c5F)c5ccc2[nH]5)C=C4)C=C3)cc1
REMARK SMILES IDX 19 1 18 2 17 3 15 4 16 5 14 7 5 8 6 9 7 10 13 11 8 12 12 13
REMARK SMILES IDX 9 14 11 15 10 16 4 17 2 19 1 20 3 21 20 22 21 23 22 24 23 25
REMARK SMILES IDX 24 27 25 28 26 29 87 30 27 31 86 32 28 33 29 34 30 35 80 36
REMARK SMILES IDX 31 37 85 38 79 39 81 40 32 41 84 42 78 43 77 44 33 46 65 47
REMARK SMILES IDX 45 48 64 49 46 50 49 51 63 52 82 53 47 54 48 55 62 57 83 58
REMARK SMILES IDX 50 59 34 60 35 61 43 62 36 63 37 64 41 65 44 66 38 67 39 68
REMARK SMILES IDX 42 69 40 70 66 71 67 72 75 73 68 74 69 75 73 76 76 77 70 78
REMARK SMILES IDX 71 79 74 80 72 81 51 82 52 83 60 84 53 85 54 86 58 87 61 88
REMARK SMILES IDX 55 89 56 90 59 91 57 92
REMARK H PARENT 17 6 4 18 22 26 81 45 49 56
REMARK Flexibility Score: inf
ROOT
ATOM      1  C   UNL A   1      31.641  30.644  26.109  1.00  0.00     0.023 C 
ENDROOT
BRANCH   1   2
ATOM      2  C   UNL A   1      33.006  29.978  26.249  1.00  0.00     0.116 C 
BRANCH   2   3
ATOM      3  N   UNL A   1      33.666  29.668  24.997  1.00  0.00    -0.352 N 
ATOM      4  C   UNL A   1      33.638  28.489  24.278  1.00  0.00     0.253 C 
ATOM      5  O   UNL A   1      34.201  28.456  23.183  1.00  0.00    -0.269 OA
ATOM      6  H   UNL A   1      34.207  30.392  24.609  1.00  0.00     0.163 HD
BRANCH   4   7
ATOM      7  C   UNL A   1      33.051  27.237  24.830  1.00  0.00     0.063 A 
ATOM      8  C   UNL A   1      31.690  27.021  25.098  1.00  0.00     0.048 A 
ATOM      9  C   UNL A   1      31.343  25.858  25.815  1.00  0.00     0.035 A 
ATOM     10  C   UNL A   1      32.292  24.891  26.201  1.00  0.00    -0.016 A 
ATOM     11  C   UNL A   1      33.999  26.240  25.146  1.00  0.00     0.024 A 
ATOM     12  C   UNL A   1      31.931  23.752  26.942  1.00  0.00     0.009 A 
ATOM     13  C   UNL A   1      33.635  25.064  25.818  1.00  0.00    -0.017 A 
ATOM     14  C   UNL A   1      32.880  22.783  27.273  1.00  0.00     0.001 A 
ATOM     15  C   UNL A   1      34.576  24.066  26.136  1.00  0.00     0.009 A 
ATOM     16  C   UNL A   1      34.198  22.932  26.855  1.00  0.00     0.001 A 
BRANCH   8  17
ATOM     17  N   UNL A   1      30.638  27.811  24.623  1.00  0.00    -0.382 N 
ATOM     18  H   UNL A   1      30.281  28.543  25.177  1.00  0.00     0.160 HD
BRANCH  17  19
ATOM     19  C   UNL A   1      30.068  27.545  23.296  1.00  0.00     0.073 C 
ATOM     20  C   UNL A   1      28.564  27.302  23.464  1.00  0.00     0.030 C 
ATOM     21  C   UNL A   1      30.253  28.737  22.363  1.00  0.00     0.030 C 
ENDBRANCH  17  19
ENDBRANCH   8  17
ENDBRANCH   4   7
ENDBRANCH   2   3
ENDBRANCH   1   2
BRANCH   1  22
ATOM     22  C   UNL A   1      31.417  31.952  26.875  1.00  0.00     0.023 C 
BRANCH  22  23
ATOM     23  C   UNL A   1      32.634  32.812  27.210  1.00  0.00     0.116 C 
BRANCH  23  24
ATOM     24  N   UNL A   1      32.329  34.172  27.623  1.00  0.00    -0.352 N 
ATOM     25  C   UNL A   1      32.984  34.993  28.516  1.00  0.00     0.251 C 
ATOM     26  H   UNL A   1      31.533  34.567  27.199  1.00  0.00     0.163 HD
ATOM     27  O   UNL A   1      32.560  36.120  28.739  1.00  0.00    -0.269 OA
BRANCH  25  28
ATOM     28  C   UNL A   1      34.172  34.501  29.253  1.00  0.00     0.039 A 
ATOM     29  C   UNL A   1      33.978  33.908  30.505  1.00  0.00     0.014 A 
ATOM     30  C   UNL A   1      35.460  34.602  28.722  1.00  0.00     0.014 A 
ATOM     31  C   UNL A   1      35.058  33.321  31.173  1.00  0.00     0.010 A 
ATOM     32  C   UNL A   1      36.527  33.967  29.364  1.00  0.00     0.010 A 
ATOM     33  C   UNL A   1      36.332  33.296  30.582  1.00  0.00    -0.014 A 
BRANCH  33  34
ATOM     34  C   UNL A   1      37.445  32.520  31.194  1.00  0.00     0.031 A 
ATOM     35  C   UNL A   1      37.967  32.864  32.562  1.00  0.00     0.074 A 
ATOM     36  C   UNL A   1      38.036  31.539  30.483  1.00  0.00     0.049 A 
ATOM     37  N   UNL A   1      38.965  32.333  33.224  1.00  0.00    -0.248 NA
ATOM     38  C   UNL A   1      37.290  33.959  33.271  1.00  0.00     0.031 C 
ATOM     39  C   UNL A   1      37.660  31.133  29.128  1.00  0.00     0.029 A 
ATOM     40  N   UNL A   1      39.087  30.710  30.796  1.00  0.00    -0.354 N 
ATOM     41  C   UNL A   1      39.041  33.031  34.421  1.00  0.00     0.074 A 
ATOM     42  C   UNL A   1      38.016  34.054  34.376  1.00  0.00     0.031 C 
ATOM     43  C   UNL A   1      38.454  30.124  28.734  1.00  0.00     0.029 A 
ATOM     44  C   UNL A   1      39.417  29.833  29.792  1.00  0.00     0.049 A 
ATOM     45  H   UNL A   1      39.559  30.742  31.660  1.00  0.00     0.167 HD
ATOM     46  C   UNL A   1      39.873  32.824  35.472  1.00  0.00     0.037 A 
ATOM     47  C   UNL A   1      40.389  28.903  29.725  1.00  0.00     0.037 A 
ATOM     48  C   UNL A   1      40.884  31.800  35.526  1.00  0.00     0.049 A 
ATOM     49  C   UNL A   1      41.308  28.705  30.901  1.00  0.00     0.074 A 
ATOM     50  C   UNL A   1      41.744  31.491  36.567  1.00  0.00     0.029 A 
ATOM     51  N   UNL A   1      41.174  30.918  34.496  1.00  0.00    -0.354 N 
ATOM     52  N   UNL A   1      41.323  29.328  32.053  1.00  0.00    -0.248 NA
ATOM     53  C   UNL A   1      42.341  27.668  30.767  1.00  0.00     0.031 C 
ATOM     54  C   UNL A   1      42.579  30.448  36.152  1.00  0.00     0.029 A 
ATOM     55  C   UNL A   1      42.209  30.076  34.872  1.00  0.00     0.049 A 
ATOM     56  H   UNL A   1      40.712  30.894  33.627  1.00  0.00     0.167 HD
ATOM     57  C   UNL A   1      42.338  28.737  32.792  1.00  0.00     0.074 A 
ATOM     58  C   UNL A   1      42.910  27.697  31.963  1.00  0.00     0.031 C 
ATOM     59  C   UNL A   1      42.758  29.030  34.047  1.00  0.00     0.037 A 
BRANCH  46  60
ATOM     60  C   UNL A   1      39.720  33.724  36.663  1.00  0.00     0.064 A 
ATOM     61  C   UNL A   1      40.360  34.971  36.725  1.00  0.00     0.173 A 
ATOM     62  C   UNL A   1      38.881  33.364  37.729  1.00  0.00     0.173 A 
ATOM     63  F   UNL A   1      41.178  35.358  35.734  1.00  0.00    -0.203 F 
ATOM     64  C   UNL A   1      40.187  35.813  37.819  1.00  0.00     0.198 A 
ATOM     65  C   UNL A   1      38.688  34.221  38.810  1.00  0.00     0.198 A 
ATOM     66  F   UNL A   1      38.238  32.188  37.716  1.00  0.00    -0.203 F 
ATOM     67  F   UNL A   1      40.842  36.981  37.874  1.00  0.00    -0.200 F 
ATOM     68  C   UNL A   1      39.347  35.440  38.857  1.00  0.00     0.200 A 
ATOM     69  F   UNL A   1      37.865  33.867  39.806  1.00  0.00    -0.200 F 
ATOM     70  F   UNL A   1      39.173  36.258  39.906  1.00  0.00    -0.200 F 
ENDBRANCH  46  60
BRANCH  47  71
ATOM     71  C   UNL A   1      40.536  28.062  28.508  1.00  0.00     0.064 A 
ATOM     72  C   UNL A   1      39.905  26.813  28.418  1.00  0.00     0.173 A 
ATOM     73  C   UNL A   1      41.328  28.471  27.426  1.00  0.00     0.173 A 
ATOM     74  F   UNL A   1      39.155  26.367  29.438  1.00  0.00    -0.203 F 
ATOM     75  C   UNL A   1      40.081  25.994  27.305  1.00  0.00     0.198 A 
ATOM     76  C   UNL A   1      41.480  27.665  26.300  1.00  0.00     0.198 A 
ATOM     77  F   UNL A   1      41.950  29.659  27.460  1.00  0.00    -0.203 F 
ATOM     78  F   UNL A   1      39.510  24.783  27.269  1.00  0.00    -0.200 F 
ATOM     79  C   UNL A   1      40.866  26.422  26.245  1.00  0.00     0.200 A 
ATOM     80  F   UNL A   1      42.230  28.087  25.273  1.00  0.00    -0.200 F 
ATOM     81  F   UNL A   1      41.038  25.635  25.175  1.00  0.00    -0.200 F 
ENDBRANCH  47  71
BRANCH  59  82
ATOM     82  C   UNL A   1      43.859  28.186  34.621  1.00  0.00     0.064 A 
ATOM     83  C   UNL A   1      43.594  26.990  35.304  1.00  0.00     0.173 A 
ATOM     84  C   UNL A   1      45.201  28.565  34.457  1.00  0.00     0.173 A 
ATOM     85  F   UNL A   1      42.327  26.593  35.502  1.00  0.00    -0.203 F 
ATOM     86  C   UNL A   1      44.629  26.219  35.825  1.00  0.00     0.198 A 
ATOM     87  C   UNL A   1      46.234  27.776  34.953  1.00  0.00     0.198 A 
ATOM     88  F   UNL A   1      45.509  29.698  33.806  1.00  0.00    -0.203 F 
ATOM     89  F   UNL A   1      44.350  25.105  36.515  1.00  0.00    -0.200 F 
ATOM     90  C   UNL A   1      45.948  26.608  35.642  1.00  0.00     0.200 A 
ATOM     91  F   UNL A   1      47.509  28.148  34.766  1.00  0.00    -0.200 F 
ATOM     92  F   UNL A   1      46.943  25.861  36.139  1.00  0.00    -0.200 F 
ENDBRANCH  59  82
ENDBRANCH  33  34
ENDBRANCH  25  28
ENDBRANCH  23  24
ENDBRANCH  22  23
ENDBRANCH   1  22
TORSDOF 13
ENDMDL
