MODEL 1
REMARK VINA RESULT:     -13.0      0.000      0.000
REMARK SMILES NC(=O)[C@H]1CC(C(=O)NCCCCNC(=O)c2ccc(-c3c4nc(c(-c5c(F)c(F)c(F)c(F)c5F)c5ccc([nH]5)c(-c5c(F)c(F)c(F)c(F)c5F)c5nc(c(-c6c(F)c(F)c(F)c(F)c6F)c6ccc3[nH]6)C=C5)C=C4)cc2)=NN1c1ccc(F)cc1
REMARK SMILES IDX 12 1 11 2 10 3 9 4 7 5 8 6 6 8 4 9 5 10 81 11 80 12 2 13
REMARK SMILES IDX 1 14 3 17 82 18 83 19 88 20 84 21 87 22 85 23 86 24 13 25
REMARK SMILES IDX 14 26 15 27 16 29 17 30 18 31 79 32 19 33 78 34 20 35 21 36
REMARK SMILES IDX 22 37 72 38 23 39 77 40 71 41 73 42 24 43 76 44 70 45 69 46
REMARK SMILES IDX 25 48 57 49 37 50 56 51 38 52 41 53 55 54 74 55 39 56 40 57
REMARK SMILES IDX 54 59 75 60 42 61 26 62 27 63 35 64 28 65 29 66 33 67 36 68
REMARK SMILES IDX 30 69 31 70 34 71 32 72 58 73 59 74 67 75 60 76 61 77 65 78
REMARK SMILES IDX 68 79 62 80 63 81 66 82 64 83 43 84 44 85 52 86 45 87 46 88
REMARK SMILES IDX 50 89 53 90 47 91 48 92 51 93 49 94
REMARK H PARENT 9 7 1 15 1 16 14 28 73 47 41 58
REMARK Flexibility Score: inf
ROOT
ATOM      1  C   UNL A   1      31.607  31.937  26.789  1.00  0.00     0.023 C 
ENDROOT
BRANCH   1   2
ATOM      2  C   UNL A   1      31.811  30.419  26.820  1.00  0.00     0.023 C 
BRANCH   2   3
ATOM      3  C   UNL A   1      32.335  29.838  25.509  1.00  0.00     0.116 C 
BRANCH   3   4
ATOM      4  N   UNL A   1      31.270  29.620  24.553  1.00  0.00    -0.351 N 
ATOM      5  C   UNL A   1      30.706  28.497  23.996  1.00  0.00     0.267 C 
ATOM      6  O   UNL A   1      29.810  28.662  23.171  1.00  0.00    -0.268 OA
ATOM      7  H   UNL A   1      30.861  30.456  24.233  1.00  0.00     0.163 HD
BRANCH   5   8
ATOM      8  C   UNL A   1      31.113  27.076  24.362  1.00  0.00     0.128 C 
ATOM      9  C   UNL A   1      31.049  24.787  24.814  1.00  0.00     0.203 C 
ATOM     10  C   UNL A   1      30.132  25.991  24.639  1.00  0.00     0.101 C 
ATOM     11  N   UNL A   1      32.373  25.374  24.662  1.00  0.00    -0.252 N 
ATOM     12  N   UNL A   1      32.361  26.716  24.408  1.00  0.00    -0.171 NA
BRANCH   9  13
ATOM     13  C   UNL A   1      30.863  24.116  26.190  1.00  0.00     0.242 C 
ATOM     14  N   UNL A   1      30.174  22.929  26.199  1.00  0.00    -0.368 N 
ATOM     15  H   UNL A   1      30.024  22.452  27.048  1.00  0.00     0.159 HD
ATOM     16  H   UNL A   1      29.831  22.551  25.356  1.00  0.00     0.159 HD
ATOM     17  O   UNL A   1      31.331  24.518  27.251  1.00  0.00    -0.273 OA
ENDBRANCH   9  13
BRANCH  11  18
ATOM     18  C   UNL A   1      33.537  24.647  24.437  1.00  0.00     0.061 A 
ATOM     19  C   UNL A   1      34.583  24.687  25.374  1.00  0.00     0.031 A 
ATOM     20  C   UNL A   1      33.723  23.868  23.283  1.00  0.00     0.031 A 
ATOM     21  C   UNL A   1      35.755  23.948  25.189  1.00  0.00     0.041 A 
ATOM     22  C   UNL A   1      34.904  23.150  23.076  1.00  0.00     0.041 A 
ATOM     23  C   UNL A   1      35.904  23.188  24.038  1.00  0.00     0.123 A 
ATOM     24  F   UNL A   1      37.029  22.488  23.847  1.00  0.00    -0.207 F 
ENDBRANCH  11  18
ENDBRANCH   5   8
ENDBRANCH   3   4
ENDBRANCH   2   3
ENDBRANCH   1   2
BRANCH   1  25
ATOM     25  C   UNL A   1      32.780  32.766  27.311  1.00  0.00     0.116 C 
BRANCH  25  26
ATOM     26  N   UNL A   1      32.429  34.143  27.625  1.00  0.00    -0.352 N 
ATOM     27  C   UNL A   1      32.995  34.978  28.559  1.00  0.00     0.251 C 
ATOM     28  H   UNL A   1      31.690  34.528  27.100  1.00  0.00     0.163 HD
ATOM     29  O   UNL A   1      32.523  36.090  28.765  1.00  0.00    -0.269 OA
BRANCH  27  30
ATOM     30  C   UNL A   1      34.151  34.502  29.345  1.00  0.00     0.039 A 
ATOM     31  C   UNL A   1      33.921  33.924  30.596  1.00  0.00     0.014 A 
ATOM     32  C   UNL A   1      35.446  34.580  28.828  1.00  0.00     0.014 A 
ATOM     33  C   UNL A   1      34.986  33.359  31.299  1.00  0.00     0.010 A 
ATOM     34  C   UNL A   1      36.493  33.955  29.496  1.00  0.00     0.010 A 
ATOM     35  C   UNL A   1      36.272  33.335  30.736  1.00  0.00    -0.014 A 
BRANCH  35  36
ATOM     36  C   UNL A   1      37.397  32.653  31.424  1.00  0.00     0.031 A 
ATOM     37  C   UNL A   1      38.099  31.502  30.763  1.00  0.00     0.074 A 
ATOM     38  C   UNL A   1      37.737  33.028  32.672  1.00  0.00     0.049 A 
ATOM     39  N   UNL A   1      39.064  30.745  31.225  1.00  0.00    -0.248 NA
ATOM     40  C   UNL A   1      37.639  31.131  29.416  1.00  0.00     0.031 C 
ATOM     41  C   UNL A   1      37.088  34.092  33.441  1.00  0.00     0.029 A 
ATOM     42  N   UNL A   1      38.705  32.550  33.519  1.00  0.00    -0.354 N 
ATOM     43  C   UNL A   1      39.314  29.806  30.234  1.00  0.00     0.074 A 
ATOM     44  C   UNL A   1      38.364  30.051  29.169  1.00  0.00     0.031 C 
ATOM     45  C   UNL A   1      37.693  34.203  34.634  1.00  0.00     0.029 A 
ATOM     46  C   UNL A   1      38.747  33.198  34.729  1.00  0.00     0.049 A 
ATOM     47  H   UNL A   1      39.313  31.813  33.280  1.00  0.00     0.167 HD
ATOM     48  C   UNL A   1      40.267  28.844  30.204  1.00  0.00     0.037 A 
ATOM     49  C   UNL A   1      39.546  33.000  35.795  1.00  0.00     0.037 A 
ATOM     50  C   UNL A   1      41.226  28.623  31.253  1.00  0.00     0.049 A 
ATOM     51  C   UNL A   1      40.603  31.931  35.731  1.00  0.00     0.074 A 
ATOM     52  C   UNL A   1      42.272  27.718  31.290  1.00  0.00     0.029 A 
ATOM     53  N   UNL A   1      41.255  29.315  32.455  1.00  0.00    -0.354 N 
ATOM     54  N   UNL A   1      40.880  31.099  34.756  1.00  0.00    -0.248 NA
ATOM     55  C   UNL A   1      41.461  31.778  36.913  1.00  0.00     0.031 C 
ATOM     56  C   UNL A   1      42.907  27.832  32.530  1.00  0.00     0.029 A 
ATOM     57  C   UNL A   1      42.288  28.843  33.249  1.00  0.00     0.049 A 
ATOM     58  H   UNL A   1      40.633  30.036  32.707  1.00  0.00     0.167 HD
ATOM     59  C   UNL A   1      41.961  30.346  35.195  1.00  0.00     0.074 A 
ATOM     60  C   UNL A   1      42.298  30.830  36.518  1.00  0.00     0.031 C 
ATOM     61  C   UNL A   1      42.614  29.342  34.560  1.00  0.00     0.037 A 
BRANCH  48  62
ATOM     62  C   UNL A   1      40.322  27.962  28.990  1.00  0.00     0.064 A 
ATOM     63  C   UNL A   1      39.620  26.749  28.931  1.00  0.00     0.173 A 
ATOM     64  C   UNL A   1      41.059  28.349  27.861  1.00  0.00     0.173 A 
ATOM     65  F   UNL A   1      38.909  26.327  29.988  1.00  0.00    -0.203 F 
ATOM     66  C   UNL A   1      39.677  25.941  27.798  1.00  0.00     0.198 A 
ATOM     67  C   UNL A   1      41.091  27.553  26.718  1.00  0.00     0.198 A 
ATOM     68  F   UNL A   1      41.746  29.501  27.863  1.00  0.00    -0.203 F 
ATOM     69  F   UNL A   1      39.040  24.762  27.785  1.00  0.00    -0.200 F 
ATOM     70  C   UNL A   1      40.407  26.347  26.691  1.00  0.00     0.200 A 
ATOM     71  F   UNL A   1      41.786  27.951  25.645  1.00  0.00    -0.200 F 
ATOM     72  F   UNL A   1      40.457  25.571  25.599  1.00  0.00    -0.200 F 
ENDBRANCH  48  62
BRANCH  49  73
ATOM     73  C   UNL A   1      39.401  33.856  37.001  1.00  0.00     0.064 A 
ATOM     74  C   UNL A   1      40.007  35.119  37.063  1.00  0.00     0.173 A 
ATOM     75  C   UNL A   1      38.660  33.432  38.114  1.00  0.00     0.173 A 
ATOM     76  F   UNL A   1      40.742  35.559  36.030  1.00  0.00    -0.203 F 
ATOM     77  C   UNL A   1      39.897  35.916  38.200  1.00  0.00     0.198 A 
ATOM     78  C   UNL A   1      38.528  34.241  39.240  1.00  0.00     0.198 A 
ATOM     79  F   UNL A   1      38.055  32.235  38.102  1.00  0.00    -0.203 F 
ATOM     80  F   UNL A   1      40.525  37.098  38.250  1.00  0.00    -0.200 F 
ATOM     81  C   UNL A   1      39.153  35.478  39.285  1.00  0.00     0.200 A 
ATOM     82  F   UNL A   1      37.796  33.822  40.281  1.00  0.00    -0.200 F 
ATOM     83  F   UNL A   1      39.045  36.247  40.379  1.00  0.00    -0.200 F 
ENDBRANCH  49  73
BRANCH  61  84
ATOM     84  C   UNL A   1      43.781  28.723  35.273  1.00  0.00     0.064 A 
ATOM     85  C   UNL A   1      43.620  27.623  36.128  1.00  0.00     0.173 A 
ATOM     86  C   UNL A   1      45.079  29.215  35.070  1.00  0.00     0.173 A 
ATOM     87  F   UNL A   1      42.398  27.125  36.367  1.00  0.00    -0.203 F 
ATOM     88  C   UNL A   1      44.715  27.056  36.776  1.00  0.00     0.198 A 
ATOM     89  C   UNL A   1      46.174  28.628  35.697  1.00  0.00     0.198 A 
ATOM     90  F   UNL A   1      45.285  30.262  34.258  1.00  0.00    -0.203 F 
ATOM     91  F   UNL A   1      44.533  26.036  37.627  1.00  0.00    -0.200 F 
ATOM     92  C   UNL A   1      45.991  27.554  36.554  1.00  0.00     0.200 A 
ATOM     93  F   UNL A   1      47.407  29.101  35.470  1.00  0.00    -0.200 F 
ATOM     94  F   UNL A   1      47.043  27.003  37.174  1.00  0.00    -0.200 F 
ENDBRANCH  61  84
ENDBRANCH  35  36
ENDBRANCH  27  30
ENDBRANCH  25  26
ENDBRANCH   1  25
TORSDOF 13
ENDMDL
MODEL 2
REMARK VINA RESULT:     -12.9      0.284      1.626
REMARK SMILES NC(=O)[C@H]1CC(C(=O)NCCCCNC(=O)c2ccc(-c3c4nc(c(-c5c(F)c(F)c(F)c(F)c5F)c5ccc([nH]5)c(-c5c(F)c(F)c(F)c(F)c5F)c5nc(c(-c6c(F)c(F)c(F)c(F)c6F)c6ccc3[nH]6)C=C5)C=C4)cc2)=NN1c1ccc(F)cc1
REMARK SMILES IDX 12 1 11 2 10 3 9 4 7 5 8 6 6 8 4 9 5 10 81 11 80 12 2 13
REMARK SMILES IDX 1 14 3 17 82 18 83 19 88 20 84 21 87 22 85 23 86 24 13 25
REMARK SMILES IDX 14 26 15 27 16 29 17 30 18 31 79 32 19 33 78 34 20 35 21 36
REMARK SMILES IDX 22 37 72 38 23 39 77 40 71 41 73 42 24 43 76 44 70 45 69 46
REMARK SMILES IDX 25 48 57 49 37 50 56 51 38 52 41 53 55 54 74 55 39 56 40 57
REMARK SMILES IDX 54 59 75 60 42 61 26 62 27 63 35 64 28 65 29 66 33 67 36 68
REMARK SMILES IDX 30 69 31 70 34 71 32 72 58 73 59 74 67 75 60 76 61 77 65 78
REMARK SMILES IDX 68 79 62 80 63 81 66 82 64 83 43 84 44 85 52 86 45 87 46 88
REMARK SMILES IDX 50 89 53 90 47 91 48 92 51 93 49 94
REMARK H PARENT 9 7 1 15 1 16 14 28 73 47 41 58
REMARK Flexibility Score: inf
ROOT
ATOM      1  C   UNL A   1      31.597  32.006  26.735  1.00  0.00     0.023 C 
ENDROOT
BRANCH   1   2
ATOM      2  C   UNL A   1      31.786  30.486  26.722  1.00  0.00     0.023 C 
BRANCH   2   3
ATOM      3  C   UNL A   1      32.352  29.945  25.412  1.00  0.00     0.116 C 
BRANCH   3   4
ATOM      4  N   UNL A   1      31.313  29.722  24.428  1.00  0.00    -0.351 N 
ATOM      5  C   UNL A   1      30.708  28.596  23.920  1.00  0.00     0.267 C 
ATOM      6  O   UNL A   1      29.855  28.755  23.050  1.00  0.00    -0.268 OA
ATOM      7  H   UNL A   1      30.966  30.555  24.038  1.00  0.00     0.163 HD
BRANCH   5   8
ATOM      8  C   UNL A   1      31.019  27.183  24.394  1.00  0.00     0.128 C 
ATOM      9  C   UNL A   1      30.799  24.948  25.031  1.00  0.00     0.203 C 
ATOM     10  C   UNL A   1      29.969  26.199  24.775  1.00  0.00     0.101 C 
ATOM     11  N   UNL A   1      32.160  25.421  24.808  1.00  0.00    -0.252 N 
ATOM     12  N   UNL A   1      32.239  26.736  24.446  1.00  0.00    -0.171 NA
BRANCH   9  13
ATOM     13  C   UNL A   1      30.598  24.404  26.459  1.00  0.00     0.242 C 
ATOM     14  N   UNL A   1      29.299  24.262  26.877  1.00  0.00    -0.368 N 
ATOM     15  H   UNL A   1      29.107  23.918  27.781  1.00  0.00     0.159 HD
ATOM     16  H   UNL A   1      28.557  24.501  26.275  1.00  0.00     0.159 HD
ATOM     17  O   UNL A   1      31.490  24.033  27.216  1.00  0.00    -0.273 OA
ENDBRANCH   9  13
BRANCH  11  18
ATOM     18  C   UNL A   1      33.262  24.594  24.622  1.00  0.00     0.061 A 
ATOM     19  C   UNL A   1      34.467  24.868  25.292  1.00  0.00     0.031 A 
ATOM     20  C   UNL A   1      33.228  23.481  23.766  1.00  0.00     0.031 A 
ATOM     21  C   UNL A   1      35.584  24.041  25.146  1.00  0.00     0.041 A 
ATOM     22  C   UNL A   1      34.351  22.668  23.591  1.00  0.00     0.041 A 
ATOM     23  C   UNL A   1      35.515  22.949  24.293  1.00  0.00     0.123 A 
ATOM     24  F   UNL A   1      36.586  22.160  24.137  1.00  0.00    -0.207 F 
ENDBRANCH  11  18
ENDBRANCH   5   8
ENDBRANCH   3   4
ENDBRANCH   2   3
ENDBRANCH   1   2
BRANCH   1  25
ATOM     25  C   UNL A   1      32.738  32.802  27.366  1.00  0.00     0.116 C 
BRANCH  25  26
ATOM     26  N   UNL A   1      32.386  34.179  27.684  1.00  0.00    -0.352 N 
ATOM     27  C   UNL A   1      32.962  35.016  28.610  1.00  0.00     0.251 C 
ATOM     28  H   UNL A   1      31.639  34.560  27.169  1.00  0.00     0.163 HD
ATOM     29  O   UNL A   1      32.488  36.127  28.821  1.00  0.00    -0.269 OA
BRANCH  27  30
ATOM     30  C   UNL A   1      34.130  34.545  29.380  1.00  0.00     0.039 A 
ATOM     31  C   UNL A   1      33.921  33.990  30.645  1.00  0.00     0.014 A 
ATOM     32  C   UNL A   1      35.415  34.605  28.836  1.00  0.00     0.014 A 
ATOM     33  C   UNL A   1      34.997  33.429  31.336  1.00  0.00     0.010 A 
ATOM     34  C   UNL A   1      36.471  33.983  29.493  1.00  0.00     0.010 A 
ATOM     35  C   UNL A   1      36.271  33.386  30.747  1.00  0.00    -0.014 A 
BRANCH  35  36
ATOM     36  C   UNL A   1      37.404  32.708  31.425  1.00  0.00     0.031 A 
ATOM     37  C   UNL A   1      38.092  31.547  30.765  1.00  0.00     0.074 A 
ATOM     38  C   UNL A   1      37.766  33.095  32.663  1.00  0.00     0.049 A 
ATOM     39  N   UNL A   1      39.061  30.792  31.219  1.00  0.00    -0.248 NA
ATOM     40  C   UNL A   1      37.609  31.163  29.430  1.00  0.00     0.031 C 
ATOM     41  C   UNL A   1      37.134  34.170  33.430  1.00  0.00     0.029 A 
ATOM     42  N   UNL A   1      38.747  32.623  33.498  1.00  0.00    -0.354 N 
ATOM     43  C   UNL A   1      39.292  29.841  30.235  1.00  0.00     0.074 A 
ATOM     44  C   UNL A   1      38.326  30.078  29.183  1.00  0.00     0.031 C 
ATOM     45  C   UNL A   1      37.759  34.292  34.613  1.00  0.00     0.029 A 
ATOM     46  C   UNL A   1      38.811  33.284  34.701  1.00  0.00     0.049 A 
ATOM     47  H   UNL A   1      39.348  31.881  33.258  1.00  0.00     0.167 HD
ATOM     48  C   UNL A   1      40.241  28.876  30.199  1.00  0.00     0.037 A 
ATOM     49  C   UNL A   1      39.627  33.095  35.755  1.00  0.00     0.037 A 
ATOM     50  C   UNL A   1      41.217  28.663  31.234  1.00  0.00     0.049 A 
ATOM     51  C   UNL A   1      40.679  32.021  35.685  1.00  0.00     0.074 A 
ATOM     52  C   UNL A   1      42.260  27.754  31.263  1.00  0.00     0.029 A 
ATOM     53  N   UNL A   1      41.268  29.368  32.428  1.00  0.00    -0.354 N 
ATOM     54  N   UNL A   1      40.938  31.178  34.716  1.00  0.00    -0.248 NA
ATOM     55  C   UNL A   1      41.556  31.877  36.855  1.00  0.00     0.031 C 
ATOM     56  C   UNL A   1      42.917  27.880  32.492  1.00  0.00     0.029 A 
ATOM     57  C   UNL A   1      42.313  28.901  33.210  1.00  0.00     0.049 A 
ATOM     58  H   UNL A   1      40.653  30.093  32.683  1.00  0.00     0.167 HD
ATOM     59  C   UNL A   1      42.022  30.425  35.144  1.00  0.00     0.074 A 
ATOM     60  C   UNL A   1      42.383  30.923  36.456  1.00  0.00     0.031 C 
ATOM     61  C   UNL A   1      42.662  29.412  34.509  1.00  0.00     0.037 A 
BRANCH  48  62
ATOM     62  C   UNL A   1      40.274  27.981  28.994  1.00  0.00     0.064 A 
ATOM     63  C   UNL A   1      41.017  28.314  27.851  1.00  0.00     0.173 A 
ATOM     64  C   UNL A   1      39.582  26.761  28.993  1.00  0.00     0.173 A 
ATOM     65  F   UNL A   1      41.687  29.476  27.796  1.00  0.00    -0.203 F 
ATOM     66  C   UNL A   1      41.042  27.475  26.741  1.00  0.00     0.198 A 
ATOM     67  C   UNL A   1      39.633  25.908  27.892  1.00  0.00     0.198 A 
ATOM     68  F   UNL A   1      38.859  26.391  30.061  1.00  0.00    -0.203 F 
ATOM     69  F   UNL A   1      41.716  27.839  25.641  1.00  0.00    -0.200 F 
ATOM     70  C   UNL A   1      40.355  26.270  26.765  1.00  0.00     0.200 A 
ATOM     71  F   UNL A   1      38.979  24.739  27.921  1.00  0.00    -0.200 F 
ATOM     72  F   UNL A   1      40.384  25.459  25.698  1.00  0.00    -0.200 F 
ENDBRANCH  48  62
BRANCH  49  73
ATOM     73  C   UNL A   1      39.505  33.964  36.954  1.00  0.00     0.064 A 
ATOM     74  C   UNL A   1      38.772  33.544  38.073  1.00  0.00     0.173 A 
ATOM     75  C   UNL A   1      40.110  35.228  37.007  1.00  0.00     0.173 A 
ATOM     76  F   UNL A   1      38.158  32.352  38.062  1.00  0.00    -0.203 F 
ATOM     77  C   UNL A   1      38.630  34.365  39.191  1.00  0.00     0.198 A 
ATOM     78  C   UNL A   1      39.991  36.036  38.135  1.00  0.00     0.198 A 
ATOM     79  F   UNL A   1      40.828  35.673  35.965  1.00  0.00    -0.203 F 
ATOM     80  F   UNL A   1      37.886  33.957  40.228  1.00  0.00    -0.200 F 
ATOM     81  C   UNL A   1      39.245  35.607  39.223  1.00  0.00     0.200 A 
ATOM     82  F   UNL A   1      40.599  37.230  38.169  1.00  0.00    -0.200 F 
ATOM     83  F   UNL A   1      39.112  36.395  40.299  1.00  0.00    -0.200 F 
ENDBRANCH  49  73
BRANCH  61  84
ATOM     84  C   UNL A   1      43.838  28.797  35.210  1.00  0.00     0.064 A 
ATOM     85  C   UNL A   1      43.689  27.704  36.077  1.00  0.00     0.173 A 
ATOM     86  C   UNL A   1      45.134  29.286  34.984  1.00  0.00     0.173 A 
ATOM     87  F   UNL A   1      42.469  27.211  36.338  1.00  0.00    -0.203 F 
ATOM     88  C   UNL A   1      44.793  27.141  36.712  1.00  0.00     0.198 A 
ATOM     89  C   UNL A   1      46.237  28.701  35.598  1.00  0.00     0.198 A 
ATOM     90  F   UNL A   1      45.330  30.325  34.160  1.00  0.00    -0.203 F 
ATOM     91  F   UNL A   1      44.621  26.128  37.574  1.00  0.00    -0.200 F 
ATOM     92  C   UNL A   1      46.065  27.635  36.467  1.00  0.00     0.200 A 
ATOM     93  F   UNL A   1      47.468  29.170  35.349  1.00  0.00    -0.200 F 
ATOM     94  F   UNL A   1      47.126  27.086  37.076  1.00  0.00    -0.200 F 
ENDBRANCH  61  84
ENDBRANCH  35  36
ENDBRANCH  27  30
ENDBRANCH  25  26
ENDBRANCH   1  25
TORSDOF 13
ENDMDL
MODEL 3
REMARK VINA RESULT:     -12.9      0.524      7.541
REMARK SMILES NC(=O)[C@H]1CC(C(=O)NCCCCNC(=O)c2ccc(-c3c4nc(c(-c5c(F)c(F)c(F)c(F)c5F)c5ccc([nH]5)c(-c5c(F)c(F)c(F)c(F)c5F)c5nc(c(-c6c(F)c(F)c(F)c(F)c6F)c6ccc3[nH]6)C=C5)C=C4)cc2)=NN1c1ccc(F)cc1
REMARK SMILES IDX 12 1 11 2 10 3 9 4 7 5 8 6 6 8 4 9 5 10 81 11 80 12 2 13
REMARK SMILES IDX 1 14 3 17 82 18 83 19 88 20 84 21 87 22 85 23 86 24 13 25
REMARK SMILES IDX 14 26 15 27 16 29 17 30 18 31 79 32 19 33 78 34 20 35 21 36
REMARK SMILES IDX 22 37 72 38 23 39 77 40 71 41 73 42 24 43 76 44 70 45 69 46
REMARK SMILES IDX 25 48 57 49 37 50 56 51 38 52 41 53 55 54 74 55 39 56 40 57
REMARK SMILES IDX 54 59 75 60 42 61 26 62 27 63 35 64 28 65 29 66 33 67 36 68
REMARK SMILES IDX 30 69 31 70 34 71 32 72 58 73 59 74 67 75 60 76 61 77 65 78
REMARK SMILES IDX 68 79 62 80 63 81 66 82 64 83 43 84 44 85 52 86 45 87 46 88
REMARK SMILES IDX 50 89 53 90 47 91 48 92 51 93 49 94
REMARK H PARENT 9 7 1 15 1 16 14 28 73 47 41 58
REMARK Flexibility Score: inf
ROOT
ATOM      1  C   UNL A   1      31.540  32.072  26.694  1.00  0.00     0.023 C 
ENDROOT
BRANCH   1   2
ATOM      2  C   UNL A   1      31.668  30.549  26.799  1.00  0.00     0.023 C 
BRANCH   2   3
ATOM      3  C   UNL A   1      32.278  29.892  25.565  1.00  0.00     0.116 C 
BRANCH   3   4
ATOM      4  N   UNL A   1      31.296  29.688  24.520  1.00  0.00    -0.351 N 
ATOM      5  C   UNL A   1      30.786  28.574  23.897  1.00  0.00     0.267 C 
ATOM      6  O   UNL A   1      29.958  28.752  23.006  1.00  0.00    -0.268 OA
ATOM      7  H   UNL A   1      30.909  30.528  24.185  1.00  0.00     0.163 HD
BRANCH   5   8
ATOM      8  C   UNL A   1      31.170  27.148  24.267  1.00  0.00     0.128 C 
ATOM      9  C   UNL A   1      31.070  24.862  24.727  1.00  0.00     0.203 C 
ATOM     10  C   UNL A   1      30.172  26.080  24.550  1.00  0.00     0.101 C 
ATOM     11  N   UNL A   1      32.404  25.427  24.569  1.00  0.00    -0.252 N 
ATOM     12  N   UNL A   1      32.412  26.767  24.310  1.00  0.00    -0.171 NA
BRANCH   9  13
ATOM     13  C   UNL A   1      30.878  24.198  26.105  1.00  0.00     0.242 C 
ATOM     14  N   UNL A   1      30.179  23.017  26.118  1.00  0.00    -0.368 N 
ATOM     15  H   UNL A   1      30.024  22.545  26.969  1.00  0.00     0.159 HD
ATOM     16  H   UNL A   1      29.833  22.639  25.277  1.00  0.00     0.159 HD
ATOM     17  O   UNL A   1      31.348  24.600  27.165  1.00  0.00    -0.273 OA
ENDBRANCH   9  13
BRANCH  11  18
ATOM     18  C   UNL A   1      33.555  24.680  24.342  1.00  0.00     0.061 A 
ATOM     19  C   UNL A   1      34.656  24.807  25.206  1.00  0.00     0.031 A 
ATOM     20  C   UNL A   1      33.673  23.795  23.258  1.00  0.00     0.031 A 
ATOM     21  C   UNL A   1      35.817  24.052  25.020  1.00  0.00     0.041 A 
ATOM     22  C   UNL A   1      34.843  23.059  23.048  1.00  0.00     0.041 A 
ATOM     23  C   UNL A   1      35.900  23.187  23.939  1.00  0.00     0.123 A 
ATOM     24  F   UNL A   1      37.014  22.470  23.747  1.00  0.00    -0.207 F 
ENDBRANCH  11  18
ENDBRANCH   5   8
ENDBRANCH   3   4
ENDBRANCH   2   3
ENDBRANCH   1   2
BRANCH   1  25
ATOM     25  C   UNL A   1      32.738  32.866  27.211  1.00  0.00     0.116 C 
BRANCH  25  26
ATOM     26  N   UNL A   1      32.404  34.214  27.645  1.00  0.00    -0.352 N 
ATOM     27  C   UNL A   1      32.989  34.963  28.639  1.00  0.00     0.251 C 
ATOM     28  H   UNL A   1      31.661  34.647  27.165  1.00  0.00     0.163 HD
ATOM     29  O   UNL A   1      32.529  36.057  28.944  1.00  0.00    -0.269 OA
BRANCH  27  30
ATOM     30  C   UNL A   1      34.151  34.413  29.365  1.00  0.00     0.039 A 
ATOM     31  C   UNL A   1      33.927  33.653  30.515  1.00  0.00     0.014 A 
ATOM     32  C   UNL A   1      35.449  34.608  28.886  1.00  0.00     0.014 A 
ATOM     33  C   UNL A   1      35.002  33.025  31.145  1.00  0.00     0.010 A 
ATOM     34  C   UNL A   1      36.508  33.924  29.473  1.00  0.00     0.010 A 
ATOM     35  C   UNL A   1      36.294  33.124  30.605  1.00  0.00    -0.014 A 
BRANCH  35  36
ATOM     36  C   UNL A   1      37.433  32.384  31.205  1.00  0.00     0.031 A 
ATOM     37  C   UNL A   1      37.934  32.749  32.573  1.00  0.00     0.074 A 
ATOM     38  C   UNL A   1      38.057  31.430  30.487  1.00  0.00     0.049 A 
ATOM     39  N   UNL A   1      38.948  32.259  33.242  1.00  0.00    -0.248 NA
ATOM     40  C   UNL A   1      37.220  33.829  33.272  1.00  0.00     0.031 C 
ATOM     41  C   UNL A   1      37.700  31.028  29.125  1.00  0.00     0.029 A 
ATOM     42  N   UNL A   1      39.130  30.633  30.799  1.00  0.00    -0.354 N 
ATOM     43  C   UNL A   1      39.000  32.977  34.428  1.00  0.00     0.074 A 
ATOM     44  C   UNL A   1      37.952  33.974  34.366  1.00  0.00     0.031 C 
ATOM     45  C   UNL A   1      38.522  30.043  28.728  1.00  0.00     0.029 A 
ATOM     46  C   UNL A   1      39.483  29.767  29.792  1.00  0.00     0.049 A 
ATOM     47  H   UNL A   1      39.600  30.676  31.662  1.00  0.00     0.167 HD
ATOM     48  C   UNL A   1      39.829  32.803  35.485  1.00  0.00     0.037 A 
ATOM     49  C   UNL A   1      40.473  28.856  29.735  1.00  0.00     0.037 A 
ATOM     50  C   UNL A   1      40.851  31.792  35.553  1.00  0.00     0.049 A 
ATOM     51  C   UNL A   1      41.374  28.677  30.927  1.00  0.00     0.074 A 
ATOM     52  C   UNL A   1      41.699  31.492  36.604  1.00  0.00     0.029 A 
ATOM     53  N   UNL A   1      41.164  30.917  34.524  1.00  0.00    -0.354 N 
ATOM     54  N   UNL A   1      41.364  29.310  32.074  1.00  0.00    -0.248 NA
ATOM     55  C   UNL A   1      42.420  27.651  30.816  1.00  0.00     0.031 C 
ATOM     56  C   UNL A   1      42.555  30.463  36.196  1.00  0.00     0.029 A 
ATOM     57  C   UNL A   1      42.207  30.088  34.908  1.00  0.00     0.049 A 
ATOM     58  H   UNL A   1      40.713  30.887  33.649  1.00  0.00     0.167 HD
ATOM     59  C   UNL A   1      42.379  28.741  32.832  1.00  0.00     0.074 A 
ATOM     60  C   UNL A   1      42.974  27.701  32.019  1.00  0.00     0.031 C 
ATOM     61  C   UNL A   1      42.782  29.053  34.088  1.00  0.00     0.037 A 
BRANCH  48  62
ATOM     62  C   UNL A   1      39.658  33.723  36.659  1.00  0.00     0.064 A 
ATOM     63  C   UNL A   1      40.302  34.969  36.715  1.00  0.00     0.173 A 
ATOM     64  C   UNL A   1      38.817  33.372  37.724  1.00  0.00     0.173 A 
ATOM     65  F   UNL A   1      41.127  35.349  35.727  1.00  0.00    -0.203 F 
ATOM     66  C   UNL A   1      40.133  35.815  37.808  1.00  0.00     0.198 A 
ATOM     67  C   UNL A   1      38.626  34.232  38.802  1.00  0.00     0.198 A 
ATOM     68  F   UNL A   1      38.174  32.193  37.719  1.00  0.00    -0.203 F 
ATOM     69  F   UNL A   1      40.798  36.978  37.863  1.00  0.00    -0.200 F 
ATOM     70  C   UNL A   1      39.290  35.449  38.847  1.00  0.00     0.200 A 
ATOM     71  F   UNL A   1      37.803  33.884  39.800  1.00  0.00    -0.200 F 
ATOM     72  F   UNL A   1      39.124  36.267  39.896  1.00  0.00    -0.200 F 
ENDBRANCH  48  62
BRANCH  49  73
ATOM     73  C   UNL A   1      40.643  28.019  28.519  1.00  0.00     0.064 A 
ATOM     74  C   UNL A   1      40.023  26.766  28.418  1.00  0.00     0.173 A 
ATOM     75  C   UNL A   1      41.426  28.450  27.438  1.00  0.00     0.173 A 
ATOM     76  F   UNL A   1      39.280  26.303  29.434  1.00  0.00    -0.203 F 
ATOM     77  C   UNL A   1      40.200  25.964  27.292  1.00  0.00     0.198 A 
ATOM     78  C   UNL A   1      41.580  27.659  26.301  1.00  0.00     0.198 A 
ATOM     79  F   UNL A   1      42.034  29.645  27.483  1.00  0.00    -0.203 F 
ATOM     80  F   UNL A   1      39.633  24.751  27.241  1.00  0.00    -0.200 F 
ATOM     81  C   UNL A   1      40.973  26.414  26.233  1.00  0.00     0.200 A 
ATOM     82  F   UNL A   1      42.315  28.104  25.273  1.00  0.00    -0.200 F 
ATOM     83  F   UNL A   1      41.139  25.645  25.148  1.00  0.00    -0.200 F 
ENDBRANCH  49  73
BRANCH  61  84
ATOM     84  C   UNL A   1      43.899  28.238  34.672  1.00  0.00     0.064 A 
ATOM     85  C   UNL A   1      45.238  28.643  34.568  1.00  0.00     0.173 A 
ATOM     86  C   UNL A   1      43.622  27.056  35.375  1.00  0.00     0.173 A 
ATOM     87  F   UNL A   1      45.556  29.758  33.892  1.00  0.00    -0.203 F 
ATOM     88  C   UNL A   1      46.261  27.879  35.123  1.00  0.00     0.198 A 
ATOM     89  C   UNL A   1      44.645  26.310  35.954  1.00  0.00     0.198 A 
ATOM     90  F   UNL A   1      42.358  26.630  35.508  1.00  0.00    -0.203 F 
ATOM     91  F   UNL A   1      47.537  28.259  34.969  1.00  0.00    -0.200 F 
ATOM     92  C   UNL A   1      45.963  26.718  35.821  1.00  0.00     0.200 A 
ATOM     93  F   UNL A   1      44.354  25.197  36.641  1.00  0.00    -0.200 F 
ATOM     94  F   UNL A   1      46.949  25.987  36.359  1.00  0.00    -0.200 F 
ENDBRANCH  61  84
ENDBRANCH  35  36
ENDBRANCH  27  30
ENDBRANCH  25  26
ENDBRANCH   1  25
TORSDOF 13
ENDMDL
