MODEL 1
REMARK VINA RESULT:     -13.7      0.000      0.000
REMARK SMILES Cc1nc2cc(S(=O)(=O)N3CCC(C(=O)NCCCCNC(=O)c4ccc(-c5c6nc(c(-c7c(F)c(F)c(F)c(F)c7F)c7ccc([nH]7)c(-c7c(F)c(F)c(F)c(F)c7F)c7nc(c(-c8c(F)c(F)c(F)c(F)c8F)c8ccc5[nH]8)C=C7)C=C6)cc4)CC3)ccc2n1C1CCCC1
REMARK SMILES IDX 18 1 17 2 16 3 14 4 15 5 13 7 10 8 11 9 88 10 12 11 87 12
REMARK SMILES IDX 7 13 8 14 9 15 6 16 1 17 2 18 3 19 92 20 4 21 91 22 5 23
REMARK SMILES IDX 90 24 89 25 93 26 94 27 97 28 95 29 96 30 19 31 20 32 21 33
REMARK SMILES IDX 22 34 23 36 24 37 25 38 86 39 26 40 85 41 27 42 28 43 29 44
REMARK SMILES IDX 79 45 30 46 84 47 78 48 80 49 31 50 83 51 77 52 76 53 32 55
REMARK SMILES IDX 64 56 44 57 63 58 45 59 48 60 62 61 81 62 46 63 47 64 61 66
REMARK SMILES IDX 82 67 49 68 33 69 34 70 42 71 35 72 36 73 40 74 43 75 37 76
REMARK SMILES IDX 38 77 41 78 39 79 65 80 66 81 74 82 67 83 68 84 72 85 75 86
REMARK SMILES IDX 69 87 70 88 73 89 71 90 50 91 51 92 59 93 52 94 53 95 57 96
REMARK SMILES IDX 60 97 54 98 55 99 58 100 56 101
REMARK H PARENT 16 6 21 35 80 54 48 65
REMARK Flexibility Score: inf
ROOT
ATOM      1  C   UNL A   1      35.992  31.227  27.862  1.00  0.00     0.023 C 
ENDROOT
BRANCH   1   2
ATOM      2  C   UNL A   1      35.224  29.914  27.781  1.00  0.00     0.116 C 
BRANCH   2   3
ATOM      3  N   UNL A   1      33.782  30.113  27.831  1.00  0.00    -0.356 N 
ATOM      4  C   UNL A   1      32.783  29.554  27.092  1.00  0.00     0.223 C 
ATOM      5  O   UNL A   1      31.619  29.873  27.345  1.00  0.00    -0.275 OA
ATOM      6  H   UNL A   1      33.479  30.757  28.511  1.00  0.00     0.163 HD
BRANCH   4   7
ATOM      7  C   UNL A   1      33.086  28.554  25.986  1.00  0.00     0.081 C 
ATOM      8  N   UNL A   1      32.442  27.342  23.425  1.00  0.00    -0.198 NA
ATOM      9  C   UNL A   1      32.031  26.636  24.662  1.00  0.00     0.103 C 
ATOM     10  C   UNL A   1      33.491  28.389  23.474  1.00  0.00     0.103 C 
ATOM     11  C   UNL A   1      31.976  27.514  25.890  1.00  0.00     0.030 C 
ATOM     12  C   UNL A   1      33.415  29.283  24.690  1.00  0.00     0.030 C 
BRANCH   8  13
ATOM     13  S   UNL A   1      32.550  26.319  22.035  1.00  0.00     0.243 S 
ATOM     14  O   UNL A   1      33.771  26.650  21.347  1.00  0.00    -0.207 OA
ATOM     15  O   UNL A   1      31.258  26.360  21.370  1.00  0.00    -0.207 OA
BRANCH  13  16
ATOM     16  C   UNL A   1      32.743  24.658  22.662  1.00  0.00     0.085 A 
ATOM     17  C   UNL A   1      35.876  20.187  25.097  1.00  0.00     0.088 C 
ATOM     18  C   UNL A   1      34.940  21.162  24.481  1.00  0.00     0.106 A 
ATOM     19  N   UNL A   1      35.303  22.380  24.118  1.00  0.00    -0.233 NA
ATOM     20  N   UNL A   1      33.602  20.948  24.214  1.00  0.00    -0.325 N 
ATOM     21  C   UNL A   1      34.185  22.983  23.616  1.00  0.00     0.090 A 
ATOM     22  C   UNL A   1      33.104  22.112  23.661  1.00  0.00     0.068 A 
ATOM     23  C   UNL A   1      34.020  24.280  23.105  1.00  0.00     0.052 A 
ATOM     24  C   UNL A   1      31.836  22.470  23.211  1.00  0.00     0.030 A 
ATOM     25  C   UNL A   1      31.677  23.758  22.724  1.00  0.00     0.024 A 
BRANCH  20  26
ATOM     26  C   UNL A   1      32.822  19.747  24.456  1.00  0.00     0.089 C 
ATOM     27  C   UNL A   1      33.179  18.564  23.550  1.00  0.00     0.025 C 
ATOM     28  C   UNL A   1      32.944  19.194  25.882  1.00  0.00     0.025 C 
ATOM     29  C   UNL A   1      32.650  17.345  24.290  1.00  0.00     0.002 C 
ATOM     30  C   UNL A   1      32.666  17.698  25.774  1.00  0.00     0.002 C 
ENDBRANCH  20  26
ENDBRANCH  13  16
ENDBRANCH   8  13
ENDBRANCH   4   7
ENDBRANCH   2   3
ENDBRANCH   1   2
BRANCH   1  31
ATOM     31  C   UNL A   1      35.112  32.472  27.972  1.00  0.00     0.023 C 
BRANCH  31  32
ATOM     32  C   UNL A   1      35.542  33.472  29.050  1.00  0.00     0.116 C 
BRANCH  32  33
ATOM     33  N   UNL A   1      35.148  33.097  30.394  1.00  0.00    -0.352 N 
ATOM     34  C   UNL A   1      35.718  32.365  31.400  1.00  0.00     0.251 C 
ATOM     35  H   UNL A   1      34.264  33.452  30.641  1.00  0.00     0.163 HD
ATOM     36  O   UNL A   1      35.155  32.422  32.496  1.00  0.00    -0.269 OA
BRANCH  34  37
ATOM     37  C   UNL A   1      36.910  31.483  31.260  1.00  0.00     0.039 A 
ATOM     38  C   UNL A   1      38.223  31.922  31.130  1.00  0.00     0.014 A 
ATOM     39  C   UNL A   1      36.661  30.095  31.189  1.00  0.00     0.014 A 
ATOM     40  C   UNL A   1      39.242  31.014  30.863  1.00  0.00     0.010 A 
ATOM     41  C   UNL A   1      37.682  29.176  30.942  1.00  0.00     0.010 A 
ATOM     42  C   UNL A   1      38.974  29.641  30.749  1.00  0.00    -0.014 A 
BRANCH  42  43
ATOM     43  C   UNL A   1      40.131  28.760  30.590  1.00  0.00     0.031 A 
ATOM     44  C   UNL A   1      40.886  28.557  31.851  1.00  0.00     0.074 A 
ATOM     45  C   UNL A   1      40.527  28.137  29.460  1.00  0.00     0.049 A 
ATOM     46  N   UNL A   1      42.038  29.061  32.149  1.00  0.00    -0.248 NA
ATOM     47  C   UNL A   1      40.242  27.840  32.959  1.00  0.00     0.031 C 
ATOM     48  C   UNL A   1      39.769  27.962  28.222  1.00  0.00     0.029 A 
ATOM     49  N   UNL A   1      41.696  27.460  29.206  1.00  0.00    -0.354 N 
ATOM     50  C   UNL A   1      42.367  28.546  33.398  1.00  0.00     0.074 A 
ATOM     51  C   UNL A   1      41.170  27.938  33.915  1.00  0.00     0.031 C 
ATOM     52  C   UNL A   1      40.392  27.048  27.441  1.00  0.00     0.029 A 
ATOM     53  C   UNL A   1      41.671  26.702  28.042  1.00  0.00     0.049 A 
ATOM     54  H   UNL A   1      42.481  27.508  29.798  1.00  0.00     0.167 HD
ATOM     55  C   UNL A   1      43.676  28.416  33.747  1.00  0.00     0.037 A 
ATOM     56  C   UNL A   1      42.623  25.840  27.606  1.00  0.00     0.037 A 
ATOM     57  C   UNL A   1      44.521  29.189  32.874  1.00  0.00     0.049 A 
ATOM     58  C   UNL A   1      43.921  26.246  28.192  1.00  0.00     0.074 A 
ATOM     59  C   UNL A   1      44.944  30.492  32.744  1.00  0.00     0.029 A 
ATOM     60  N   UNL A   1      44.798  28.555  31.698  1.00  0.00    -0.354 N 
ATOM     61  N   UNL A   1      44.553  27.341  27.873  1.00  0.00    -0.248 NA
ATOM     62  C   UNL A   1      44.430  25.543  29.368  1.00  0.00     0.031 C 
ATOM     63  C   UNL A   1      45.437  30.628  31.410  1.00  0.00     0.029 A 
ATOM     64  C   UNL A   1      45.320  29.401  30.765  1.00  0.00     0.049 A 
ATOM     65  H   UNL A   1      44.639  27.596  31.542  1.00  0.00     0.167 HD
ATOM     66  C   UNL A   1      45.239  27.675  29.018  1.00  0.00     0.074 A 
ATOM     67  C   UNL A   1      45.280  26.464  29.825  1.00  0.00     0.031 C 
ATOM     68  C   UNL A   1      45.382  28.976  29.389  1.00  0.00     0.037 A 
BRANCH  55  69
ATOM     69  C   UNL A   1      44.260  27.213  34.465  1.00  0.00     0.064 A 
ATOM     70  C   UNL A   1      44.054  25.930  33.909  1.00  0.00     0.173 A 
ATOM     71  C   UNL A   1      44.674  27.224  35.814  1.00  0.00     0.173 A 
ATOM     72  F   UNL A   1      43.642  25.793  32.639  1.00  0.00    -0.203 F 
ATOM     73  C   UNL A   1      44.168  24.763  34.670  1.00  0.00     0.198 A 
ATOM     74  C   UNL A   1      44.834  26.054  36.556  1.00  0.00     0.198 A 
ATOM     75  F   UNL A   1      44.825  28.359  36.504  1.00  0.00    -0.203 F 
ATOM     76  F   UNL A   1      43.837  23.580  34.132  1.00  0.00    -0.200 F 
ATOM     77  C   UNL A   1      44.551  24.827  35.996  1.00  0.00     0.200 A 
ATOM     78  F   UNL A   1      45.181  26.138  37.848  1.00  0.00    -0.200 F 
ATOM     79  F   UNL A   1      44.601  23.718  36.746  1.00  0.00    -0.200 F 
ENDBRANCH  55  69
BRANCH  56  80
ATOM     80  C   UNL A   1      42.480  24.551  26.883  1.00  0.00     0.064 A 
ATOM     81  C   UNL A   1      43.021  24.383  25.594  1.00  0.00     0.173 A 
ATOM     82  C   UNL A   1      42.103  23.377  27.560  1.00  0.00     0.173 A 
ATOM     83  F   UNL A   1      43.433  25.445  24.888  1.00  0.00    -0.203 F 
ATOM     84  C   UNL A   1      43.233  23.114  25.046  1.00  0.00     0.198 A 
ATOM     85  C   UNL A   1      42.309  22.111  27.007  1.00  0.00     0.198 A 
ATOM     86  F   UNL A   1      41.629  23.430  28.812  1.00  0.00    -0.203 F 
ATOM     87  F   UNL A   1      43.834  22.993  23.852  1.00  0.00    -0.200 F 
ATOM     88  C   UNL A   1      42.894  21.979  25.760  1.00  0.00     0.200 A 
ATOM     89  F   UNL A   1      42.006  21.018  27.721  1.00  0.00    -0.200 F 
ATOM     90  F   UNL A   1      43.171  20.762  25.271  1.00  0.00    -0.200 F 
ENDBRANCH  56  80
BRANCH  68  91
ATOM     91  C   UNL A   1      45.418  30.019  28.327  1.00  0.00     0.064 A 
ATOM     92  C   UNL A   1      44.297  30.707  27.844  1.00  0.00     0.173 A 
ATOM     93  C   UNL A   1      46.683  30.416  27.871  1.00  0.00     0.173 A 
ATOM     94  F   UNL A   1      43.065  30.413  28.283  1.00  0.00    -0.203 F 
ATOM     95  C   UNL A   1      44.446  31.754  26.935  1.00  0.00     0.198 A 
ATOM     96  C   UNL A   1      46.830  31.481  26.991  1.00  0.00     0.198 A 
ATOM     97  F   UNL A   1      47.786  29.799  28.326  1.00  0.00    -0.203 F 
ATOM     98  F   UNL A   1      43.367  32.411  26.483  1.00  0.00    -0.200 F 
ATOM     99  C   UNL A   1      45.711  32.148  26.522  1.00  0.00     0.200 A 
ATOM    100  F   UNL A   1      48.056  31.879  26.627  1.00  0.00    -0.200 F 
ATOM    101  F   UNL A   1      45.856  33.190  25.691  1.00  0.00    -0.200 F 
ENDBRANCH  68  91
ENDBRANCH  42  43
ENDBRANCH  34  37
ENDBRANCH  32  33
ENDBRANCH  31  32
ENDBRANCH   1  31
TORSDOF 14
ENDMDL
MODEL 2
REMARK VINA RESULT:     -13.4      3.523      9.446
REMARK SMILES Cc1nc2cc(S(=O)(=O)N3CCC(C(=O)NCCCCNC(=O)c4ccc(-c5c6nc(c(-c7c(F)c(F)c(F)c(F)c7F)c7ccc([nH]7)c(-c7c(F)c(F)c(F)c(F)c7F)c7nc(c(-c8c(F)c(F)c(F)c(F)c8F)c8ccc5[nH]8)C=C7)C=C6)cc4)CC3)ccc2n1C1CCCC1
REMARK SMILES IDX 18 1 17 2 16 3 14 4 15 5 13 7 10 8 11 9 88 10 12 11 87 12
REMARK SMILES IDX 7 13 8 14 9 15 6 16 1 17 2 18 3 19 92 20 4 21 91 22 5 23
REMARK SMILES IDX 90 24 89 25 93 26 94 27 97 28 95 29 96 30 19 31 20 32 21 33
REMARK SMILES IDX 22 34 23 36 24 37 25 38 86 39 26 40 85 41 27 42 28 43 29 44
REMARK SMILES IDX 79 45 30 46 84 47 78 48 80 49 31 50 83 51 77 52 76 53 32 55
REMARK SMILES IDX 64 56 44 57 63 58 45 59 48 60 62 61 81 62 46 63 47 64 61 66
REMARK SMILES IDX 82 67 49 68 33 69 34 70 42 71 35 72 36 73 40 74 43 75 37 76
REMARK SMILES IDX 38 77 41 78 39 79 65 80 66 81 74 82 67 83 68 84 72 85 75 86
REMARK SMILES IDX 69 87 70 88 73 89 71 90 50 91 51 92 59 93 52 94 53 95 57 96
REMARK SMILES IDX 60 97 54 98 55 99 58 100 56 101
REMARK H PARENT 16 6 21 35 80 54 48 65
REMARK Flexibility Score: inf
ROOT
ATOM      1  C   UNL A   1      40.019  23.126  27.584  1.00  0.00     0.023 C 
ENDROOT
BRANCH   1   2
ATOM      2  C   UNL A   1      39.011  23.248  26.449  1.00  0.00     0.116 C 
BRANCH   2   3
ATOM      3  N   UNL A   1      38.813  21.986  25.749  1.00  0.00    -0.356 N 
ATOM      4  C   UNL A   1      37.691  21.446  25.196  1.00  0.00     0.223 C 
ATOM      5  O   UNL A   1      37.785  20.356  24.626  1.00  0.00    -0.275 OA
ATOM      6  H   UNL A   1      39.622  21.433  25.661  1.00  0.00     0.163 HD
BRANCH   4   7
ATOM      7  C   UNL A   1      36.353  22.167  25.264  1.00  0.00     0.081 C 
ATOM      8  N   UNL A   1      33.490  22.238  24.773  1.00  0.00    -0.198 NA
ATOM      9  C   UNL A   1      34.388  22.908  23.803  1.00  0.00     0.103 C 
ATOM     10  C   UNL A   1      33.970  21.913  26.137  1.00  0.00     0.103 C 
ATOM     11  C   UNL A   1      35.825  22.444  23.861  1.00  0.00     0.030 C 
ATOM     12  C   UNL A   1      35.399  21.422  26.188  1.00  0.00     0.030 C 
BRANCH   8  13
ATOM     13  S   UNL A   1      31.859  22.812  24.731  1.00  0.00     0.243 S 
ATOM     14  O   UNL A   1      31.204  22.343  25.925  1.00  0.00    -0.207 OA
ATOM     15  O   UNL A   1      31.337  22.525  23.405  1.00  0.00    -0.207 OA
BRANCH  13  16
ATOM     16  C   UNL A   1      31.960  24.590  24.861  1.00  0.00     0.085 A 
ATOM     17  C   UNL A   1      30.103  30.154  23.711  1.00  0.00     0.088 C 
ATOM     18  C   UNL A   1      30.722  28.861  24.099  1.00  0.00     0.106 A 
ATOM     19  N   UNL A   1      30.270  27.691  23.684  1.00  0.00    -0.233 NA
ATOM     20  N   UNL A   1      31.817  28.698  24.926  1.00  0.00    -0.325 N 
ATOM     21  C   UNL A   1      31.070  26.742  24.254  1.00  0.00     0.090 A 
ATOM     22  C   UNL A   1      32.048  27.341  25.036  1.00  0.00     0.068 A 
ATOM     23  C   UNL A   1      31.014  25.343  24.149  1.00  0.00     0.052 A 
ATOM     24  C   UNL A   1      33.002  26.605  25.736  1.00  0.00     0.030 A 
ATOM     25  C   UNL A   1      32.929  25.224  25.641  1.00  0.00     0.024 A 
BRANCH  20  26
ATOM     26  C   UNL A   1      32.603  29.728  25.581  1.00  0.00     0.089 C 
ATOM     27  C   UNL A   1      32.012  30.238  26.900  1.00  0.00     0.025 C 
ATOM     28  C   UNL A   1      34.033  29.299  25.937  1.00  0.00     0.025 C 
ATOM     29  C   UNL A   1      33.188  30.876  27.623  1.00  0.00     0.002 C 
ATOM     30  C   UNL A   1      34.441  30.158  27.130  1.00  0.00     0.002 C 
ENDBRANCH  20  26
ENDBRANCH  13  16
ENDBRANCH   8  13
ENDBRANCH   4   7
ENDBRANCH   2   3
ENDBRANCH   1   2
BRANCH   1  31
ATOM     31  C   UNL A   1      40.809  21.818  27.596  1.00  0.00     0.023 C 
BRANCH  31  32
ATOM     32  C   UNL A   1      42.329  21.982  27.512  1.00  0.00     0.116 C 
BRANCH  32  33
ATOM     33  N   UNL A   1      42.801  22.475  26.233  1.00  0.00    -0.352 N 
ATOM     34  C   UNL A   1      43.119  23.707  25.730  1.00  0.00     0.251 C 
ATOM     35  H   UNL A   1      42.919  21.756  25.571  1.00  0.00     0.163 HD
ATOM     36  O   UNL A   1      43.678  23.714  24.630  1.00  0.00    -0.269 OA
BRANCH  34  37
ATOM     37  C   UNL A   1      42.804  25.014  26.372  1.00  0.00     0.039 A 
ATOM     38  C   UNL A   1      43.441  25.530  27.495  1.00  0.00     0.014 A 
ATOM     39  C   UNL A   1      41.724  25.740  25.824  1.00  0.00     0.014 A 
ATOM     40  C   UNL A   1      42.969  26.693  28.095  1.00  0.00     0.010 A 
ATOM     41  C   UNL A   1      41.259  26.918  26.409  1.00  0.00     0.010 A 
ATOM     42  C   UNL A   1      41.866  27.381  27.567  1.00  0.00    -0.014 A 
BRANCH  42  43
ATOM     43  C   UNL A   1      41.526  28.656  28.199  1.00  0.00     0.031 A 
ATOM     44  C   UNL A   1      42.566  29.696  28.006  1.00  0.00     0.074 A 
ATOM     45  C   UNL A   1      40.399  28.948  28.883  1.00  0.00     0.049 A 
ATOM     46  N   UNL A   1      43.393  30.135  28.897  1.00  0.00    -0.248 NA
ATOM     47  C   UNL A   1      42.819  30.207  26.652  1.00  0.00     0.031 C 
ATOM     48  C   UNL A   1      39.153  28.185  28.921  1.00  0.00     0.029 A 
ATOM     49  N   UNL A   1      40.111  30.051  29.650  1.00  0.00    -0.354 N 
ATOM     50  C   UNL A   1      44.128  31.137  28.274  1.00  0.00     0.074 A 
ATOM     51  C   UNL A   1      43.850  31.030  26.867  1.00  0.00     0.031 C 
ATOM     52  C   UNL A   1      38.181  28.945  29.478  1.00  0.00     0.029 A 
ATOM     53  C   UNL A   1      38.769  30.174  29.986  1.00  0.00     0.049 A 
ATOM     54  H   UNL A   1      40.797  30.697  29.936  1.00  0.00     0.167 HD
ATOM     55  C   UNL A   1      44.660  32.142  29.022  1.00  0.00     0.037 A 
ATOM     56  C   UNL A   1      38.176  31.215  30.622  1.00  0.00     0.037 A 
ATOM     57  C   UNL A   1      44.672  31.794  30.419  1.00  0.00     0.049 A 
ATOM     58  C   UNL A   1      39.203  31.913  31.429  1.00  0.00     0.074 A 
ATOM     59  C   UNL A   1      45.454  31.070  31.290  1.00  0.00     0.029 A 
ATOM     60  N   UNL A   1      43.472  32.007  31.033  1.00  0.00    -0.354 N 
ATOM     61  N   UNL A   1      39.772  31.397  32.483  1.00  0.00    -0.248 NA
ATOM     62  C   UNL A   1      39.818  33.133  30.913  1.00  0.00     0.031 C 
ATOM     63  C   UNL A   1      44.645  30.805  32.438  1.00  0.00     0.029 A 
ATOM     64  C   UNL A   1      43.398  31.390  32.248  1.00  0.00     0.049 A 
ATOM     65  H   UNL A   1      42.745  32.544  30.644  1.00  0.00     0.167 HD
ATOM     66  C   UNL A   1      41.023  31.971  32.500  1.00  0.00     0.074 A 
ATOM     67  C   UNL A   1      40.934  33.145  31.644  1.00  0.00     0.031 C 
ATOM     68  C   UNL A   1      42.112  31.253  32.886  1.00  0.00     0.037 A 
BRANCH  55  69
ATOM     69  C   UNL A   1      44.650  33.608  28.625  1.00  0.00     0.064 A 
ATOM     70  C   UNL A   1      43.405  34.234  28.388  1.00  0.00     0.173 A 
ATOM     71  C   UNL A   1      45.775  34.296  28.125  1.00  0.00     0.173 A 
ATOM     72  F   UNL A   1      42.263  33.663  28.803  1.00  0.00    -0.203 F 
ATOM     73  C   UNL A   1      43.294  35.405  27.634  1.00  0.00     0.198 A 
ATOM     74  C   UNL A   1      45.663  35.492  27.415  1.00  0.00     0.198 A 
ATOM     75  F   UNL A   1      47.010  33.790  28.193  1.00  0.00    -0.203 F 
ATOM     76  F   UNL A   1      42.082  35.889  27.327  1.00  0.00    -0.200 F 
ATOM     77  C   UNL A   1      44.424  36.030  27.142  1.00  0.00     0.200 A 
ATOM     78  F   UNL A   1      46.769  36.069  26.923  1.00  0.00    -0.200 F 
ATOM     79  F   UNL A   1      44.319  37.118  26.367  1.00  0.00    -0.200 F 
ENDBRANCH  55  69
BRANCH  56  80
ATOM     80  C   UNL A   1      36.826  31.802  30.431  1.00  0.00     0.064 A 
ATOM     81  C   UNL A   1      35.926  31.906  31.509  1.00  0.00     0.173 A 
ATOM     82  C   UNL A   1      36.517  32.557  29.285  1.00  0.00     0.173 A 
ATOM     83  F   UNL A   1      36.156  31.241  32.650  1.00  0.00    -0.203 F 
ATOM     84  C   UNL A   1      34.822  32.763  31.465  1.00  0.00     0.198 A 
ATOM     85  C   UNL A   1      35.410  33.408  29.241  1.00  0.00     0.198 A 
ATOM     86  F   UNL A   1      37.341  32.567  28.228  1.00  0.00    -0.203 F 
ATOM     87  F   UNL A   1      34.040  32.902  32.546  1.00  0.00    -0.200 F 
ATOM     88  C   UNL A   1      34.576  33.528  30.339  1.00  0.00     0.200 A 
ATOM     89  F   UNL A   1      35.200  34.167  28.157  1.00  0.00    -0.200 F 
ATOM     90  F   UNL A   1      33.568  34.410  30.326  1.00  0.00    -0.200 F 
ENDBRANCH  56  80
BRANCH  68  91
ATOM     91  C   UNL A   1      41.928  30.158  33.877  1.00  0.00     0.064 A 
ATOM     92  C   UNL A   1      41.529  28.853  33.561  1.00  0.00     0.173 A 
ATOM     93  C   UNL A   1      42.298  30.431  35.202  1.00  0.00     0.173 A 
ATOM     94  F   UNL A   1      41.216  28.512  32.302  1.00  0.00    -0.203 F 
ATOM     95  C   UNL A   1      41.502  27.862  34.542  1.00  0.00     0.198 A 
ATOM     96  C   UNL A   1      42.302  29.435  36.169  1.00  0.00     0.198 A 
ATOM     97  F   UNL A   1      42.710  31.663  35.543  1.00  0.00    -0.203 F 
ATOM     98  F   UNL A   1      41.124  26.614  34.228  1.00  0.00    -0.200 F 
ATOM     99  C   UNL A   1      41.902  28.151  35.839  1.00  0.00     0.200 A 
ATOM    100  F   UNL A   1      42.726  29.713  37.409  1.00  0.00    -0.200 F 
ATOM    101  F   UNL A   1      41.929  27.185  36.768  1.00  0.00    -0.200 F 
ENDBRANCH  68  91
ENDBRANCH  42  43
ENDBRANCH  34  37
ENDBRANCH  32  33
ENDBRANCH  31  32
ENDBRANCH   1  31
TORSDOF 14
ENDMDL
MODEL 3
REMARK VINA RESULT:     -13.4      3.588      9.390
REMARK SMILES Cc1nc2cc(S(=O)(=O)N3CCC(C(=O)NCCCCNC(=O)c4ccc(-c5c6nc(c(-c7c(F)c(F)c(F)c(F)c7F)c7ccc([nH]7)c(-c7c(F)c(F)c(F)c(F)c7F)c7nc(c(-c8c(F)c(F)c(F)c(F)c8F)c8ccc5[nH]8)C=C7)C=C6)cc4)CC3)ccc2n1C1CCCC1
REMARK SMILES IDX 18 1 17 2 16 3 14 4 15 5 13 7 10 8 11 9 88 10 12 11 87 12
REMARK SMILES IDX 7 13 8 14 9 15 6 16 1 17 2 18 3 19 92 20 4 21 91 22 5 23
REMARK SMILES IDX 90 24 89 25 93 26 94 27 97 28 95 29 96 30 19 31 20 32 21 33
REMARK SMILES IDX 22 34 23 36 24 37 25 38 86 39 26 40 85 41 27 42 28 43 29 44
REMARK SMILES IDX 79 45 30 46 84 47 78 48 80 49 31 50 83 51 77 52 76 53 32 55
REMARK SMILES IDX 64 56 44 57 63 58 45 59 48 60 62 61 81 62 46 63 47 64 61 66
REMARK SMILES IDX 82 67 49 68 33 69 34 70 42 71 35 72 36 73 40 74 43 75 37 76
REMARK SMILES IDX 38 77 41 78 39 79 65 80 66 81 74 82 67 83 68 84 72 85 75 86
REMARK SMILES IDX 69 87 70 88 73 89 71 90 50 91 51 92 59 93 52 94 53 95 57 96
REMARK SMILES IDX 60 97 54 98 55 99 58 100 56 101
REMARK H PARENT 16 6 21 35 80 54 48 65
REMARK Flexibility Score: inf
ROOT
ATOM      1  C   UNL A   1      39.802  23.322  27.582  1.00  0.00     0.023 C 
ENDROOT
BRANCH   1   2
ATOM      2  C   UNL A   1      38.831  23.834  26.527  1.00  0.00     0.116 C 
BRANCH   2   3
ATOM      3  N   UNL A   1      38.529  22.828  25.519  1.00  0.00    -0.356 N 
ATOM      4  C   UNL A   1      37.339  22.285  25.136  1.00  0.00     0.223 C 
ATOM      5  O   UNL A   1      37.341  21.453  24.226  1.00  0.00    -0.275 OA
ATOM      6  H   UNL A   1      39.313  22.482  25.034  1.00  0.00     0.163 HD
BRANCH   4   7
ATOM      7  C   UNL A   1      36.034  22.698  25.801  1.00  0.00     0.081 C 
ATOM      8  N   UNL A   1      33.161  23.119  25.691  1.00  0.00    -0.198 NA
ATOM      9  C   UNL A   1      34.053  24.293  25.531  1.00  0.00     0.103 C 
ATOM     10  C   UNL A   1      33.675  21.867  26.295  1.00  0.00     0.103 C 
ATOM     11  C   UNL A   1      35.470  23.949  25.138  1.00  0.00     0.030 C 
ATOM     12  C   UNL A   1      35.083  21.511  25.878  1.00  0.00     0.030 C 
BRANCH   8  13
ATOM     13  S   UNL A   1      31.555  23.521  26.189  1.00  0.00     0.243 S 
ATOM     14  O   UNL A   1      31.540  23.543  27.629  1.00  0.00    -0.207 OA
ATOM     15  O   UNL A   1      30.646  22.683  25.423  1.00  0.00    -0.207 OA
BRANCH  13  16
ATOM     16  C   UNL A   1      31.276  25.198  25.643  1.00  0.00     0.085 A 
ATOM     17  C   UNL A   1      31.770  31.136  26.127  1.00  0.00     0.088 C 
ATOM     18  C   UNL A   1      31.532  29.699  25.837  1.00  0.00     0.106 A 
ATOM     19  N   UNL A   1      31.937  28.726  26.634  1.00  0.00    -0.233 NA
ATOM     20  N   UNL A   1      30.881  29.188  24.731  1.00  0.00    -0.325 N 
ATOM     21  C   UNL A   1      31.560  27.555  26.039  1.00  0.00     0.090 A 
ATOM     22  C   UNL A   1      30.896  27.812  24.847  1.00  0.00     0.068 A 
ATOM     23  C   UNL A   1      31.756  26.231  26.462  1.00  0.00     0.052 A 
ATOM     24  C   UNL A   1      30.401  26.796  24.032  1.00  0.00     0.030 A 
ATOM     25  C   UNL A   1      30.615  25.491  24.448  1.00  0.00     0.024 A 
BRANCH  20  26
ATOM     26  C   UNL A   1      30.285  29.920  23.628  1.00  0.00     0.089 C 
ATOM     27  C   UNL A   1      30.710  29.434  22.238  1.00  0.00     0.025 C 
ATOM     28  C   UNL A   1      28.751  29.879  23.600  1.00  0.00     0.025 C 
ATOM     29  C   UNL A   1      29.627  29.955  21.305  1.00  0.00     0.002 C 
ATOM     30  C   UNL A   1      28.355  30.070  22.139  1.00  0.00     0.002 C 
ENDBRANCH  20  26
ENDBRANCH  13  16
ENDBRANCH   8  13
ENDBRANCH   4   7
ENDBRANCH   2   3
ENDBRANCH   1   2
BRANCH   1  31
ATOM     31  C   UNL A   1      40.395  21.944  27.285  1.00  0.00     0.023 C 
BRANCH  31  32
ATOM     32  C   UNL A   1      41.921  21.865  27.377  1.00  0.00     0.116 C 
BRANCH  32  33
ATOM     33  N   UNL A   1      42.610  22.341  26.193  1.00  0.00    -0.352 N 
ATOM     34  C   UNL A   1      43.085  23.553  25.772  1.00  0.00     0.251 C 
ATOM     35  H   UNL A   1      42.774  21.624  25.538  1.00  0.00     0.163 HD
ATOM     36  O   UNL A   1      43.799  23.534  24.767  1.00  0.00    -0.269 OA
BRANCH  34  37
ATOM     37  C   UNL A   1      42.771  24.870  26.394  1.00  0.00     0.039 A 
ATOM     38  C   UNL A   1      43.260  25.317  27.616  1.00  0.00     0.014 A 
ATOM     39  C   UNL A   1      41.849  25.686  25.704  1.00  0.00     0.014 A 
ATOM     40  C   UNL A   1      42.787  26.504  28.167  1.00  0.00     0.010 A 
ATOM     41  C   UNL A   1      41.386  26.888  26.242  1.00  0.00     0.010 A 
ATOM     42  C   UNL A   1      41.836  27.284  27.493  1.00  0.00    -0.014 A 
BRANCH  42  43
ATOM     43  C   UNL A   1      41.497  28.572  28.099  1.00  0.00     0.031 A 
ATOM     44  C   UNL A   1      42.534  29.610  27.877  1.00  0.00     0.074 A 
ATOM     45  C   UNL A   1      40.374  28.876  28.783  1.00  0.00     0.049 A 
ATOM     46  N   UNL A   1      43.365  30.069  28.754  1.00  0.00    -0.248 NA
ATOM     47  C   UNL A   1      42.778  30.092  26.511  1.00  0.00     0.031 C 
ATOM     48  C   UNL A   1      39.129  28.112  28.845  1.00  0.00     0.029 A 
ATOM     49  N   UNL A   1      40.088  29.995  29.528  1.00  0.00    -0.354 N 
ATOM     50  C   UNL A   1      44.094  31.059  28.105  1.00  0.00     0.074 A 
ATOM     51  C   UNL A   1      43.808  30.922  26.702  1.00  0.00     0.031 C 
ATOM     52  C   UNL A   1      38.158  28.881  29.391  1.00  0.00     0.029 A 
ATOM     53  C   UNL A   1      38.747  30.123  29.869  1.00  0.00     0.049 A 
ATOM     54  H   UNL A   1      40.774  30.648  29.796  1.00  0.00     0.167 HD
ATOM     55  C   UNL A   1      44.628  32.081  28.827  1.00  0.00     0.037 A 
ATOM     56  C   UNL A   1      38.156  31.176  30.485  1.00  0.00     0.037 A 
ATOM     57  C   UNL A   1      44.649  31.763  30.231  1.00  0.00     0.049 A 
ATOM     58  C   UNL A   1      39.186  31.893  31.272  1.00  0.00     0.074 A 
ATOM     59  C   UNL A   1      45.438  31.061  31.113  1.00  0.00     0.029 A 
ATOM     60  N   UNL A   1      43.453  31.987  30.849  1.00  0.00    -0.354 N 
ATOM     61  N   UNL A   1      39.762  31.402  32.333  1.00  0.00    -0.248 NA
ATOM     62  C   UNL A   1      39.795  33.103  30.725  1.00  0.00     0.031 C 
ATOM     63  C   UNL A   1      44.636  30.819  32.271  1.00  0.00     0.029 A 
ATOM     64  C   UNL A   1      43.386  31.397  32.076  1.00  0.00     0.049 A 
ATOM     65  H   UNL A   1      42.722  32.515  30.452  1.00  0.00     0.167 HD
ATOM     66  C   UNL A   1      41.012  31.979  32.330  1.00  0.00     0.074 A 
ATOM     67  C   UNL A   1      40.915  33.133  31.449  1.00  0.00     0.031 C 
ATOM     68  C   UNL A   1      42.105  31.271  32.725  1.00  0.00     0.037 A 
BRANCH  55  69
ATOM     69  C   UNL A   1      44.612  33.538  28.399  1.00  0.00     0.064 A 
ATOM     70  C   UNL A   1      45.843  34.224  28.297  1.00  0.00     0.173 A 
ATOM     71  C   UNL A   1      43.467  34.360  28.444  1.00  0.00     0.173 A 
ATOM     72  F   UNL A   1      47.002  33.549  28.265  1.00  0.00    -0.203 F 
ATOM     73  C   UNL A   1      45.921  35.620  28.329  1.00  0.00     0.198 A 
ATOM     74  C   UNL A   1      43.546  35.753  28.425  1.00  0.00     0.198 A 
ATOM     75  F   UNL A   1      42.239  33.864  28.626  1.00  0.00    -0.203 F 
ATOM     76  F   UNL A   1      47.119  36.221  28.362  1.00  0.00    -0.200 F 
ATOM     77  C   UNL A   1      44.771  36.382  28.400  1.00  0.00     0.200 A 
ATOM     78  F   UNL A   1      42.421  36.476  28.522  1.00  0.00    -0.200 F 
ATOM     79  F   UNL A   1      44.843  37.717  28.494  1.00  0.00    -0.200 F 
ENDBRANCH  55  69
BRANCH  56  80
ATOM     80  C   UNL A   1      36.803  31.755  30.290  1.00  0.00     0.064 A 
ATOM     81  C   UNL A   1      35.906  31.874  31.369  1.00  0.00     0.173 A 
ATOM     82  C   UNL A   1      36.488  32.491  29.134  1.00  0.00     0.173 A 
ATOM     83  F   UNL A   1      36.142  31.229  32.521  1.00  0.00    -0.203 F 
ATOM     84  C   UNL A   1      34.800  32.728  31.316  1.00  0.00     0.198 A 
ATOM     85  C   UNL A   1      35.379  33.338  29.080  1.00  0.00     0.198 A 
ATOM     86  F   UNL A   1      37.308  32.487  28.074  1.00  0.00    -0.203 F 
ATOM     87  F   UNL A   1      34.021  32.881  32.397  1.00  0.00    -0.200 F 
ATOM     88  C   UNL A   1      34.547  33.473  30.178  1.00  0.00     0.200 A 
ATOM     89  F   UNL A   1      35.162  34.079  27.984  1.00  0.00    -0.200 F 
ATOM     90  F   UNL A   1      33.537  34.352  30.155  1.00  0.00    -0.200 F 
ENDBRANCH  56  80
BRANCH  68  91
ATOM     91  C   UNL A   1      41.929  30.197  33.741  1.00  0.00     0.064 A 
ATOM     92  C   UNL A   1      41.557  28.877  33.452  1.00  0.00     0.173 A 
ATOM     93  C   UNL A   1      42.278  30.510  35.063  1.00  0.00     0.173 A 
ATOM     94  F   UNL A   1      41.266  28.501  32.199  1.00  0.00    -0.203 F 
ATOM     95  C   UNL A   1      41.537  27.911  34.457  1.00  0.00     0.198 A 
ATOM     96  C   UNL A   1      42.289  29.538  36.054  1.00  0.00     0.198 A 
ATOM     97  F   UNL A   1      42.663  31.757  35.378  1.00  0.00    -0.203 F 
ATOM     98  F   UNL A   1      41.186  26.649  34.169  1.00  0.00    -0.200 F 
ATOM     99  C   UNL A   1      41.917  28.239  35.752  1.00  0.00     0.200 A 
ATOM    100  F   UNL A   1      42.693  29.854  37.292  1.00  0.00    -0.200 F 
ATOM    101  F   UNL A   1      41.950  27.296  36.704  1.00  0.00    -0.200 F 
ENDBRANCH  68  91
ENDBRANCH  42  43
ENDBRANCH  34  37
ENDBRANCH  32  33
ENDBRANCH  31  32
ENDBRANCH   1  31
TORSDOF 14
ENDMDL
