MODEL 1
REMARK VINA RESULT:     -12.0      0.000      0.000
REMARK SMILES O=C(NCCCCNC(=O)[C@@H]1CC[C@H](CNC(=O)c2cccn2C2CC2)O1)c1ccc(-c2c3nc(c(-c4c(F)c(F)c(F)c(F)c4F)c4ccc([nH]4)c(-c4c(F)c(F)c(F)c(F)c4F)c4nc(c(-c5c(F)c(F)c(F)c(F)c5F)c5ccc2[nH]5)C=C4)C=C3)cc1
REMARK SMILES IDX 6 1 5 2 4 3 3 4 1 5 2 6 28 8 29 9 90 10 30 11 89 12 31 13
REMARK SMILES IDX 32 14 33 15 83 16 34 17 88 18 82 19 84 20 35 21 87 22 81 23
REMARK SMILES IDX 80 24 36 26 68 27 48 28 67 29 49 30 52 31 66 32 85 33 50 34
REMARK SMILES IDX 51 35 65 37 86 38 53 39 37 40 38 41 46 42 39 43 40 44 44 45
REMARK SMILES IDX 47 46 41 47 42 48 45 49 43 50 69 51 70 52 78 53 71 54 72 55
REMARK SMILES IDX 76 56 79 57 73 58 74 59 77 60 75 61 54 62 55 63 63 64 56 65
REMARK SMILES IDX 57 66 61 67 64 68 58 69 59 70 62 71 60 72 7 73 8 74 9 75
REMARK SMILES IDX 10 77 11 78 12 79 27 80 13 81 14 82 15 83 16 84 17 85 18 87
REMARK SMILES IDX 19 88 20 89 23 90 21 91 22 92 24 93 25 94 26 95
REMARK H PARENT 3 7 84 25 52 36 8 76 16 86
REMARK Flexibility Score: inf
ROOT
ATOM      1  C   UNL A   1      36.650  20.817  25.006  1.00  0.00     0.023 C 
ENDROOT
BRANCH   1   2
ATOM      2  C   UNL A   1      37.875  19.913  24.846  1.00  0.00     0.023 C 
BRANCH   2   3
ATOM      3  C   UNL A   1      39.058  20.283  25.742  1.00  0.00     0.116 C 
BRANCH   3   4
ATOM      4  N   UNL A   1      40.103  19.277  25.819  1.00  0.00    -0.352 N 
ATOM      5  O   UNL A   1      42.131  18.360  26.109  1.00  0.00    -0.269 OA
ATOM      6  C   UNL A   1      41.438  19.374  26.120  1.00  0.00     0.251 C 
ATOM      7  H   UNL A   1      39.799  18.363  25.618  1.00  0.00     0.163 HD
BRANCH   6   8
ATOM      8  C   UNL A   1      42.076  20.681  26.397  1.00  0.00     0.039 A 
ATOM      9  C   UNL A   1      42.573  21.498  25.378  1.00  0.00     0.014 A 
ATOM     10  C   UNL A   1      42.146  21.110  27.730  1.00  0.00     0.014 A 
ATOM     11  C   UNL A   1      43.231  22.680  25.688  1.00  0.00     0.010 A 
ATOM     12  C   UNL A   1      42.749  22.329  28.043  1.00  0.00     0.010 A 
ATOM     13  C   UNL A   1      43.297  23.111  27.016  1.00  0.00    -0.014 A 
BRANCH  13  14
ATOM     14  C   UNL A   1      43.746  24.501  27.259  1.00  0.00     0.031 A 
ATOM     15  C   UNL A   1      42.591  25.491  27.386  1.00  0.00     0.074 A 
ATOM     16  C   UNL A   1      45.083  24.742  27.312  1.00  0.00     0.049 A 
ATOM     17  N   UNL A   1      42.584  26.786  27.266  1.00  0.00    -0.248 NA
ATOM     18  C   UNL A   1      41.226  24.952  27.631  1.00  0.00     0.031 C 
ATOM     19  C   UNL A   1      46.111  23.702  27.151  1.00  0.00     0.029 A 
ATOM     20  N   UNL A   1      45.846  25.878  27.503  1.00  0.00    -0.354 N 
ATOM     21  C   UNL A   1      41.289  27.214  27.603  1.00  0.00     0.074 A 
ATOM     22  C   UNL A   1      40.466  26.045  27.680  1.00  0.00     0.031 C 
ATOM     23  C   UNL A   1      47.342  24.244  27.210  1.00  0.00     0.029 A 
ATOM     24  C   UNL A   1      47.243  25.678  27.412  1.00  0.00     0.049 A 
ATOM     25  H   UNL A   1      45.448  26.759  27.690  1.00  0.00     0.167 HD
ATOM     26  C   UNL A   1      40.975  28.489  27.963  1.00  0.00     0.037 A 
ATOM     27  C   UNL A   1      48.260  26.590  27.483  1.00  0.00     0.037 A 
ATOM     28  C   UNL A   1      42.097  29.360  27.905  1.00  0.00     0.049 A 
ATOM     29  C   UNL A   1      47.656  27.858  27.938  1.00  0.00     0.074 A 
ATOM     30  C   UNL A   1      42.740  30.027  26.897  1.00  0.00     0.029 A 
ATOM     31  N   UNL A   1      42.843  29.488  29.050  1.00  0.00    -0.354 N 
ATOM     32  N   UNL A   1      47.181  28.055  29.134  1.00  0.00    -0.248 NA
ATOM     33  C   UNL A   1      47.556  28.989  27.012  1.00  0.00     0.031 C 
ATOM     34  C   UNL A   1      44.034  30.302  27.398  1.00  0.00     0.029 A 
ATOM     35  C   UNL A   1      44.139  29.763  28.684  1.00  0.00     0.049 A 
ATOM     36  H   UNL A   1      42.510  29.398  29.972  1.00  0.00     0.167 HD
ATOM     37  C   UNL A   1      46.443  29.207  28.991  1.00  0.00     0.074 A 
ATOM     38  C   UNL A   1      46.930  29.861  27.800  1.00  0.00     0.031 C 
ATOM     39  C   UNL A   1      45.202  29.268  29.536  1.00  0.00     0.037 A 
BRANCH  26  40
ATOM     40  C   UNL A   1      39.729  29.005  28.619  1.00  0.00     0.064 A 
ATOM     41  C   UNL A   1      39.489  28.673  29.971  1.00  0.00     0.173 A 
ATOM     42  C   UNL A   1      38.643  29.519  27.897  1.00  0.00     0.173 A 
ATOM     43  F   UNL A   1      40.473  28.180  30.739  1.00  0.00    -0.203 F 
ATOM     44  C   UNL A   1      38.220  28.773  30.538  1.00  0.00     0.198 A 
ATOM     45  C   UNL A   1      37.382  29.661  28.482  1.00  0.00     0.198 A 
ATOM     46  F   UNL A   1      38.752  29.800  26.591  1.00  0.00    -0.203 F 
ATOM     47  F   UNL A   1      38.013  28.344  31.790  1.00  0.00    -0.200 F 
ATOM     48  C   UNL A   1      37.164  29.259  29.789  1.00  0.00     0.200 A 
ATOM     49  F   UNL A   1      36.360  30.126  27.750  1.00  0.00    -0.200 F 
ATOM     50  F   UNL A   1      35.933  29.307  30.313  1.00  0.00    -0.200 F 
ENDBRANCH  26  40
BRANCH  27  51
ATOM     51  C   UNL A   1      49.754  26.600  27.232  1.00  0.00     0.064 A 
ATOM     52  C   UNL A   1      50.753  26.589  28.218  1.00  0.00     0.173 A 
ATOM     53  C   UNL A   1      50.255  26.484  25.903  1.00  0.00     0.173 A 
ATOM     54  F   UNL A   1      50.460  26.693  29.515  1.00  0.00    -0.203 F 
ATOM     55  C   UNL A   1      52.115  26.429  27.910  1.00  0.00     0.198 A 
ATOM     56  C   UNL A   1      51.603  26.265  25.603  1.00  0.00     0.198 A 
ATOM     57  F   UNL A   1      49.442  26.553  24.839  1.00  0.00    -0.203 F 
ATOM     58  F   UNL A   1      53.020  26.433  28.900  1.00  0.00    -0.200 F 
ATOM     59  C   UNL A   1      52.536  26.233  26.610  1.00  0.00     0.200 A 
ATOM     60  F   UNL A   1      51.975  26.057  24.331  1.00  0.00    -0.200 F 
ATOM     61  F   UNL A   1      53.827  26.007  26.333  1.00  0.00    -0.200 F 
ENDBRANCH  27  51
BRANCH  39  62
ATOM     62  C   UNL A   1      45.040  28.337  30.722  1.00  0.00     0.064 A 
ATOM     63  C   UNL A   1      45.565  28.687  31.976  1.00  0.00     0.173 A 
ATOM     64  C   UNL A   1      44.520  27.037  30.615  1.00  0.00     0.173 A 
ATOM     65  F   UNL A   1      46.077  29.912  32.169  1.00  0.00    -0.203 F 
ATOM     66  C   UNL A   1      45.583  27.780  33.041  1.00  0.00     0.198 A 
ATOM     67  C   UNL A   1      44.526  26.134  31.675  1.00  0.00     0.198 A 
ATOM     68  F   UNL A   1      43.985  26.617  29.471  1.00  0.00    -0.203 F 
ATOM     69  F   UNL A   1      46.106  28.145  34.219  1.00  0.00    -0.200 F 
ATOM     70  C   UNL A   1      45.067  26.503  32.888  1.00  0.00     0.200 A 
ATOM     71  F   UNL A   1      44.004  24.908  31.512  1.00  0.00    -0.200 F 
ATOM     72  F   UNL A   1      45.081  25.635  33.910  1.00  0.00    -0.200 F 
ENDBRANCH  39  62
ENDBRANCH  13  14
ENDBRANCH   6   8
ENDBRANCH   3   4
ENDBRANCH   2   3
ENDBRANCH   1   2
BRANCH   1  73
ATOM     73  C   UNL A   1      36.921  22.295  24.731  1.00  0.00     0.116 C 
BRANCH  73  74
ATOM     74  N   UNL A   1      36.134  22.775  23.607  1.00  0.00    -0.354 N 
ATOM     75  C   UNL A   1      34.784  22.929  23.483  1.00  0.00     0.249 C 
ATOM     76  H   UNL A   1      36.656  23.028  22.813  1.00  0.00     0.163 HD
ATOM     77  O   UNL A   1      34.350  23.334  22.402  1.00  0.00    -0.272 OA
BRANCH  75  78
ATOM     78  C   UNL A   1      33.872  22.648  24.681  1.00  0.00     0.207 C 
ATOM     79  C   UNL A   1      32.981  21.434  24.471  1.00  0.00     0.045 C 
ATOM     80  O   UNL A   1      33.002  23.782  24.894  1.00  0.00    -0.363 OA
ATOM     81  C   UNL A   1      31.727  21.836  25.204  1.00  0.00     0.037 C 
ATOM     82  C   UNL A   1      31.635  23.324  24.905  1.00  0.00     0.138 C 
BRANCH  82  83
ATOM     83  C   UNL A   1      30.967  23.659  23.558  1.00  0.00     0.148 C 
BRANCH  83  84
ATOM     84  N   UNL A   1      30.040  24.777  23.656  1.00  0.00    -0.348 N 
ATOM     85  C   UNL A   1      30.266  26.127  23.685  1.00  0.00     0.268 C 
ATOM     86  H   UNL A   1      29.091  24.518  23.712  1.00  0.00     0.163 HD
ATOM     87  O   UNL A   1      29.283  26.855  23.804  1.00  0.00    -0.268 OA
BRANCH  85  88
ATOM     88  C   UNL A   1      31.603  26.624  23.488  1.00  0.00     0.107 A 
ATOM     89  C   UNL A   1      32.236  26.804  22.260  1.00  0.00     0.033 A 
ATOM     90  N   UNL A   1      32.453  27.159  24.435  1.00  0.00    -0.340 N 
ATOM     91  C   UNL A   1      33.468  27.456  22.472  1.00  0.00     0.020 A 
ATOM     92  C   UNL A   1      33.565  27.685  23.823  1.00  0.00     0.086 A 
BRANCH  90  93
ATOM     93  C   UNL A   1      32.381  27.140  25.887  1.00  0.00     0.087 C 
ATOM     94  C   UNL A   1      33.177  27.967  26.872  1.00  0.00     0.027 C 
ATOM     95  C   UNL A   1      31.741  28.291  26.643  1.00  0.00     0.027 C 
ENDBRANCH  90  93
ENDBRANCH  85  88
ENDBRANCH  83  84
ENDBRANCH  82  83
ENDBRANCH  75  78
ENDBRANCH  73  74
ENDBRANCH   1  73
TORSDOF 15
ENDMDL
MODEL 2
REMARK VINA RESULT:     -11.9      9.834     15.838
REMARK SMILES O=C(NCCCCNC(=O)[C@@H]1CC[C@H](CNC(=O)c2cccn2C2CC2)O1)c1ccc(-c2c3nc(c(-c4c(F)c(F)c(F)c(F)c4F)c4ccc([nH]4)c(-c4c(F)c(F)c(F)c(F)c4F)c4nc(c(-c5c(F)c(F)c(F)c(F)c5F)c5ccc2[nH]5)C=C4)C=C3)cc1
REMARK SMILES IDX 6 1 5 2 4 3 3 4 1 5 2 6 28 8 29 9 90 10 30 11 89 12 31 13
REMARK SMILES IDX 32 14 33 15 83 16 34 17 88 18 82 19 84 20 35 21 87 22 81 23
REMARK SMILES IDX 80 24 36 26 68 27 48 28 67 29 49 30 52 31 66 32 85 33 50 34
REMARK SMILES IDX 51 35 65 37 86 38 53 39 37 40 38 41 46 42 39 43 40 44 44 45
REMARK SMILES IDX 47 46 41 47 42 48 45 49 43 50 69 51 70 52 78 53 71 54 72 55
REMARK SMILES IDX 76 56 79 57 73 58 74 59 77 60 75 61 54 62 55 63 63 64 56 65
REMARK SMILES IDX 57 66 61 67 64 68 58 69 59 70 62 71 60 72 7 73 8 74 9 75
REMARK SMILES IDX 10 77 11 78 12 79 27 80 13 81 14 82 15 83 16 84 17 85 18 87
REMARK SMILES IDX 19 88 20 89 23 90 21 91 22 92 24 93 25 94 26 95
REMARK H PARENT 3 7 84 25 52 36 8 76 16 86
REMARK Flexibility Score: inf
ROOT
ATOM      1  C   UNL A   1      41.758  40.026  26.476  1.00  0.00     0.023 C 
ENDROOT
BRANCH   1   2
ATOM      2  C   UNL A   1      42.623  38.792  26.748  1.00  0.00     0.023 C 
BRANCH   2   3
ATOM      3  C   UNL A   1      43.570  38.931  27.941  1.00  0.00     0.116 C 
BRANCH   3   4
ATOM      4  N   UNL A   1      44.879  38.330  27.753  1.00  0.00    -0.352 N 
ATOM      5  O   UNL A   1      46.528  36.808  27.800  1.00  0.00    -0.269 OA
ATOM      6  C   UNL A   1      45.356  37.079  28.051  1.00  0.00     0.251 C 
ATOM      7  H   UNL A   1      45.542  38.929  27.339  1.00  0.00     0.163 HD
BRANCH   6   8
ATOM      8  C   UNL A   1      44.510  36.069  28.724  1.00  0.00     0.039 A 
ATOM      9  C   UNL A   1      44.142  36.181  30.067  1.00  0.00     0.014 A 
ATOM     10  C   UNL A   1      44.047  34.986  27.963  1.00  0.00     0.014 A 
ATOM     11  C   UNL A   1      43.411  35.172  30.679  1.00  0.00     0.010 A 
ATOM     12  C   UNL A   1      43.256  34.000  28.556  1.00  0.00     0.010 A 
ATOM     13  C   UNL A   1      42.944  34.094  29.920  1.00  0.00    -0.014 A 
BRANCH  13  14
ATOM     14  C   UNL A   1      41.937  33.207  30.545  1.00  0.00     0.031 A 
ATOM     15  C   UNL A   1      42.544  31.948  31.158  1.00  0.00     0.074 A 
ATOM     16  C   UNL A   1      40.630  33.578  30.482  1.00  0.00     0.049 A 
ATOM     17  N   UNL A   1      41.982  30.820  31.477  1.00  0.00    -0.248 NA
ATOM     18  C   UNL A   1      44.012  31.922  31.403  1.00  0.00     0.031 C 
ATOM     19  C   UNL A   1      40.158  34.814  29.839  1.00  0.00     0.029 A 
ATOM     20  N   UNL A   1      39.451  33.014  30.930  1.00  0.00    -0.354 N 
ATOM     21  C   UNL A   1      42.966  30.048  32.120  1.00  0.00     0.074 A 
ATOM     22  C   UNL A   1      44.218  30.712  31.921  1.00  0.00     0.031 C 
ATOM     23  C   UNL A   1      38.816  34.892  29.899  1.00  0.00     0.029 A 
ATOM     24  C   UNL A   1      38.280  33.726  30.579  1.00  0.00     0.049 A 
ATOM     25  H   UNL A   1      39.427  32.181  31.454  1.00  0.00     0.167 HD
ATOM     26  C   UNL A   1      42.697  28.983  32.924  1.00  0.00     0.037 A 
ATOM     27  C   UNL A   1      36.969  33.411  30.803  1.00  0.00     0.037 A 
ATOM     28  C   UNL A   1      41.305  28.699  33.000  1.00  0.00     0.049 A 
ATOM     29  C   UNL A   1      36.965  32.266  31.736  1.00  0.00     0.074 A 
ATOM     30  C   UNL A   1      40.417  28.043  32.190  1.00  0.00     0.029 A 
ATOM     31  N   UNL A   1      40.600  29.315  34.003  1.00  0.00    -0.354 N 
ATOM     32  N   UNL A   1      37.328  32.338  32.984  1.00  0.00    -0.248 NA
ATOM     33  C   UNL A   1      36.544  30.944  31.263  1.00  0.00     0.031 C 
ATOM     34  C   UNL A   1      39.143  28.531  32.564  1.00  0.00     0.029 A 
ATOM     35  C   UNL A   1      39.307  29.489  33.568  1.00  0.00     0.049 A 
ATOM     36  H   UNL A   1      40.956  29.586  34.880  1.00  0.00     0.167 HD
ATOM     37  C   UNL A   1      37.485  31.019  33.339  1.00  0.00     0.074 A 
ATOM     38  C   UNL A   1      36.739  30.243  32.377  1.00  0.00     0.031 C 
ATOM     39  C   UNL A   1      38.584  30.651  34.045  1.00  0.00     0.037 A 
BRANCH  26  40
ATOM     40  C   UNL A   1      43.603  28.274  33.886  1.00  0.00     0.064 A 
ATOM     41  C   UNL A   1      43.914  26.917  33.648  1.00  0.00     0.173 A 
ATOM     42  C   UNL A   1      43.900  28.771  35.163  1.00  0.00     0.173 A 
ATOM     43  F   UNL A   1      43.669  26.359  32.451  1.00  0.00    -0.203 F 
ATOM     44  C   UNL A   1      44.413  26.091  34.653  1.00  0.00     0.198 A 
ATOM     45  C   UNL A   1      44.443  27.950  36.154  1.00  0.00     0.198 A 
ATOM     46  F   UNL A   1      43.580  30.027  35.507  1.00  0.00    -0.203 F 
ATOM     47  F   UNL A   1      44.590  24.784  34.415  1.00  0.00    -0.200 F 
ATOM     48  C   UNL A   1      44.669  26.606  35.909  1.00  0.00     0.200 A 
ATOM     49  F   UNL A   1      44.683  28.454  37.373  1.00  0.00    -0.200 F 
ATOM     50  F   UNL A   1      45.099  25.804  36.892  1.00  0.00    -0.200 F 
ENDBRANCH  26  40
BRANCH  27  51
ATOM     51  C   UNL A   1      35.617  33.930  30.358  1.00  0.00     0.064 A 
ATOM     52  C   UNL A   1      34.693  34.613  31.165  1.00  0.00     0.173 A 
ATOM     53  C   UNL A   1      35.243  33.863  28.985  1.00  0.00     0.173 A 
ATOM     54  F   UNL A   1      34.884  34.764  32.476  1.00  0.00    -0.203 F 
ATOM     55  C   UNL A   1      33.533  35.212  30.643  1.00  0.00     0.198 A 
ATOM     56  C   UNL A   1      34.122  34.510  28.458  1.00  0.00     0.198 A 
ATOM     57  F   UNL A   1      35.975  33.182  28.091  1.00  0.00    -0.203 F 
ATOM     58  F   UNL A   1      32.689  35.845  31.470  1.00  0.00    -0.200 F 
ATOM     59  C   UNL A   1      33.266  35.190  29.289  1.00  0.00     0.200 A 
ATOM     60  F   UNL A   1      33.902  34.488  27.134  1.00  0.00    -0.200 F 
ATOM     61  F   UNL A   1      32.198  35.827  28.790  1.00  0.00    -0.200 F 
ENDBRANCH  27  51
BRANCH  39  62
ATOM     62  C   UNL A   1      39.158  31.791  34.864  1.00  0.00     0.064 A 
ATOM     63  C   UNL A   1      38.529  32.200  36.050  1.00  0.00     0.173 A 
ATOM     64  C   UNL A   1      40.224  32.593  34.425  1.00  0.00     0.173 A 
ATOM     65  F   UNL A   1      37.506  31.487  36.545  1.00  0.00    -0.203 F 
ATOM     66  C   UNL A   1      38.933  33.352  36.733  1.00  0.00     0.198 A 
ATOM     67  C   UNL A   1      40.637  33.736  35.107  1.00  0.00     0.198 A 
ATOM     68  F   UNL A   1      40.894  32.278  33.320  1.00  0.00    -0.203 F 
ATOM     69  F   UNL A   1      38.298  33.721  37.854  1.00  0.00    -0.200 F 
ATOM     70  C   UNL A   1      39.984  34.121  36.259  1.00  0.00     0.200 A 
ATOM     71  F   UNL A   1      41.669  34.456  34.641  1.00  0.00    -0.200 F 
ATOM     72  F   UNL A   1      40.373  35.223  36.915  1.00  0.00    -0.200 F 
ENDBRANCH  39  62
ENDBRANCH  13  14
ENDBRANCH   6   8
ENDBRANCH   3   4
ENDBRANCH   2   3
ENDBRANCH   1   2
BRANCH   1  73
ATOM     73  C   UNL A   1      42.446  41.100  25.634  1.00  0.00     0.116 C 
BRANCH  73  74
ATOM     74  N   UNL A   1      41.518  41.708  24.695  1.00  0.00    -0.354 N 
ATOM     75  C   UNL A   1      41.761  42.386  23.537  1.00  0.00     0.249 C 
ATOM     76  H   UNL A   1      40.568  41.617  24.932  1.00  0.00     0.163 HD
ATOM     77  O   UNL A   1      40.790  42.838  22.923  1.00  0.00    -0.272 OA
BRANCH  75  78
ATOM     78  C   UNL A   1      43.195  42.521  23.018  1.00  0.00     0.207 C 
ATOM     79  C   UNL A   1      43.636  43.969  22.871  1.00  0.00     0.045 C 
ATOM     80  O   UNL A   1      43.289  41.914  21.711  1.00  0.00    -0.363 OA
ATOM     81  C   UNL A   1      44.537  43.902  21.666  1.00  0.00     0.037 C 
ATOM     82  C   UNL A   1      43.833  42.878  20.787  1.00  0.00     0.138 C 
BRANCH  82  83
ATOM     83  C   UNL A   1      42.700  43.461  19.921  1.00  0.00     0.148 C 
BRANCH  83  84
ATOM     84  N   UNL A   1      42.916  43.244  18.498  1.00  0.00    -0.348 N 
ATOM     85  C   UNL A   1      43.535  44.024  17.558  1.00  0.00     0.268 C 
ATOM     86  H   UNL A   1      42.556  42.394  18.154  1.00  0.00     0.163 HD
ATOM     87  O   UNL A   1      43.550  43.602  16.404  1.00  0.00    -0.268 OA
BRANCH  85  88
ATOM     88  C   UNL A   1      44.204  45.231  17.970  1.00  0.00     0.107 A 
ATOM     89  C   UNL A   1      45.531  45.330  18.384  1.00  0.00     0.033 A 
ATOM     90  N   UNL A   1      43.732  46.526  17.891  1.00  0.00    -0.340 N 
ATOM     91  C   UNL A   1      45.857  46.692  18.549  1.00  0.00     0.020 A 
ATOM     92  C   UNL A   1      44.734  47.409  18.214  1.00  0.00     0.086 A 
BRANCH  90  93
ATOM     93  C   UNL A   1      42.392  47.030  17.640  1.00  0.00     0.087 C 
ATOM     94  C   UNL A   1      41.991  48.284  16.898  1.00  0.00     0.027 C 
ATOM     95  C   UNL A   1      41.789  46.959  16.249  1.00  0.00     0.027 C 
ENDBRANCH  90  93
ENDBRANCH  85  88
ENDBRANCH  83  84
ENDBRANCH  82  83
ENDBRANCH  75  78
ENDBRANCH  73  74
ENDBRANCH   1  73
TORSDOF 15
ENDMDL
MODEL 3
REMARK VINA RESULT:     -11.9      5.782     11.025
REMARK SMILES O=C(NCCCCNC(=O)[C@@H]1CC[C@H](CNC(=O)c2cccn2C2CC2)O1)c1ccc(-c2c3nc(c(-c4c(F)c(F)c(F)c(F)c4F)c4ccc([nH]4)c(-c4c(F)c(F)c(F)c(F)c4F)c4nc(c(-c5c(F)c(F)c(F)c(F)c5F)c5ccc2[nH]5)C=C4)C=C3)cc1
REMARK SMILES IDX 6 1 5 2 4 3 3 4 1 5 2 6 28 8 29 9 90 10 30 11 89 12 31 13
REMARK SMILES IDX 32 14 33 15 83 16 34 17 88 18 82 19 84 20 35 21 87 22 81 23
REMARK SMILES IDX 80 24 36 26 68 27 48 28 67 29 49 30 52 31 66 32 85 33 50 34
REMARK SMILES IDX 51 35 65 37 86 38 53 39 37 40 38 41 46 42 39 43 40 44 44 45
REMARK SMILES IDX 47 46 41 47 42 48 45 49 43 50 69 51 70 52 78 53 71 54 72 55
REMARK SMILES IDX 76 56 79 57 73 58 74 59 77 60 75 61 54 62 55 63 63 64 56 65
REMARK SMILES IDX 57 66 61 67 64 68 58 69 59 70 62 71 60 72 7 73 8 74 9 75
REMARK SMILES IDX 10 77 11 78 12 79 27 80 13 81 14 82 15 83 16 84 17 85 18 87
REMARK SMILES IDX 19 88 20 89 23 90 21 91 22 92 24 93 25 94 26 95
REMARK H PARENT 3 7 84 25 52 36 8 76 16 86
REMARK Flexibility Score: inf
ROOT
ATOM      1  C   UNL A   1      33.998  34.145  28.889  1.00  0.00     0.023 C 
ENDROOT
BRANCH   1   2
ATOM      2  C   UNL A   1      33.204  35.442  28.715  1.00  0.00     0.023 C 
BRANCH   2   3
ATOM      3  C   UNL A   1      33.296  36.405  29.900  1.00  0.00     0.116 C 
BRANCH   3   4
ATOM      4  N   UNL A   1      32.342  36.153  30.966  1.00  0.00    -0.352 N 
ATOM      5  O   UNL A   1      31.493  35.397  32.901  1.00  0.00    -0.269 OA
ATOM      6  C   UNL A   1      32.467  35.486  32.158  1.00  0.00     0.251 C 
ATOM      7  H   UNL A   1      31.446  36.527  30.803  1.00  0.00     0.163 HD
BRANCH   6   8
ATOM      8  C   UNL A   1      33.730  34.816  32.541  1.00  0.00     0.039 A 
ATOM      9  C   UNL A   1      33.753  33.548  33.128  1.00  0.00     0.014 A 
ATOM     10  C   UNL A   1      34.936  35.478  32.268  1.00  0.00     0.014 A 
ATOM     11  C   UNL A   1      34.955  32.990  33.541  1.00  0.00     0.010 A 
ATOM     12  C   UNL A   1      36.152  34.893  32.622  1.00  0.00     0.010 A 
ATOM     13  C   UNL A   1      36.157  33.648  33.265  1.00  0.00    -0.014 A 
BRANCH  13  14
ATOM     14  C   UNL A   1      37.411  32.885  33.462  1.00  0.00     0.031 A 
ATOM     15  C   UNL A   1      37.546  31.698  32.511  1.00  0.00     0.074 A 
ATOM     16  C   UNL A   1      38.258  33.287  34.447  1.00  0.00     0.049 A 
ATOM     17  N   UNL A   1      38.299  30.641  32.597  1.00  0.00    -0.248 NA
ATOM     18  C   UNL A   1      36.670  31.656  31.309  1.00  0.00     0.031 C 
ATOM     19  C   UNL A   1      38.008  34.443  35.322  1.00  0.00     0.029 A 
ATOM     20  N   UNL A   1      39.475  32.827  34.912  1.00  0.00    -0.354 N 
ATOM     21  C   UNL A   1      38.130  29.929  31.397  1.00  0.00     0.074 A 
ATOM     22  C   UNL A   1      37.021  30.519  30.710  1.00  0.00     0.031 C 
ATOM     23  C   UNL A   1      38.998  34.572  36.224  1.00  0.00     0.029 A 
ATOM     24  C   UNL A   1      39.985  33.525  36.032  1.00  0.00     0.049 A 
ATOM     25  H   UNL A   1      39.950  32.071  34.497  1.00  0.00     0.167 HD
ATOM     26  C   UNL A   1      39.001  28.989  30.937  1.00  0.00     0.037 A 
ATOM     27  C   UNL A   1      41.114  33.286  36.767  1.00  0.00     0.037 A 
ATOM     28  C   UNL A   1      40.080  28.764  31.835  1.00  0.00     0.049 A 
ATOM     29  C   UNL A   1      41.893  32.275  36.024  1.00  0.00     0.074 A 
ATOM     30  C   UNL A   1      40.231  28.037  32.985  1.00  0.00     0.029 A 
ATOM     31  N   UNL A   1      41.205  29.530  31.659  1.00  0.00    -0.354 N 
ATOM     32  N   UNL A   1      42.487  32.499  34.888  1.00  0.00    -0.248 NA
ATOM     33  C   UNL A   1      42.020  30.917  36.561  1.00  0.00     0.031 C 
ATOM     34  C   UNL A   1      41.342  28.611  33.645  1.00  0.00     0.029 A 
ATOM     35  C   UNL A   1      41.807  29.688  32.885  1.00  0.00     0.049 A 
ATOM     36  H   UNL A   1      41.524  29.903  30.806  1.00  0.00     0.167 HD
ATOM     37  C   UNL A   1      42.773  31.234  34.431  1.00  0.00     0.074 A 
ATOM     38  C   UNL A   1      42.731  30.363  35.581  1.00  0.00     0.031 C 
ATOM     39  C   UNL A   1      42.518  30.926  33.134  1.00  0.00     0.037 A 
BRANCH  26  40
ATOM     40  C   UNL A   1      39.100  28.384  29.569  1.00  0.00     0.064 A 
ATOM     41  C   UNL A   1      39.066  26.977  29.446  1.00  0.00     0.173 A 
ATOM     42  C   UNL A   1      39.540  29.100  28.446  1.00  0.00     0.173 A 
ATOM     43  F   UNL A   1      38.652  26.212  30.469  1.00  0.00    -0.203 F 
ATOM     44  C   UNL A   1      39.525  26.328  28.302  1.00  0.00     0.198 A 
ATOM     45  C   UNL A   1      39.956  28.447  27.284  1.00  0.00     0.198 A 
ATOM     46  F   UNL A   1      39.672  30.434  28.486  1.00  0.00    -0.203 F 
ATOM     47  F   UNL A   1      39.578  24.989  28.270  1.00  0.00    -0.200 F 
ATOM     48  C   UNL A   1      39.978  27.064  27.223  1.00  0.00     0.200 A 
ATOM     49  F   UNL A   1      40.402  29.165  26.244  1.00  0.00    -0.200 F 
ATOM     50  F   UNL A   1      40.469  26.443  26.143  1.00  0.00    -0.200 F 
ENDBRANCH  26  40
BRANCH  27  51
ATOM     51  C   UNL A   1      41.712  33.786  38.066  1.00  0.00     0.064 A 
ATOM     52  C   UNL A   1      42.874  34.564  38.189  1.00  0.00     0.173 A 
ATOM     53  C   UNL A   1      41.016  33.592  39.294  1.00  0.00     0.173 A 
ATOM     54  F   UNL A   1      43.649  34.840  37.138  1.00  0.00    -0.203 F 
ATOM     55  C   UNL A   1      43.276  35.132  39.410  1.00  0.00     0.198 A 
ATOM     56  C   UNL A   1      41.382  34.206  40.494  1.00  0.00     0.198 A 
ATOM     57  F   UNL A   1      39.928  32.811  39.367  1.00  0.00    -0.203 F 
ATOM     58  F   UNL A   1      44.400  35.861  39.461  1.00  0.00    -0.200 F 
ATOM     59  C   UNL A   1      42.514  34.983  40.552  1.00  0.00     0.200 A 
ATOM     60  F   UNL A   1      40.609  34.058  41.581  1.00  0.00    -0.200 F 
ATOM     61  F   UNL A   1      42.864  35.589  41.694  1.00  0.00    -0.200 F 
ENDBRANCH  27  51
BRANCH  39  62
ATOM     62  C   UNL A   1      42.541  32.145  32.231  1.00  0.00     0.064 A 
ATOM     63  C   UNL A   1      43.761  32.744  31.879  1.00  0.00     0.173 A 
ATOM     64  C   UNL A   1      41.382  32.830  31.835  1.00  0.00     0.173 A 
ATOM     65  F   UNL A   1      44.918  32.152  32.212  1.00  0.00    -0.203 F 
ATOM     66  C   UNL A   1      43.806  33.962  31.193  1.00  0.00     0.198 A 
ATOM     67  C   UNL A   1      41.421  34.039  31.143  1.00  0.00     0.198 A 
ATOM     68  F   UNL A   1      40.178  32.334  32.109  1.00  0.00    -0.203 F 
ATOM     69  F   UNL A   1      44.989  34.512  30.886  1.00  0.00    -0.200 F 
ATOM     70  C   UNL A   1      42.636  34.610  30.829  1.00  0.00     0.200 A 
ATOM     71  F   UNL A   1      40.277  34.641  30.784  1.00  0.00    -0.200 F 
ATOM     72  F   UNL A   1      42.680  35.776  30.169  1.00  0.00    -0.200 F 
ENDBRANCH  39  62
ENDBRANCH  13  14
ENDBRANCH   6   8
ENDBRANCH   3   4
ENDBRANCH   2   3
ENDBRANCH   1   2
BRANCH   1  73
ATOM     73  C   UNL A   1      33.539  33.003  27.983  1.00  0.00     0.116 C 
BRANCH  73  74
ATOM     74  N   UNL A   1      34.520  31.932  27.945  1.00  0.00    -0.354 N 
ATOM     75  C   UNL A   1      34.385  30.630  27.560  1.00  0.00     0.249 C 
ATOM     76  H   UNL A   1      35.423  32.186  28.244  1.00  0.00     0.163 HD
ATOM     77  O   UNL A   1      35.376  29.900  27.648  1.00  0.00    -0.272 OA
BRANCH  75  78
ATOM     78  C   UNL A   1      33.049  30.137  26.996  1.00  0.00     0.207 C 
ATOM     79  C   UNL A   1      32.767  28.682  27.335  1.00  0.00     0.045 C 
ATOM     80  O   UNL A   1      33.072  30.241  25.556  1.00  0.00    -0.363 OA
ATOM     81  C   UNL A   1      32.029  28.212  26.108  1.00  0.00     0.037 C 
ATOM     82  C   UNL A   1      32.745  28.956  24.991  1.00  0.00     0.138 C 
BRANCH  82  83
ATOM     83  C   UNL A   1      34.031  28.267  24.495  1.00  0.00     0.148 C 
BRANCH  83  84
ATOM     84  N   UNL A   1      33.894  27.731  23.148  1.00  0.00    -0.348 N 
ATOM     85  C   UNL A   1      33.510  26.490  22.714  1.00  0.00     0.268 C 
ATOM     86  H   UNL A   1      34.115  28.367  22.430  1.00  0.00     0.163 HD
ATOM     87  O   UNL A   1      33.510  26.299  21.501  1.00  0.00    -0.268 OA
BRANCH  85  88
ATOM     88  C   UNL A   1      33.048  25.518  23.671  1.00  0.00     0.107 A 
ATOM     89  C   UNL A   1      33.850  24.780  24.539  1.00  0.00     0.033 A 
ATOM     90  N   UNL A   1      31.744  25.239  24.029  1.00  0.00    -0.340 N 
ATOM     91  C   UNL A   1      33.023  24.060  25.425  1.00  0.00     0.020 A 
ATOM     92  C   UNL A   1      31.727  24.382  25.103  1.00  0.00     0.086 A 
BRANCH  90  93
ATOM     93  C   UNL A   1      30.490  25.617  23.399  1.00  0.00     0.087 C 
ATOM     94  C   UNL A   1      29.236  26.145  24.058  1.00  0.00     0.027 C 
ATOM     95  C   UNL A   1      30.096  27.078  23.277  1.00  0.00     0.027 C 
ENDBRANCH  90  93
ENDBRANCH  85  88
ENDBRANCH  83  84
ENDBRANCH  82  83
ENDBRANCH  75  78
ENDBRANCH  73  74
ENDBRANCH   1  73
TORSDOF 15
ENDMDL
