MODEL 1
REMARK VINA RESULT:     -13.8      0.000      0.000
REMARK SMILES O=C(NCCCCNC(=O)[C@@H]1CN(C(=O)C[NH+]2CCOCC2)C[C@H]1c1ccc2c(c1)OCO2)c1ccc(-c2c3nc(c(-c4c(F)c(F)c(F)c(F)c4F)c4ccc([nH]4)c(-c4c(F)c(F)c(F)c(F)c4F)c4nc(c(-c5c(F)c(F)c(F)c(F)c5F)c5ccc2[nH]5)C=C4)C=C3)cc1
REMARK SMILES IDX 6 1 5 2 4 3 3 4 1 5 2 6 34 8 35 9 96 10 36 11 95 12 37 13
REMARK SMILES IDX 38 14 39 15 89 16 40 17 94 18 88 19 90 20 41 21 93 22 87 23
REMARK SMILES IDX 86 24 42 26 74 27 54 28 73 29 55 30 58 31 72 32 91 33 56 34
REMARK SMILES IDX 57 35 71 37 92 38 59 39 43 40 44 41 52 42 45 43 46 44 50 45
REMARK SMILES IDX 53 46 47 47 48 48 51 49 49 50 75 51 76 52 84 53 77 54 78 55
REMARK SMILES IDX 82 56 85 57 79 58 80 59 83 60 81 61 60 62 61 63 69 64 62 65
REMARK SMILES IDX 63 66 67 67 70 68 64 69 65 70 68 71 66 72 7 73 8 74 9 75
REMARK SMILES IDX 10 77 11 78 12 79 24 80 13 81 23 82 25 83 26 84 30 85 27 86
REMARK SMILES IDX 29 87 28 88 31 89 33 90 32 91 14 92 15 93 16 94 17 95 18 96
REMARK SMILES IDX 22 97 19 99 21 100 20 101
REMARK H PARENT 3 7 90 25 58 36 8 76 17 98
REMARK Flexibility Score: inf
ROOT
ATOM      1  C   UNL A   1      31.728  30.698  26.080  1.00  0.00     0.023 C 
ENDROOT
BRANCH   1   2
ATOM      2  C   UNL A   1      31.443  31.975  26.870  1.00  0.00     0.023 C 
BRANCH   2   3
ATOM      3  C   UNL A   1      32.675  32.774  27.270  1.00  0.00     0.116 C 
BRANCH   3   4
ATOM      4  N   UNL A   1      32.376  34.152  27.629  1.00  0.00    -0.352 N 
ATOM      5  O   UNL A   1      32.561  36.058  28.826  1.00  0.00    -0.269 OA
ATOM      6  C   UNL A   1      32.993  34.951  28.566  1.00  0.00     0.251 C 
ATOM      7  H   UNL A   1      31.633  34.570  27.136  1.00  0.00     0.163 HD
BRANCH   6   8
ATOM      8  C   UNL A   1      34.170  34.416  29.283  1.00  0.00     0.039 A 
ATOM      9  C   UNL A   1      35.453  34.600  28.767  1.00  0.00     0.014 A 
ATOM     10  C   UNL A   1      33.972  33.681  30.455  1.00  0.00     0.014 A 
ATOM     11  C   UNL A   1      36.522  33.920  29.334  1.00  0.00     0.010 A 
ATOM     12  C   UNL A   1      35.064  33.069  31.074  1.00  0.00     0.010 A 
ATOM     13  C   UNL A   1      36.340  33.151  30.496  1.00  0.00    -0.014 A 
BRANCH  13  14
ATOM     14  C   UNL A   1      37.514  32.483  31.109  1.00  0.00     0.031 A 
ATOM     15  C   UNL A   1      37.968  32.827  32.499  1.00  0.00     0.074 A 
ATOM     16  C   UNL A   1      38.143  31.524  30.404  1.00  0.00     0.049 A 
ATOM     17  N   UNL A   1      38.949  32.311  33.196  1.00  0.00    -0.248 NA
ATOM     18  C   UNL A   1      37.235  33.893  33.197  1.00  0.00     0.031 C 
ATOM     19  C   UNL A   1      37.792  31.116  29.043  1.00  0.00     0.029 A 
ATOM     20  N   UNL A   1      39.187  30.702  30.739  1.00  0.00    -0.354 N 
ATOM     21  C   UNL A   1      38.967  33.001  34.400  1.00  0.00     0.074 A 
ATOM     22  C   UNL A   1      37.911  33.990  34.334  1.00  0.00     0.031 C 
ATOM     23  C   UNL A   1      38.565  30.083  28.681  1.00  0.00     0.029 A 
ATOM     24  C   UNL A   1      39.505  29.798  29.758  1.00  0.00     0.049 A 
ATOM     25  H   UNL A   1      39.662  30.756  31.600  1.00  0.00     0.167 HD
ATOM     26  C   UNL A   1      39.787  32.820  35.463  1.00  0.00     0.037 A 
ATOM     27  C   UNL A   1      40.456  28.848  29.725  1.00  0.00     0.037 A 
ATOM     28  C   UNL A   1      40.820  31.817  35.530  1.00  0.00     0.049 A 
ATOM     29  C   UNL A   1      41.357  28.678  30.913  1.00  0.00     0.074 A 
ATOM     30  C   UNL A   1      41.675  31.524  36.579  1.00  0.00     0.029 A 
ATOM     31  N   UNL A   1      41.139  30.942  34.502  1.00  0.00    -0.354 N 
ATOM     32  N   UNL A   1      41.341  29.317  32.058  1.00  0.00    -0.248 NA
ATOM     33  C   UNL A   1      42.409  27.661  30.802  1.00  0.00     0.031 C 
ATOM     34  C   UNL A   1      42.539  30.502  36.169  1.00  0.00     0.029 A 
ATOM     35  C   UNL A   1      42.193  30.126  34.881  1.00  0.00     0.049 A 
ATOM     36  H   UNL A   1      40.684  30.906  33.628  1.00  0.00     0.167 HD
ATOM     37  C   UNL A   1      42.371  28.769  32.810  1.00  0.00     0.074 A 
ATOM     38  C   UNL A   1      42.975  27.732  31.998  1.00  0.00     0.031 C 
ATOM     39  C   UNL A   1      42.782  29.100  34.058  1.00  0.00     0.037 A 
BRANCH  26  40
ATOM     40  C   UNL A   1      39.618  33.738  36.639  1.00  0.00     0.064 A 
ATOM     41  C   UNL A   1      40.221  35.004  36.683  1.00  0.00     0.173 A 
ATOM     42  C   UNL A   1      38.805  33.363  37.720  1.00  0.00     0.173 A 
ATOM     43  F   UNL A   1      41.017  35.407  35.682  1.00  0.00    -0.203 F 
ATOM     44  C   UNL A   1      40.036  35.850  37.775  1.00  0.00     0.198 A 
ATOM     45  C   UNL A   1      38.600  34.221  38.798  1.00  0.00     0.198 A 
ATOM     46  F   UNL A   1      38.199  32.165  37.727  1.00  0.00    -0.203 F 
ATOM     47  F   UNL A   1      40.656  37.036  37.814  1.00  0.00    -0.200 F 
ATOM     48  C   UNL A   1      39.221  35.459  38.828  1.00  0.00     0.200 A 
ATOM     49  F   UNL A   1      37.804  33.846  39.809  1.00  0.00    -0.200 F 
ATOM     50  F   UNL A   1      39.039  36.276  39.875  1.00  0.00    -0.200 F 
ENDBRANCH  26  40
BRANCH  27  51
ATOM     51  C   UNL A   1      40.588  27.981  28.527  1.00  0.00     0.064 A 
ATOM     52  C   UNL A   1      39.933  26.744  28.459  1.00  0.00     0.173 A 
ATOM     53  C   UNL A   1      41.349  28.382  27.419  1.00  0.00     0.173 A 
ATOM     54  F   UNL A   1      39.208  26.313  29.501  1.00  0.00    -0.203 F 
ATOM     55  C   UNL A   1      40.042  25.937  27.329  1.00  0.00     0.198 A 
ATOM     56  C   UNL A   1      41.433  27.586  26.279  1.00  0.00     0.198 A 
ATOM     57  F   UNL A   1      41.988  29.560  27.434  1.00  0.00    -0.203 F 
ATOM     58  F   UNL A   1      39.433  24.743  27.302  1.00  0.00    -0.200 F 
ATOM     59  C   UNL A   1      40.785  26.361  26.238  1.00  0.00     0.200 A 
ATOM     60  F   UNL A   1      42.137  28.009  25.221  1.00  0.00    -0.200 F 
ATOM     61  F   UNL A   1      40.879  25.589  25.147  1.00  0.00    -0.200 F 
ENDBRANCH  27  51
BRANCH  39  62
ATOM     62  C   UNL A   1      43.924  28.310  34.626  1.00  0.00     0.064 A 
ATOM     63  C   UNL A   1      45.254  28.723  34.460  1.00  0.00     0.173 A 
ATOM     64  C   UNL A   1      43.682  27.136  35.353  1.00  0.00     0.173 A 
ATOM     65  F   UNL A   1      45.534  29.830  33.756  1.00  0.00    -0.203 F 
ATOM     66  C   UNL A   1      46.304  27.970  34.979  1.00  0.00     0.198 A 
ATOM     67  C   UNL A   1      44.733  26.401  35.894  1.00  0.00     0.198 A 
ATOM     68  F   UNL A   1      42.427  26.702  35.542  1.00  0.00    -0.203 F 
ATOM     69  F   UNL A   1      47.570  28.354  34.764  1.00  0.00    -0.200 F 
ATOM     70  C   UNL A   1      46.043  26.814  35.699  1.00  0.00     0.200 A 
ATOM     71  F   UNL A   1      44.479  25.289  36.597  1.00  0.00    -0.200 F 
ATOM     72  F   UNL A   1      47.055  26.091  36.196  1.00  0.00    -0.200 F 
ENDBRANCH  39  62
ENDBRANCH  13  14
ENDBRANCH   6   8
ENDBRANCH   3   4
ENDBRANCH   2   3
ENDBRANCH   1   2
BRANCH   1  73
ATOM     73  C   UNL A   1      33.002  29.973  26.495  1.00  0.00     0.116 C 
BRANCH  73  74
ATOM     74  N   UNL A   1      33.730  29.469  25.345  1.00  0.00    -0.356 N 
ATOM     75  C   UNL A   1      33.563  28.312  24.648  1.00  0.00     0.225 C 
ATOM     76  H   UNL A   1      34.453  30.052  25.018  1.00  0.00     0.163 HD
ATOM     77  O   UNL A   1      34.271  28.116  23.661  1.00  0.00    -0.275 OA
BRANCH  75  78
ATOM     78  C   UNL A   1      32.545  27.302  25.117  1.00  0.00     0.107 C 
ATOM     79  C   UNL A   1      33.295  26.157  25.770  1.00  0.00     0.133 C 
ATOM     80  C   UNL A   1      31.738  26.628  23.987  1.00  0.00     0.053 C 
ATOM     81  N   UNL A   1      32.369  25.048  25.690  1.00  0.00    -0.336 N 
ATOM     82  C   UNL A   1      31.369  25.281  24.654  1.00  0.00     0.129 C 
BRANCH  80  83
ATOM     83  C   UNL A   1      30.592  27.524  23.523  1.00  0.00    -0.038 A 
ATOM     84  C   UNL A   1      29.266  27.215  23.934  1.00  0.00     0.008 A 
ATOM     85  C   UNL A   1      30.777  28.622  22.667  1.00  0.00     0.054 A 
ATOM     86  C   UNL A   1      28.156  27.907  23.439  1.00  0.00     0.051 A 
ATOM     87  C   UNL A   1      29.663  29.293  22.199  1.00  0.00     0.166 A 
ATOM     88  C   UNL A   1      28.388  28.935  22.559  1.00  0.00     0.165 A 
ATOM     89  O   UNL A   1      29.681  30.343  21.333  1.00  0.00    -0.454 OA
ATOM     90  O   UNL A   1      27.441  29.702  21.959  1.00  0.00    -0.454 OA
ATOM     91  C   UNL A   1      28.267  30.585  21.173  1.00  0.00     0.468 C 
ENDBRANCH  80  83
BRANCH  81  92
ATOM     92  C   UNL A   1      32.294  23.953  26.529  1.00  0.00     0.277 C 
ATOM     93  O   UNL A   1      31.429  23.882  27.406  1.00  0.00    -0.268 OA
BRANCH  92  94
ATOM     94  C   UNL A   1      33.304  22.819  26.325  1.00  0.00     0.363 C 
BRANCH  94  95
ATOM     95  N   UNL A   1      33.258  22.137  25.018  1.00  0.00    -0.323 N 
ATOM     96  C   UNL A   1      32.358  20.977  24.900  1.00  0.00     0.291 C 
ATOM     97  C   UNL A   1      34.583  21.792  24.478  1.00  0.00     0.291 C 
ATOM     98  H   UNL A   1      32.839  22.868  24.443  1.00  0.00     0.348 HD
ATOM     99  C   UNL A   1      32.963  19.630  25.340  1.00  0.00     0.221 C 
ATOM    100  C   UNL A   1      35.139  20.445  24.960  1.00  0.00     0.221 C 
ATOM    101  O   UNL A   1      34.215  19.384  24.688  1.00  0.00    -0.370 OA
ENDBRANCH  94  95
ENDBRANCH  92  94
ENDBRANCH  81  92
ENDBRANCH  75  78
ENDBRANCH  73  74
ENDBRANCH   1  73
TORSDOF 15
ENDMDL
MODEL 2
REMARK VINA RESULT:     -13.7      0.085      1.534
REMARK SMILES O=C(NCCCCNC(=O)[C@@H]1CN(C(=O)C[NH+]2CCOCC2)C[C@H]1c1ccc2c(c1)OCO2)c1ccc(-c2c3nc(c(-c4c(F)c(F)c(F)c(F)c4F)c4ccc([nH]4)c(-c4c(F)c(F)c(F)c(F)c4F)c4nc(c(-c5c(F)c(F)c(F)c(F)c5F)c5ccc2[nH]5)C=C4)C=C3)cc1
REMARK SMILES IDX 6 1 5 2 4 3 3 4 1 5 2 6 34 8 35 9 96 10 36 11 95 12 37 13
REMARK SMILES IDX 38 14 39 15 89 16 40 17 94 18 88 19 90 20 41 21 93 22 87 23
REMARK SMILES IDX 86 24 42 26 74 27 54 28 73 29 55 30 58 31 72 32 91 33 56 34
REMARK SMILES IDX 57 35 71 37 92 38 59 39 43 40 44 41 52 42 45 43 46 44 50 45
REMARK SMILES IDX 53 46 47 47 48 48 51 49 49 50 75 51 76 52 84 53 77 54 78 55
REMARK SMILES IDX 82 56 85 57 79 58 80 59 83 60 81 61 60 62 61 63 69 64 62 65
REMARK SMILES IDX 63 66 67 67 70 68 64 69 65 70 68 71 66 72 7 73 8 74 9 75
REMARK SMILES IDX 10 77 11 78 12 79 24 80 13 81 23 82 25 83 26 84 30 85 27 86
REMARK SMILES IDX 29 87 28 88 31 89 33 90 32 91 14 92 15 93 16 94 17 95 18 96
REMARK SMILES IDX 22 97 19 99 21 100 20 101
REMARK H PARENT 3 7 90 25 58 36 8 76 17 98
REMARK Flexibility Score: inf
ROOT
ATOM      1  C   UNL A   1      31.710  30.716  26.056  1.00  0.00     0.023 C 
ENDROOT
BRANCH   1   2
ATOM      2  C   UNL A   1      31.426  31.989  26.852  1.00  0.00     0.023 C 
BRANCH   2   3
ATOM      3  C   UNL A   1      32.660  32.792  27.243  1.00  0.00     0.116 C 
BRANCH   3   4
ATOM      4  N   UNL A   1      32.359  34.168  27.607  1.00  0.00    -0.352 N 
ATOM      5  O   UNL A   1      32.542  36.070  28.811  1.00  0.00    -0.269 OA
ATOM      6  C   UNL A   1      32.975  34.964  28.547  1.00  0.00     0.251 C 
ATOM      7  H   UNL A   1      31.615  34.586  27.116  1.00  0.00     0.163 HD
BRANCH   6   8
ATOM      8  C   UNL A   1      34.153  34.428  29.262  1.00  0.00     0.039 A 
ATOM      9  C   UNL A   1      35.435  34.608  28.741  1.00  0.00     0.014 A 
ATOM     10  C   UNL A   1      33.957  33.696  30.435  1.00  0.00     0.014 A 
ATOM     11  C   UNL A   1      36.504  33.926  29.307  1.00  0.00     0.010 A 
ATOM     12  C   UNL A   1      35.049  33.082  31.053  1.00  0.00     0.010 A 
ATOM     13  C   UNL A   1      36.323  33.160  30.471  1.00  0.00    -0.014 A 
BRANCH  13  14
ATOM     14  C   UNL A   1      37.498  32.491  31.081  1.00  0.00     0.031 A 
ATOM     15  C   UNL A   1      37.948  32.826  32.475  1.00  0.00     0.074 A 
ATOM     16  C   UNL A   1      38.131  31.538  30.372  1.00  0.00     0.049 A 
ATOM     17  N   UNL A   1      38.929  32.307  33.171  1.00  0.00    -0.248 NA
ATOM     18  C   UNL A   1      37.211  33.886  33.179  1.00  0.00     0.031 C 
ATOM     19  C   UNL A   1      37.784  31.138  29.007  1.00  0.00     0.029 A 
ATOM     20  N   UNL A   1      39.176  30.717  30.704  1.00  0.00    -0.354 N 
ATOM     21  C   UNL A   1      38.943  32.989  34.379  1.00  0.00     0.074 A 
ATOM     22  C   UNL A   1      37.885  33.976  34.318  1.00  0.00     0.031 C 
ATOM     23  C   UNL A   1      38.560  30.110  28.640  1.00  0.00     0.029 A 
ATOM     24  C   UNL A   1      39.499  29.820  29.716  1.00  0.00     0.049 A 
ATOM     25  H   UNL A   1      39.649  30.765  31.566  1.00  0.00     0.167 HD
ATOM     26  C   UNL A   1      39.761  32.803  35.443  1.00  0.00     0.037 A 
ATOM     27  C   UNL A   1      40.452  28.872  29.679  1.00  0.00     0.037 A 
ATOM     28  C   UNL A   1      40.796  31.801  35.505  1.00  0.00     0.049 A 
ATOM     29  C   UNL A   1      41.350  28.696  30.868  1.00  0.00     0.074 A 
ATOM     30  C   UNL A   1      41.650  31.503  36.554  1.00  0.00     0.029 A 
ATOM     31  N   UNL A   1      41.120  30.935  34.471  1.00  0.00    -0.354 N 
ATOM     32  N   UNL A   1      41.331  29.327  32.017  1.00  0.00    -0.248 NA
ATOM     33  C   UNL A   1      42.405  27.682  30.752  1.00  0.00     0.031 C 
ATOM     34  C   UNL A   1      42.516  30.486  36.139  1.00  0.00     0.029 A 
ATOM     35  C   UNL A   1      42.175  30.118  34.848  1.00  0.00     0.049 A 
ATOM     36  H   UNL A   1      40.666  30.904  33.597  1.00  0.00     0.167 HD
ATOM     37  C   UNL A   1      42.360  28.777  32.767  1.00  0.00     0.074 A 
ATOM     38  C   UNL A   1      42.968  27.746  31.950  1.00  0.00     0.031 C 
ATOM     39  C   UNL A   1      42.767  29.100  34.019  1.00  0.00     0.037 A 
BRANCH  26  40
ATOM     40  C   UNL A   1      39.587  33.712  36.625  1.00  0.00     0.064 A 
ATOM     41  C   UNL A   1      40.193  34.976  36.682  1.00  0.00     0.173 A 
ATOM     42  C   UNL A   1      38.767  33.331  37.698  1.00  0.00     0.173 A 
ATOM     43  F   UNL A   1      40.996  35.385  35.689  1.00  0.00    -0.203 F 
ATOM     44  C   UNL A   1      40.003  35.814  37.780  1.00  0.00     0.198 A 
ATOM     45  C   UNL A   1      38.558  34.181  38.782  1.00  0.00     0.198 A 
ATOM     46  F   UNL A   1      38.158  32.134  37.692  1.00  0.00    -0.203 F 
ATOM     47  F   UNL A   1      40.626  36.999  37.832  1.00  0.00    -0.200 F 
ATOM     48  C   UNL A   1      39.182  35.417  38.825  1.00  0.00     0.200 A 
ATOM     49  F   UNL A   1      37.755  33.800  39.785  1.00  0.00    -0.200 F 
ATOM     50  F   UNL A   1      38.996  36.227  39.876  1.00  0.00    -0.200 F 
ENDBRANCH  26  40
BRANCH  27  51
ATOM     51  C   UNL A   1      40.588  28.014  28.475  1.00  0.00     0.064 A 
ATOM     52  C   UNL A   1      41.394  28.409  27.399  1.00  0.00     0.173 A 
ATOM     53  C   UNL A   1      39.939  26.774  28.387  1.00  0.00     0.173 A 
ATOM     54  F   UNL A   1      42.020  29.594  27.432  1.00  0.00    -0.203 F 
ATOM     55  C   UNL A   1      41.537  27.599  26.275  1.00  0.00     0.198 A 
ATOM     56  C   UNL A   1      40.106  25.952  27.275  1.00  0.00     0.198 A 
ATOM     57  F   UNL A   1      39.163  26.349  29.395  1.00  0.00    -0.203 F 
ATOM     58  F   UNL A   1      42.286  28.014  25.244  1.00  0.00    -0.200 F 
ATOM     59  C   UNL A   1      40.900  26.368  26.217  1.00  0.00     0.200 A 
ATOM     60  F   UNL A   1      39.503  24.757  27.232  1.00  0.00    -0.200 F 
ATOM     61  F   UNL A   1      41.047  25.584  25.141  1.00  0.00    -0.200 F 
ENDBRANCH  27  51
BRANCH  39  62
ATOM     62  C   UNL A   1      43.910  28.308  34.584  1.00  0.00     0.064 A 
ATOM     63  C   UNL A   1      43.706  27.065  35.200  1.00  0.00     0.173 A 
ATOM     64  C   UNL A   1      45.222  28.795  34.496  1.00  0.00     0.173 A 
ATOM     65  F   UNL A   1      42.466  26.569  35.324  1.00  0.00    -0.203 F 
ATOM     66  C   UNL A   1      44.774  26.351  35.735  1.00  0.00     0.198 A 
ATOM     67  C   UNL A   1      46.291  28.064  35.007  1.00  0.00     0.198 A 
ATOM     68  F   UNL A   1      45.468  29.977  33.912  1.00  0.00    -0.203 F 
ATOM     69  F   UNL A   1      44.551  25.190  36.366  1.00  0.00    -0.200 F 
ATOM     70  C   UNL A   1      46.065  26.847  35.633  1.00  0.00     0.200 A 
ATOM     71  F   UNL A   1      47.539  28.541  34.899  1.00  0.00    -0.200 F 
ATOM     72  F   UNL A   1      47.091  26.158  36.148  1.00  0.00    -0.200 F 
ENDBRANCH  39  62
ENDBRANCH  13  14
ENDBRANCH   6   8
ENDBRANCH   3   4
ENDBRANCH   2   3
ENDBRANCH   1   2
BRANCH   1  73
ATOM     73  C   UNL A   1      32.978  29.982  26.472  1.00  0.00     0.116 C 
BRANCH  73  74
ATOM     74  N   UNL A   1      33.706  29.477  25.322  1.00  0.00    -0.356 N 
ATOM     75  C   UNL A   1      33.549  28.312  24.636  1.00  0.00     0.225 C 
ATOM     76  H   UNL A   1      34.420  30.066  24.987  1.00  0.00     0.163 HD
ATOM     77  O   UNL A   1      34.255  28.117  23.647  1.00  0.00    -0.275 OA
BRANCH  75  78
ATOM     78  C   UNL A   1      32.547  27.294  25.118  1.00  0.00     0.107 C 
ATOM     79  C   UNL A   1      33.315  26.156  25.763  1.00  0.00     0.133 C 
ATOM     80  C   UNL A   1      31.731  26.612  24.000  1.00  0.00     0.053 C 
ATOM     81  N   UNL A   1      32.397  25.039  25.696  1.00  0.00    -0.336 N 
ATOM     82  C   UNL A   1      31.383  25.262  24.672  1.00  0.00     0.129 C 
BRANCH  80  83
ATOM     83  C   UNL A   1      30.572  27.498  23.549  1.00  0.00    -0.038 A 
ATOM     84  C   UNL A   1      29.252  27.168  23.964  1.00  0.00     0.008 A 
ATOM     85  C   UNL A   1      30.739  28.605  22.702  1.00  0.00     0.054 A 
ATOM     86  C   UNL A   1      28.131  27.851  23.480  1.00  0.00     0.051 A 
ATOM     87  C   UNL A   1      29.614  29.266  22.245  1.00  0.00     0.166 A 
ATOM     88  C   UNL A   1      28.346  28.889  22.608  1.00  0.00     0.165 A 
ATOM     89  O   UNL A   1      29.614  30.323  21.388  1.00  0.00    -0.454 OA
ATOM     90  O   UNL A   1      27.386  29.649  22.020  1.00  0.00    -0.454 OA
ATOM     91  C   UNL A   1      28.197  30.549  21.237  1.00  0.00     0.468 C 
ENDBRANCH  80  83
BRANCH  81  92
ATOM     92  C   UNL A   1      32.342  23.945  26.537  1.00  0.00     0.277 C 
ATOM     93  O   UNL A   1      31.474  23.856  27.409  1.00  0.00    -0.268 OA
BRANCH  92  94
ATOM     94  C   UNL A   1      33.379  22.833  26.341  1.00  0.00     0.363 C 
BRANCH  94  95
ATOM     95  N   UNL A   1      33.370  22.162  25.027  1.00  0.00    -0.323 N 
ATOM     96  C   UNL A   1      32.469  21.009  24.871  1.00  0.00     0.291 C 
ATOM     97  C   UNL A   1      34.710  21.815  24.526  1.00  0.00     0.291 C 
ATOM     98  H   UNL A   1      32.973  22.901  24.446  1.00  0.00     0.348 HD
ATOM     99  C   UNL A   1      33.053  19.655  25.319  1.00  0.00     0.221 C 
ATOM    100  C   UNL A   1      35.243  20.461  25.014  1.00  0.00     0.221 C 
ATOM    101  O   UNL A   1      34.323  19.407  24.704  1.00  0.00    -0.370 OA
ENDBRANCH  94  95
ENDBRANCH  92  94
ENDBRANCH  81  92
ENDBRANCH  75  78
ENDBRANCH  73  74
ENDBRANCH   1  73
TORSDOF 15
ENDMDL
MODEL 3
REMARK VINA RESULT:     -13.7      5.177     10.975
REMARK SMILES O=C(NCCCCNC(=O)[C@@H]1CN(C(=O)C[NH+]2CCOCC2)C[C@H]1c1ccc2c(c1)OCO2)c1ccc(-c2c3nc(c(-c4c(F)c(F)c(F)c(F)c4F)c4ccc([nH]4)c(-c4c(F)c(F)c(F)c(F)c4F)c4nc(c(-c5c(F)c(F)c(F)c(F)c5F)c5ccc2[nH]5)C=C4)C=C3)cc1
REMARK SMILES IDX 6 1 5 2 4 3 3 4 1 5 2 6 34 8 35 9 96 10 36 11 95 12 37 13
REMARK SMILES IDX 38 14 39 15 89 16 40 17 94 18 88 19 90 20 41 21 93 22 87 23
REMARK SMILES IDX 86 24 42 26 74 27 54 28 73 29 55 30 58 31 72 32 91 33 56 34
REMARK SMILES IDX 57 35 71 37 92 38 59 39 43 40 44 41 52 42 45 43 46 44 50 45
REMARK SMILES IDX 53 46 47 47 48 48 51 49 49 50 75 51 76 52 84 53 77 54 78 55
REMARK SMILES IDX 82 56 85 57 79 58 80 59 83 60 81 61 60 62 61 63 69 64 62 65
REMARK SMILES IDX 63 66 67 67 70 68 64 69 65 70 68 71 66 72 7 73 8 74 9 75
REMARK SMILES IDX 10 77 11 78 12 79 24 80 13 81 23 82 25 83 26 84 30 85 27 86
REMARK SMILES IDX 29 87 28 88 31 89 33 90 32 91 14 92 15 93 16 94 17 95 18 96
REMARK SMILES IDX 22 97 19 99 21 100 20 101
REMARK H PARENT 3 7 90 25 58 36 8 76 17 98
REMARK Flexibility Score: inf
ROOT
ATOM      1  C   UNL A   1      36.562  20.309  25.040  1.00  0.00     0.023 C 
ENDROOT
BRANCH   1   2
ATOM      2  C   UNL A   1      38.033  20.148  24.660  1.00  0.00     0.023 C 
BRANCH   2   3
ATOM      3  C   UNL A   1      39.017  20.319  25.809  1.00  0.00     0.116 C 
BRANCH   3   4
ATOM      4  N   UNL A   1      39.996  19.246  25.893  1.00  0.00    -0.352 N 
ATOM      5  O   UNL A   1      42.060  18.348  26.084  1.00  0.00    -0.269 OA
ATOM      6  C   UNL A   1      41.347  19.332  26.147  1.00  0.00     0.251 C 
ATOM      7  H   UNL A   1      39.647  18.337  25.748  1.00  0.00     0.163 HD
BRANCH   6   8
ATOM      8  C   UNL A   1      41.924  20.658  26.457  1.00  0.00     0.039 A 
ATOM      9  C   UNL A   1      42.173  21.027  27.779  1.00  0.00     0.014 A 
ATOM     10  C   UNL A   1      42.164  21.553  25.411  1.00  0.00     0.014 A 
ATOM     11  C   UNL A   1      42.514  22.340  28.070  1.00  0.00     0.010 A 
ATOM     12  C   UNL A   1      42.594  22.849  25.700  1.00  0.00     0.010 A 
ATOM     13  C   UNL A   1      42.733  23.264  27.034  1.00  0.00    -0.014 A 
BRANCH  13  14
ATOM     14  C   UNL A   1      43.153  24.645  27.377  1.00  0.00     0.031 A 
ATOM     15  C   UNL A   1      44.540  25.135  27.074  1.00  0.00     0.074 A 
ATOM     16  C   UNL A   1      42.245  25.470  27.931  1.00  0.00     0.049 A 
ATOM     17  N   UNL A   1      45.055  26.323  27.273  1.00  0.00    -0.248 NA
ATOM     18  C   UNL A   1      45.476  24.169  26.479  1.00  0.00     0.031 C 
ATOM     19  C   UNL A   1      40.871  25.096  28.276  1.00  0.00     0.029 A 
ATOM     20  N   UNL A   1      42.326  26.793  28.276  1.00  0.00    -0.354 N 
ATOM     21  C   UNL A   1      46.376  26.242  26.852  1.00  0.00     0.074 A 
ATOM     22  C   UNL A   1      46.592  24.882  26.405  1.00  0.00     0.031 C 
ATOM     23  C   UNL A   1      40.222  26.178  28.727  1.00  0.00     0.029 A 
ATOM     24  C   UNL A   1      41.148  27.303  28.762  1.00  0.00     0.049 A 
ATOM     25  H   UNL A   1      43.149  27.325  28.184  1.00  0.00     0.167 HD
ATOM     26  C   UNL A   1      47.316  27.216  26.837  1.00  0.00     0.037 A 
ATOM     27  C   UNL A   1      40.848  28.540  29.196  1.00  0.00     0.037 A 
ATOM     28  C   UNL A   1      47.086  28.575  27.262  1.00  0.00     0.049 A 
ATOM     29  C   UNL A   1      41.914  29.595  29.177  1.00  0.00     0.074 A 
ATOM     30  C   UNL A   1      47.961  29.647  27.244  1.00  0.00     0.029 A 
ATOM     31  N   UNL A   1      45.890  29.046  27.784  1.00  0.00    -0.354 N 
ATOM     32  N   UNL A   1      43.150  29.514  28.746  1.00  0.00    -0.248 NA
ATOM     33  C   UNL A   1      41.546  30.912  29.710  1.00  0.00     0.031 C 
ATOM     34  C   UNL A   1      47.308  30.756  27.795  1.00  0.00     0.029 A 
ATOM     35  C   UNL A   1      46.011  30.387  28.114  1.00  0.00     0.049 A 
ATOM     36  H   UNL A   1      45.073  28.507  27.903  1.00  0.00     0.167 HD
ATOM     37  C   UNL A   1      43.703  30.770  28.942  1.00  0.00     0.074 A 
ATOM     38  C   UNL A   1      42.660  31.602  29.510  1.00  0.00     0.031 C 
ATOM     39  C   UNL A   1      44.962  31.196  28.680  1.00  0.00     0.037 A 
BRANCH  26  40
ATOM     40  C   UNL A   1      48.694  26.850  26.363  1.00  0.00     0.064 A 
ATOM     41  C   UNL A   1      49.654  26.306  27.228  1.00  0.00     0.173 A 
ATOM     42  C   UNL A   1      49.042  27.005  25.012  1.00  0.00     0.173 A 
ATOM     43  F   UNL A   1      49.375  26.147  28.531  1.00  0.00    -0.203 F 
ATOM     44  C   UNL A   1      50.920  25.954  26.765  1.00  0.00     0.198 A 
ATOM     45  C   UNL A   1      50.300  26.628  24.547  1.00  0.00     0.198 A 
ATOM     46  F   UNL A   1      48.159  27.515  24.139  1.00  0.00    -0.203 F 
ATOM     47  F   UNL A   1      51.835  25.476  27.619  1.00  0.00    -0.200 F 
ATOM     48  C   UNL A   1      51.239  26.110  25.424  1.00  0.00     0.200 A 
ATOM     49  F   UNL A   1      50.602  26.769  23.248  1.00  0.00    -0.200 F 
ATOM     50  F   UNL A   1      52.455  25.764  24.979  1.00  0.00    -0.200 F 
ENDBRANCH  26  40
BRANCH  27  51
ATOM     51  C   UNL A   1      39.474  28.839  29.670  1.00  0.00     0.064 A 
ATOM     52  C   UNL A   1      39.108  28.608  31.003  1.00  0.00     0.173 A 
ATOM     53  C   UNL A   1      38.510  29.384  28.811  1.00  0.00     0.173 A 
ATOM     54  F   UNL A   1      39.992  28.072  31.857  1.00  0.00    -0.203 F 
ATOM     55  C   UNL A   1      37.824  28.904  31.455  1.00  0.00     0.198 A 
ATOM     56  C   UNL A   1      37.235  29.706  29.271  1.00  0.00     0.198 A 
ATOM     57  F   UNL A   1      38.815  29.630  27.528  1.00  0.00    -0.203 F 
ATOM     58  F   UNL A   1      37.487  28.642  32.726  1.00  0.00    -0.200 F 
ATOM     59  C   UNL A   1      36.891  29.459  30.592  1.00  0.00     0.200 A 
ATOM     60  F   UNL A   1      36.344  30.259  28.438  1.00  0.00    -0.200 F 
ATOM     61  F   UNL A   1      35.660  29.754  31.030  1.00  0.00    -0.200 F 
ENDBRANCH  27  51
BRANCH  39  62
ATOM     62  C   UNL A   1      45.267  32.634  28.983  1.00  0.00     0.064 A 
ATOM     63  C   UNL A   1      45.815  33.022  30.214  1.00  0.00     0.173 A 
ATOM     64  C   UNL A   1      45.019  33.629  28.026  1.00  0.00     0.173 A 
ATOM     65  F   UNL A   1      46.052  32.108  31.166  1.00  0.00    -0.203 F 
ATOM     66  C   UNL A   1      46.077  34.362  30.487  1.00  0.00     0.198 A 
ATOM     67  C   UNL A   1      45.309  34.964  28.293  1.00  0.00     0.198 A 
ATOM     68  F   UNL A   1      44.499  33.306  26.833  1.00  0.00    -0.203 F 
ATOM     69  F   UNL A   1      46.551  34.718  31.689  1.00  0.00    -0.200 F 
ATOM     70  C   UNL A   1      45.830  35.330  29.525  1.00  0.00     0.200 A 
ATOM     71  F   UNL A   1      45.077  35.897  27.359  1.00  0.00    -0.200 F 
ATOM     72  F   UNL A   1      46.081  36.619  29.791  1.00  0.00    -0.200 F 
ENDBRANCH  39  62
ENDBRANCH  13  14
ENDBRANCH   6   8
ENDBRANCH   3   4
ENDBRANCH   2   3
ENDBRANCH   1   2
BRANCH   1  73
ATOM     73  C   UNL A   1      36.124  21.750  25.269  1.00  0.00     0.116 C 
BRANCH  73  74
ATOM     74  N   UNL A   1      35.613  21.947  26.613  1.00  0.00    -0.356 N 
ATOM     75  C   UNL A   1      34.377  22.340  27.024  1.00  0.00     0.225 C 
ATOM     76  H   UNL A   1      36.256  21.769  27.336  1.00  0.00     0.163 HD
ATOM     77  O   UNL A   1      34.151  22.388  28.234  1.00  0.00    -0.275 OA
BRANCH  75  78
ATOM     78  C   UNL A   1      33.340  22.728  26.000  1.00  0.00     0.107 C 
ATOM     79  C   UNL A   1      32.723  24.043  26.440  1.00  0.00     0.133 C 
ATOM     80  C   UNL A   1      32.140  21.764  25.900  1.00  0.00     0.053 C 
ATOM     81  N   UNL A   1      31.442  24.063  25.768  1.00  0.00    -0.336 N 
ATOM     82  C   UNL A   1      31.040  22.718  25.375  1.00  0.00     0.129 C 
BRANCH  80  83
ATOM     83  C   UNL A   1      32.485  20.545  25.046  1.00  0.00    -0.038 A 
ATOM     84  C   UNL A   1      32.262  20.602  23.643  1.00  0.00     0.008 A 
ATOM     85  C   UNL A   1      32.977  19.346  25.587  1.00  0.00     0.054 A 
ATOM     86  C   UNL A   1      32.425  19.483  22.820  1.00  0.00     0.051 A 
ATOM     87  C   UNL A   1      33.136  18.257  24.750  1.00  0.00     0.166 A 
ATOM     88  C   UNL A   1      32.851  18.318  23.409  1.00  0.00     0.165 A 
ATOM     89  O   UNL A   1      33.558  17.023  25.134  1.00  0.00    -0.454 OA
ATOM     90  O   UNL A   1      33.045  17.130  22.780  1.00  0.00    -0.454 OA
ATOM     91  C   UNL A   1      33.481  16.309  23.882  1.00  0.00     0.468 C 
ENDBRANCH  80  83
BRANCH  81  92
ATOM     92  C   UNL A   1      30.707  25.172  25.393  1.00  0.00     0.277 C 
ATOM     93  O   UNL A   1      30.236  25.938  26.238  1.00  0.00    -0.268 OA
BRANCH  92  94
ATOM     94  C   UNL A   1      30.513  25.434  23.896  1.00  0.00     0.363 C 
BRANCH  94  95
ATOM     95  N   UNL A   1      31.323  26.522  23.317  1.00  0.00    -0.323 N 
ATOM     96  C   UNL A   1      31.381  26.605  21.848  1.00  0.00     0.291 C 
ATOM     97  C   UNL A   1      32.684  26.612  23.871  1.00  0.00     0.291 C 
ATOM     98  H   UNL A   1      30.782  27.333  23.616  1.00  0.00     0.348 HD
ATOM     99  C   UNL A   1      32.465  25.734  21.184  1.00  0.00     0.221 C 
ATOM    100  C   UNL A   1      33.717  25.714  23.178  1.00  0.00     0.221 C 
ATOM    101  O   UNL A   1      33.752  25.970  21.768  1.00  0.00    -0.370 OA
ENDBRANCH  94  95
ENDBRANCH  92  94
ENDBRANCH  81  92
ENDBRANCH  75  78
ENDBRANCH  73  74
ENDBRANCH   1  73
TORSDOF 15
ENDMDL
