MODEL 1
REMARK VINA RESULT:     -13.0      0.000      0.000
REMARK SMILES O=C(NC[C@@H]1CC[C@H](C(=O)NCCCCNC(=O)c2ccc(-c3c4nc(c(-c5c(F)c(F)c(F)c(F)c5F)c5ccc([nH]5)c(-c5c(F)c(F)c(F)c(F)c5F)c5nc(c(-c6c(F)c(F)c(F)c(F)c6F)c6ccc3[nH]6)C=C5)C=C4)cc2)O1)Nc1ncccn1
REMARK SMILES IDX 13 1 12 2 11 3 9 4 10 5 8 7 5 8 6 9 82 10 7 11 4 12 3 13
REMARK SMILES IDX 1 14 2 15 83 16 84 19 85 20 89 21 86 22 88 23 87 24 14 25
REMARK SMILES IDX 15 26 16 27 17 28 18 30 19 31 20 32 81 33 21 34 80 35 22 36
REMARK SMILES IDX 23 37 24 38 74 39 25 40 79 41 73 42 75 43 26 44 78 45 72 46
REMARK SMILES IDX 71 47 27 49 59 50 39 51 58 52 40 53 43 54 57 55 76 56 41 57
REMARK SMILES IDX 42 58 56 60 77 61 44 62 28 63 29 64 37 65 30 66 31 67 35 68
REMARK SMILES IDX 38 69 32 70 33 71 36 72 34 73 60 74 61 75 69 76 62 77 63 78
REMARK SMILES IDX 67 79 70 80 64 81 65 82 68 83 66 84 45 85 46 86 54 87 47 88
REMARK SMILES IDX 48 89 52 90 55 91 49 92 50 93 53 94 51 95
REMARK H PARENT 11 6 3 17 83 18 16 29 75 48 43 59
REMARK Flexibility Score: inf
ROOT
ATOM      1  C   UNL A   1      31.929  30.612  26.243  1.00  0.00     0.023 C 
ENDROOT
BRANCH   1   2
ATOM      2  C   UNL A   1      32.486  29.635  27.270  1.00  0.00     0.116 C 
BRANCH   2   3
ATOM      3  N   UNL A   1      31.773  28.380  27.286  1.00  0.00    -0.354 N 
ATOM      4  C   UNL A   1      32.059  27.183  26.700  1.00  0.00     0.249 C 
ATOM      5  O   UNL A   1      31.236  26.274  26.853  1.00  0.00    -0.272 OA
ATOM      6  H   UNL A   1      30.938  28.390  27.810  1.00  0.00     0.163 HD
BRANCH   4   7
ATOM      7  C   UNL A   1      33.352  26.936  25.884  1.00  0.00     0.207 C 
ATOM      8  C   UNL A   1      33.741  26.611  23.580  1.00  0.00     0.138 C 
ATOM      9  C   UNL A   1      33.785  25.230  24.224  1.00  0.00     0.037 C 
ATOM     10  O   UNL A   1      33.309  27.536  24.593  1.00  0.00    -0.363 OA
ATOM     11  C   UNL A   1      33.776  25.490  25.718  1.00  0.00     0.045 C 
BRANCH   8  12
ATOM     12  C   UNL A   1      32.805  26.755  22.352  1.00  0.00     0.149 C 
BRANCH  12  13
ATOM     13  N   UNL A   1      31.410  26.607  22.756  1.00  0.00    -0.335 N 
ATOM     14  O   UNL A   1      29.347  27.064  23.344  1.00  0.00    -0.248 OA
ATOM     15  C   UNL A   1      30.348  27.444  22.741  1.00  0.00     0.321 C 
ATOM     16  N   UNL A   1      30.496  28.609  22.076  1.00  0.00    -0.276 N 
ATOM     17  H   UNL A   1      31.200  25.715  23.114  1.00  0.00     0.165 HD
ATOM     18  H   UNL A   1      31.231  28.679  21.424  1.00  0.00     0.175 HD
BRANCH  16  19
ATOM     19  C   UNL A   1      29.677  29.714  22.256  1.00  0.00     0.230 A 
ATOM     20  N   UNL A   1      29.712  30.255  23.484  1.00  0.00    -0.221 NA
ATOM     21  N   UNL A   1      28.865  30.131  21.275  1.00  0.00    -0.221 NA
ATOM     22  C   UNL A   1      28.898  31.309  23.694  1.00  0.00     0.117 A 
ATOM     23  C   UNL A   1      28.059  31.172  21.538  1.00  0.00     0.117 A 
ATOM     24  C   UNL A   1      28.037  31.814  22.748  1.00  0.00     0.040 A 
ENDBRANCH  16  19
ENDBRANCH  12  13
ENDBRANCH   8  12
ENDBRANCH   4   7
ENDBRANCH   2   3
ENDBRANCH   1   2
BRANCH   1  25
ATOM     25  C   UNL A   1      31.547  31.972  26.822  1.00  0.00     0.023 C 
BRANCH  25  26
ATOM     26  C   UNL A   1      32.712  32.822  27.322  1.00  0.00     0.116 C 
BRANCH  26  27
ATOM     27  N   UNL A   1      32.350  34.194  27.648  1.00  0.00    -0.352 N 
ATOM     28  C   UNL A   1      32.942  35.037  28.564  1.00  0.00     0.251 C 
ATOM     29  H   UNL A   1      31.585  34.567  27.152  1.00  0.00     0.163 HD
ATOM     30  O   UNL A   1      32.487  36.148  28.785  1.00  0.00    -0.269 OA
BRANCH  28  31
ATOM     31  C   UNL A   1      34.115  34.544  29.317  1.00  0.00     0.039 A 
ATOM     32  C   UNL A   1      33.909  33.930  30.554  1.00  0.00     0.014 A 
ATOM     33  C   UNL A   1      35.393  34.610  28.755  1.00  0.00     0.014 A 
ATOM     34  C   UNL A   1      34.978  33.300  31.191  1.00  0.00     0.010 A 
ATOM     35  C   UNL A   1      36.439  33.919  29.357  1.00  0.00     0.010 A 
ATOM     36  C   UNL A   1      36.239  33.249  30.574  1.00  0.00    -0.014 A 
BRANCH  36  37
ATOM     37  C   UNL A   1      37.358  32.480  31.173  1.00  0.00     0.031 A 
ATOM     38  C   UNL A   1      37.861  32.828  32.544  1.00  0.00     0.074 A 
ATOM     39  C   UNL A   1      37.969  31.520  30.451  1.00  0.00     0.049 A 
ATOM     40  N   UNL A   1      38.871  32.325  33.208  1.00  0.00    -0.248 NA
ATOM     41  C   UNL A   1      37.152  33.906  33.251  1.00  0.00     0.031 C 
ATOM     42  C   UNL A   1      37.610  31.129  29.087  1.00  0.00     0.029 A 
ATOM     43  N   UNL A   1      39.030  30.707  30.760  1.00  0.00    -0.354 N 
ATOM     44  C   UNL A   1      38.928  33.035  34.399  1.00  0.00     0.074 A 
ATOM     45  C   UNL A   1      37.885  34.037  34.347  1.00  0.00     0.031 C 
ATOM     46  C   UNL A   1      38.421  30.137  28.686  1.00  0.00     0.029 A 
ATOM     47  C   UNL A   1      39.377  29.844  29.749  1.00  0.00     0.049 A 
ATOM     48  H   UNL A   1      39.500  30.740  31.625  1.00  0.00     0.167 HD
ATOM     49  C   UNL A   1      39.760  32.852  35.451  1.00  0.00     0.037 A 
ATOM     50  C   UNL A   1      40.358  28.924  29.688  1.00  0.00     0.037 A 
ATOM     51  C   UNL A   1      40.778  31.836  35.513  1.00  0.00     0.049 A 
ATOM     52  C   UNL A   1      41.263  28.734  30.874  1.00  0.00     0.074 A 
ATOM     53  C   UNL A   1      41.629  31.529  36.559  1.00  0.00     0.029 A 
ATOM     54  N   UNL A   1      41.081  30.962  34.479  1.00  0.00    -0.354 N 
ATOM     55  N   UNL A   1      41.261  29.362  32.024  1.00  0.00    -0.248 NA
ATOM     56  C   UNL A   1      42.303  27.703  30.756  1.00  0.00     0.031 C 
ATOM     57  C   UNL A   1      42.472  30.492  36.146  1.00  0.00     0.029 A 
ATOM     58  C   UNL A   1      42.117  30.124  34.858  1.00  0.00     0.049 A 
ATOM     59  H   UNL A   1      40.627  30.940  33.605  1.00  0.00     0.167 HD
ATOM     60  C   UNL A   1      42.276  28.785  32.776  1.00  0.00     0.074 A 
ATOM     61  C   UNL A   1      42.865  27.748  31.955  1.00  0.00     0.031 C 
ATOM     62  C   UNL A   1      42.683  29.090  34.033  1.00  0.00     0.037 A 
BRANCH  49  63
ATOM     63  C   UNL A   1      39.595  33.766  36.629  1.00  0.00     0.064 A 
ATOM     64  C   UNL A   1      40.219  35.022  36.674  1.00  0.00     0.173 A 
ATOM     65  C   UNL A   1      38.783  33.396  37.711  1.00  0.00     0.173 A 
ATOM     66  F   UNL A   1      41.015  35.418  35.670  1.00  0.00    -0.203 F 
ATOM     67  C   UNL A   1      40.059  35.862  37.773  1.00  0.00     0.198 A 
ATOM     68  C   UNL A   1      38.603  34.250  38.796  1.00  0.00     0.198 A 
ATOM     69  F   UNL A   1      38.160  32.208  37.715  1.00  0.00    -0.203 F 
ATOM     70  F   UNL A   1      40.703  37.036  37.816  1.00  0.00    -0.200 F 
ATOM     71  C   UNL A   1      39.247  35.479  38.829  1.00  0.00     0.200 A 
ATOM     72  F   UNL A   1      37.808  33.884  39.810  1.00  0.00    -0.200 F 
ATOM     73  F   UNL A   1      39.088  36.291  39.883  1.00  0.00    -0.200 F 
ENDBRANCH  49  63
BRANCH  50  74
ATOM     74  C   UNL A   1      40.516  28.086  28.472  1.00  0.00     0.064 A 
ATOM     75  C   UNL A   1      39.905  26.827  28.386  1.00  0.00     0.173 A 
ATOM     76  C   UNL A   1      41.281  28.517  27.378  1.00  0.00     0.173 A 
ATOM     77  F   UNL A   1      39.182  26.363  29.415  1.00  0.00    -0.203 F 
ATOM     78  C   UNL A   1      40.068  26.022  27.261  1.00  0.00     0.198 A 
ATOM     79  C   UNL A   1      41.423  27.722  26.243  1.00  0.00     0.198 A 
ATOM     80  F   UNL A   1      41.882  29.714  27.409  1.00  0.00    -0.203 F 
ATOM     81  F   UNL A   1      39.509  24.805  27.223  1.00  0.00    -0.200 F 
ATOM     82  C   UNL A   1      40.823  26.472  26.188  1.00  0.00     0.200 A 
ATOM     83  F   UNL A   1      42.142  28.164  25.202  1.00  0.00    -0.200 F 
ATOM     84  F   UNL A   1      40.978  25.699  25.105  1.00  0.00    -0.200 F 
ENDBRANCH  50  74
BRANCH  62  85
ATOM     85  C   UNL A   1      43.795  28.266  34.611  1.00  0.00     0.064 A 
ATOM     86  C   UNL A   1      45.134  28.679  34.533  1.00  0.00     0.173 A 
ATOM     87  C   UNL A   1      43.513  27.071  35.289  1.00  0.00     0.173 A 
ATOM     88  F   UNL A   1      45.454  29.806  33.880  1.00  0.00    -0.203 F 
ATOM     89  C   UNL A   1      46.151  27.913  35.094  1.00  0.00     0.198 A 
ATOM     90  C   UNL A   1      44.531  26.322  35.874  1.00  0.00     0.198 A 
ATOM     91  F   UNL A   1      42.249  26.637  35.397  1.00  0.00    -0.203 F 
ATOM     92  F   UNL A   1      47.428  28.303  34.969  1.00  0.00    -0.200 F 
ATOM     93  C   UNL A   1      45.849  26.739  35.769  1.00  0.00     0.200 A 
ATOM     94  F   UNL A   1      44.236  25.195  36.536  1.00  0.00    -0.200 F 
ATOM     95  F   UNL A   1      46.830  26.007  36.315  1.00  0.00    -0.200 F 
ENDBRANCH  62  85
ENDBRANCH  36  37
ENDBRANCH  28  31
ENDBRANCH  26  27
ENDBRANCH  25  26
ENDBRANCH   1  25
TORSDOF 14
ENDMDL
MODEL 2
REMARK VINA RESULT:     -12.8      0.537      7.325
REMARK SMILES O=C(NC[C@@H]1CC[C@H](C(=O)NCCCCNC(=O)c2ccc(-c3c4nc(c(-c5c(F)c(F)c(F)c(F)c5F)c5ccc([nH]5)c(-c5c(F)c(F)c(F)c(F)c5F)c5nc(c(-c6c(F)c(F)c(F)c(F)c6F)c6ccc3[nH]6)C=C5)C=C4)cc2)O1)Nc1ncccn1
REMARK SMILES IDX 13 1 12 2 11 3 9 4 10 5 8 7 5 8 6 9 82 10 7 11 4 12 3 13
REMARK SMILES IDX 1 14 2 15 83 16 84 19 85 20 89 21 86 22 88 23 87 24 14 25
REMARK SMILES IDX 15 26 16 27 17 28 18 30 19 31 20 32 81 33 21 34 80 35 22 36
REMARK SMILES IDX 23 37 24 38 74 39 25 40 79 41 73 42 75 43 26 44 78 45 72 46
REMARK SMILES IDX 71 47 27 49 59 50 39 51 58 52 40 53 43 54 57 55 76 56 41 57
REMARK SMILES IDX 42 58 56 60 77 61 44 62 28 63 29 64 37 65 30 66 31 67 35 68
REMARK SMILES IDX 38 69 32 70 33 71 36 72 34 73 60 74 61 75 69 76 62 77 63 78
REMARK SMILES IDX 67 79 70 80 64 81 65 82 68 83 66 84 45 85 46 86 54 87 47 88
REMARK SMILES IDX 48 89 52 90 55 91 49 92 50 93 53 94 51 95
REMARK H PARENT 11 6 3 17 83 18 16 29 75 48 43 59
REMARK Flexibility Score: inf
ROOT
ATOM      1  C   UNL A   1      32.276  30.356  26.351  1.00  0.00     0.023 C 
ENDROOT
BRANCH   1   2
ATOM      2  C   UNL A   1      32.507  29.382  27.499  1.00  0.00     0.116 C 
BRANCH   2   3
ATOM      3  N   UNL A   1      31.784  28.144  27.331  1.00  0.00    -0.354 N 
ATOM      4  C   UNL A   1      32.074  27.034  26.594  1.00  0.00     0.249 C 
ATOM      5  O   UNL A   1      31.240  26.122  26.606  1.00  0.00    -0.272 OA
ATOM      6  H   UNL A   1      30.938  28.092  27.834  1.00  0.00     0.163 HD
BRANCH   4   7
ATOM      7  C   UNL A   1      33.383  26.886  25.780  1.00  0.00     0.207 C 
ATOM      8  C   UNL A   1      33.802  26.653  23.470  1.00  0.00     0.138 C 
ATOM      9  C   UNL A   1      33.921  25.258  24.073  1.00  0.00     0.037 C 
ATOM     10  O   UNL A   1      33.313  27.521  24.507  1.00  0.00    -0.363 OA
ATOM     11  C   UNL A   1      33.890  25.471  25.574  1.00  0.00     0.045 C 
BRANCH   8  12
ATOM     12  C   UNL A   1      32.865  26.781  22.240  1.00  0.00     0.149 C 
BRANCH  12  13
ATOM     13  N   UNL A   1      31.473  26.609  22.643  1.00  0.00    -0.335 N 
ATOM     14  O   UNL A   1      29.410  27.031  23.256  1.00  0.00    -0.248 OA
ATOM     15  C   UNL A   1      30.407  27.441  22.667  1.00  0.00     0.321 C 
ATOM     16  N   UNL A   1      30.548  28.634  22.051  1.00  0.00    -0.276 N 
ATOM     17  H   UNL A   1      31.267  25.702  22.963  1.00  0.00     0.165 HD
ATOM     18  H   UNL A   1      31.280  28.735  21.401  1.00  0.00     0.175 HD
BRANCH  16  19
ATOM     19  C   UNL A   1      29.724  29.727  22.281  1.00  0.00     0.230 A 
ATOM     20  N   UNL A   1      29.774  30.226  23.526  1.00  0.00    -0.221 NA
ATOM     21  N   UNL A   1      28.895  30.172  21.326  1.00  0.00    -0.221 NA
ATOM     22  C   UNL A   1      28.956  31.267  23.784  1.00  0.00     0.117 A 
ATOM     23  C   UNL A   1      28.087  31.198  21.636  1.00  0.00     0.117 A 
ATOM     24  C   UNL A   1      28.079  31.798  22.868  1.00  0.00     0.040 A 
ENDBRANCH  16  19
ENDBRANCH  12  13
ENDBRANCH   8  12
ENDBRANCH   4   7
ENDBRANCH   2   3
ENDBRANCH   1   2
BRANCH   1  25
ATOM     25  C   UNL A   1      31.801  31.738  26.794  1.00  0.00     0.023 C 
BRANCH  25  26
ATOM     26  C   UNL A   1      32.875  32.634  27.406  1.00  0.00     0.116 C 
BRANCH  26  27
ATOM     27  N   UNL A   1      32.446  34.009  27.626  1.00  0.00    -0.352 N 
ATOM     28  C   UNL A   1      32.976  34.938  28.495  1.00  0.00     0.251 C 
ATOM     29  H   UNL A   1      31.680  34.312  27.086  1.00  0.00     0.163 HD
ATOM     30  O   UNL A   1      32.468  36.041  28.626  1.00  0.00    -0.269 OA
BRANCH  28  31
ATOM     31  C   UNL A   1      34.146  34.550  29.310  1.00  0.00     0.039 A 
ATOM     32  C   UNL A   1      33.933  34.029  30.587  1.00  0.00     0.014 A 
ATOM     33  C   UNL A   1      35.435  34.619  28.773  1.00  0.00     0.014 A 
ATOM     34  C   UNL A   1      35.007  33.491  31.296  1.00  0.00     0.010 A 
ATOM     35  C   UNL A   1      36.489  34.018  29.450  1.00  0.00     0.010 A 
ATOM     36  C   UNL A   1      36.284  33.438  30.712  1.00  0.00    -0.014 A 
BRANCH  36  37
ATOM     37  C   UNL A   1      37.414  32.762  31.395  1.00  0.00     0.031 A 
ATOM     38  C   UNL A   1      38.107  31.604  30.736  1.00  0.00     0.074 A 
ATOM     39  C   UNL A   1      37.765  33.141  32.640  1.00  0.00     0.049 A 
ATOM     40  N   UNL A   1      39.062  30.838  31.199  1.00  0.00    -0.248 NA
ATOM     41  C   UNL A   1      37.643  31.241  29.388  1.00  0.00     0.031 C 
ATOM     42  C   UNL A   1      37.130  34.213  33.409  1.00  0.00     0.029 A 
ATOM     43  N   UNL A   1      38.733  32.658  33.483  1.00  0.00    -0.354 N 
ATOM     44  C   UNL A   1      39.301  29.896  30.209  1.00  0.00     0.074 A 
ATOM     45  C   UNL A   1      38.358  30.152  29.142  1.00  0.00     0.031 C 
ATOM     46  C   UNL A   1      37.740  34.321  34.599  1.00  0.00     0.029 A 
ATOM     47  C   UNL A   1      38.786  33.307  34.693  1.00  0.00     0.049 A 
ATOM     48  H   UNL A   1      39.334  31.915  33.244  1.00  0.00     0.167 HD
ATOM     49  C   UNL A   1      40.237  28.919  30.183  1.00  0.00     0.037 A 
ATOM     50  C   UNL A   1      39.585  33.102  35.757  1.00  0.00     0.037 A 
ATOM     51  C   UNL A   1      41.193  28.683  31.232  1.00  0.00     0.049 A 
ATOM     52  C   UNL A   1      40.624  32.017  35.697  1.00  0.00     0.074 A 
ATOM     53  C   UNL A   1      42.222  27.760  31.272  1.00  0.00     0.029 A 
ATOM     54  N   UNL A   1      41.233  29.380  32.431  1.00  0.00    -0.354 N 
ATOM     55  N   UNL A   1      40.889  31.178  34.726  1.00  0.00    -0.248 NA
ATOM     56  C   UNL A   1      41.480  31.853  36.881  1.00  0.00     0.031 C 
ATOM     57  C   UNL A   1      42.864  27.874  32.509  1.00  0.00     0.029 A 
ATOM     58  C   UNL A   1      42.262  28.897  33.224  1.00  0.00     0.049 A 
ATOM     59  H   UNL A   1      40.621  30.110  32.682  1.00  0.00     0.167 HD
ATOM     60  C   UNL A   1      41.957  30.408  35.167  1.00  0.00     0.074 A 
ATOM     61  C   UNL A   1      42.300  30.888  36.490  1.00  0.00     0.031 C 
ATOM     62  C   UNL A   1      42.595  29.394  34.533  1.00  0.00     0.037 A 
BRANCH  49  63
ATOM     63  C   UNL A   1      40.281  28.037  28.970  1.00  0.00     0.064 A 
ATOM     64  C   UNL A   1      41.024  28.391  27.833  1.00  0.00     0.173 A 
ATOM     65  C   UNL A   1      39.596  26.813  28.952  1.00  0.00     0.173 A 
ATOM     66  F   UNL A   1      41.686  29.557  27.794  1.00  0.00    -0.203 F 
ATOM     67  C   UNL A   1      41.057  27.564  26.713  1.00  0.00     0.198 A 
ATOM     68  C   UNL A   1      39.654  25.975  27.842  1.00  0.00     0.198 A 
ATOM     69  F   UNL A   1      38.876  26.425  30.016  1.00  0.00    -0.203 F 
ATOM     70  F   UNL A   1      41.733  27.946  25.621  1.00  0.00    -0.200 F 
ATOM     71  C   UNL A   1      40.377  26.355  26.720  1.00  0.00     0.200 A 
ATOM     72  F   UNL A   1      39.008  24.802  27.854  1.00  0.00    -0.200 F 
ATOM     73  F   UNL A   1      40.415  25.558  25.644  1.00  0.00    -0.200 F 
ENDBRANCH  49  63
BRANCH  50  74
ATOM     74  C   UNL A   1      39.460  33.967  36.958  1.00  0.00     0.064 A 
ATOM     75  C   UNL A   1      40.096  35.215  37.011  1.00  0.00     0.173 A 
ATOM     76  C   UNL A   1      38.711  33.567  38.074  1.00  0.00     0.173 A 
ATOM     77  F   UNL A   1      40.841  35.630  35.977  1.00  0.00    -0.203 F 
ATOM     78  C   UNL A   1      40.006  36.021  38.143  1.00  0.00     0.198 A 
ATOM     79  C   UNL A   1      38.600  34.386  39.196  1.00  0.00     0.198 A 
ATOM     80  F   UNL A   1      38.079  32.385  38.071  1.00  0.00    -0.203 F 
ATOM     81  F   UNL A   1      40.660  37.190  38.185  1.00  0.00    -0.200 F 
ATOM     82  C   UNL A   1      39.254  35.609  39.233  1.00  0.00     0.200 A 
ATOM     83  F   UNL A   1      37.863  33.990  40.242  1.00  0.00    -0.200 F 
ATOM     84  F   UNL A   1      39.166  36.386  40.320  1.00  0.00    -0.200 F 
ENDBRANCH  50  74
BRANCH  62  85
ATOM     85  C   UNL A   1      43.752  28.760  35.246  1.00  0.00     0.064 A 
ATOM     86  C   UNL A   1      45.060  29.247  35.105  1.00  0.00     0.173 A 
ATOM     87  C   UNL A   1      43.543  27.679  36.114  1.00  0.00     0.173 A 
ATOM     88  F   UNL A   1      45.312  30.269  34.273  1.00  0.00    -0.203 F 
ATOM     89  C   UNL A   1      46.119  28.660  35.791  1.00  0.00     0.198 A 
ATOM     90  C   UNL A   1      44.600  27.112  36.821  1.00  0.00     0.198 A 
ATOM     91  F   UNL A   1      42.309  27.180  36.288  1.00  0.00    -0.203 F 
ATOM     92  F   UNL A   1      47.367  29.113  35.608  1.00  0.00    -0.200 F 
ATOM     93  C   UNL A   1      45.888  27.598  36.653  1.00  0.00     0.200 A 
ATOM     94  F   UNL A   1      44.373  26.093  37.661  1.00  0.00    -0.200 F 
ATOM     95  F   UNL A   1      46.908  27.038  37.318  1.00  0.00    -0.200 F 
ENDBRANCH  62  85
ENDBRANCH  36  37
ENDBRANCH  28  31
ENDBRANCH  26  27
ENDBRANCH  25  26
ENDBRANCH   1  25
TORSDOF 14
ENDMDL
MODEL 3
REMARK VINA RESULT:     -12.6      6.034     11.252
REMARK SMILES O=C(NC[C@@H]1CC[C@H](C(=O)NCCCCNC(=O)c2ccc(-c3c4nc(c(-c5c(F)c(F)c(F)c(F)c5F)c5ccc([nH]5)c(-c5c(F)c(F)c(F)c(F)c5F)c5nc(c(-c6c(F)c(F)c(F)c(F)c6F)c6ccc3[nH]6)C=C5)C=C4)cc2)O1)Nc1ncccn1
REMARK SMILES IDX 13 1 12 2 11 3 9 4 10 5 8 7 5 8 6 9 82 10 7 11 4 12 3 13
REMARK SMILES IDX 1 14 2 15 83 16 84 19 85 20 89 21 86 22 88 23 87 24 14 25
REMARK SMILES IDX 15 26 16 27 17 28 18 30 19 31 20 32 81 33 21 34 80 35 22 36
REMARK SMILES IDX 23 37 24 38 74 39 25 40 79 41 73 42 75 43 26 44 78 45 72 46
REMARK SMILES IDX 71 47 27 49 59 50 39 51 58 52 40 53 43 54 57 55 76 56 41 57
REMARK SMILES IDX 42 58 56 60 77 61 44 62 28 63 29 64 37 65 30 66 31 67 35 68
REMARK SMILES IDX 38 69 32 70 33 71 36 72 34 73 60 74 61 75 69 76 62 77 63 78
REMARK SMILES IDX 67 79 70 80 64 81 65 82 68 83 66 84 45 85 46 86 54 87 47 88
REMARK SMILES IDX 48 89 52 90 55 91 49 92 50 93 53 94 51 95
REMARK H PARENT 11 6 3 17 83 18 16 29 75 48 43 59
REMARK Flexibility Score: inf
ROOT
ATOM      1  C   UNL A   1      37.053  21.070  25.195  1.00  0.00     0.023 C 
ENDROOT
BRANCH   1   2
ATOM      2  C   UNL A   1      37.398  22.480  24.734  1.00  0.00     0.116 C 
BRANCH   2   3
ATOM      3  N   UNL A   1      36.474  22.984  23.746  1.00  0.00    -0.354 N 
ATOM      4  C   UNL A   1      35.367  23.768  23.878  1.00  0.00     0.249 C 
ATOM      5  O   UNL A   1      34.732  24.016  22.847  1.00  0.00    -0.272 OA
ATOM      6  H   UNL A   1      36.679  22.716  22.820  1.00  0.00     0.163 HD
BRANCH   4   7
ATOM      7  C   UNL A   1      34.905  24.348  25.238  1.00  0.00     0.207 C 
ATOM      8  C   UNL A   1      33.016  23.929  26.587  1.00  0.00     0.138 C 
ATOM      9  C   UNL A   1      32.736  25.230  25.844  1.00  0.00     0.037 C 
ATOM     10  O   UNL A   1      34.233  23.386  26.045  1.00  0.00    -0.363 OA
ATOM     11  C   UNL A   1      34.048  25.598  25.180  1.00  0.00     0.045 C 
BRANCH   8  12
ATOM     12  C   UNL A   1      31.911  22.844  26.495  1.00  0.00     0.149 C 
BRANCH  12  13
ATOM     13  N   UNL A   1      31.831  22.315  25.137  1.00  0.00    -0.335 N 
ATOM     14  O   UNL A   1      32.116  21.047  23.371  1.00  0.00    -0.248 OA
ATOM     15  C   UNL A   1      32.101  21.105  24.598  1.00  0.00     0.321 C 
ATOM     16  N   UNL A   1      32.334  20.090  25.457  1.00  0.00    -0.276 N 
ATOM     17  H   UNL A   1      31.516  22.975  24.478  1.00  0.00     0.165 HD
ATOM     18  H   UNL A   1      32.036  20.197  26.390  1.00  0.00     0.175 HD
BRANCH  16  19
ATOM     19  C   UNL A   1      32.968  18.907  25.106  1.00  0.00     0.230 A 
ATOM     20  N   UNL A   1      32.259  17.791  25.335  1.00  0.00    -0.221 NA
ATOM     21  N   UNL A   1      34.229  18.916  24.650  1.00  0.00    -0.221 NA
ATOM     22  C   UNL A   1      32.868  16.626  25.036  1.00  0.00     0.117 A 
ATOM     23  C   UNL A   1      34.799  17.730  24.383  1.00  0.00     0.117 A 
ATOM     24  C   UNL A   1      34.153  16.534  24.554  1.00  0.00     0.040 A 
ENDBRANCH  16  19
ENDBRANCH  12  13
ENDBRANCH   8  12
ENDBRANCH   4   7
ENDBRANCH   2   3
ENDBRANCH   1   2
BRANCH   1  25
ATOM     25  C   UNL A   1      38.178  20.057  24.998  1.00  0.00     0.023 C 
BRANCH  25  26
ATOM     26  C   UNL A   1      39.423  20.288  25.850  1.00  0.00     0.116 C 
BRANCH  26  27
ATOM     27  N   UNL A   1      40.359  19.173  25.848  1.00  0.00    -0.352 N 
ATOM     28  C   UNL A   1      41.710  19.194  26.117  1.00  0.00     0.251 C 
ATOM     29  H   UNL A   1      39.979  18.292  25.624  1.00  0.00     0.163 HD
ATOM     30  O   UNL A   1      42.391  18.185  26.010  1.00  0.00    -0.269 OA
BRANCH  28  31
ATOM     31  C   UNL A   1      42.333  20.482  26.489  1.00  0.00     0.039 A 
ATOM     32  C   UNL A   1      42.892  21.273  25.483  1.00  0.00     0.014 A 
ATOM     33  C   UNL A   1      42.277  20.938  27.808  1.00  0.00     0.014 A 
ATOM     34  C   UNL A   1      43.318  22.566  25.786  1.00  0.00     0.010 A 
ATOM     35  C   UNL A   1      42.636  22.251  28.093  1.00  0.00     0.010 A 
ATOM     36  C   UNL A   1      43.149  23.080  27.083  1.00  0.00    -0.014 A 
BRANCH  36  37
ATOM     37  C   UNL A   1      43.480  24.491  27.399  1.00  0.00     0.031 A 
ATOM     38  C   UNL A   1      44.911  24.943  27.415  1.00  0.00     0.074 A 
ATOM     39  C   UNL A   1      42.497  25.346  27.746  1.00  0.00     0.049 A 
ATOM     40  N   UNL A   1      45.409  26.110  27.738  1.00  0.00    -0.248 NA
ATOM     41  C   UNL A   1      45.922  23.939  27.048  1.00  0.00     0.031 C 
ATOM     42  C   UNL A   1      41.074  25.012  27.825  1.00  0.00     0.029 A 
ATOM     43  N   UNL A   1      42.547  26.667  28.112  1.00  0.00    -0.354 N 
ATOM     44  C   UNL A   1      46.785  25.976  27.628  1.00  0.00     0.074 A 
ATOM     45  C   UNL A   1      47.050  24.602  27.260  1.00  0.00     0.031 C 
ATOM     46  C   UNL A   1      40.385  26.104  28.191  1.00  0.00     0.029 A 
ATOM     47  C   UNL A   1      41.318  27.206  28.405  1.00  0.00     0.049 A 
ATOM     48  H   UNL A   1      43.386  27.181  28.160  1.00  0.00     0.167 HD
ATOM     49  C   UNL A   1      47.741  26.919  27.797  1.00  0.00     0.037 A 
ATOM     50  C   UNL A   1      40.985  28.447  28.806  1.00  0.00     0.037 A 
ATOM     51  C   UNL A   1      47.475  28.292  28.135  1.00  0.00     0.049 A 
ATOM     52  C   UNL A   1      42.065  29.480  28.976  1.00  0.00     0.074 A 
ATOM     53  C   UNL A   1      48.369  29.339  28.266  1.00  0.00     0.029 A 
ATOM     54  N   UNL A   1      46.213  28.807  28.397  1.00  0.00    -0.354 N 
ATOM     55  N   UNL A   1      43.358  29.360  28.800  1.00  0.00    -0.248 NA
ATOM     56  C   UNL A   1      41.639  30.822  29.397  1.00  0.00     0.031 C 
ATOM     57  C   UNL A   1      47.653  30.481  28.642  1.00  0.00     0.029 A 
ATOM     58  C   UNL A   1      46.308  30.155  28.704  1.00  0.00     0.049 A 
ATOM     59  H   UNL A   1      45.375  28.292  28.370  1.00  0.00     0.167 HD
ATOM     60  C   UNL A   1      43.896  30.614  29.058  1.00  0.00     0.074 A 
ATOM     61  C   UNL A   1      42.787  31.483  29.392  1.00  0.00     0.031 C 
ATOM     62  C   UNL A   1      45.193  31.008  29.023  1.00  0.00     0.037 A 
BRANCH  49  63
ATOM     63  C   UNL A   1      49.168  26.498  27.606  1.00  0.00     0.064 A 
ATOM     64  C   UNL A   1      49.732  26.382  26.326  1.00  0.00     0.173 A 
ATOM     65  C   UNL A   1      49.989  26.235  28.712  1.00  0.00     0.173 A 
ATOM     66  F   UNL A   1      48.986  26.610  25.236  1.00  0.00    -0.203 F 
ATOM     67  C   UNL A   1      51.058  25.990  26.161  1.00  0.00     0.198 A 
ATOM     68  C   UNL A   1      51.322  25.871  28.545  1.00  0.00     0.198 A 
ATOM     69  F   UNL A   1      49.500  26.337  29.958  1.00  0.00    -0.203 F 
ATOM     70  F   UNL A   1      51.561  25.838  24.928  1.00  0.00    -0.200 F 
ATOM     71  C   UNL A   1      51.853  25.741  27.269  1.00  0.00     0.200 A 
ATOM     72  F   UNL A   1      52.093  25.642  29.616  1.00  0.00    -0.200 F 
ATOM     73  F   UNL A   1      53.130  25.370  27.109  1.00  0.00    -0.200 F 
ENDBRANCH  49  63
BRANCH  50  74
ATOM     74  C   UNL A   1      39.560  28.795  29.039  1.00  0.00     0.064 A 
ATOM     75  C   UNL A   1      38.994  28.673  30.316  1.00  0.00     0.173 A 
ATOM     76  C   UNL A   1      38.736  29.249  27.999  1.00  0.00     0.173 A 
ATOM     77  F   UNL A   1      39.737  28.223  31.337  1.00  0.00    -0.203 F 
ATOM     78  C   UNL A   1      37.652  28.973  30.540  1.00  0.00     0.198 A 
ATOM     79  C   UNL A   1      37.400  29.572  28.230  1.00  0.00     0.198 A 
ATOM     80  F   UNL A   1      39.230  29.387  26.762  1.00  0.00    -0.203 F 
ATOM     81  F   UNL A   1      37.125  28.805  31.761  1.00  0.00    -0.200 F 
ATOM     82  C   UNL A   1      36.857  29.426  29.499  1.00  0.00     0.200 A 
ATOM     83  F   UNL A   1      36.638  30.022  27.224  1.00  0.00    -0.200 F 
ATOM     84  F   UNL A   1      35.567  29.715  29.715  1.00  0.00    -0.200 F 
ENDBRANCH  50  74
BRANCH  62  85
ATOM     85  C   UNL A   1      45.479  32.451  29.317  1.00  0.00     0.064 A 
ATOM     86  C   UNL A   1      45.797  32.887  30.612  1.00  0.00     0.173 A 
ATOM     87  C   UNL A   1      45.478  33.399  28.284  1.00  0.00     0.173 A 
ATOM     88  F   UNL A   1      45.795  32.020  31.635  1.00  0.00    -0.203 F 
ATOM     89  C   UNL A   1      46.082  34.226  30.864  1.00  0.00     0.198 A 
ATOM     90  C   UNL A   1      45.790  34.732  28.535  1.00  0.00     0.198 A 
ATOM     91  F   UNL A   1      45.186  33.029  27.028  1.00  0.00    -0.203 F 
ATOM     92  F   UNL A   1      46.339  34.630  32.116  1.00  0.00    -0.200 F 
ATOM     93  C   UNL A   1      46.084  35.146  29.826  1.00  0.00     0.200 A 
ATOM     94  F   UNL A   1      45.804  35.616  27.529  1.00  0.00    -0.200 F 
ATOM     95  F   UNL A   1      46.365  36.434  30.069  1.00  0.00    -0.200 F 
ENDBRANCH  62  85
ENDBRANCH  36  37
ENDBRANCH  28  31
ENDBRANCH  26  27
ENDBRANCH  25  26
ENDBRANCH   1  25
TORSDOF 14
ENDMDL
