MODEL 1
REMARK VINA RESULT:     -12.8      0.000      0.000
REMARK SMILES C[C@H]1[C@H](C(=O)NCCCCNC(=O)c2ccc(-c3c4nc(c(-c5c(F)c(F)c(F)c(F)c5F)c5ccc([nH]5)c(-c5c(F)c(F)c(F)c(F)c5F)c5nc(c(-c6c(F)c(F)c(F)c(F)c6F)c6ccc3[nH]6)C=C5)C=C4)cc2)CCN1C(=O)[C@H]1CC=CCC1
REMARK SMILES IDX 8 1 7 2 6 3 4 4 5 5 3 7 1 8 2 9 79 10 77 11 78 12 80 13
REMARK SMILES IDX 81 14 82 15 83 16 87 17 84 18 86 19 85 20 9 21 10 22 11 23
REMARK SMILES IDX 12 24 13 26 14 27 15 28 76 29 16 30 75 31 17 32 18 33 19 34
REMARK SMILES IDX 69 35 20 36 74 37 68 38 70 39 21 40 73 41 67 42 66 43 22 45
REMARK SMILES IDX 54 46 34 47 53 48 35 49 38 50 52 51 71 52 36 53 37 54 51 56
REMARK SMILES IDX 72 57 39 58 23 59 24 60 32 61 25 62 26 63 30 64 33 65 27 66
REMARK SMILES IDX 28 67 31 68 29 69 55 70 56 71 64 72 57 73 58 74 62 75 65 76
REMARK SMILES IDX 59 77 60 78 63 79 61 80 40 81 41 82 49 83 42 84 43 85 47 86
REMARK SMILES IDX 50 87 44 88 45 89 48 90 46 91
REMARK H PARENT 6 6 11 25 70 44 38 55
REMARK Flexibility Score: inf
ROOT
ATOM      1  C   UNL A   1      31.769  30.730  26.238  1.00  0.00     0.023 C 
ENDROOT
BRANCH   1   2
ATOM      2  C   UNL A   1      32.652  29.796  27.058  1.00  0.00     0.116 C 
BRANCH   2   3
ATOM      3  N   UNL A   1      32.035  28.501  27.268  1.00  0.00    -0.356 N 
ATOM      4  C   UNL A   1      31.543  27.588  26.393  1.00  0.00     0.225 C 
ATOM      5  O   UNL A   1      31.102  26.541  26.876  1.00  0.00    -0.275 OA
ATOM      6  H   UNL A   1      31.961  28.237  28.213  1.00  0.00     0.163 HD
BRANCH   4   7
ATOM      7  C   UNL A   1      31.481  27.805  24.887  1.00  0.00     0.102 C 
ATOM      8  C   UNL A   1      33.214  28.760  23.359  1.00  0.00     0.032 C 
ATOM      9  C   UNL A   1      32.821  27.528  24.179  1.00  0.00     0.094 C 
ATOM     10  N   UNL A   1      32.563  26.370  23.327  1.00  0.00    -0.339 N 
ATOM     11  C   UNL A   1      30.415  27.005  24.141  1.00  0.00     0.037 C 
ATOM     12  C   UNL A   1      31.145  26.315  22.998  1.00  0.00     0.120 C 
BRANCH  10  13
ATOM     13  C   UNL A   1      33.402  25.401  22.824  1.00  0.00     0.226 C 
ATOM     14  O   UNL A   1      33.896  25.568  21.698  1.00  0.00    -0.275 OA
BRANCH  13  15
ATOM     15  C   UNL A   1      33.743  24.077  23.538  1.00  0.00     0.083 C 
ATOM     16  C   UNL A   1      35.130  23.485  23.290  1.00  0.00     0.040 C 
ATOM     17  C   UNL A   1      33.251  23.950  24.981  1.00  0.00     0.018 C 
ATOM     18  C   UNL A   1      36.061  23.503  24.466  1.00  0.00    -0.030 C 
ATOM     19  C   UNL A   1      34.290  24.210  26.071  1.00  0.00     0.028 C 
ATOM     20  C   UNL A   1      35.685  23.822  25.709  1.00  0.00    -0.031 C 
ENDBRANCH  13  15
ENDBRANCH  10  13
ENDBRANCH   4   7
ENDBRANCH   2   3
ENDBRANCH   1   2
BRANCH   1  21
ATOM     21  C   UNL A   1      31.461  32.075  26.870  1.00  0.00     0.023 C 
BRANCH  21  22
ATOM     22  C   UNL A   1      32.686  32.803  27.386  1.00  0.00     0.116 C 
BRANCH  22  23
ATOM     23  N   UNL A   1      32.431  34.214  27.647  1.00  0.00    -0.352 N 
ATOM     24  C   UNL A   1      32.987  35.051  28.584  1.00  0.00     0.251 C 
ATOM     25  H   UNL A   1      31.759  34.632  27.062  1.00  0.00     0.163 HD
ATOM     26  O   UNL A   1      32.516  36.166  28.779  1.00  0.00    -0.269 OA
BRANCH  24  27
ATOM     27  C   UNL A   1      34.140  34.584  29.380  1.00  0.00     0.039 A 
ATOM     28  C   UNL A   1      33.927  34.082  30.666  1.00  0.00     0.014 A 
ATOM     29  C   UNL A   1      35.424  34.607  28.835  1.00  0.00     0.014 A 
ATOM     30  C   UNL A   1      34.996  33.523  31.368  1.00  0.00     0.010 A 
ATOM     31  C   UNL A   1      36.453  33.939  29.480  1.00  0.00     0.010 A 
ATOM     32  C   UNL A   1      36.257  33.403  30.761  1.00  0.00    -0.014 A 
BRANCH  32  33
ATOM     33  C   UNL A   1      37.398  32.751  31.446  1.00  0.00     0.031 A 
ATOM     34  C   UNL A   1      38.100  31.596  30.785  1.00  0.00     0.074 A 
ATOM     35  C   UNL A   1      37.744  33.136  32.690  1.00  0.00     0.049 A 
ATOM     36  N   UNL A   1      39.042  30.817  31.255  1.00  0.00    -0.248 NA
ATOM     37  C   UNL A   1      37.651  31.237  29.430  1.00  0.00     0.031 C 
ATOM     38  C   UNL A   1      37.096  34.199  33.461  1.00  0.00     0.029 A 
ATOM     39  N   UNL A   1      38.722  32.668  33.530  1.00  0.00    -0.354 N 
ATOM     40  C   UNL A   1      39.272  29.869  30.268  1.00  0.00     0.074 A 
ATOM     41  C   UNL A   1      38.327  30.122  29.205  1.00  0.00     0.031 C 
ATOM     42  C   UNL A   1      37.714  34.323  34.646  1.00  0.00     0.029 A 
ATOM     43  C   UNL A   1      38.774  33.325  34.736  1.00  0.00     0.049 A 
ATOM     44  H   UNL A   1      39.330  31.931  33.292  1.00  0.00     0.167 HD
ATOM     45  C   UNL A   1      40.211  28.894  30.235  1.00  0.00     0.037 A 
ATOM     46  C   UNL A   1      39.584  33.135  35.795  1.00  0.00     0.037 A 
ATOM     47  C   UNL A   1      41.180  28.680  31.277  1.00  0.00     0.049 A 
ATOM     48  C   UNL A   1      40.636  32.062  35.724  1.00  0.00     0.074 A 
ATOM     49  C   UNL A   1      42.222  27.772  31.311  1.00  0.00     0.029 A 
ATOM     50  N   UNL A   1      41.226  29.391  32.466  1.00  0.00    -0.354 N 
ATOM     51  N   UNL A   1      40.894  31.218  34.755  1.00  0.00    -0.248 NA
ATOM     52  C   UNL A   1      41.514  31.918  36.893  1.00  0.00     0.031 C 
ATOM     53  C   UNL A   1      42.874  27.905  32.541  1.00  0.00     0.029 A 
ATOM     54  C   UNL A   1      42.269  28.930  33.251  1.00  0.00     0.049 A 
ATOM     55  H   UNL A   1      40.608  30.117  32.716  1.00  0.00     0.167 HD
ATOM     56  C   UNL A   1      41.978  30.464  35.182  1.00  0.00     0.074 A 
ATOM     57  C   UNL A   1      42.340  30.962  36.493  1.00  0.00     0.031 C 
ATOM     58  C   UNL A   1      42.616  29.449  34.550  1.00  0.00     0.037 A 
BRANCH  45  59
ATOM     59  C   UNL A   1      40.241  28.000  29.030  1.00  0.00     0.064 A 
ATOM     60  C   UNL A   1      40.975  28.336  27.881  1.00  0.00     0.173 A 
ATOM     61  C   UNL A   1      39.545  26.782  29.029  1.00  0.00     0.173 A 
ATOM     62  F   UNL A   1      41.645  29.496  27.825  1.00  0.00    -0.203 F 
ATOM     63  C   UNL A   1      40.983  27.502  26.766  1.00  0.00     0.198 A 
ATOM     64  C   UNL A   1      39.584  25.935  27.924  1.00  0.00     0.198 A 
ATOM     65  F   UNL A   1      38.830  26.409  30.101  1.00  0.00    -0.203 F 
ATOM     66  F   UNL A   1      41.644  27.874  25.660  1.00  0.00    -0.200 F 
ATOM     67  C   UNL A   1      40.294  26.300  26.791  1.00  0.00     0.200 A 
ATOM     68  F   UNL A   1      38.927  24.767  27.954  1.00  0.00    -0.200 F 
ATOM     69  F   UNL A   1      40.308  25.497  25.718  1.00  0.00    -0.200 F 
ENDBRANCH  45  59
BRANCH  46  70
ATOM     70  C   UNL A   1      39.458  34.005  36.994  1.00  0.00     0.064 A 
ATOM     71  C   UNL A   1      40.069  35.266  37.033  1.00  0.00     0.173 A 
ATOM     72  C   UNL A   1      38.733  33.597  38.123  1.00  0.00     0.173 A 
ATOM     73  F   UNL A   1      40.789  35.693  35.985  1.00  0.00    -0.203 F 
ATOM     74  C   UNL A   1      39.977  36.077  38.162  1.00  0.00     0.198 A 
ATOM     75  C   UNL A   1      38.619  34.420  39.241  1.00  0.00     0.198 A 
ATOM     76  F   UNL A   1      38.123  32.402  38.134  1.00  0.00    -0.203 F 
ATOM     77  F   UNL A   1      40.610  37.258  38.189  1.00  0.00    -0.200 F 
ATOM     78  C   UNL A   1      39.248  35.656  39.263  1.00  0.00     0.200 A 
ATOM     79  F   UNL A   1      37.901  34.016  40.297  1.00  0.00    -0.200 F 
ATOM     80  F   UNL A   1      39.157  36.437  40.348  1.00  0.00    -0.200 F 
ENDBRANCH  46  70
BRANCH  58  81
ATOM     81  C   UNL A   1      43.792  28.835  35.249  1.00  0.00     0.064 A 
ATOM     82  C   UNL A   1      43.639  27.768  36.146  1.00  0.00     0.173 A 
ATOM     83  C   UNL A   1      45.092  29.291  34.983  1.00  0.00     0.173 A 
ATOM     84  F   UNL A   1      42.415  27.306  36.444  1.00  0.00    -0.203 F 
ATOM     85  C   UNL A   1      44.744  27.195  36.771  1.00  0.00     0.198 A 
ATOM     86  C   UNL A   1      46.197  28.696  35.585  1.00  0.00     0.198 A 
ATOM     87  F   UNL A   1      45.292  30.304  34.126  1.00  0.00    -0.203 F 
ATOM     88  F   UNL A   1      44.571  26.208  37.660  1.00  0.00    -0.200 F 
ATOM     89  C   UNL A   1      46.021  27.654  36.484  1.00  0.00     0.200 A 
ATOM     90  F   UNL A   1      47.431  29.130  35.296  1.00  0.00    -0.200 F 
ATOM     91  F   UNL A   1      47.084  27.097  37.079  1.00  0.00    -0.200 F 
ENDBRANCH  58  81
ENDBRANCH  32  33
ENDBRANCH  24  27
ENDBRANCH  22  23
ENDBRANCH  21  22
ENDBRANCH   1  21
TORSDOF 13
ENDMDL
MODEL 2
REMARK VINA RESULT:     -12.8      6.144     11.350
REMARK SMILES C[C@H]1[C@H](C(=O)NCCCCNC(=O)c2ccc(-c3c4nc(c(-c5c(F)c(F)c(F)c(F)c5F)c5ccc([nH]5)c(-c5c(F)c(F)c(F)c(F)c5F)c5nc(c(-c6c(F)c(F)c(F)c(F)c6F)c6ccc3[nH]6)C=C5)C=C4)cc2)CCN1C(=O)[C@H]1CC=CCC1
REMARK SMILES IDX 8 1 7 2 6 3 4 4 5 5 3 7 1 8 2 9 79 10 77 11 78 12 80 13
REMARK SMILES IDX 81 14 82 15 83 16 87 17 84 18 86 19 85 20 9 21 10 22 11 23
REMARK SMILES IDX 12 24 13 26 14 27 15 28 76 29 16 30 75 31 17 32 18 33 19 34
REMARK SMILES IDX 69 35 20 36 74 37 68 38 70 39 21 40 73 41 67 42 66 43 22 45
REMARK SMILES IDX 54 46 34 47 53 48 35 49 38 50 52 51 71 52 36 53 37 54 51 56
REMARK SMILES IDX 72 57 39 58 23 59 24 60 32 61 25 62 26 63 30 64 33 65 27 66
REMARK SMILES IDX 28 67 31 68 29 69 55 70 56 71 64 72 57 73 58 74 62 75 65 76
REMARK SMILES IDX 59 77 60 78 63 79 61 80 40 81 41 82 49 83 42 84 43 85 47 86
REMARK SMILES IDX 50 87 44 88 45 89 48 90 46 91
REMARK H PARENT 6 6 11 25 70 44 38 55
REMARK Flexibility Score: inf
ROOT
ATOM      1  C   UNL A   1      37.370  21.102  24.524  1.00  0.00     0.023 C 
ENDROOT
BRANCH   1   2
ATOM      2  C   UNL A   1      37.139  22.222  25.533  1.00  0.00     0.116 C 
BRANCH   2   3
ATOM      3  N   UNL A   1      36.148  21.867  26.530  1.00  0.00    -0.356 N 
ATOM      4  C   UNL A   1      34.802  22.038  26.558  1.00  0.00     0.225 C 
ATOM      5  O   UNL A   1      34.210  21.593  27.546  1.00  0.00    -0.275 OA
ATOM      6  H   UNL A   1      36.517  21.423  27.326  1.00  0.00     0.163 HD
BRANCH   4   7
ATOM      7  C   UNL A   1      34.016  22.764  25.475  1.00  0.00     0.102 C 
ATOM      8  C   UNL A   1      34.583  23.082  23.061  1.00  0.00     0.032 C 
ATOM      9  C   UNL A   1      34.095  22.070  24.102  1.00  0.00     0.094 C 
ATOM     10  N   UNL A   1      32.730  21.627  23.827  1.00  0.00    -0.339 N 
ATOM     11  C   UNL A   1      32.535  22.996  25.768  1.00  0.00     0.037 C 
ATOM     12  C   UNL A   1      31.789  22.473  24.549  1.00  0.00     0.120 C 
BRANCH  10  13
ATOM     13  C   UNL A   1      32.243  20.607  23.041  1.00  0.00     0.226 C 
ATOM     14  O   UNL A   1      31.828  20.879  21.904  1.00  0.00    -0.275 OA
BRANCH  13  15
ATOM     15  C   UNL A   1      32.120  19.135  23.486  1.00  0.00     0.083 C 
ATOM     16  C   UNL A   1      32.410  18.061  22.440  1.00  0.00     0.040 C 
ATOM     17  C   UNL A   1      32.652  18.814  24.885  1.00  0.00     0.018 C 
ATOM     18  C   UNL A   1      33.656  17.255  22.666  1.00  0.00    -0.030 C 
ATOM     19  C   UNL A   1      34.042  18.182  24.947  1.00  0.00     0.028 C 
ATOM     20  C   UNL A   1      34.382  17.306  23.788  1.00  0.00    -0.031 C 
ENDBRANCH  13  15
ENDBRANCH  10  13
ENDBRANCH   4   7
ENDBRANCH   2   3
ENDBRANCH   1   2
BRANCH   1  21
ATOM     21  C   UNL A   1      38.145  19.901  25.035  1.00  0.00     0.023 C 
BRANCH  21  22
ATOM     22  C   UNL A   1      39.361  20.264  25.862  1.00  0.00     0.116 C 
BRANCH  22  23
ATOM     23  N   UNL A   1      40.325  19.173  25.949  1.00  0.00    -0.352 N 
ATOM     24  C   UNL A   1      41.690  19.215  26.105  1.00  0.00     0.251 C 
ATOM     25  H   UNL A   1      39.940  18.269  25.889  1.00  0.00     0.163 HD
ATOM     26  O   UNL A   1      42.362  18.198  25.973  1.00  0.00    -0.269 OA
BRANCH  24  27
ATOM     27  C   UNL A   1      42.347  20.503  26.402  1.00  0.00     0.039 A 
ATOM     28  C   UNL A   1      42.920  21.237  25.362  1.00  0.00     0.014 A 
ATOM     29  C   UNL A   1      42.358  21.001  27.705  1.00  0.00     0.014 A 
ATOM     30  C   UNL A   1      43.427  22.512  25.620  1.00  0.00     0.010 A 
ATOM     31  C   UNL A   1      42.744  22.313  27.934  1.00  0.00     0.010 A 
ATOM     32  C   UNL A   1      43.298  23.078  26.898  1.00  0.00    -0.014 A 
BRANCH  32  33
ATOM     33  C   UNL A   1      43.758  24.456  27.195  1.00  0.00     0.031 A 
ATOM     34  C   UNL A   1      42.780  25.468  27.727  1.00  0.00     0.074 A 
ATOM     35  C   UNL A   1      45.022  24.819  26.905  1.00  0.00     0.049 A 
ATOM     36  N   UNL A   1      42.945  26.748  27.946  1.00  0.00    -0.248 NA
ATOM     37  C   UNL A   1      41.416  24.987  28.006  1.00  0.00     0.031 C 
ATOM     38  C   UNL A   1      46.045  23.946  26.325  1.00  0.00     0.029 A 
ATOM     39  N   UNL A   1      45.662  26.024  27.050  1.00  0.00    -0.354 N 
ATOM     40  C   UNL A   1      41.708  27.221  28.358  1.00  0.00     0.074 A 
ATOM     41  C   UNL A   1      40.783  26.113  28.292  1.00  0.00     0.031 C 
ATOM     42  C   UNL A   1      47.190  24.635  26.194  1.00  0.00     0.029 A 
ATOM     43  C   UNL A   1      46.973  26.006  26.642  1.00  0.00     0.049 A 
ATOM     44  H   UNL A   1      45.222  26.827  27.413  1.00  0.00     0.167 HD
ATOM     45  C   UNL A   1      41.377  28.462  28.788  1.00  0.00     0.037 A 
ATOM     46  C   UNL A   1      47.892  26.990  26.627  1.00  0.00     0.037 A 
ATOM     47  C   UNL A   1      42.315  29.548  28.897  1.00  0.00     0.049 A 
ATOM     48  C   UNL A   1      47.508  28.354  27.132  1.00  0.00     0.074 A 
ATOM     49  C   UNL A   1      42.104  30.822  29.391  1.00  0.00     0.029 A 
ATOM     50  N   UNL A   1      43.645  29.480  28.511  1.00  0.00    -0.354 N 
ATOM     51  N   UNL A   1      46.353  28.772  27.590  1.00  0.00    -0.248 NA
ATOM     52  C   UNL A   1      48.557  29.382  27.124  1.00  0.00     0.031 C 
ATOM     53  C   UNL A   1      43.299  31.540  29.264  1.00  0.00     0.029 A 
ATOM     54  C   UNL A   1      44.265  30.697  28.738  1.00  0.00     0.049 A 
ATOM     55  H   UNL A   1      44.083  28.684  28.130  1.00  0.00     0.167 HD
ATOM     56  C   UNL A   1      46.542  30.099  27.951  1.00  0.00     0.074 A 
ATOM     57  C   UNL A   1      47.929  30.412  27.674  1.00  0.00     0.031 C 
ATOM     58  C   UNL A   1      45.650  30.981  28.463  1.00  0.00     0.037 A 
BRANCH  45  59
ATOM     59  C   UNL A   1      39.949  28.703  29.182  1.00  0.00     0.064 A 
ATOM     60  C   UNL A   1      39.494  28.460  30.488  1.00  0.00     0.173 A 
ATOM     61  C   UNL A   1      39.027  29.203  28.251  1.00  0.00     0.173 A 
ATOM     62  F   UNL A   1      40.332  27.966  31.413  1.00  0.00    -0.203 F 
ATOM     63  C   UNL A   1      38.164  28.675  30.836  1.00  0.00     0.198 A 
ATOM     64  C   UNL A   1      37.705  29.451  28.612  1.00  0.00     0.198 A 
ATOM     65  F   UNL A   1      39.408  29.457  26.990  1.00  0.00    -0.203 F 
ATOM     66  F   UNL A   1      37.741  28.379  32.074  1.00  0.00    -0.200 F 
ATOM     67  C   UNL A   1      37.273  29.177  29.901  1.00  0.00     0.200 A 
ATOM     68  F   UNL A   1      36.847  29.947  27.710  1.00  0.00    -0.200 F 
ATOM     69  F   UNL A   1      35.993  29.390  30.240  1.00  0.00    -0.200 F 
ENDBRANCH  45  59
BRANCH  46  70
ATOM     70  C   UNL A   1      49.274  26.711  26.154  1.00  0.00     0.064 A 
ATOM     71  C   UNL A   1      49.644  26.967  24.827  1.00  0.00     0.173 A 
ATOM     72  C   UNL A   1      50.249  26.181  27.012  1.00  0.00     0.173 A 
ATOM     73  F   UNL A   1      48.741  27.456  23.964  1.00  0.00    -0.203 F 
ATOM     74  C   UNL A   1      50.929  26.685  24.368  1.00  0.00     0.198 A 
ATOM     75  C   UNL A   1      51.542  25.925  26.560  1.00  0.00     0.198 A 
ATOM     76  F   UNL A   1      49.949  25.925  28.294  1.00  0.00    -0.203 F 
ATOM     77  F   UNL A   1      51.241  26.896  23.082  1.00  0.00    -0.200 F 
ATOM     78  C   UNL A   1      51.878  26.169  25.236  1.00  0.00     0.200 A 
ATOM     79  F   UNL A   1      52.462  25.441  27.405  1.00  0.00    -0.200 F 
ATOM     80  F   UNL A   1      53.116  25.900  24.797  1.00  0.00    -0.200 F 
ENDBRANCH  46  70
BRANCH  58  81
ATOM     81  C   UNL A   1      46.153  32.356  28.791  1.00  0.00     0.064 A 
ATOM     82  C   UNL A   1      46.093  33.402  27.859  1.00  0.00     0.173 A 
ATOM     83  C   UNL A   1      46.660  32.639  30.068  1.00  0.00     0.173 A 
ATOM     84  F   UNL A   1      45.631  33.177  26.620  1.00  0.00    -0.203 F 
ATOM     85  C   UNL A   1      46.546  34.677  28.187  1.00  0.00     0.198 A 
ATOM     86  C   UNL A   1      47.082  33.922  30.403  1.00  0.00     0.198 A 
ATOM     87  F   UNL A   1      46.730  31.674  30.997  1.00  0.00    -0.203 F 
ATOM     88  F   UNL A   1      46.523  35.651  27.267  1.00  0.00    -0.200 F 
ATOM     89  C   UNL A   1      47.032  34.938  29.460  1.00  0.00     0.200 A 
ATOM     90  F   UNL A   1      47.537  34.176  31.637  1.00  0.00    -0.200 F 
ATOM     91  F   UNL A   1      47.458  36.168  29.776  1.00  0.00    -0.200 F 
ENDBRANCH  58  81
ENDBRANCH  32  33
ENDBRANCH  24  27
ENDBRANCH  22  23
ENDBRANCH  21  22
ENDBRANCH   1  21
TORSDOF 13
ENDMDL
MODEL 3
REMARK VINA RESULT:     -12.7      0.160      1.619
REMARK SMILES C[C@H]1[C@H](C(=O)NCCCCNC(=O)c2ccc(-c3c4nc(c(-c5c(F)c(F)c(F)c(F)c5F)c5ccc([nH]5)c(-c5c(F)c(F)c(F)c(F)c5F)c5nc(c(-c6c(F)c(F)c(F)c(F)c6F)c6ccc3[nH]6)C=C5)C=C4)cc2)CCN1C(=O)[C@H]1CC=CCC1
REMARK SMILES IDX 8 1 7 2 6 3 4 4 5 5 3 7 1 8 2 9 79 10 77 11 78 12 80 13
REMARK SMILES IDX 81 14 82 15 83 16 87 17 84 18 86 19 85 20 9 21 10 22 11 23
REMARK SMILES IDX 12 24 13 26 14 27 15 28 76 29 16 30 75 31 17 32 18 33 19 34
REMARK SMILES IDX 69 35 20 36 74 37 68 38 70 39 21 40 73 41 67 42 66 43 22 45
REMARK SMILES IDX 54 46 34 47 53 48 35 49 38 50 52 51 71 52 36 53 37 54 51 56
REMARK SMILES IDX 72 57 39 58 23 59 24 60 32 61 25 62 26 63 30 64 33 65 27 66
REMARK SMILES IDX 28 67 31 68 29 69 55 70 56 71 64 72 57 73 58 74 62 75 65 76
REMARK SMILES IDX 59 77 60 78 63 79 61 80 40 81 41 82 49 83 42 84 43 85 47 86
REMARK SMILES IDX 50 87 44 88 45 89 48 90 46 91
REMARK H PARENT 6 6 11 25 70 44 38 55
REMARK Flexibility Score: inf
ROOT
ATOM      1  C   UNL A   1      31.778  30.729  26.165  1.00  0.00     0.023 C 
ENDROOT
BRANCH   1   2
ATOM      2  C   UNL A   1      32.649  29.738  26.929  1.00  0.00     0.116 C 
BRANCH   2   3
ATOM      3  N   UNL A   1      31.984  28.466  27.133  1.00  0.00    -0.356 N 
ATOM      4  C   UNL A   1      31.466  27.573  26.252  1.00  0.00     0.225 C 
ATOM      5  O   UNL A   1      30.984  26.542  26.731  1.00  0.00    -0.275 OA
ATOM      6  H   UNL A   1      31.893  28.204  28.077  1.00  0.00     0.163 HD
BRANCH   4   7
ATOM      7  C   UNL A   1      31.424  27.793  24.746  1.00  0.00     0.102 C 
ATOM      8  C   UNL A   1      33.210  28.666  23.230  1.00  0.00     0.032 C 
ATOM      9  C   UNL A   1      32.754  27.453  24.047  1.00  0.00     0.094 C 
ATOM     10  N   UNL A   1      32.448  26.310  23.192  1.00  0.00    -0.339 N 
ATOM     11  C   UNL A   1      30.326  27.044  23.993  1.00  0.00     0.037 C 
ATOM     12  C   UNL A   1      31.030  26.321  22.854  1.00  0.00     0.120 C 
BRANCH  10  13
ATOM     13  C   UNL A   1      33.244  25.303  22.694  1.00  0.00     0.226 C 
ATOM     14  O   UNL A   1      33.653  25.391  21.526  1.00  0.00    -0.275 OA
BRANCH  13  15
ATOM     15  C   UNL A   1      33.631  24.025  23.466  1.00  0.00     0.083 C 
ATOM     16  C   UNL A   1      35.081  23.554  23.357  1.00  0.00     0.040 C 
ATOM     17  C   UNL A   1      33.024  23.878  24.863  1.00  0.00     0.018 C 
ATOM     18  C   UNL A   1      35.896  23.672  24.610  1.00  0.00    -0.030 C 
ATOM     19  C   UNL A   1      33.933  24.247  26.034  1.00  0.00     0.028 C 
ATOM     20  C   UNL A   1      35.383  23.977  25.807  1.00  0.00    -0.031 C 
ENDBRANCH  13  15
ENDBRANCH  10  13
ENDBRANCH   4   7
ENDBRANCH   2   3
ENDBRANCH   1   2
BRANCH   1  21
ATOM     21  C   UNL A   1      31.480  32.035  26.879  1.00  0.00     0.023 C 
BRANCH  21  22
ATOM     22  C   UNL A   1      32.717  32.758  27.373  1.00  0.00     0.116 C 
BRANCH  22  23
ATOM     23  N   UNL A   1      32.475  34.174  27.626  1.00  0.00    -0.352 N 
ATOM     24  C   UNL A   1      33.033  35.008  28.564  1.00  0.00     0.251 C 
ATOM     25  H   UNL A   1      31.812  34.597  27.034  1.00  0.00     0.163 HD
ATOM     26  O   UNL A   1      32.574  36.130  28.750  1.00  0.00    -0.269 OA
BRANCH  24  27
ATOM     27  C   UNL A   1      34.175  34.533  29.371  1.00  0.00     0.039 A 
ATOM     28  C   UNL A   1      33.942  33.992  30.637  1.00  0.00     0.014 A 
ATOM     29  C   UNL A   1      35.470  34.585  28.854  1.00  0.00     0.014 A 
ATOM     30  C   UNL A   1      35.002  33.426  31.346  1.00  0.00     0.010 A 
ATOM     31  C   UNL A   1      36.494  33.912  29.501  1.00  0.00     0.010 A 
ATOM     32  C   UNL A   1      36.277  33.338  30.762  1.00  0.00    -0.014 A 
BRANCH  32  33
ATOM     33  C   UNL A   1      37.411  32.679  31.453  1.00  0.00     0.031 A 
ATOM     34  C   UNL A   1      38.127  31.537  30.784  1.00  0.00     0.074 A 
ATOM     35  C   UNL A   1      37.739  33.047  32.706  1.00  0.00     0.049 A 
ATOM     36  N   UNL A   1      39.065  30.755  31.255  1.00  0.00    -0.248 NA
ATOM     37  C   UNL A   1      37.696  31.196  29.418  1.00  0.00     0.031 C 
ATOM     38  C   UNL A   1      37.077  34.096  33.484  1.00  0.00     0.029 A 
ATOM     39  N   UNL A   1      38.708  32.570  33.553  1.00  0.00    -0.354 N 
ATOM     40  C   UNL A   1      39.312  29.822  30.257  1.00  0.00     0.074 A 
ATOM     41  C   UNL A   1      38.380  30.087  29.185  1.00  0.00     0.031 C 
ATOM     42  C   UNL A   1      37.679  34.204  34.680  1.00  0.00     0.029 A 
ATOM     43  C   UNL A   1      38.741  33.209  34.769  1.00  0.00     0.049 A 
ATOM     44  H   UNL A   1      39.322  31.839  33.311  1.00  0.00     0.167 HD
ATOM     45  C   UNL A   1      40.254  28.851  30.222  1.00  0.00     0.037 A 
ATOM     46  C   UNL A   1      39.538  33.007  35.835  1.00  0.00     0.037 A 
ATOM     47  C   UNL A   1      41.210  28.625  31.273  1.00  0.00     0.049 A 
ATOM     48  C   UNL A   1      40.594  31.938  35.763  1.00  0.00     0.074 A 
ATOM     49  C   UNL A   1      42.256  27.720  31.308  1.00  0.00     0.029 A 
ATOM     50  N   UNL A   1      41.238  29.319  32.473  1.00  0.00    -0.354 N 
ATOM     51  N   UNL A   1      40.869  31.110  34.785  1.00  0.00    -0.248 NA
ATOM     52  C   UNL A   1      41.458  31.780  36.941  1.00  0.00     0.031 C 
ATOM     53  C   UNL A   1      42.890  27.838  32.549  1.00  0.00     0.029 A 
ATOM     54  C   UNL A   1      42.272  28.849  33.266  1.00  0.00     0.049 A 
ATOM     55  H   UNL A   1      40.614  30.038  32.726  1.00  0.00     0.167 HD
ATOM     56  C   UNL A   1      41.950  30.353  35.215  1.00  0.00     0.074 A 
ATOM     57  C   UNL A   1      42.293  30.833  36.538  1.00  0.00     0.031 C 
ATOM     58  C   UNL A   1      42.600  29.351  34.576  1.00  0.00     0.037 A 
BRANCH  45  59
ATOM     59  C   UNL A   1      40.304  27.975  29.004  1.00  0.00     0.064 A 
ATOM     60  C   UNL A   1      39.604  26.759  28.942  1.00  0.00     0.173 A 
ATOM     61  C   UNL A   1      41.044  28.363  27.877  1.00  0.00     0.173 A 
ATOM     62  F   UNL A   1      38.895  26.335  29.999  1.00  0.00    -0.203 F 
ATOM     63  C   UNL A   1      39.671  25.951  27.811  1.00  0.00     0.198 A 
ATOM     64  C   UNL A   1      41.080  27.567  26.735  1.00  0.00     0.198 A 
ATOM     65  F   UNL A   1      41.729  29.516  27.881  1.00  0.00    -0.203 F 
ATOM     66  F   UNL A   1      39.041  24.767  27.799  1.00  0.00    -0.200 F 
ATOM     67  C   UNL A   1      40.402  26.358  26.706  1.00  0.00     0.200 A 
ATOM     68  F   UNL A   1      41.777  27.968  25.662  1.00  0.00    -0.200 F 
ATOM     69  F   UNL A   1      40.459  25.581  25.616  1.00  0.00    -0.200 F 
ENDBRANCH  45  59
BRANCH  46  70
ATOM     70  C   UNL A   1      39.393  33.858  37.045  1.00  0.00     0.064 A 
ATOM     71  C   UNL A   1      39.993  35.123  37.108  1.00  0.00     0.173 A 
ATOM     72  C   UNL A   1      38.659  33.428  38.160  1.00  0.00     0.173 A 
ATOM     73  F   UNL A   1      40.720  35.571  36.074  1.00  0.00    -0.203 F 
ATOM     74  C   UNL A   1      39.883  35.917  38.248  1.00  0.00     0.198 A 
ATOM     75  C   UNL A   1      38.527  34.234  39.289  1.00  0.00     0.198 A 
ATOM     76  F   UNL A   1      38.059  32.229  38.148  1.00  0.00    -0.203 F 
ATOM     77  F   UNL A   1      40.506  37.103  38.299  1.00  0.00    -0.200 F 
ATOM     78  C   UNL A   1      39.146  35.475  39.335  1.00  0.00     0.200 A 
ATOM     79  F   UNL A   1      37.802  33.810  40.332  1.00  0.00    -0.200 F 
ATOM     80  F   UNL A   1      39.038  36.239  40.430  1.00  0.00    -0.200 F 
ENDBRANCH  46  70
BRANCH  58  81
ATOM     81  C   UNL A   1      43.770  28.730  35.282  1.00  0.00     0.064 A 
ATOM     82  C   UNL A   1      45.079  29.190  35.078  1.00  0.00     0.173 A 
ATOM     83  C   UNL A   1      43.571  27.694  36.206  1.00  0.00     0.173 A 
ATOM     84  F   UNL A   1      45.321  30.168  34.194  1.00  0.00    -0.203 F 
ATOM     85  C   UNL A   1      46.151  28.616  35.757  1.00  0.00     0.198 A 
ATOM     86  C   UNL A   1      44.640  27.144  36.907  1.00  0.00     0.198 A 
ATOM     87  F   UNL A   1      42.336  27.225  36.442  1.00  0.00    -0.203 F 
ATOM     88  F   UNL A   1      47.398  29.038  35.513  1.00  0.00    -0.200 F 
ATOM     89  C   UNL A   1      45.930  27.600  36.676  1.00  0.00     0.200 A 
ATOM     90  F   UNL A   1      44.424  26.173  37.805  1.00  0.00    -0.200 F 
ATOM     91  F   UNL A   1      46.961  27.056  37.335  1.00  0.00    -0.200 F 
ENDBRANCH  58  81
ENDBRANCH  32  33
ENDBRANCH  24  27
ENDBRANCH  22  23
ENDBRANCH  21  22
ENDBRANCH   1  21
TORSDOF 13
ENDMDL
