MODEL 1
REMARK VINA RESULT:     -12.3      0.000      0.000
REMARK SMILES CCOc1ncnc(N[C@@H]2C=C[C@H](C(=O)NCCCCNC(=O)c3ccc(-c4c5nc(c(-c6c(F)c(F)c(F)c(F)c6F)c6ccc([nH]6)c(-c6c(F)c(F)c(F)c(F)c6F)c6nc(c(-c7c(F)c(F)c(F)c(F)c7F)c7ccc4[nH]7)C=C6)C=C5)cc3)C2)c1C
REMARK SMILES IDX 17 1 16 2 14 3 15 4 13 6 10 7 11 8 87 9 12 10 9 11 8 13 4 14
REMARK SMILES IDX 5 15 88 16 6 17 89 18 7 19 3 20 2 21 1 22 18 23 19 24 20 25
REMARK SMILES IDX 21 26 22 27 23 29 24 30 25 31 86 32 26 33 85 34 27 35 28 36
REMARK SMILES IDX 29 37 79 38 30 39 84 40 78 41 80 42 31 43 83 44 77 45 76 46
REMARK SMILES IDX 32 48 64 49 44 50 63 51 45 52 48 53 62 54 81 55 46 56 47 57
REMARK SMILES IDX 61 59 82 60 49 61 33 62 34 63 42 64 35 65 36 66 40 67 43 68
REMARK SMILES IDX 37 69 38 70 41 71 39 72 65 73 66 74 74 75 67 76 68 77 72 78
REMARK SMILES IDX 75 79 69 80 70 81 73 82 71 83 50 84 51 85 59 86 52 87 53 88
REMARK SMILES IDX 57 89 60 90 54 91 55 92 58 93 56 94
REMARK H PARENT 16 5 9 12 21 28 80 47 48 58
REMARK Flexibility Score: inf
ROOT
ATOM      1  C   UNL A   1      32.302  29.637  27.255  1.00  0.00     0.116 C 
ENDROOT
BRANCH   1   2
ATOM      2  N   UNL A   1      31.555  28.402  27.247  1.00  0.00    -0.356 N 
ATOM      3  C   UNL A   1      31.936  27.159  26.830  1.00  0.00     0.227 C 
ATOM      4  O   UNL A   1      31.064  26.286  26.878  1.00  0.00    -0.274 OA
ATOM      5  H   UNL A   1      30.636  28.464  27.593  1.00  0.00     0.163 HD
BRANCH   3   6
ATOM      6  C   UNL A   1      33.314  26.921  26.175  1.00  0.00     0.103 C 
ATOM      7  C   UNL A   1      33.593  26.615  23.737  1.00  0.00     0.104 C 
ATOM      8  C   UNL A   1      33.822  25.348  24.472  1.00  0.00    -0.006 C 
ATOM      9  C   UNL A   1      33.434  27.677  24.830  1.00  0.00     0.046 C 
ATOM     10  C   UNL A   1      33.685  25.513  25.790  1.00  0.00    -0.016 C 
BRANCH   7  11
ATOM     11  N   UNL A   1      32.494  26.507  22.808  1.00  0.00    -0.363 N 
ATOM     12  H   UNL A   1      32.707  26.144  21.918  1.00  0.00     0.162 HD
BRANCH  11  13
ATOM     13  C   UNL A   1      31.174  26.858  23.029  1.00  0.00     0.136 A 
ATOM     14  C   UNL A   1      29.401  28.385  22.849  1.00  0.00     0.221 A 
ATOM     15  N   UNL A   1      28.539  27.549  23.442  1.00  0.00    -0.201 NA
ATOM     16  C   UNL A   1      30.742  28.119  22.638  1.00  0.00     0.054 A 
ATOM     17  C   UNL A   1      29.078  26.393  23.830  1.00  0.00     0.228 A 
ATOM     18  C   UNL A   1      31.660  29.112  21.998  1.00  0.00     0.054 C 
ATOM     19  N   UNL A   1      30.345  25.995  23.634  1.00  0.00    -0.219 NA
BRANCH  14  20
ATOM     20  O   UNL A   1      28.913  29.631  22.535  1.00  0.00    -0.478 OA
BRANCH  20  21
ATOM     21  C   UNL A   1      27.613  29.831  23.092  1.00  0.00     0.228 C 
ATOM     22  C   UNL A   1      27.531  31.249  23.635  1.00  0.00     0.049 C 
ENDBRANCH  20  21
ENDBRANCH  14  20
ENDBRANCH  11  13
ENDBRANCH   7  11
ENDBRANCH   3   6
ENDBRANCH   1   2
BRANCH   1  23
ATOM     23  C   UNL A   1      31.822  30.630  26.202  1.00  0.00     0.023 C 
BRANCH  23  24
ATOM     24  C   UNL A   1      31.524  32.040  26.706  1.00  0.00     0.023 C 
BRANCH  24  25
ATOM     25  C   UNL A   1      32.686  32.748  27.392  1.00  0.00     0.116 C 
BRANCH  25  26
ATOM     26  N   UNL A   1      32.409  34.149  27.679  1.00  0.00    -0.352 N 
ATOM     27  C   UNL A   1      32.987  34.992  28.597  1.00  0.00     0.251 C 
ATOM     28  H   UNL A   1      31.698  34.553  27.131  1.00  0.00     0.163 HD
ATOM     29  O   UNL A   1      32.513  36.108  28.797  1.00  0.00    -0.269 OA
BRANCH  27  30
ATOM     30  C   UNL A   1      34.163  34.545  29.371  1.00  0.00     0.039 A 
ATOM     31  C   UNL A   1      33.972  34.001  30.644  1.00  0.00     0.014 A 
ATOM     32  C   UNL A   1      35.448  34.642  28.833  1.00  0.00     0.014 A 
ATOM     33  C   UNL A   1      35.062  33.469  31.338  1.00  0.00     0.010 A 
ATOM     34  C   UNL A   1      36.515  34.035  29.485  1.00  0.00     0.010 A 
ATOM     35  C   UNL A   1      36.333  33.438  30.742  1.00  0.00    -0.014 A 
BRANCH  35  36
ATOM     36  C   UNL A   1      37.486  32.780  31.408  1.00  0.00     0.031 A 
ATOM     37  C   UNL A   1      38.168  31.612  30.754  1.00  0.00     0.074 A 
ATOM     38  C   UNL A   1      37.859  33.175  32.641  1.00  0.00     0.049 A 
ATOM     39  N   UNL A   1      39.119  30.840  31.218  1.00  0.00    -0.248 NA
ATOM     40  C   UNL A   1      37.692  31.239  29.413  1.00  0.00     0.031 C 
ATOM     41  C   UNL A   1      37.236  34.253  33.409  1.00  0.00     0.029 A 
ATOM     42  N   UNL A   1      38.841  32.698  33.474  1.00  0.00    -0.354 N 
ATOM     43  C   UNL A   1      39.341  29.885  30.235  1.00  0.00     0.074 A 
ATOM     44  C   UNL A   1      38.382  30.134  29.179  1.00  0.00     0.031 C 
ATOM     45  C   UNL A   1      37.855  34.364  34.594  1.00  0.00     0.029 A 
ATOM     46  C   UNL A   1      38.895  33.343  34.686  1.00  0.00     0.049 A 
ATOM     47  H   UNL A   1      39.448  31.963  33.227  1.00  0.00     0.167 HD
ATOM     48  C   UNL A   1      40.274  28.905  30.202  1.00  0.00     0.037 A 
ATOM     49  C   UNL A   1      39.686  33.129  35.753  1.00  0.00     0.037 A 
ATOM     50  C   UNL A   1      41.237  28.671  31.246  1.00  0.00     0.049 A 
ATOM     51  C   UNL A   1      40.725  32.043  35.693  1.00  0.00     0.074 A 
ATOM     52  C   UNL A   1      42.262  27.742  31.285  1.00  0.00     0.029 A 
ATOM     53  N   UNL A   1      41.291  29.375  32.440  1.00  0.00    -0.354 N 
ATOM     54  N   UNL A   1      40.974  31.192  34.728  1.00  0.00    -0.248 NA
ATOM     55  C   UNL A   1      41.599  31.896  36.864  1.00  0.00     0.031 C 
ATOM     56  C   UNL A   1      42.909  27.856  32.520  1.00  0.00     0.029 A 
ATOM     57  C   UNL A   1      42.321  28.890  33.231  1.00  0.00     0.049 A 
ATOM     58  H   UNL A   1      40.687  30.112  32.689  1.00  0.00     0.167 HD
ATOM     59  C   UNL A   1      42.045  30.423  35.163  1.00  0.00     0.074 A 
ATOM     60  C   UNL A   1      42.410  30.921  36.475  1.00  0.00     0.031 C 
ATOM     61  C   UNL A   1      42.671  29.399  34.534  1.00  0.00     0.037 A 
BRANCH  48  62
ATOM     62  C   UNL A   1      40.297  28.018  28.990  1.00  0.00     0.064 A 
ATOM     63  C   UNL A   1      39.590  26.805  28.954  1.00  0.00     0.173 A 
ATOM     64  C   UNL A   1      41.028  28.383  27.850  1.00  0.00     0.173 A 
ATOM     65  F   UNL A   1      38.884  26.402  30.022  1.00  0.00    -0.203 F 
ATOM     66  C   UNL A   1      39.650  25.972  27.839  1.00  0.00     0.198 A 
ATOM     67  C   UNL A   1      41.059  27.563  26.724  1.00  0.00     0.198 A 
ATOM     68  F   UNL A   1      41.716  29.534  27.827  1.00  0.00    -0.203 F 
ATOM     69  F   UNL A   1      39.020  24.790  27.855  1.00  0.00    -0.200 F 
ATOM     70  C   UNL A   1      40.379  26.354  26.725  1.00  0.00     0.200 A 
ATOM     71  F   UNL A   1      41.753  27.939  25.642  1.00  0.00    -0.200 F 
ATOM     72  F   UNL A   1      40.438  25.550  25.654  1.00  0.00    -0.200 F 
ENDBRANCH  48  62
BRANCH  49  73
ATOM     73  C   UNL A   1      39.538  33.982  36.962  1.00  0.00     0.064 A 
ATOM     74  C   UNL A   1      40.155  35.238  37.037  1.00  0.00     0.173 A 
ATOM     75  C   UNL A   1      38.761  33.569  38.054  1.00  0.00     0.173 A 
ATOM     76  F   UNL A   1      40.923  35.668  36.025  1.00  0.00    -0.203 F 
ATOM     77  C   UNL A   1      40.012  36.044  38.165  1.00  0.00     0.198 A 
ATOM     78  C   UNL A   1      38.597  34.386  39.170  1.00  0.00     0.198 A 
ATOM     79  F   UNL A   1      38.144  32.379  38.027  1.00  0.00    -0.203 F 
ATOM     80  F   UNL A   1      40.643  37.224  38.225  1.00  0.00    -0.200 F 
ATOM     81  C   UNL A   1      39.228  35.621  39.227  1.00  0.00     0.200 A 
ATOM     82  F   UNL A   1      37.825  33.981  40.188  1.00  0.00    -0.200 F 
ATOM     83  F   UNL A   1      39.083  36.400  40.308  1.00  0.00    -0.200 F 
ENDBRANCH  49  73
BRANCH  61  84
ATOM     84  C   UNL A   1      43.833  28.764  35.240  1.00  0.00     0.064 A 
ATOM     85  C   UNL A   1      45.145  29.228  35.063  1.00  0.00     0.173 A 
ATOM     86  C   UNL A   1      43.626  27.706  36.137  1.00  0.00     0.173 A 
ATOM     87  F   UNL A   1      45.397  30.227  34.204  1.00  0.00    -0.203 F 
ATOM     88  C   UNL A   1      46.209  28.642  35.743  1.00  0.00     0.198 A 
ATOM     89  C   UNL A   1      44.688  27.141  36.838  1.00  0.00     0.198 A 
ATOM     90  F   UNL A   1      42.390  27.228  36.346  1.00  0.00    -0.203 F 
ATOM     91  F   UNL A   1      47.459  29.072  35.527  1.00  0.00    -0.200 F 
ATOM     92  C   UNL A   1      45.979  27.605  36.635  1.00  0.00     0.200 A 
ATOM     93  F   UNL A   1      44.462  26.148  37.709  1.00  0.00    -0.200 F 
ATOM     94  F   UNL A   1      47.003  27.047  37.295  1.00  0.00    -0.200 F 
ENDBRANCH  61  84
ENDBRANCH  35  36
ENDBRANCH  27  30
ENDBRANCH  25  26
ENDBRANCH  24  25
ENDBRANCH  23  24
ENDBRANCH   1  23
TORSDOF 15
ENDMDL
MODEL 2
REMARK VINA RESULT:     -12.1      0.958      7.425
REMARK SMILES CCOc1ncnc(N[C@@H]2C=C[C@H](C(=O)NCCCCNC(=O)c3ccc(-c4c5nc(c(-c6c(F)c(F)c(F)c(F)c6F)c6ccc([nH]6)c(-c6c(F)c(F)c(F)c(F)c6F)c6nc(c(-c7c(F)c(F)c(F)c(F)c7F)c7ccc4[nH]7)C=C6)C=C5)cc3)C2)c1C
REMARK SMILES IDX 17 1 16 2 14 3 15 4 13 6 10 7 11 8 87 9 12 10 9 11 8 13 4 14
REMARK SMILES IDX 5 15 88 16 6 17 89 18 7 19 3 20 2 21 1 22 18 23 19 24 20 25
REMARK SMILES IDX 21 26 22 27 23 29 24 30 25 31 86 32 26 33 85 34 27 35 28 36
REMARK SMILES IDX 29 37 79 38 30 39 84 40 78 41 80 42 31 43 83 44 77 45 76 46
REMARK SMILES IDX 32 48 64 49 44 50 63 51 45 52 48 53 62 54 81 55 46 56 47 57
REMARK SMILES IDX 61 59 82 60 49 61 33 62 34 63 42 64 35 65 36 66 40 67 43 68
REMARK SMILES IDX 37 69 38 70 41 71 39 72 65 73 66 74 74 75 67 76 68 77 72 78
REMARK SMILES IDX 75 79 69 80 70 81 73 82 71 83 50 84 51 85 59 86 52 87 53 88
REMARK SMILES IDX 57 89 60 90 54 91 55 92 58 93 56 94
REMARK H PARENT 16 5 9 12 21 28 80 47 48 58
REMARK Flexibility Score: inf
ROOT
ATOM      1  C   UNL A   1      32.858  30.187  26.857  1.00  0.00     0.116 C 
ENDROOT
BRANCH   1   2
ATOM      2  N   UNL A   1      33.551  29.707  25.686  1.00  0.00    -0.356 N 
ATOM      3  C   UNL A   1      33.727  28.427  25.244  1.00  0.00     0.227 C 
ATOM      4  O   UNL A   1      34.424  28.300  24.233  1.00  0.00    -0.274 OA
ATOM      5  H   UNL A   1      33.957  30.405  25.122  1.00  0.00     0.163 HD
BRANCH   3   6
ATOM      6  C   UNL A   1      33.231  27.220  26.067  1.00  0.00     0.103 C 
ATOM      7  C   UNL A   1      31.550  25.622  25.207  1.00  0.00     0.104 C 
ATOM      8  C   UNL A   1      30.988  26.474  26.282  1.00  0.00    -0.006 C 
ATOM      9  C   UNL A   1      33.042  25.970  25.173  1.00  0.00     0.046 C 
ATOM     10  C   UNL A   1      31.897  27.330  26.758  1.00  0.00    -0.016 C 
BRANCH   7  11
ATOM     11  N   UNL A   1      30.843  25.792  23.961  1.00  0.00    -0.363 N 
ATOM     12  H   UNL A   1      30.521  24.970  23.525  1.00  0.00     0.162 HD
BRANCH  11  13
ATOM     13  C   UNL A   1      30.567  26.980  23.310  1.00  0.00     0.136 A 
ATOM     14  C   UNL A   1      29.063  28.661  22.660  1.00  0.00     0.221 A 
ATOM     15  N   UNL A   1      30.018  29.362  22.037  1.00  0.00    -0.201 NA
ATOM     16  C   UNL A   1      29.258  27.445  23.290  1.00  0.00     0.054 A 
ATOM     17  C   UNL A   1      31.223  28.790  22.066  1.00  0.00     0.228 A 
ATOM     18  C   UNL A   1      28.138  26.696  23.940  1.00  0.00     0.054 C 
ATOM     19  N   UNL A   1      31.551  27.648  22.690  1.00  0.00    -0.219 NA
BRANCH  14  20
ATOM     20  O   UNL A   1      27.786  29.159  22.556  1.00  0.00    -0.478 OA
BRANCH  20  21
ATOM     21  C   UNL A   1      27.798  30.574  22.361  1.00  0.00     0.228 C 
ATOM     22  C   UNL A   1      27.594  31.252  23.706  1.00  0.00     0.049 C 
ENDBRANCH  20  21
ENDBRANCH  14  20
ENDBRANCH  11  13
ENDBRANCH   7  11
ENDBRANCH   3   6
ENDBRANCH   1   2
BRANCH   1  23
ATOM     23  C   UNL A   1      31.510  30.823  26.534  1.00  0.00     0.023 C 
BRANCH  23  24
ATOM     24  C   UNL A   1      31.433  32.338  26.700  1.00  0.00     0.023 C 
BRANCH  24  25
ATOM     25  C   UNL A   1      32.680  32.995  27.282  1.00  0.00     0.116 C 
BRANCH  25  26
ATOM     26  N   UNL A   1      32.446  34.362  27.731  1.00  0.00    -0.352 N 
ATOM     27  C   UNL A   1      33.039  35.069  28.748  1.00  0.00     0.251 C 
ATOM     28  H   UNL A   1      31.758  34.852  27.226  1.00  0.00     0.163 HD
ATOM     29  O   UNL A   1      32.600  36.169  29.074  1.00  0.00    -0.269 OA
BRANCH  27  30
ATOM     30  C   UNL A   1      34.187  34.492  29.476  1.00  0.00     0.039 A 
ATOM     31  C   UNL A   1      33.958  33.802  30.669  1.00  0.00     0.014 A 
ATOM     32  C   UNL A   1      35.484  34.613  28.971  1.00  0.00     0.014 A 
ATOM     33  C   UNL A   1      35.019  33.154  31.307  1.00  0.00     0.010 A 
ATOM     34  C   UNL A   1      36.520  33.896  29.558  1.00  0.00     0.010 A 
ATOM     35  C   UNL A   1      36.298  33.155  30.728  1.00  0.00    -0.014 A 
BRANCH  35  36
ATOM     36  C   UNL A   1      37.420  32.383  31.323  1.00  0.00     0.031 A 
ATOM     37  C   UNL A   1      37.955  32.753  32.677  1.00  0.00     0.074 A 
ATOM     38  C   UNL A   1      38.014  31.411  30.605  1.00  0.00     0.049 A 
ATOM     39  N   UNL A   1      38.991  32.274  33.319  1.00  0.00    -0.248 NA
ATOM     40  C   UNL A   1      37.255  33.834  33.388  1.00  0.00     0.031 C 
ATOM     41  C   UNL A   1      37.630  31.000  29.254  1.00  0.00     0.029 A 
ATOM     42  N   UNL A   1      39.085  30.605  30.905  1.00  0.00    -0.354 N 
ATOM     43  C   UNL A   1      39.073  33.003  34.498  1.00  0.00     0.074 A 
ATOM     44  C   UNL A   1      38.025  34.000  34.452  1.00  0.00     0.031 C 
ATOM     45  C   UNL A   1      38.443  30.013  28.846  1.00  0.00     0.029 A 
ATOM     46  C   UNL A   1      39.428  29.745  29.890  1.00  0.00     0.049 A 
ATOM     47  H   UNL A   1      39.562  30.640  31.766  1.00  0.00     0.167 HD
ATOM     48  C   UNL A   1      39.928  32.841  35.535  1.00  0.00     0.037 A 
ATOM     49  C   UNL A   1      40.429  28.850  29.806  1.00  0.00     0.037 A 
ATOM     50  C   UNL A   1      40.957  31.837  35.585  1.00  0.00     0.049 A 
ATOM     51  C   UNL A   1      41.361  28.677  30.974  1.00  0.00     0.074 A 
ATOM     52  C   UNL A   1      41.839  31.552  36.613  1.00  0.00     0.029 A 
ATOM     53  N   UNL A   1      41.246  30.953  34.555  1.00  0.00    -0.354 N 
ATOM     54  N   UNL A   1      41.385  29.323  32.114  1.00  0.00    -0.248 NA
ATOM     55  C   UNL A   1      42.397  27.643  30.848  1.00  0.00     0.031 C 
ATOM     56  C   UNL A   1      42.687  30.523  36.190  1.00  0.00     0.029 A 
ATOM     57  C   UNL A   1      42.303  30.132  34.916  1.00  0.00     0.049 A 
ATOM     58  H   UNL A   1      40.770  30.914  33.694  1.00  0.00     0.167 HD
ATOM     59  C   UNL A   1      42.419  28.762  32.850  1.00  0.00     0.074 A 
ATOM     60  C   UNL A   1      42.989  27.710  32.033  1.00  0.00     0.031 C 
ATOM     61  C   UNL A   1      42.857  29.088  34.091  1.00  0.00     0.037 A 
BRANCH  48  62
ATOM     62  C   UNL A   1      39.774  33.773  36.703  1.00  0.00     0.064 A 
ATOM     63  C   UNL A   1      38.958  33.448  37.800  1.00  0.00     0.173 A 
ATOM     64  C   UNL A   1      40.451  35.001  36.733  1.00  0.00     0.173 A 
ATOM     65  F   UNL A   1      38.280  32.291  37.817  1.00  0.00    -0.203 F 
ATOM     66  C   UNL A   1      38.792  34.336  38.859  1.00  0.00     0.198 A 
ATOM     67  C   UNL A   1      40.309  35.873  37.810  1.00  0.00     0.198 A 
ATOM     68  F   UNL A   1      41.249  35.359  35.717  1.00  0.00    -0.203 F 
ATOM     69  F   UNL A   1      37.957  34.031  39.861  1.00  0.00    -0.200 F 
ATOM     70  C   UNL A   1      39.471  35.544  38.866  1.00  0.00     0.200 A 
ATOM     71  F   UNL A   1      40.975  37.035  37.823  1.00  0.00    -0.200 F 
ATOM     72  F   UNL A   1      39.308  36.399  39.886  1.00  0.00    -0.200 F 
ENDBRANCH  48  62
BRANCH  49  73
ATOM     73  C   UNL A   1      40.583  28.032  28.574  1.00  0.00     0.064 A 
ATOM     74  C   UNL A   1      41.356  28.488  27.499  1.00  0.00     0.173 A 
ATOM     75  C   UNL A   1      39.978  26.771  28.457  1.00  0.00     0.173 A 
ATOM     76  F   UNL A   1      41.938  29.695  27.557  1.00  0.00    -0.203 F 
ATOM     77  C   UNL A   1      41.508  27.720  26.345  1.00  0.00     0.198 A 
ATOM     78  C   UNL A   1      40.153  25.993  27.315  1.00  0.00     0.198 A 
ATOM     79  F   UNL A   1      39.235  26.287  29.462  1.00  0.00    -0.203 F 
ATOM     80  F   UNL A   1      42.223  28.197  25.317  1.00  0.00    -0.200 F 
ATOM     81  C   UNL A   1      40.913  26.472  26.257  1.00  0.00     0.200 A 
ATOM     82  F   UNL A   1      39.589  24.780  27.239  1.00  0.00    -0.200 F 
ATOM     83  F   UNL A   1      41.067  25.730  25.152  1.00  0.00    -0.200 F 
ENDBRANCH  49  73
BRANCH  61  84
ATOM     84  C   UNL A   1      43.989  28.281  34.656  1.00  0.00     0.064 A 
ATOM     85  C   UNL A   1      43.766  27.088  35.357  1.00  0.00     0.173 A 
ATOM     86  C   UNL A   1      45.318  28.687  34.455  1.00  0.00     0.173 A 
ATOM     87  F   UNL A   1      42.513  26.666  35.589  1.00  0.00    -0.203 F 
ATOM     88  C   UNL A   1      44.830  26.340  35.855  1.00  0.00     0.198 A 
ATOM     89  C   UNL A   1      46.380  27.921  34.928  1.00  0.00     0.198 A 
ATOM     90  F   UNL A   1      45.586  29.818  33.786  1.00  0.00    -0.203 F 
ATOM     91  F   UNL A   1      44.591  25.225  36.559  1.00  0.00    -0.200 F 
ATOM     92  C   UNL A   1      46.135  26.753  35.633  1.00  0.00     0.200 A 
ATOM     93  F   UNL A   1      47.641  28.316  34.702  1.00  0.00    -0.200 F 
ATOM     94  F   UNL A   1      47.158  26.028  36.105  1.00  0.00    -0.200 F 
ENDBRANCH  61  84
ENDBRANCH  35  36
ENDBRANCH  27  30
ENDBRANCH  25  26
ENDBRANCH  24  25
ENDBRANCH  23  24
ENDBRANCH   1  23
TORSDOF 15
ENDMDL
MODEL 3
REMARK VINA RESULT:     -12.0      0.538      7.326
REMARK SMILES CCOc1ncnc(N[C@@H]2C=C[C@H](C(=O)NCCCCNC(=O)c3ccc(-c4c5nc(c(-c6c(F)c(F)c(F)c(F)c6F)c6ccc([nH]6)c(-c6c(F)c(F)c(F)c(F)c6F)c6nc(c(-c7c(F)c(F)c(F)c(F)c7F)c7ccc4[nH]7)C=C6)C=C5)cc3)C2)c1C
REMARK SMILES IDX 17 1 16 2 14 3 15 4 13 6 10 7 11 8 87 9 12 10 9 11 8 13 4 14
REMARK SMILES IDX 5 15 88 16 6 17 89 18 7 19 3 20 2 21 1 22 18 23 19 24 20 25
REMARK SMILES IDX 21 26 22 27 23 29 24 30 25 31 86 32 26 33 85 34 27 35 28 36
REMARK SMILES IDX 29 37 79 38 30 39 84 40 78 41 80 42 31 43 83 44 77 45 76 46
REMARK SMILES IDX 32 48 64 49 44 50 63 51 45 52 48 53 62 54 81 55 46 56 47 57
REMARK SMILES IDX 61 59 82 60 49 61 33 62 34 63 42 64 35 65 36 66 40 67 43 68
REMARK SMILES IDX 37 69 38 70 41 71 39 72 65 73 66 74 74 75 67 76 68 77 72 78
REMARK SMILES IDX 75 79 69 80 70 81 73 82 71 83 50 84 51 85 59 86 52 87 53 88
REMARK SMILES IDX 57 89 60 90 54 91 55 92 58 93 56 94
REMARK H PARENT 16 5 9 12 21 28 80 47 48 58
REMARK Flexibility Score: inf
ROOT
ATOM      1  C   UNL A   1      32.133  29.816  27.233  1.00  0.00     0.116 C 
ENDROOT
BRANCH   1   2
ATOM      2  N   UNL A   1      31.434  28.552  27.241  1.00  0.00    -0.356 N 
ATOM      3  C   UNL A   1      31.869  27.317  26.855  1.00  0.00     0.227 C 
ATOM      4  O   UNL A   1      31.030  26.412  26.910  1.00  0.00    -0.274 OA
ATOM      5  H   UNL A   1      30.507  28.587  27.573  1.00  0.00     0.163 HD
BRANCH   3   6
ATOM      6  C   UNL A   1      33.264  27.119  26.225  1.00  0.00     0.103 C 
ATOM      7  C   UNL A   1      33.599  26.862  23.789  1.00  0.00     0.104 C 
ATOM      8  C   UNL A   1      33.840  25.587  24.507  1.00  0.00    -0.006 C 
ATOM      9  C   UNL A   1      33.395  27.901  24.896  1.00  0.00     0.046 C 
ATOM     10  C   UNL A   1      33.672  25.726  25.825  1.00  0.00    -0.016 C 
BRANCH   7  11
ATOM     11  N   UNL A   1      32.522  26.748  22.836  1.00  0.00    -0.363 N 
ATOM     12  H   UNL A   1      32.767  26.444  21.932  1.00  0.00     0.162 HD
BRANCH  11  13
ATOM     13  C   UNL A   1      31.183  27.019  23.050  1.00  0.00     0.136 A 
ATOM     14  C   UNL A   1      29.301  28.397  22.784  1.00  0.00     0.221 A 
ATOM     15  N   UNL A   1      28.508  27.549  23.451  1.00  0.00    -0.201 NA
ATOM     16  C   UNL A   1      30.657  28.213  22.573  1.00  0.00     0.054 A 
ATOM     17  C   UNL A   1      29.134  26.467  23.917  1.00  0.00     0.228 A 
ATOM     18  C   UNL A   1      31.493  29.218  21.846  1.00  0.00     0.054 C 
ATOM     19  N   UNL A   1      30.425  26.147  23.731  1.00  0.00    -0.219 NA
BRANCH  14  20
ATOM     20  O   UNL A   1      28.721  29.578  22.385  1.00  0.00    -0.478 OA
BRANCH  20  21
ATOM     21  C   UNL A   1      28.071  30.227  23.478  1.00  0.00     0.228 C 
ATOM     22  C   UNL A   1      28.822  31.510  23.799  1.00  0.00     0.049 C 
ENDBRANCH  20  21
ENDBRANCH  14  20
ENDBRANCH  11  13
ENDBRANCH   7  11
ENDBRANCH   3   6
ENDBRANCH   1   2
BRANCH   1  23
ATOM     23  C   UNL A   1      31.585  30.793  26.199  1.00  0.00     0.023 C 
BRANCH  23  24
ATOM     24  C   UNL A   1      31.406  32.233  26.675  1.00  0.00     0.023 C 
BRANCH  24  25
ATOM     25  C   UNL A   1      32.647  32.879  27.279  1.00  0.00     0.116 C 
BRANCH  25  26
ATOM     26  N   UNL A   1      32.426  34.259  27.692  1.00  0.00    -0.352 N 
ATOM     27  C   UNL A   1      33.030  34.990  28.686  1.00  0.00     0.251 C 
ATOM     28  H   UNL A   1      31.738  34.741  27.179  1.00  0.00     0.163 HD
ATOM     29  O   UNL A   1      32.601  36.101  28.985  1.00  0.00    -0.269 OA
BRANCH  27  30
ATOM     30  C   UNL A   1      34.179  34.424  29.423  1.00  0.00     0.039 A 
ATOM     31  C   UNL A   1      33.950  33.746  30.623  1.00  0.00     0.014 A 
ATOM     32  C   UNL A   1      35.476  34.543  28.919  1.00  0.00     0.014 A 
ATOM     33  C   UNL A   1      35.011  33.108  31.270  1.00  0.00     0.010 A 
ATOM     34  C   UNL A   1      36.514  33.836  29.515  1.00  0.00     0.010 A 
ATOM     35  C   UNL A   1      36.292  33.107  30.694  1.00  0.00    -0.014 A 
BRANCH  35  36
ATOM     36  C   UNL A   1      37.415  32.345  31.299  1.00  0.00     0.031 A 
ATOM     37  C   UNL A   1      37.930  32.715  32.660  1.00  0.00     0.074 A 
ATOM     38  C   UNL A   1      38.028  31.382  30.585  1.00  0.00     0.049 A 
ATOM     39  N   UNL A   1      38.963  32.245  33.313  1.00  0.00    -0.248 NA
ATOM     40  C   UNL A   1      37.209  33.786  33.367  1.00  0.00     0.031 C 
ATOM     41  C   UNL A   1      37.664  30.972  29.228  1.00  0.00     0.029 A 
ATOM     42  N   UNL A   1      39.104  30.586  30.894  1.00  0.00    -0.354 N 
ATOM     43  C   UNL A   1      39.023  32.970  34.496  1.00  0.00     0.074 A 
ATOM     44  C   UNL A   1      37.964  33.956  34.441  1.00  0.00     0.031 C 
ATOM     45  C   UNL A   1      38.493  29.996  28.825  1.00  0.00     0.029 A 
ATOM     46  C   UNL A   1      39.468  29.734  29.880  1.00  0.00     0.049 A 
ATOM     47  H   UNL A   1      39.570  30.623  31.760  1.00  0.00     0.167 HD
ATOM     48  C   UNL A   1      39.867  32.813  35.543  1.00  0.00     0.037 A 
ATOM     49  C   UNL A   1      40.480  28.850  29.805  1.00  0.00     0.037 A 
ATOM     50  C   UNL A   1      40.906  31.820  35.601  1.00  0.00     0.049 A 
ATOM     51  C   UNL A   1      41.399  28.683  30.983  1.00  0.00     0.074 A 
ATOM     52  C   UNL A   1      41.778  31.541  36.639  1.00  0.00     0.029 A 
ATOM     53  N   UNL A   1      41.217  30.944  34.571  1.00  0.00    -0.354 N 
ATOM     54  N   UNL A   1      41.403  29.325  32.126  1.00  0.00    -0.248 NA
ATOM     55  C   UNL A   1      42.448  27.660  30.866  1.00  0.00     0.031 C 
ATOM     56  C   UNL A   1      42.643  30.522  36.221  1.00  0.00     0.029 A 
ATOM     57  C   UNL A   1      42.278  30.133  34.942  1.00  0.00     0.049 A 
ATOM     58  H   UNL A   1      40.751  30.903  33.704  1.00  0.00     0.167 HD
ATOM     59  C   UNL A   1      42.434  28.772  32.872  1.00  0.00     0.074 A 
ATOM     60  C   UNL A   1      43.025  27.729  32.058  1.00  0.00     0.031 C 
ATOM     61  C   UNL A   1      42.853  29.098  34.120  1.00  0.00     0.037 A 
BRANCH  48  62
ATOM     62  C   UNL A   1      39.689  33.739  36.712  1.00  0.00     0.064 A 
ATOM     63  C   UNL A   1      38.886  33.388  37.811  1.00  0.00     0.173 A 
ATOM     64  C   UNL A   1      40.329  34.986  36.742  1.00  0.00     0.173 A 
ATOM     65  F   UNL A   1      38.243  32.211  37.829  1.00  0.00    -0.203 F 
ATOM     66  C   UNL A   1      38.697  34.270  38.872  1.00  0.00     0.198 A 
ATOM     67  C   UNL A   1      40.164  35.852  37.820  1.00  0.00     0.198 A 
ATOM     68  F   UNL A   1      41.112  35.370  35.723  1.00  0.00    -0.203 F 
ATOM     69  F   UNL A   1      37.874  33.939  39.876  1.00  0.00    -0.200 F 
ATOM     70  C   UNL A   1      39.339  35.498  38.878  1.00  0.00     0.200 A 
ATOM     71  F   UNL A   1      40.795  37.034  37.832  1.00  0.00    -0.200 F 
ATOM     72  F   UNL A   1      39.155  36.347  39.899  1.00  0.00    -0.200 F 
ENDBRANCH  48  62
BRANCH  49  73
ATOM     73  C   UNL A   1      40.657  28.039  28.572  1.00  0.00     0.064 A 
ATOM     74  C   UNL A   1      40.035  26.791  28.436  1.00  0.00     0.173 A 
ATOM     75  C   UNL A   1      41.434  28.503  27.500  1.00  0.00     0.173 A 
ATOM     76  F   UNL A   1      39.298  26.297  29.441  1.00  0.00    -0.203 F 
ATOM     77  C   UNL A   1      40.193  26.031  27.278  1.00  0.00     0.198 A 
ATOM     78  C   UNL A   1      41.570  27.754  26.333  1.00  0.00     0.198 A 
ATOM     79  F   UNL A   1      42.044  29.694  27.579  1.00  0.00    -0.203 F 
ATOM     80  F   UNL A   1      39.617  24.824  27.189  1.00  0.00    -0.200 F 
ATOM     81  C   UNL A   1      40.954  26.515  26.226  1.00  0.00     0.200 A 
ATOM     82  F   UNL A   1      42.293  28.233  25.312  1.00  0.00    -0.200 F 
ATOM     83  F   UNL A   1      41.098  25.788  25.109  1.00  0.00    -0.200 F 
ENDBRANCH  49  73
BRANCH  61  84
ATOM     84  C   UNL A   1      43.988  28.301  34.695  1.00  0.00     0.064 A 
ATOM     85  C   UNL A   1      45.320  28.721  34.572  1.00  0.00     0.173 A 
ATOM     86  C   UNL A   1      43.734  27.125  35.416  1.00  0.00     0.173 A 
ATOM     87  F   UNL A   1      45.616  29.831  33.878  1.00  0.00    -0.203 F 
ATOM     88  C   UNL A   1      46.358  27.981  35.130  1.00  0.00     0.198 A 
ATOM     89  C   UNL A   1      44.772  26.403  35.998  1.00  0.00     0.198 A 
ATOM     90  F   UNL A   1      42.477  26.682  35.567  1.00  0.00    -0.203 F 
ATOM     91  F   UNL A   1      47.627  28.378  34.963  1.00  0.00    -0.200 F 
ATOM     92  C   UNL A   1      46.082  26.828  35.850  1.00  0.00     0.200 A 
ATOM     93  F   UNL A   1      44.502  25.295  36.704  1.00  0.00    -0.200 F 
ATOM     94  F   UNL A   1      47.083  26.121  36.394  1.00  0.00    -0.200 F 
ENDBRANCH  61  84
ENDBRANCH  35  36
ENDBRANCH  27  30
ENDBRANCH  25  26
ENDBRANCH  24  25
ENDBRANCH  23  24
ENDBRANCH   1  23
TORSDOF 15
ENDMDL
