MODEL 1
REMARK VINA RESULT:     -11.9      0.000      0.000
REMARK SMILES C[C@H](COc1ccccc1C(=O)NCCCCNC(=O)c1ccc(-c2c3nc(c(-c4c(F)c(F)c(F)c(F)c4F)c4ccc([nH]4)c(-c4c(F)c(F)c(F)c(F)c4F)c4nc(c(-c5c(F)c(F)c(F)c(F)c5F)c5ccc2[nH]5)C=C4)C=C3)cc1)C(N)=O
REMARK SMILES IDX 14 1 13 2 11 3 12 4 10 6 5 7 6 8 7 9 9 10 8 11 4 12 3 13
REMARK SMILES IDX 2 14 1 15 84 16 85 17 86 18 15 21 16 22 17 23 18 24 19 25
REMARK SMILES IDX 20 27 21 28 22 29 83 30 23 31 82 32 24 33 25 34 26 35 76 36
REMARK SMILES IDX 27 37 81 38 75 39 77 40 28 41 80 42 74 43 73 44 29 46 61 47
REMARK SMILES IDX 41 48 60 49 42 50 45 51 59 52 78 53 43 54 44 55 58 57 79 58
REMARK SMILES IDX 46 59 30 60 31 61 39 62 32 63 33 64 37 65 40 66 34 67 35 68
REMARK SMILES IDX 38 69 36 70 62 71 63 72 71 73 64 74 65 75 69 76 72 77 66 78
REMARK SMILES IDX 67 79 70 80 68 81 47 82 48 83 56 84 49 85 50 86 54 87 57 88
REMARK SMILES IDX 51 89 52 90 55 91 53 92
REMARK H PARENT 13 5 85 19 85 20 18 26 77 45 45 56
REMARK Flexibility Score: inf
ROOT
ATOM      1  C   UNL A   1      36.743  23.018  25.540  1.00  0.00     0.116 C 
ENDROOT
BRANCH   1   2
ATOM      2  N   UNL A   1      35.717  22.564  26.472  1.00  0.00    -0.352 N 
ATOM      3  C   UNL A   1      34.603  21.745  26.433  1.00  0.00     0.255 C 
ATOM      4  O   UNL A   1      34.233  21.431  27.575  1.00  0.00    -0.269 OA
ATOM      5  H   UNL A   1      35.854  22.942  27.371  1.00  0.00     0.163 HD
BRANCH   3   6
ATOM      6  C   UNL A   1      33.824  21.162  25.256  1.00  0.00     0.081 A 
ATOM      7  C   UNL A   1      33.554  19.848  24.826  1.00  0.00     0.132 A 
ATOM      8  C   UNL A   1      32.693  19.608  23.722  1.00  0.00     0.047 A 
ATOM      9  C   UNL A   1      32.245  20.631  22.904  1.00  0.00     0.004 A 
ATOM     10  C   UNL A   1      33.368  22.176  24.367  1.00  0.00     0.018 A 
ATOM     11  C   UNL A   1      32.627  21.922  23.201  1.00  0.00     0.001 A 
BRANCH   7  12
ATOM     12  O   UNL A   1      34.078  18.641  25.194  1.00  0.00    -0.492 OA
BRANCH  12  13
ATOM     13  C   UNL A   1      34.143  17.633  24.216  1.00  0.00     0.242 C 
BRANCH  13  14
ATOM     14  C   UNL A   1      34.455  16.174  24.535  1.00  0.00     0.113 C 
ATOM     15  C   UNL A   1      35.642  15.968  25.448  1.00  0.00     0.022 C 
BRANCH  14  16
ATOM     16  C   UNL A   1      33.205  15.491  25.084  1.00  0.00     0.223 C 
ATOM     17  N   UNL A   1      32.097  16.284  25.206  1.00  0.00    -0.369 N 
ATOM     18  O   UNL A   1      33.161  14.317  25.432  1.00  0.00    -0.275 OA
ATOM     19  H   UNL A   1      32.133  17.227  24.927  1.00  0.00     0.159 HD
ATOM     20  H   UNL A   1      31.263  15.911  25.575  1.00  0.00     0.159 HD
ENDBRANCH  14  16
ENDBRANCH  13  14
ENDBRANCH  12  13
ENDBRANCH   7  12
ENDBRANCH   3   6
ENDBRANCH   1   2
BRANCH   1  21
ATOM     21  C   UNL A   1      37.348  21.916  24.633  1.00  0.00     0.023 C 
BRANCH  21  22
ATOM     22  C   UNL A   1      37.883  20.642  25.253  1.00  0.00     0.023 C 
BRANCH  22  23
ATOM     23  C   UNL A   1      39.237  20.761  25.894  1.00  0.00     0.116 C 
BRANCH  23  24
ATOM     24  N   UNL A   1      40.039  19.543  25.868  1.00  0.00    -0.352 N 
ATOM     25  C   UNL A   1      41.392  19.434  26.104  1.00  0.00     0.251 C 
ATOM     26  H   UNL A   1      39.562  18.707  25.657  1.00  0.00     0.163 HD
ATOM     27  O   UNL A   1      41.973  18.358  26.045  1.00  0.00    -0.269 OA
BRANCH  25  28
ATOM     28  C   UNL A   1      42.127  20.686  26.358  1.00  0.00     0.039 A 
ATOM     29  C   UNL A   1      42.430  21.517  25.279  1.00  0.00     0.014 A 
ATOM     30  C   UNL A   1      42.277  21.122  27.674  1.00  0.00     0.014 A 
ATOM     31  C   UNL A   1      42.794  22.839  25.527  1.00  0.00     0.010 A 
ATOM     32  C   UNL A   1      42.499  22.468  27.909  1.00  0.00     0.010 A 
ATOM     33  C   UNL A   1      42.775  23.337  26.840  1.00  0.00    -0.014 A 
BRANCH  33  34
ATOM     34  C   UNL A   1      43.100  24.749  27.149  1.00  0.00     0.031 A 
ATOM     35  C   UNL A   1      44.496  25.239  26.879  1.00  0.00     0.074 A 
ATOM     36  C   UNL A   1      42.196  25.550  27.744  1.00  0.00     0.049 A 
ATOM     37  N   UNL A   1      45.057  26.373  27.208  1.00  0.00    -0.248 NA
ATOM     38  C   UNL A   1      45.404  24.298  26.201  1.00  0.00     0.031 C 
ATOM     39  C   UNL A   1      40.832  25.169  28.118  1.00  0.00     0.029 A 
ATOM     40  N   UNL A   1      42.296  26.856  28.153  1.00  0.00    -0.354 N 
ATOM     41  C   UNL A   1      46.385  26.256  26.821  1.00  0.00     0.074 A 
ATOM     42  C   UNL A   1      46.566  24.919  26.304  1.00  0.00     0.031 C 
ATOM     43  C   UNL A   1      40.212  26.228  28.667  1.00  0.00     0.029 A 
ATOM     44  C   UNL A   1      41.145  27.350  28.719  1.00  0.00     0.049 A 
ATOM     45  H   UNL A   1      43.117  27.390  28.051  1.00  0.00     0.167 HD
ATOM     46  C   UNL A   1      47.359  27.193  26.853  1.00  0.00     0.037 A 
ATOM     47  C   UNL A   1      40.881  28.573  29.217  1.00  0.00     0.037 A 
ATOM     48  C   UNL A   1      47.148  28.544  27.289  1.00  0.00     0.049 A 
ATOM     49  C   UNL A   1      41.963  29.619  29.186  1.00  0.00     0.074 A 
ATOM     50  C   UNL A   1      48.037  29.603  27.281  1.00  0.00     0.029 A 
ATOM     51  N   UNL A   1      45.949  29.024  27.795  1.00  0.00    -0.354 N 
ATOM     52  N   UNL A   1      43.198  29.520  28.757  1.00  0.00    -0.248 NA
ATOM     53  C   UNL A   1      41.614  30.951  29.702  1.00  0.00     0.031 C 
ATOM     54  C   UNL A   1      47.381  30.721  27.806  1.00  0.00     0.029 A 
ATOM     55  C   UNL A   1      46.076  30.366  28.107  1.00  0.00     0.049 A 
ATOM     56  H   UNL A   1      45.131  28.491  27.913  1.00  0.00     0.167 HD
ATOM     57  C   UNL A   1      43.763  30.776  28.923  1.00  0.00     0.074 A 
ATOM     58  C   UNL A   1      42.734  31.626  29.483  1.00  0.00     0.031 C 
ATOM     59  C   UNL A   1      45.023  31.190  28.641  1.00  0.00     0.037 A 
BRANCH  46  60
ATOM     60  C   UNL A   1      48.721  26.786  26.376  1.00  0.00     0.064 A 
ATOM     61  C   UNL A   1      49.668  26.224  27.246  1.00  0.00     0.173 A 
ATOM     62  C   UNL A   1      49.087  26.966  25.034  1.00  0.00     0.173 A 
ATOM     63  F   UNL A   1      49.375  26.052  28.544  1.00  0.00    -0.203 F 
ATOM     64  C   UNL A   1      50.945  25.895  26.799  1.00  0.00     0.198 A 
ATOM     65  C   UNL A   1      50.354  26.604  24.583  1.00  0.00     0.198 A 
ATOM     66  F   UNL A   1      48.219  27.498  24.161  1.00  0.00    -0.203 F 
ATOM     67  F   UNL A   1      51.853  25.424  27.665  1.00  0.00    -0.200 F 
ATOM     68  C   UNL A   1      51.285  26.079  25.468  1.00  0.00     0.200 A 
ATOM     69  F   UNL A   1      50.679  26.773  23.295  1.00  0.00    -0.200 F 
ATOM     70  F   UNL A   1      52.514  25.762  25.040  1.00  0.00    -0.200 F 
ENDBRANCH  46  60
BRANCH  47  71
ATOM     71  C   UNL A   1      39.527  28.891  29.743  1.00  0.00     0.064 A 
ATOM     72  C   UNL A   1      39.207  28.649  31.087  1.00  0.00     0.173 A 
ATOM     73  C   UNL A   1      38.528  29.433  28.922  1.00  0.00     0.173 A 
ATOM     74  F   UNL A   1      40.123  28.114  31.906  1.00  0.00    -0.203 F 
ATOM     75  C   UNL A   1      37.932  28.916  31.584  1.00  0.00     0.198 A 
ATOM     76  C   UNL A   1      37.261  29.722  29.426  1.00  0.00     0.198 A 
ATOM     77  F   UNL A   1      38.785  29.690  27.632  1.00  0.00    -0.203 F 
ATOM     78  F   UNL A   1      37.642  28.635  32.861  1.00  0.00    -0.200 F 
ATOM     79  C   UNL A   1      36.961  29.457  30.755  1.00  0.00     0.200 A 
ATOM     80  F   UNL A   1      36.329  30.257  28.626  1.00  0.00    -0.200 F 
ATOM     81  F   UNL A   1      35.737  29.715  31.233  1.00  0.00    -0.200 F 
ENDBRANCH  47  71
BRANCH  59  82
ATOM     82  C   UNL A   1      45.347  32.632  28.894  1.00  0.00     0.064 A 
ATOM     83  C   UNL A   1      45.935  33.049  30.095  1.00  0.00     0.173 A 
ATOM     84  C   UNL A   1      45.131  33.589  27.892  1.00  0.00     0.173 A 
ATOM     85  F   UNL A   1      46.147  32.170  31.085  1.00  0.00    -0.203 F 
ATOM     86  C   UNL A   1      46.284  34.382  30.290  1.00  0.00     0.198 A 
ATOM     87  C   UNL A   1      45.506  34.916  28.081  1.00  0.00     0.198 A 
ATOM     88  F   UNL A   1      44.578  33.234  26.723  1.00  0.00    -0.203 F 
ATOM     89  F   UNL A   1      46.817  34.769  31.458  1.00  0.00    -0.200 F 
ATOM     90  C   UNL A   1      46.079  35.311  29.280  1.00  0.00     0.200 A 
ATOM     91  F   UNL A   1      45.319  35.810  27.101  1.00  0.00    -0.200 F 
ATOM     92  F   UNL A   1      46.430  36.591  29.465  1.00  0.00    -0.200 F 
ENDBRANCH  59  82
ENDBRANCH  33  34
ENDBRANCH  25  28
ENDBRANCH  23  24
ENDBRANCH  22  23
ENDBRANCH  21  22
ENDBRANCH   1  21
TORSDOF 15
ENDMDL
MODEL 2
REMARK VINA RESULT:     -11.9      0.884      7.587
REMARK SMILES C[C@H](COc1ccccc1C(=O)NCCCCNC(=O)c1ccc(-c2c3nc(c(-c4c(F)c(F)c(F)c(F)c4F)c4ccc([nH]4)c(-c4c(F)c(F)c(F)c(F)c4F)c4nc(c(-c5c(F)c(F)c(F)c(F)c5F)c5ccc2[nH]5)C=C4)C=C3)cc1)C(N)=O
REMARK SMILES IDX 14 1 13 2 11 3 12 4 10 6 5 7 6 8 7 9 9 10 8 11 4 12 3 13
REMARK SMILES IDX 2 14 1 15 84 16 85 17 86 18 15 21 16 22 17 23 18 24 19 25
REMARK SMILES IDX 20 27 21 28 22 29 83 30 23 31 82 32 24 33 25 34 26 35 76 36
REMARK SMILES IDX 27 37 81 38 75 39 77 40 28 41 80 42 74 43 73 44 29 46 61 47
REMARK SMILES IDX 41 48 60 49 42 50 45 51 59 52 78 53 43 54 44 55 58 57 79 58
REMARK SMILES IDX 46 59 30 60 31 61 39 62 32 63 33 64 37 65 40 66 34 67 35 68
REMARK SMILES IDX 38 69 36 70 62 71 63 72 71 73 64 74 65 75 69 76 72 77 66 78
REMARK SMILES IDX 67 79 70 80 68 81 47 82 48 83 56 84 49 85 50 86 54 87 57 88
REMARK SMILES IDX 51 89 52 90 55 91 53 92
REMARK H PARENT 13 5 85 19 85 20 18 26 77 45 45 56
REMARK Flexibility Score: inf
ROOT
ATOM      1  C   UNL A   1      36.797  23.181  25.416  1.00  0.00     0.116 C 
ENDROOT
BRANCH   1   2
ATOM      2  N   UNL A   1      35.789  22.726  26.366  1.00  0.00    -0.352 N 
ATOM      3  C   UNL A   1      34.640  21.955  26.334  1.00  0.00     0.255 C 
ATOM      4  O   UNL A   1      34.301  21.603  27.475  1.00  0.00    -0.269 OA
ATOM      5  H   UNL A   1      35.975  23.056  27.275  1.00  0.00     0.163 HD
BRANCH   3   6
ATOM      6  C   UNL A   1      33.793  21.460  25.164  1.00  0.00     0.081 A 
ATOM      7  C   UNL A   1      33.365  20.184  24.746  1.00  0.00     0.132 A 
ATOM      8  C   UNL A   1      32.479  20.040  23.646  1.00  0.00     0.047 A 
ATOM      9  C   UNL A   1      32.156  21.102  22.819  1.00  0.00     0.004 A 
ATOM     10  C   UNL A   1      33.460  22.514  24.266  1.00  0.00     0.018 A 
ATOM     11  C   UNL A   1      32.692  22.340  23.104  1.00  0.00     0.001 A 
BRANCH   7  12
ATOM     12  O   UNL A   1      33.742  18.926  25.125  1.00  0.00    -0.492 OA
BRANCH  12  13
ATOM     13  C   UNL A   1      32.871  17.866  24.817  1.00  0.00     0.242 C 
BRANCH  13  14
ATOM     14  C   UNL A   1      33.322  16.587  24.118  1.00  0.00     0.113 C 
ATOM     15  C   UNL A   1      34.130  16.807  22.861  1.00  0.00     0.022 C 
BRANCH  14  16
ATOM     16  C   UNL A   1      34.067  15.696  25.110  1.00  0.00     0.223 C 
ATOM     17  N   UNL A   1      35.255  16.188  25.578  1.00  0.00    -0.369 N 
ATOM     18  O   UNL A   1      33.675  14.593  25.470  1.00  0.00    -0.275 OA
ATOM     19  H   UNL A   1      35.569  17.074  25.288  1.00  0.00     0.159 HD
ATOM     20  H   UNL A   1      35.796  15.653  26.203  1.00  0.00     0.159 HD
ENDBRANCH  14  16
ENDBRANCH  13  14
ENDBRANCH  12  13
ENDBRANCH   7  12
ENDBRANCH   3   6
ENDBRANCH   1   2
BRANCH   1  21
ATOM     21  C   UNL A   1      38.252  22.759  25.742  1.00  0.00     0.023 C 
BRANCH  21  22
ATOM     22  C   UNL A   1      38.683  21.322  25.533  1.00  0.00     0.023 C 
BRANCH  22  23
ATOM     23  C   UNL A   1      39.632  20.781  26.567  1.00  0.00     0.116 C 
BRANCH  23  24
ATOM     24  N   UNL A   1      40.324  19.556  26.185  1.00  0.00    -0.352 N 
ATOM     25  C   UNL A   1      41.686  19.362  26.106  1.00  0.00     0.251 C 
ATOM     26  H   UNL A   1      39.757  18.783  25.959  1.00  0.00     0.163 HD
ATOM     27  O   UNL A   1      42.166  18.289  25.763  1.00  0.00    -0.269 OA
BRANCH  25  28
ATOM     28  C   UNL A   1      42.542  20.528  26.383  1.00  0.00     0.039 A 
ATOM     29  C   UNL A   1      43.017  21.282  25.309  1.00  0.00     0.014 A 
ATOM     30  C   UNL A   1      42.649  20.989  27.695  1.00  0.00     0.014 A 
ATOM     31  C   UNL A   1      43.516  22.561  25.550  1.00  0.00     0.010 A 
ATOM     32  C   UNL A   1      43.010  22.307  27.912  1.00  0.00     0.010 A 
ATOM     33  C   UNL A   1      43.462  23.102  26.845  1.00  0.00    -0.014 A 
BRANCH  33  34
ATOM     34  C   UNL A   1      43.928  24.477  27.142  1.00  0.00     0.031 A 
ATOM     35  C   UNL A   1      42.929  25.477  27.658  1.00  0.00     0.074 A 
ATOM     36  C   UNL A   1      45.192  24.850  26.868  1.00  0.00     0.049 A 
ATOM     37  N   UNL A   1      43.060  26.765  27.838  1.00  0.00    -0.248 NA
ATOM     38  C   UNL A   1      41.579  24.966  27.952  1.00  0.00     0.031 C 
ATOM     39  C   UNL A   1      46.234  23.990  26.302  1.00  0.00     0.029 A 
ATOM     40  N   UNL A   1      45.815  26.064  27.019  1.00  0.00    -0.354 N 
ATOM     41  C   UNL A   1      41.803  27.215  28.216  1.00  0.00     0.074 A 
ATOM     42  C   UNL A   1      40.907  26.084  28.166  1.00  0.00     0.031 C 
ATOM     43  C   UNL A   1      47.374  24.692  26.189  1.00  0.00     0.029 A 
ATOM     44  C   UNL A   1      47.135  26.061  26.638  1.00  0.00     0.049 A 
ATOM     45  H   UNL A   1      45.358  26.862  27.369  1.00  0.00     0.167 HD
ATOM     46  C   UNL A   1      41.435  28.455  28.612  1.00  0.00     0.037 A 
ATOM     47  C   UNL A   1      48.043  27.055  26.655  1.00  0.00     0.037 A 
ATOM     48  C   UNL A   1      42.350  29.553  28.740  1.00  0.00     0.049 A 
ATOM     49  C   UNL A   1      47.626  28.412  27.158  1.00  0.00     0.074 A 
ATOM     50  C   UNL A   1      42.108  30.828  29.215  1.00  0.00     0.029 A 
ATOM     51  N   UNL A   1      43.695  29.493  28.405  1.00  0.00    -0.354 N 
ATOM     52  N   UNL A   1      46.450  28.813  27.576  1.00  0.00    -0.248 NA
ATOM     53  C   UNL A   1      48.663  29.453  27.197  1.00  0.00     0.031 C 
ATOM     54  C   UNL A   1      43.304  31.549  29.146  1.00  0.00     0.029 A 
ATOM     55  C   UNL A   1      44.297  30.712  28.660  1.00  0.00     0.049 A 
ATOM     56  H   UNL A   1      44.153  28.701  28.041  1.00  0.00     0.167 HD
ATOM     57  C   UNL A   1      46.610  30.138  27.955  1.00  0.00     0.074 A 
ATOM     58  C   UNL A   1      48.001  30.472  27.726  1.00  0.00     0.031 C 
ATOM     59  C   UNL A   1      45.690  31.004  28.444  1.00  0.00     0.037 A 
BRANCH  46  60
ATOM     60  C   UNL A   1      39.991  28.666  28.958  1.00  0.00     0.064 A 
ATOM     61  C   UNL A   1      39.066  29.127  28.008  1.00  0.00     0.173 A 
ATOM     62  C   UNL A   1      39.527  28.411  30.256  1.00  0.00     0.173 A 
ATOM     63  F   UNL A   1      39.465  29.408  26.758  1.00  0.00    -0.203 F 
ATOM     64  C   UNL A   1      37.740  29.364  28.357  1.00  0.00     0.198 A 
ATOM     65  C   UNL A   1      38.192  28.616  30.593  1.00  0.00     0.198 A 
ATOM     66  F   UNL A   1      40.370  27.968  31.202  1.00  0.00    -0.203 F 
ATOM     67  F   UNL A   1      36.892  29.870  27.450  1.00  0.00    -0.200 F 
ATOM     68  C   UNL A   1      37.302  29.102  29.646  1.00  0.00     0.200 A 
ATOM     69  F   UNL A   1      37.767  28.355  31.836  1.00  0.00    -0.200 F 
ATOM     70  F   UNL A   1      36.025  29.332  29.980  1.00  0.00    -0.200 F 
ENDBRANCH  46  60
BRANCH  47  71
ATOM     71  C   UNL A   1      49.444  26.797  26.229  1.00  0.00     0.064 A 
ATOM     72  C   UNL A   1      50.400  26.345  27.149  1.00  0.00     0.173 A 
ATOM     73  C   UNL A   1      49.860  27.001  24.905  1.00  0.00     0.173 A 
ATOM     74  F   UNL A   1      50.055  26.153  28.431  1.00  0.00    -0.203 F 
ATOM     75  C   UNL A   1      51.724  26.128  26.768  1.00  0.00     0.198 A 
ATOM     76  C   UNL A   1      51.177  26.761  24.519  1.00  0.00     0.198 A 
ATOM     77  F   UNL A   1      48.983  27.426  23.984  1.00  0.00    -0.203 F 
ATOM     78  F   UNL A   1      52.625  25.737  27.679  1.00  0.00    -0.200 F 
ATOM     79  C   UNL A   1      52.110  26.332  25.453  1.00  0.00     0.200 A 
ATOM     80  F   UNL A   1      51.545  26.946  23.244  1.00  0.00    -0.200 F 
ATOM     81  F   UNL A   1      53.382  26.122  25.085  1.00  0.00    -0.200 F 
ENDBRANCH  47  71
BRANCH  59  82
ATOM     82  C   UNL A   1      46.162  32.381  28.805  1.00  0.00     0.064 A 
ATOM     83  C   UNL A   1      46.126  33.432  27.879  1.00  0.00     0.173 A 
ATOM     84  C   UNL A   1      46.585  32.662  30.112  1.00  0.00     0.173 A 
ATOM     85  F   UNL A   1      45.740  33.205  26.614  1.00  0.00    -0.203 F 
ATOM     86  C   UNL A   1      46.512  34.717  28.247  1.00  0.00     0.198 A 
ATOM     87  C   UNL A   1      46.945  33.954  30.483  1.00  0.00     0.198 A 
ATOM     88  F   UNL A   1      46.628  31.688  31.033  1.00  0.00    -0.203 F 
ATOM     89  F   UNL A   1      46.500  35.704  27.339  1.00  0.00    -0.200 F 
ATOM     90  C   UNL A   1      46.911  34.979  29.549  1.00  0.00     0.200 A 
ATOM     91  F   UNL A   1      47.318  34.208  31.744  1.00  0.00    -0.200 F 
ATOM     92  F   UNL A   1      47.267  36.221  29.905  1.00  0.00    -0.200 F 
ENDBRANCH  59  82
ENDBRANCH  33  34
ENDBRANCH  25  28
ENDBRANCH  23  24
ENDBRANCH  22  23
ENDBRANCH  21  22
ENDBRANCH   1  21
TORSDOF 15
ENDMDL
MODEL 3
REMARK VINA RESULT:     -11.8      6.756     12.000
REMARK SMILES C[C@H](COc1ccccc1C(=O)NCCCCNC(=O)c1ccc(-c2c3nc(c(-c4c(F)c(F)c(F)c(F)c4F)c4ccc([nH]4)c(-c4c(F)c(F)c(F)c(F)c4F)c4nc(c(-c5c(F)c(F)c(F)c(F)c5F)c5ccc2[nH]5)C=C4)C=C3)cc1)C(N)=O
REMARK SMILES IDX 14 1 13 2 11 3 12 4 10 6 5 7 6 8 7 9 9 10 8 11 4 12 3 13
REMARK SMILES IDX 2 14 1 15 84 16 85 17 86 18 15 21 16 22 17 23 18 24 19 25
REMARK SMILES IDX 20 27 21 28 22 29 83 30 23 31 82 32 24 33 25 34 26 35 76 36
REMARK SMILES IDX 27 37 81 38 75 39 77 40 28 41 80 42 74 43 73 44 29 46 61 47
REMARK SMILES IDX 41 48 60 49 42 50 45 51 59 52 78 53 43 54 44 55 58 57 79 58
REMARK SMILES IDX 46 59 30 60 31 61 39 62 32 63 33 64 37 65 40 66 34 67 35 68
REMARK SMILES IDX 38 69 36 70 62 71 63 72 71 73 64 74 65 75 69 76 72 77 66 78
REMARK SMILES IDX 67 79 70 80 68 81 47 82 48 83 56 84 49 85 50 86 54 87 57 88
REMARK SMILES IDX 51 89 52 90 55 91 53 92
REMARK H PARENT 13 5 85 19 85 20 18 26 77 45 45 56
REMARK Flexibility Score: inf
ROOT
ATOM      1  C   UNL A   1      33.484  29.708  26.623  1.00  0.00     0.116 C 
ENDROOT
BRANCH   1   2
ATOM      2  N   UNL A   1      33.758  29.457  25.213  1.00  0.00    -0.352 N 
ATOM      3  C   UNL A   1      33.036  29.104  24.086  1.00  0.00     0.255 C 
ATOM      4  O   UNL A   1      33.683  29.317  23.049  1.00  0.00    -0.269 OA
ATOM      5  H   UNL A   1      34.714  29.568  25.006  1.00  0.00     0.163 HD
BRANCH   3   6
ATOM      6  C   UNL A   1      31.617  28.561  23.930  1.00  0.00     0.081 A 
ATOM      7  C   UNL A   1      30.351  29.168  23.817  1.00  0.00     0.132 A 
ATOM      8  C   UNL A   1      29.190  28.387  23.577  1.00  0.00     0.047 A 
ATOM      9  C   UNL A   1      29.208  27.003  23.641  1.00  0.00     0.004 A 
ATOM     10  C   UNL A   1      31.580  27.140  24.021  1.00  0.00     0.018 A 
ATOM     11  C   UNL A   1      30.406  26.377  23.915  1.00  0.00     0.001 A 
BRANCH   7  12
ATOM     12  O   UNL A   1      29.934  30.453  24.023  1.00  0.00    -0.492 OA
BRANCH  12  13
ATOM     13  C   UNL A   1      28.784  30.882  23.337  1.00  0.00     0.242 C 
BRANCH  13  14
ATOM     14  C   UNL A   1      28.786  31.283  21.865  1.00  0.00     0.113 C 
ATOM     15  C   UNL A   1      28.060  30.324  20.950  1.00  0.00     0.022 C 
BRANCH  14  16
ATOM     16  C   UNL A   1      28.250  32.705  21.720  1.00  0.00     0.223 C 
ATOM     17  N   UNL A   1      27.621  32.988  20.538  1.00  0.00    -0.369 N 
ATOM     18  O   UNL A   1      28.378  33.577  22.571  1.00  0.00    -0.275 OA
ATOM     19  H   UNL A   1      27.518  32.287  19.855  1.00  0.00     0.159 HD
ATOM     20  H   UNL A   1      27.271  33.893  20.371  1.00  0.00     0.159 HD
ENDBRANCH  14  16
ENDBRANCH  13  14
ENDBRANCH  12  13
ENDBRANCH   7  12
ENDBRANCH   3   6
ENDBRANCH   1   2
BRANCH   1  21
ATOM     21  C   UNL A   1      32.111  30.363  26.924  1.00  0.00     0.023 C 
BRANCH  21  22
ATOM     22  C   UNL A   1      31.933  31.855  26.739  1.00  0.00     0.023 C 
BRANCH  22  23
ATOM     23  C   UNL A   1      32.885  32.716  27.521  1.00  0.00     0.116 C 
BRANCH  23  24
ATOM     24  N   UNL A   1      32.456  34.098  27.705  1.00  0.00    -0.352 N 
ATOM     25  C   UNL A   1      33.016  35.036  28.544  1.00  0.00     0.251 C 
ATOM     26  H   UNL A   1      31.681  34.392  27.173  1.00  0.00     0.163 HD
ATOM     27  O   UNL A   1      32.568  36.172  28.631  1.00  0.00    -0.269 OA
BRANCH  25  28
ATOM     28  C   UNL A   1      34.137  34.590  29.390  1.00  0.00     0.039 A 
ATOM     29  C   UNL A   1      33.860  33.805  30.510  1.00  0.00     0.014 A 
ATOM     30  C   UNL A   1      35.440  34.748  28.920  1.00  0.00     0.014 A 
ATOM     31  C   UNL A   1      34.897  33.089  31.106  1.00  0.00     0.010 A 
ATOM     32  C   UNL A   1      36.434  33.928  29.424  1.00  0.00     0.010 A 
ATOM     33  C   UNL A   1      36.178  33.102  30.531  1.00  0.00    -0.014 A 
BRANCH  33  34
ATOM     34  C   UNL A   1      37.300  32.314  31.095  1.00  0.00     0.031 A 
ATOM     35  C   UNL A   1      37.779  32.641  32.482  1.00  0.00     0.074 A 
ATOM     36  C   UNL A   1      37.936  31.391  30.349  1.00  0.00     0.049 A 
ATOM     37  N   UNL A   1      38.832  32.204  33.122  1.00  0.00    -0.248 NA
ATOM     38  C   UNL A   1      37.001  33.646  33.228  1.00  0.00     0.031 C 
ATOM     39  C   UNL A   1      37.607  31.034  28.967  1.00  0.00     0.029 A 
ATOM     40  N   UNL A   1      39.009  30.590  30.649  1.00  0.00    -0.354 N 
ATOM     41  C   UNL A   1      38.863  32.915  34.314  1.00  0.00     0.074 A 
ATOM     42  C   UNL A   1      37.774  33.862  34.278  1.00  0.00     0.031 C 
ATOM     43  C   UNL A   1      38.436  30.061  28.553  1.00  0.00     0.029 A 
ATOM     44  C   UNL A   1      39.378  29.751  29.625  1.00  0.00     0.049 A 
ATOM     45  H   UNL A   1      39.471  30.614  31.518  1.00  0.00     0.167 HD
ATOM     46  C   UNL A   1      39.700  32.762  35.365  1.00  0.00     0.037 A 
ATOM     47  C   UNL A   1      40.365  28.837  29.568  1.00  0.00     0.037 A 
ATOM     48  C   UNL A   1      40.725  31.760  35.426  1.00  0.00     0.049 A 
ATOM     49  C   UNL A   1      41.245  28.642  30.774  1.00  0.00     0.074 A 
ATOM     50  C   UNL A   1      41.573  31.455  36.475  1.00  0.00     0.029 A 
ATOM     51  N   UNL A   1      41.026  30.885  34.393  1.00  0.00    -0.354 N 
ATOM     52  N   UNL A   1      41.226  29.273  31.923  1.00  0.00    -0.248 NA
ATOM     53  C   UNL A   1      42.281  27.603  30.679  1.00  0.00     0.031 C 
ATOM     54  C   UNL A   1      42.405  30.408  36.066  1.00  0.00     0.029 A 
ATOM     55  C   UNL A   1      42.052  30.040  34.777  1.00  0.00     0.049 A 
ATOM     56  H   UNL A   1      40.577  30.868  33.518  1.00  0.00     0.167 HD
ATOM     57  C   UNL A   1      42.222  28.693  32.696  1.00  0.00     0.074 A 
ATOM     58  C   UNL A   1      42.821  27.650  31.889  1.00  0.00     0.031 C 
ATOM     59  C   UNL A   1      42.609  28.996  33.958  1.00  0.00     0.037 A 
BRANCH  46  60
ATOM     60  C   UNL A   1      39.510  33.684  36.534  1.00  0.00     0.064 A 
ATOM     61  C   UNL A   1      40.110  34.952  36.576  1.00  0.00     0.173 A 
ATOM     62  C   UNL A   1      38.726  33.291  37.627  1.00  0.00     0.173 A 
ATOM     63  F   UNL A   1      40.889  35.365  35.564  1.00  0.00    -0.203 F 
ATOM     64  C   UNL A   1      39.965  35.776  37.688  1.00  0.00     0.198 A 
ATOM     65  C   UNL A   1      38.554  34.133  38.724  1.00  0.00     0.198 A 
ATOM     66  F   UNL A   1      38.130  32.089  37.637  1.00  0.00    -0.203 F 
ATOM     67  F   UNL A   1      40.604  36.953  37.733  1.00  0.00    -0.200 F 
ATOM     68  C   UNL A   1      39.182  35.370  38.757  1.00  0.00     0.200 A 
ATOM     69  F   UNL A   1      37.791  33.743  39.753  1.00  0.00    -0.200 F 
ATOM     70  F   UNL A   1      39.043  36.164  39.827  1.00  0.00    -0.200 F 
ENDBRANCH  46  60
BRANCH  47  71
ATOM     71  C   UNL A   1      40.545  28.004  28.350  1.00  0.00     0.064 A 
ATOM     72  C   UNL A   1      39.937  26.745  28.248  1.00  0.00     0.173 A 
ATOM     73  C   UNL A   1      41.329  28.439  27.271  1.00  0.00     0.173 A 
ATOM     74  F   UNL A   1      39.193  26.278  29.260  1.00  0.00    -0.203 F 
ATOM     75  C   UNL A   1      40.122  25.943  27.122  1.00  0.00     0.198 A 
ATOM     76  C   UNL A   1      41.494  27.646  26.137  1.00  0.00     0.198 A 
ATOM     77  F   UNL A   1      41.927  29.638  27.316  1.00  0.00    -0.203 F 
ATOM     78  F   UNL A   1      39.563  24.727  27.070  1.00  0.00    -0.200 F 
ATOM     79  C   UNL A   1      40.897  26.396  26.066  1.00  0.00     0.200 A 
ATOM     80  F   UNL A   1      42.233  28.093  25.111  1.00  0.00    -0.200 F 
ATOM     81  F   UNL A   1      41.075  25.626  24.984  1.00  0.00    -0.200 F 
ENDBRANCH  47  71
BRANCH  59  82
ATOM     82  C   UNL A   1      43.703  28.167  34.562  1.00  0.00     0.064 A 
ATOM     83  C   UNL A   1      45.039  28.588  34.535  1.00  0.00     0.173 A 
ATOM     84  C   UNL A   1      43.395  26.975  35.235  1.00  0.00     0.173 A 
ATOM     85  F   UNL A   1      45.380  29.714  33.891  1.00  0.00    -0.203 F 
ATOM     86  C   UNL A   1      46.034  27.835  35.152  1.00  0.00     0.198 A 
ATOM     87  C   UNL A   1      44.389  26.240  35.873  1.00  0.00     0.198 A 
ATOM     88  F   UNL A   1      42.129  26.538  35.293  1.00  0.00    -0.203 F 
ATOM     89  F   UNL A   1      47.311  28.238  35.089  1.00  0.00    -0.200 F 
ATOM     90  C   UNL A   1      45.707  26.668  35.827  1.00  0.00     0.200 A 
ATOM     91  F   UNL A   1      44.071  25.120  36.535  1.00  0.00    -0.200 F 
ATOM     92  F   UNL A   1      46.665  25.954  36.434  1.00  0.00    -0.200 F 
ENDBRANCH  59  82
ENDBRANCH  33  34
ENDBRANCH  25  28
ENDBRANCH  23  24
ENDBRANCH  22  23
ENDBRANCH  21  22
ENDBRANCH   1  21
TORSDOF 15
ENDMDL
