MODEL 1
REMARK VINA RESULT:     -12.5      0.000      0.000
REMARK SMILES N#CCOc1ccccc1[C@H]1[NH2+][C@@H](C(=O)NCCCCNC(=O)c2ccc(-c3c4nc(c(-c5c(F)c(F)c(F)c(F)c5F)c5ccc([nH]5)c(-c5c(F)c(F)c(F)c(F)c5F)c5nc(c(-c6c(F)c(F)c(F)c(F)c6F)c6ccc3[nH]6)C=C5)C=C4)cc2)CS1
REMARK SMILES IDX 17 1 16 2 14 3 15 4 13 6 11 7 12 8 88 9 87 12 10 13 5 14
REMARK SMILES IDX 6 15 7 16 9 17 8 18 4 19 3 20 2 21 1 22 18 23 19 24 20 25
REMARK SMILES IDX 21 26 22 27 23 29 24 30 25 31 86 32 26 33 85 34 27 35 28 36
REMARK SMILES IDX 29 37 79 38 30 39 84 40 78 41 80 42 31 43 83 44 77 45 76 46
REMARK SMILES IDX 32 48 64 49 44 50 63 51 45 52 48 53 62 54 81 55 46 56 47 57
REMARK SMILES IDX 61 59 82 60 49 61 33 62 34 63 42 64 35 65 36 66 40 67 43 68
REMARK SMILES IDX 37 69 38 70 41 71 39 72 65 73 66 74 74 75 67 76 68 77 72 78
REMARK SMILES IDX 75 79 69 80 70 81 73 82 71 83 50 84 51 85 59 86 52 87 53 88
REMARK SMILES IDX 57 89 60 90 54 91 55 92 58 93 56 94
REMARK H PARENT 16 5 12 10 12 11 21 28 80 47 48 58
REMARK Flexibility Score: inf
ROOT
ATOM      1  C   UNL A   1      33.729  29.643  26.967  1.00  0.00     0.116 C 
ENDROOT
BRANCH   1   2
ATOM      2  N   UNL A   1      33.662  28.326  26.358  1.00  0.00    -0.351 N 
ATOM      3  C   UNL A   1      33.763  27.919  25.058  1.00  0.00     0.279 C 
ATOM      4  O   UNL A   1      33.928  26.704  24.877  1.00  0.00    -0.268 OA
ATOM      5  H   UNL A   1      33.517  27.593  26.999  1.00  0.00     0.163 HD
BRANCH   3   6
ATOM      6  C   UNL A   1      33.544  28.823  23.825  1.00  0.00     0.283 C 
ATOM      7  C   UNL A   1      31.471  28.625  22.597  1.00  0.00     0.278 C 
ATOM      8  N   UNL A   1      32.165  29.362  23.684  1.00  0.00    -0.320 N 
ATOM      9  S   UNL A   1      32.470  27.127  22.295  1.00  0.00    -0.087 SA
ATOM     10  H   UNL A   1      31.658  29.238  24.560  1.00  0.00     0.348 HD
ATOM     11  H   UNL A   1      32.203  30.357  23.459  1.00  0.00     0.348 HD
ATOM     12  C   UNL A   1      33.969  28.035  22.590  1.00  0.00     0.151 C 
BRANCH   7  13
ATOM     13  C   UNL A   1      29.926  28.567  22.706  1.00  0.00     0.062 A 
ATOM     14  C   UNL A   1      28.971  29.572  22.359  1.00  0.00     0.131 A 
ATOM     15  C   UNL A   1      27.606  29.409  22.670  1.00  0.00     0.047 A 
ATOM     16  C   UNL A   1      27.151  28.278  23.346  1.00  0.00     0.004 A 
ATOM     17  C   UNL A   1      29.407  27.436  23.395  1.00  0.00     0.015 A 
ATOM     18  C   UNL A   1      28.051  27.287  23.701  1.00  0.00     0.001 A 
BRANCH  14  19
ATOM     19  O   UNL A   1      29.246  30.698  21.598  1.00  0.00    -0.478 OA
BRANCH  19  20
ATOM     20  C   UNL A   1      28.125  31.622  21.474  1.00  0.00     0.349 C 
BRANCH  20  21
ATOM     21  C   UNL A   1      28.482  32.829  22.326  1.00  0.00     0.104 C 
ATOM     22  N   UNL A   1      28.779  33.831  23.032  1.00  0.00    -0.195 NA
ENDBRANCH  20  21
ENDBRANCH  19  20
ENDBRANCH  14  19
ENDBRANCH   7  13
ENDBRANCH   3   6
ENDBRANCH   1   2
BRANCH   1  23
ATOM     23  C   UNL A   1      32.374  30.310  27.236  1.00  0.00     0.023 C 
BRANCH  23  24
ATOM     24  C   UNL A   1      32.207  31.759  26.817  1.00  0.00     0.023 C 
BRANCH  24  25
ATOM     25  C   UNL A   1      33.102  32.684  27.600  1.00  0.00     0.116 C 
BRANCH  25  26
ATOM     26  N   UNL A   1      32.538  34.017  27.792  1.00  0.00    -0.352 N 
ATOM     27  C   UNL A   1      33.027  34.995  28.627  1.00  0.00     0.251 C 
ATOM     28  H   UNL A   1      31.730  34.237  27.274  1.00  0.00     0.163 HD
ATOM     29  O   UNL A   1      32.484  36.073  28.776  1.00  0.00    -0.269 OA
BRANCH  27  30
ATOM     30  C   UNL A   1      34.218  34.618  29.402  1.00  0.00     0.039 A 
ATOM     31  C   UNL A   1      34.020  33.913  30.587  1.00  0.00     0.014 A 
ATOM     32  C   UNL A   1      35.472  34.709  28.795  1.00  0.00     0.014 A 
ATOM     33  C   UNL A   1      35.094  33.230  31.145  1.00  0.00     0.010 A 
ATOM     34  C   UNL A   1      36.506  33.931  29.290  1.00  0.00     0.010 A 
ATOM     35  C   UNL A   1      36.329  33.200  30.476  1.00  0.00    -0.014 A 
BRANCH  35  36
ATOM     36  C   UNL A   1      37.474  32.456  31.040  1.00  0.00     0.031 A 
ATOM     37  C   UNL A   1      37.946  32.803  32.422  1.00  0.00     0.074 A 
ATOM     38  C   UNL A   1      38.101  31.520  30.303  1.00  0.00     0.049 A 
ATOM     39  N   UNL A   1      38.950  32.315  33.100  1.00  0.00    -0.248 NA
ATOM     40  C   UNL A   1      37.211  33.872  33.121  1.00  0.00     0.031 C 
ATOM     41  C   UNL A   1      37.764  31.154  28.926  1.00  0.00     0.029 A 
ATOM     42  N   UNL A   1      39.158  30.704  30.615  1.00  0.00    -0.354 N 
ATOM     43  C   UNL A   1      38.978  33.033  34.287  1.00  0.00     0.074 A 
ATOM     44  C   UNL A   1      37.944  34.039  34.209  1.00  0.00     0.031 C 
ATOM     45  C   UNL A   1      38.574  30.160  28.525  1.00  0.00     0.029 A 
ATOM     46  C   UNL A   1      39.503  29.840  29.604  1.00  0.00     0.049 A 
ATOM     47  H   UNL A   1      39.626  30.735  31.480  1.00  0.00     0.167 HD
ATOM     48  C   UNL A   1      39.771  32.843  35.364  1.00  0.00     0.037 A 
ATOM     49  C   UNL A   1      40.458  28.892  29.568  1.00  0.00     0.037 A 
ATOM     50  C   UNL A   1      40.761  31.807  35.448  1.00  0.00     0.049 A 
ATOM     51  C   UNL A   1      41.307  28.677  30.793  1.00  0.00     0.074 A 
ATOM     52  C   UNL A   1      41.576  31.475  36.513  1.00  0.00     0.029 A 
ATOM     53  N   UNL A   1      41.060  30.926  34.419  1.00  0.00    -0.354 N 
ATOM     54  N   UNL A   1      41.278  29.311  31.941  1.00  0.00    -0.248 NA
ATOM     55  C   UNL A   1      42.315  27.612  30.722  1.00  0.00     0.031 C 
ATOM     56  C   UNL A   1      42.394  30.412  36.117  1.00  0.00     0.029 A 
ATOM     57  C   UNL A   1      42.059  30.056  34.819  1.00  0.00     0.049 A 
ATOM     58  H   UNL A   1      40.627  30.921  33.535  1.00  0.00     0.167 HD
ATOM     59  C   UNL A   1      42.239  28.706  32.737  1.00  0.00     0.074 A 
ATOM     60  C   UNL A   1      42.826  27.643  31.945  1.00  0.00     0.031 C 
ATOM     61  C   UNL A   1      42.610  29.001  34.008  1.00  0.00     0.037 A 
BRANCH  48  62
ATOM     62  C   UNL A   1      39.578  33.765  36.531  1.00  0.00     0.064 A 
ATOM     63  C   UNL A   1      40.193  35.026  36.580  1.00  0.00     0.173 A 
ATOM     64  C   UNL A   1      38.775  33.382  37.615  1.00  0.00     0.173 A 
ATOM     65  F   UNL A   1      40.990  35.428  35.580  1.00  0.00    -0.203 F 
ATOM     66  C   UNL A   1      40.036  35.856  37.687  1.00  0.00     0.198 A 
ATOM     67  C   UNL A   1      38.595  34.229  38.705  1.00  0.00     0.198 A 
ATOM     68  F   UNL A   1      38.168  32.187  37.619  1.00  0.00    -0.203 F 
ATOM     69  F   UNL A   1      40.682  37.030  37.738  1.00  0.00    -0.200 F 
ATOM     70  C   UNL A   1      39.233  35.461  38.745  1.00  0.00     0.200 A 
ATOM     71  F   UNL A   1      37.811  33.850  39.725  1.00  0.00    -0.200 F 
ATOM     72  F   UNL A   1      39.082  36.261  39.808  1.00  0.00    -0.200 F 
ENDBRANCH  48  62
BRANCH  49  73
ATOM     73  C   UNL A   1      40.629  28.047  28.358  1.00  0.00     0.064 A 
ATOM     74  C   UNL A   1      39.989  26.803  28.253  1.00  0.00     0.173 A 
ATOM     75  C   UNL A   1      41.433  28.458  27.284  1.00  0.00     0.173 A 
ATOM     76  F   UNL A   1      39.223  26.357  29.260  1.00  0.00    -0.203 F 
ATOM     77  C   UNL A   1      40.162  25.995  27.131  1.00  0.00     0.198 A 
ATOM     78  C   UNL A   1      41.586  27.659  26.152  1.00  0.00     0.198 A 
ATOM     79  F   UNL A   1      42.061  29.641  27.331  1.00  0.00    -0.203 F 
ATOM     80  F   UNL A   1      39.572  24.793  27.077  1.00  0.00    -0.200 F 
ATOM     81  C   UNL A   1      40.956  26.425  26.080  1.00  0.00     0.200 A 
ATOM     82  F   UNL A   1      42.343  28.084  25.132  1.00  0.00    -0.200 F 
ATOM     83  F   UNL A   1      41.122  25.649  25.000  1.00  0.00    -0.200 F 
ENDBRANCH  49  73
BRANCH  61  84
ATOM     84  C   UNL A   1      43.673  28.145  34.626  1.00  0.00     0.064 A 
ATOM     85  C   UNL A   1      43.360  26.942  35.274  1.00  0.00     0.173 A 
ATOM     86  C   UNL A   1      45.024  28.510  34.521  1.00  0.00     0.173 A 
ATOM     87  F   UNL A   1      42.081  26.562  35.410  1.00  0.00    -0.203 F 
ATOM     88  C   UNL A   1      44.363  26.143  35.814  1.00  0.00     0.198 A 
ATOM     89  C   UNL A   1      46.025  27.693  35.036  1.00  0.00     0.198 A 
ATOM     90  F   UNL A   1      45.372  29.648  33.903  1.00  0.00    -0.203 F 
ATOM     91  F   UNL A   1      44.040  25.017  36.466  1.00  0.00    -0.200 F 
ATOM     92  C   UNL A   1      45.693  26.514  35.687  1.00  0.00     0.200 A 
ATOM     93  F   UNL A   1      47.310  28.045  34.902  1.00  0.00    -0.200 F 
ATOM     94  F   UNL A   1      46.657  25.737  36.200  1.00  0.00    -0.200 F 
ENDBRANCH  61  84
ENDBRANCH  35  36
ENDBRANCH  27  30
ENDBRANCH  25  26
ENDBRANCH  24  25
ENDBRANCH  23  24
ENDBRANCH   1  23
TORSDOF 15
ENDMDL
MODEL 2
REMARK VINA RESULT:     -12.3      0.784      7.413
REMARK SMILES N#CCOc1ccccc1[C@H]1[NH2+][C@@H](C(=O)NCCCCNC(=O)c2ccc(-c3c4nc(c(-c5c(F)c(F)c(F)c(F)c5F)c5ccc([nH]5)c(-c5c(F)c(F)c(F)c(F)c5F)c5nc(c(-c6c(F)c(F)c(F)c(F)c6F)c6ccc3[nH]6)C=C5)C=C4)cc2)CS1
REMARK SMILES IDX 17 1 16 2 14 3 15 4 13 6 11 7 12 8 88 9 87 12 10 13 5 14
REMARK SMILES IDX 6 15 7 16 9 17 8 18 4 19 3 20 2 21 1 22 18 23 19 24 20 25
REMARK SMILES IDX 21 26 22 27 23 29 24 30 25 31 86 32 26 33 85 34 27 35 28 36
REMARK SMILES IDX 29 37 79 38 30 39 84 40 78 41 80 42 31 43 83 44 77 45 76 46
REMARK SMILES IDX 32 48 64 49 44 50 63 51 45 52 48 53 62 54 81 55 46 56 47 57
REMARK SMILES IDX 61 59 82 60 49 61 33 62 34 63 42 64 35 65 36 66 40 67 43 68
REMARK SMILES IDX 37 69 38 70 41 71 39 72 65 73 66 74 74 75 67 76 68 77 72 78
REMARK SMILES IDX 75 79 69 80 70 81 73 82 71 83 50 84 51 85 59 86 52 87 53 88
REMARK SMILES IDX 57 89 60 90 54 91 55 92 58 93 56 94
REMARK H PARENT 16 5 12 10 12 11 21 28 80 47 48 58
REMARK Flexibility Score: inf
ROOT
ATOM      1  C   UNL A   1      32.195  28.879  26.943  1.00  0.00     0.116 C 
ENDROOT
BRANCH   1   2
ATOM      2  N   UNL A   1      32.842  27.721  26.349  1.00  0.00    -0.351 N 
ATOM      3  C   UNL A   1      33.517  27.560  25.174  1.00  0.00     0.279 C 
ATOM      4  O   UNL A   1      34.182  26.520  25.063  1.00  0.00    -0.268 OA
ATOM      5  H   UNL A   1      32.782  26.903  26.894  1.00  0.00     0.163 HD
BRANCH   3   6
ATOM      6  C   UNL A   1      33.396  28.489  23.945  1.00  0.00     0.283 C 
ATOM      7  C   UNL A   1      31.341  28.464  22.672  1.00  0.00     0.278 C 
ATOM      8  N   UNL A   1      32.066  29.135  23.781  1.00  0.00    -0.320 N 
ATOM      9  S   UNL A   1      32.227  26.895  22.375  1.00  0.00    -0.087 SA
ATOM     10  H   UNL A   1      31.532  29.043  24.644  1.00  0.00     0.348 HD
ATOM     11  H   UNL A   1      32.186  30.125  23.567  1.00  0.00     0.348 HD
ATOM     12  C   UNL A   1      33.785  27.681  22.711  1.00  0.00     0.151 C 
BRANCH   7  13
ATOM     13  C   UNL A   1      29.794  28.525  22.747  1.00  0.00     0.062 A 
ATOM     14  C   UNL A   1      28.927  29.597  22.376  1.00  0.00     0.131 A 
ATOM     15  C   UNL A   1      27.547  29.542  22.658  1.00  0.00     0.047 A 
ATOM     16  C   UNL A   1      26.992  28.453  23.328  1.00  0.00     0.004 A 
ATOM     17  C   UNL A   1      29.175  27.441  23.430  1.00  0.00     0.015 A 
ATOM     18  C   UNL A   1      27.806  27.398  23.707  1.00  0.00     0.001 A 
BRANCH  14  19
ATOM     19  O   UNL A   1      29.304  30.695  21.616  1.00  0.00    -0.478 OA
BRANCH  19  20
ATOM     20  C   UNL A   1      28.231  31.653  21.379  1.00  0.00     0.349 C 
BRANCH  20  21
ATOM     21  C   UNL A   1      28.526  32.841  22.281  1.00  0.00     0.104 C 
ATOM     22  N   UNL A   1      28.772  33.826  23.029  1.00  0.00    -0.195 NA
ENDBRANCH  20  21
ENDBRANCH  19  20
ENDBRANCH  14  19
ENDBRANCH   7  13
ENDBRANCH   3   6
ENDBRANCH   1   2
BRANCH   1  23
ATOM     23  C   UNL A   1      33.113  30.079  27.204  1.00  0.00     0.023 C 
BRANCH  23  24
ATOM     24  C   UNL A   1      32.519  31.467  27.051  1.00  0.00     0.023 C 
BRANCH  24  25
ATOM     25  C   UNL A   1      33.389  32.529  27.670  1.00  0.00     0.116 C 
BRANCH  25  26
ATOM     26  N   UNL A   1      32.746  33.838  27.748  1.00  0.00    -0.352 N 
ATOM     27  C   UNL A   1      33.093  34.868  28.592  1.00  0.00     0.251 C 
ATOM     28  H   UNL A   1      31.990  34.000  27.137  1.00  0.00     0.163 HD
ATOM     29  O   UNL A   1      32.487  35.920  28.639  1.00  0.00    -0.269 OA
BRANCH  27  30
ATOM     30  C   UNL A   1      34.207  34.578  29.506  1.00  0.00     0.039 A 
ATOM     31  C   UNL A   1      33.911  33.914  30.695  1.00  0.00     0.014 A 
ATOM     32  C   UNL A   1      35.515  34.701  29.034  1.00  0.00     0.014 A 
ATOM     33  C   UNL A   1      34.945  33.304  31.395  1.00  0.00     0.010 A 
ATOM     34  C   UNL A   1      36.520  33.993  29.671  1.00  0.00     0.010 A 
ATOM     35  C   UNL A   1      36.245  33.304  30.863  1.00  0.00    -0.014 A 
BRANCH  35  36
ATOM     36  C   UNL A   1      37.352  32.637  31.580  1.00  0.00     0.031 A 
ATOM     37  C   UNL A   1      38.057  31.495  30.909  1.00  0.00     0.074 A 
ATOM     38  C   UNL A   1      37.683  33.026  32.825  1.00  0.00     0.049 A 
ATOM     39  N   UNL A   1      39.023  30.739  31.360  1.00  0.00    -0.248 NA
ATOM     40  C   UNL A   1      37.585  31.127  29.562  1.00  0.00     0.031 C 
ATOM     41  C   UNL A   1      37.018  34.081  33.593  1.00  0.00     0.029 A 
ATOM     42  N   UNL A   1      38.667  32.574  33.666  1.00  0.00    -0.354 N 
ATOM     43  C   UNL A   1      39.252  29.799  30.365  1.00  0.00     0.074 A 
ATOM     44  C   UNL A   1      38.279  30.028  29.322  1.00  0.00     0.031 C 
ATOM     45  C   UNL A   1      37.637  34.220  34.777  1.00  0.00     0.029 A 
ATOM     46  C   UNL A   1      38.722  33.248  34.862  1.00  0.00     0.049 A 
ATOM     47  H   UNL A   1      39.276  31.837  33.436  1.00  0.00     0.167 HD
ATOM     48  C   UNL A   1      40.217  28.854  30.309  1.00  0.00     0.037 A 
ATOM     49  C   UNL A   1      39.565  33.096  35.901  1.00  0.00     0.037 A 
ATOM     50  C   UNL A   1      41.208  28.671  31.330  1.00  0.00     0.049 A 
ATOM     51  C   UNL A   1      40.652  32.058  35.800  1.00  0.00     0.074 A 
ATOM     52  C   UNL A   1      42.274  27.792  31.351  1.00  0.00     0.029 A 
ATOM     53  N   UNL A   1      41.255  29.395  32.513  1.00  0.00    -0.354 N 
ATOM     54  N   UNL A   1      40.910  31.222  34.823  1.00  0.00    -0.248 NA
ATOM     55  C   UNL A   1      41.569  31.947  36.942  1.00  0.00     0.031 C 
ATOM     56  C   UNL A   1      42.949  27.961  32.565  1.00  0.00     0.029 A 
ATOM     57  C   UNL A   1      42.328  28.974  33.279  1.00  0.00     0.049 A 
ATOM     58  H   UNL A   1      40.621  30.102  32.769  1.00  0.00     0.167 HD
ATOM     59  C   UNL A   1      42.031  30.507  35.216  1.00  0.00     0.074 A 
ATOM     60  C   UNL A   1      42.415  31.018  36.518  1.00  0.00     0.031 C 
ATOM     61  C   UNL A   1      42.687  29.515  34.565  1.00  0.00     0.037 A 
BRANCH  48  62
ATOM     62  C   UNL A   1      40.244  27.971  29.097  1.00  0.00     0.064 A 
ATOM     63  C   UNL A   1      40.959  28.329  27.943  1.00  0.00     0.173 A 
ATOM     64  C   UNL A   1      39.543  26.757  29.086  1.00  0.00     0.173 A 
ATOM     65  F   UNL A   1      41.626  29.492  27.896  1.00  0.00    -0.203 F 
ATOM     66  C   UNL A   1      40.944  27.519  26.812  1.00  0.00     0.198 A 
ATOM     67  C   UNL A   1      39.557  25.934  27.962  1.00  0.00     0.198 A 
ATOM     68  F   UNL A   1      38.841  26.371  30.161  1.00  0.00    -0.203 F 
ATOM     69  F   UNL A   1      41.585  27.911  25.701  1.00  0.00    -0.200 F 
ATOM     70  C   UNL A   1      40.249  26.319  26.824  1.00  0.00     0.200 A 
ATOM     71  F   UNL A   1      38.891  24.771  27.978  1.00  0.00    -0.200 F 
ATOM     72  F   UNL A   1      40.237  25.540  25.734  1.00  0.00    -0.200 F 
ENDBRANCH  48  62
BRANCH  49  73
ATOM     73  C   UNL A   1      39.448  33.972  37.094  1.00  0.00     0.064 A 
ATOM     74  C   UNL A   1      38.729  33.555  38.225  1.00  0.00     0.173 A 
ATOM     75  C   UNL A   1      40.046  35.240  37.134  1.00  0.00     0.173 A 
ATOM     76  F   UNL A   1      38.124  32.359  38.230  1.00  0.00    -0.203 F 
ATOM     77  C   UNL A   1      38.596  34.381  39.340  1.00  0.00     0.198 A 
ATOM     78  C   UNL A   1      39.933  36.055  38.259  1.00  0.00     0.198 A 
ATOM     79  F   UNL A   1      40.750  35.683  36.083  1.00  0.00    -0.203 F 
ATOM     80  F   UNL A   1      37.868  33.974  40.389  1.00  0.00    -0.200 F 
ATOM     81  C   UNL A   1      39.202  35.628  39.358  1.00  0.00     0.200 A 
ATOM     82  F   UNL A   1      40.530  37.254  38.279  1.00  0.00    -0.200 F 
ATOM     83  F   UNL A   1      39.075  36.421  40.431  1.00  0.00    -0.200 F 
ENDBRANCH  49  73
BRANCH  61  84
ATOM     84  C   UNL A   1      43.899  28.942  35.235  1.00  0.00     0.064 A 
ATOM     85  C   UNL A   1      45.181  29.454  34.990  1.00  0.00     0.173 A 
ATOM     86  C   UNL A   1      43.767  27.905  36.171  1.00  0.00     0.173 A 
ATOM     87  F   UNL A   1      45.356  30.436  34.093  1.00  0.00    -0.203 F 
ATOM     88  C   UNL A   1      46.293  28.933  35.646  1.00  0.00     0.198 A 
ATOM     89  C   UNL A   1      44.877  27.408  36.845  1.00  0.00     0.198 A 
ATOM     90  F   UNL A   1      42.559  27.389  36.444  1.00  0.00    -0.203 F 
ATOM     91  F   UNL A   1      47.515  29.408  35.368  1.00  0.00    -0.200 F 
ATOM     92  C   UNL A   1      46.139  27.917  36.578  1.00  0.00     0.200 A 
ATOM     93  F   UNL A   1      44.726  26.435  37.755  1.00  0.00    -0.200 F 
ATOM     94  F   UNL A   1      47.210  27.424  37.215  1.00  0.00    -0.200 F 
ENDBRANCH  61  84
ENDBRANCH  35  36
ENDBRANCH  27  30
ENDBRANCH  25  26
ENDBRANCH  24  25
ENDBRANCH  23  24
ENDBRANCH   1  23
TORSDOF 15
ENDMDL
MODEL 3
REMARK VINA RESULT:     -12.3      1.355      2.058
REMARK SMILES N#CCOc1ccccc1[C@H]1[NH2+][C@@H](C(=O)NCCCCNC(=O)c2ccc(-c3c4nc(c(-c5c(F)c(F)c(F)c(F)c5F)c5ccc([nH]5)c(-c5c(F)c(F)c(F)c(F)c5F)c5nc(c(-c6c(F)c(F)c(F)c(F)c6F)c6ccc3[nH]6)C=C5)C=C4)cc2)CS1
REMARK SMILES IDX 17 1 16 2 14 3 15 4 13 6 11 7 12 8 88 9 87 12 10 13 5 14
REMARK SMILES IDX 6 15 7 16 9 17 8 18 4 19 3 20 2 21 1 22 18 23 19 24 20 25
REMARK SMILES IDX 21 26 22 27 23 29 24 30 25 31 86 32 26 33 85 34 27 35 28 36
REMARK SMILES IDX 29 37 79 38 30 39 84 40 78 41 80 42 31 43 83 44 77 45 76 46
REMARK SMILES IDX 32 48 64 49 44 50 63 51 45 52 48 53 62 54 81 55 46 56 47 57
REMARK SMILES IDX 61 59 82 60 49 61 33 62 34 63 42 64 35 65 36 66 40 67 43 68
REMARK SMILES IDX 37 69 38 70 41 71 39 72 65 73 66 74 74 75 67 76 68 77 72 78
REMARK SMILES IDX 75 79 69 80 70 81 73 82 71 83 50 84 51 85 59 86 52 87 53 88
REMARK SMILES IDX 57 89 60 90 54 91 55 92 58 93 56 94
REMARK H PARENT 16 5 12 10 12 11 21 28 80 47 48 58
REMARK Flexibility Score: inf
ROOT
ATOM      1  C   UNL A   1      33.396  28.498  26.947  1.00  0.00     0.116 C 
ENDROOT
BRANCH   1   2
ATOM      2  N   UNL A   1      33.461  27.275  26.164  1.00  0.00    -0.351 N 
ATOM      3  C   UNL A   1      33.680  27.058  24.834  1.00  0.00     0.279 C 
ATOM      4  O   UNL A   1      33.939  25.890  24.507  1.00  0.00    -0.268 OA
ATOM      5  H   UNL A   1      33.322  26.454  26.689  1.00  0.00     0.163 HD
BRANCH   3   6
ATOM      6  C   UNL A   1      33.488  28.109  23.718  1.00  0.00     0.283 C 
ATOM      7  C   UNL A   1      31.367  28.195  22.561  1.00  0.00     0.278 C 
ATOM      8  N   UNL A   1      32.148  28.754  23.694  1.00  0.00    -0.320 N 
ATOM      9  S   UNL A   1      32.245  26.676  22.054  1.00  0.00    -0.087 SA
ATOM     10  H   UNL A   1      31.661  28.567  24.570  1.00  0.00     0.348 HD
ATOM     11  H   UNL A   1      32.251  29.763  23.579  1.00  0.00     0.348 HD
ATOM     12  C   UNL A   1      33.814  27.439  22.388  1.00  0.00     0.151 C 
BRANCH   7  13
ATOM     13  C   UNL A   1      29.826  28.231  22.724  1.00  0.00     0.062 A 
ATOM     14  C   UNL A   1      28.915  29.262  22.342  1.00  0.00     0.131 A 
ATOM     15  C   UNL A   1      27.555  29.197  22.709  1.00  0.00     0.047 A 
ATOM     16  C   UNL A   1      27.065  28.141  23.474  1.00  0.00     0.004 A 
ATOM     17  C   UNL A   1      29.273  27.179  23.506  1.00  0.00     0.015 A 
ATOM     18  C   UNL A   1      27.924  27.126  23.866  1.00  0.00     0.001 A 
BRANCH  14  19
ATOM     19  O   UNL A   1      29.222  30.318  21.497  1.00  0.00    -0.478 OA
BRANCH  19  20
ATOM     20  C   UNL A   1      28.113  31.235  21.262  1.00  0.00     0.349 C 
BRANCH  20  21
ATOM     21  C   UNL A   1      28.414  32.476  22.087  1.00  0.00     0.104 C 
ATOM     22  N   UNL A   1      28.663  33.506  22.770  1.00  0.00    -0.195 NA
ENDBRANCH  20  21
ENDBRANCH  19  20
ENDBRANCH  14  19
ENDBRANCH   7  13
ENDBRANCH   3   6
ENDBRANCH   1   2
BRANCH   1  23
ATOM     23  C   UNL A   1      31.981  28.996  27.266  1.00  0.00     0.023 C 
BRANCH  23  24
ATOM     24  C   UNL A   1      31.630  30.419  26.872  1.00  0.00     0.023 C 
BRANCH  24  25
ATOM     25  C   UNL A   1      32.854  31.268  26.656  1.00  0.00     0.116 C 
BRANCH  25  26
ATOM     26  N   UNL A   1      32.734  32.616  27.206  1.00  0.00    -0.352 N 
ATOM     27  C   UNL A   1      33.673  33.271  27.969  1.00  0.00     0.251 C 
ATOM     28  H   UNL A   1      31.900  33.103  27.012  1.00  0.00     0.163 HD
ATOM     29  O   UNL A   1      33.493  34.379  28.437  1.00  0.00    -0.269 OA
BRANCH  27  30
ATOM     30  C   UNL A   1      34.890  32.500  28.260  1.00  0.00     0.039 A 
ATOM     31  C   UNL A   1      36.108  33.177  28.221  1.00  0.00     0.014 A 
ATOM     32  C   UNL A   1      34.765  31.236  28.840  1.00  0.00     0.014 A 
ATOM     33  C   UNL A   1      37.214  32.600  28.835  1.00  0.00     0.010 A 
ATOM     34  C   UNL A   1      35.838  30.723  29.550  1.00  0.00     0.010 A 
ATOM     35  C   UNL A   1      37.072  31.393  29.539  1.00  0.00    -0.014 A 
BRANCH  35  36
ATOM     36  C   UNL A   1      38.230  30.778  30.221  1.00  0.00     0.031 A 
ATOM     37  C   UNL A   1      38.491  31.134  31.655  1.00  0.00     0.074 A 
ATOM     38  C   UNL A   1      39.051  29.951  29.547  1.00  0.00     0.049 A 
ATOM     39  N   UNL A   1      39.464  30.752  32.438  1.00  0.00    -0.248 NA
ATOM     40  C   UNL A   1      37.551  32.081  32.282  1.00  0.00     0.031 C 
ATOM     41  C   UNL A   1      38.924  29.591  28.133  1.00  0.00     0.029 A 
ATOM     42  N   UNL A   1      40.160  29.262  29.966  1.00  0.00    -0.354 N 
ATOM     43  C   UNL A   1      39.264  31.429  33.633  1.00  0.00     0.074 A 
ATOM     44  C   UNL A   1      38.127  32.301  33.452  1.00  0.00     0.031 C 
ATOM     45  C   UNL A   1      39.894  28.719  27.812  1.00  0.00     0.029 A 
ATOM     46  C   UNL A   1      40.725  28.482  28.988  1.00  0.00     0.049 A 
ATOM     47  H   UNL A   1      40.517  29.322  30.881  1.00  0.00     0.167 HD
ATOM     48  C   UNL A   1      39.945  31.302  34.794  1.00  0.00     0.037 A 
ATOM     49  C   UNL A   1      41.791  27.660  29.048  1.00  0.00     0.037 A 
ATOM     50  C   UNL A   1      41.042  30.395  34.975  1.00  0.00     0.049 A 
ATOM     51  C   UNL A   1      42.513  27.512  30.362  1.00  0.00     0.074 A 
ATOM     52  C   UNL A   1      41.764  30.132  36.123  1.00  0.00     0.029 A 
ATOM     53  N   UNL A   1      41.566  29.592  33.973  1.00  0.00    -0.354 N 
ATOM     54  N   UNL A   1      42.271  28.099  31.509  1.00  0.00    -0.248 NA
ATOM     55  C   UNL A   1      43.649  26.582  30.391  1.00  0.00     0.031 C 
ATOM     56  C   UNL A   1      42.751  29.192  35.807  1.00  0.00     0.029 A 
ATOM     57  C   UNL A   1      42.615  28.840  34.473  1.00  0.00     0.049 A 
ATOM     58  H   UNL A   1      41.242  29.563  33.044  1.00  0.00     0.167 HD
ATOM     59  C   UNL A   1      43.204  27.592  32.403  1.00  0.00     0.074 A 
ATOM     60  C   UNL A   1      44.008  26.636  31.666  1.00  0.00     0.031 C 
ATOM     61  C   UNL A   1      43.385  27.888  33.713  1.00  0.00     0.037 A 
BRANCH  48  62
ATOM     62  C   UNL A   1      39.503  32.154  35.946  1.00  0.00     0.064 A 
ATOM     63  C   UNL A   1      40.088  33.405  36.202  1.00  0.00     0.173 A 
ATOM     64  C   UNL A   1      38.489  31.715  36.807  1.00  0.00     0.173 A 
ATOM     65  F   UNL A   1      41.080  33.859  35.421  1.00  0.00    -0.203 F 
ATOM     66  C   UNL A   1      39.696  34.168  37.297  1.00  0.00     0.198 A 
ATOM     67  C   UNL A   1      38.076  32.497  37.884  1.00  0.00     0.198 A 
ATOM     68  F   UNL A   1      37.899  30.527  36.610  1.00  0.00    -0.203 F 
ATOM     69  F   UNL A   1      40.312  35.331  37.557  1.00  0.00    -0.200 F 
ATOM     70  C   UNL A   1      38.686  33.718  38.134  1.00  0.00     0.200 A 
ATOM     71  F   UNL A   1      37.094  32.064  38.687  1.00  0.00    -0.200 F 
ATOM     72  F   UNL A   1      38.308  34.454  39.187  1.00  0.00    -0.200 F 
ENDBRANCH  48  62
BRANCH  49  73
ATOM     73  C   UNL A   1      42.206  26.884  27.852  1.00  0.00     0.064 A 
ATOM     74  C   UNL A   1      41.668  25.613  27.597  1.00  0.00     0.173 A 
ATOM     75  C   UNL A   1      43.146  27.387  26.941  1.00  0.00     0.173 A 
ATOM     76  F   UNL A   1      40.779  25.080  28.448  1.00  0.00    -0.203 F 
ATOM     77  C   UNL A   1      42.069  24.869  26.489  1.00  0.00     0.198 A 
ATOM     78  C   UNL A   1      43.528  26.652  25.820  1.00  0.00     0.198 A 
ATOM     79  F   UNL A   1      43.685  28.599  27.134  1.00  0.00    -0.203 F 
ATOM     80  F   UNL A   1      41.570  23.641  26.294  1.00  0.00    -0.200 F 
ATOM     81  C   UNL A   1      42.994  25.390  25.599  1.00  0.00     0.200 A 
ATOM     82  F   UNL A   1      44.412  27.164  24.954  1.00  0.00    -0.200 F 
ATOM     83  F   UNL A   1      43.379  24.675  24.533  1.00  0.00    -0.200 F 
ENDBRANCH  49  73
BRANCH  61  84
ATOM     84  C   UNL A   1      44.470  27.151  34.438  1.00  0.00     0.064 A 
ATOM     85  C   UNL A   1      45.762  27.680  34.557  1.00  0.00     0.173 A 
ATOM     86  C   UNL A   1      44.195  25.926  35.064  1.00  0.00     0.173 A 
ATOM     87  F   UNL A   1      46.073  28.842  33.962  1.00  0.00    -0.203 F 
ATOM     88  C   UNL A   1      46.749  26.998  35.262  1.00  0.00     0.198 A 
ATOM     89  C   UNL A   1      45.176  25.262  35.792  1.00  0.00     0.198 A 
ATOM     90  F   UNL A   1      42.971  25.384  34.985  1.00  0.00    -0.203 F 
ATOM     91  F   UNL A   1      47.989  27.502  35.329  1.00  0.00    -0.200 F 
ATOM     92  C   UNL A   1      46.453  25.795  35.885  1.00  0.00     0.200 A 
ATOM     93  F   UNL A   1      44.887  24.106  36.406  1.00  0.00    -0.200 F 
ATOM     94  F   UNL A   1      47.403  25.145  36.572  1.00  0.00    -0.200 F 
ENDBRANCH  61  84
ENDBRANCH  35  36
ENDBRANCH  27  30
ENDBRANCH  25  26
ENDBRANCH  24  25
ENDBRANCH  23  24
ENDBRANCH   1  23
TORSDOF 15
ENDMDL
