MODEL 1
REMARK VINA RESULT:     -13.5      0.000      0.000
REMARK SMILES O=C(NCCCCNC(=O)C1(C/C=C/c2ccccc2)Cc2ccccc2C1)c1ccc(-c2c3nc(c(-c4c(F)c(F)c(F)c(F)c4F)c4ccc([nH]4)c(-c4c(F)c(F)c(F)c(F)c4F)c4nc(c(-c5c(F)c(F)c(F)c(F)c5F)c5ccc2[nH]5)C=C4)C=C3)cc1
REMARK SMILES IDX 6 1 5 2 4 3 3 4 1 5 2 6 29 8 30 9 91 10 31 11 90 12 32 13
REMARK SMILES IDX 33 14 34 15 84 16 35 17 89 18 83 19 85 20 36 21 88 22 82 23
REMARK SMILES IDX 81 24 37 26 69 27 49 28 68 29 50 30 53 31 67 32 86 33 51 34
REMARK SMILES IDX 52 35 66 37 87 38 54 39 38 40 39 41 47 42 40 43 41 44 45 45
REMARK SMILES IDX 48 46 42 47 43 48 46 49 44 50 70 51 71 52 79 53 72 54 73 55
REMARK SMILES IDX 77 56 80 57 74 58 75 59 78 60 76 61 55 62 56 63 64 64 57 65
REMARK SMILES IDX 58 66 62 67 65 68 59 69 60 70 63 71 61 72 7 73 8 74 9 75
REMARK SMILES IDX 10 77 11 78 21 79 28 80 22 81 27 82 23 83 26 84 24 85 25 86
REMARK SMILES IDX 12 87 13 88 14 89 15 90 16 91 20 92 17 93 19 94 18 95
REMARK H PARENT 3 7 85 25 53 36 8 76
REMARK Flexibility Score: inf
ROOT
ATOM      1  C   UNL A   1      32.167  30.078  26.892  1.00  0.00     0.023 C 
ENDROOT
BRANCH   1   2
ATOM      2  C   UNL A   1      31.931  31.572  26.724  1.00  0.00     0.023 C 
BRANCH   2   3
ATOM      3  C   UNL A   1      32.935  32.536  27.329  1.00  0.00     0.116 C 
BRANCH   3   4
ATOM      4  N   UNL A   1      32.446  33.860  27.661  1.00  0.00    -0.352 N 
ATOM      5  O   UNL A   1      32.622  35.888  28.715  1.00  0.00    -0.269 OA
ATOM      6  C   UNL A   1      33.036  34.755  28.538  1.00  0.00     0.251 C 
ATOM      7  H   UNL A   1      31.616  34.152  27.220  1.00  0.00     0.163 HD
BRANCH   6   8
ATOM      8  C   UNL A   1      34.200  34.279  29.310  1.00  0.00     0.039 A 
ATOM      9  C   UNL A   1      35.486  34.566  28.852  1.00  0.00     0.014 A 
ATOM     10  C   UNL A   1      33.994  33.435  30.404  1.00  0.00     0.014 A 
ATOM     11  C   UNL A   1      36.560  33.881  29.391  1.00  0.00     0.010 A 
ATOM     12  C   UNL A   1      35.092  32.823  31.012  1.00  0.00     0.010 A 
ATOM     13  C   UNL A   1      36.377  33.016  30.485  1.00  0.00    -0.014 A 
BRANCH  13  14
ATOM     14  C   UNL A   1      37.577  32.415  31.109  1.00  0.00     0.031 A 
ATOM     15  C   UNL A   1      38.016  32.782  32.494  1.00  0.00     0.074 A 
ATOM     16  C   UNL A   1      38.226  31.470  30.404  1.00  0.00     0.049 A 
ATOM     17  N   UNL A   1      38.987  32.273  33.209  1.00  0.00    -0.248 NA
ATOM     18  C   UNL A   1      37.280  33.863  33.167  1.00  0.00     0.031 C 
ATOM     19  C   UNL A   1      37.879  31.064  29.039  1.00  0.00     0.029 A 
ATOM     20  N   UNL A   1      39.274  30.657  30.736  1.00  0.00    -0.354 N 
ATOM     21  C   UNL A   1      38.992  32.977  34.405  1.00  0.00     0.074 A 
ATOM     22  C   UNL A   1      37.938  33.966  34.314  1.00  0.00     0.031 C 
ATOM     23  C   UNL A   1      38.652  30.034  28.676  1.00  0.00     0.029 A 
ATOM     24  C   UNL A   1      39.589  29.751  29.755  1.00  0.00     0.049 A 
ATOM     25  H   UNL A   1      39.754  30.715  31.594  1.00  0.00     0.167 HD
ATOM     26  C   UNL A   1      39.805  32.805  35.476  1.00  0.00     0.037 A 
ATOM     27  C   UNL A   1      40.536  28.796  29.725  1.00  0.00     0.037 A 
ATOM     28  C   UNL A   1      40.845  31.809  35.545  1.00  0.00     0.049 A 
ATOM     29  C   UNL A   1      41.413  28.624  30.928  1.00  0.00     0.074 A 
ATOM     30  C   UNL A   1      41.714  31.533  36.585  1.00  0.00     0.029 A 
ATOM     31  N   UNL A   1      41.158  30.924  34.520  1.00  0.00    -0.354 N 
ATOM     32  N   UNL A   1      41.388  29.274  32.065  1.00  0.00    -0.248 NA
ATOM     33  C   UNL A   1      42.450  27.590  30.845  1.00  0.00     0.031 C 
ATOM     34  C   UNL A   1      42.578  30.511  36.176  1.00  0.00     0.029 A 
ATOM     35  C   UNL A   1      42.219  30.116  34.897  1.00  0.00     0.049 A 
ATOM     36  H   UNL A   1      40.693  30.876  33.653  1.00  0.00     0.167 HD
ATOM     37  C   UNL A   1      42.401  28.730  32.837  1.00  0.00     0.074 A 
ATOM     38  C   UNL A   1      43.003  27.674  32.047  1.00  0.00     0.031 C 
ATOM     39  C   UNL A   1      42.802  29.077  34.085  1.00  0.00     0.037 A 
BRANCH  26  40
ATOM     40  C   UNL A   1      39.623  33.729  36.648  1.00  0.00     0.064 A 
ATOM     41  C   UNL A   1      40.232  34.991  36.696  1.00  0.00     0.173 A 
ATOM     42  C   UNL A   1      38.797  33.360  37.721  1.00  0.00     0.173 A 
ATOM     43  F   UNL A   1      41.039  35.389  35.702  1.00  0.00    -0.203 F 
ATOM     44  C   UNL A   1      40.044  35.838  37.787  1.00  0.00     0.198 A 
ATOM     45  C   UNL A   1      38.591  34.219  38.799  1.00  0.00     0.198 A 
ATOM     46  F   UNL A   1      38.184  32.167  37.726  1.00  0.00    -0.203 F 
ATOM     47  F   UNL A   1      40.672  37.021  37.831  1.00  0.00    -0.200 F 
ATOM     48  C   UNL A   1      39.220  35.454  38.835  1.00  0.00     0.200 A 
ATOM     49  F   UNL A   1      37.785  33.850  39.804  1.00  0.00    -0.200 F 
ATOM     50  F   UNL A   1      39.038  36.271  39.882  1.00  0.00    -0.200 F 
ENDBRANCH  26  40
BRANCH  27  51
ATOM     51  C   UNL A   1      40.673  27.944  28.518  1.00  0.00     0.064 A 
ATOM     52  C   UNL A   1      40.003  26.719  28.417  1.00  0.00     0.173 A 
ATOM     53  C   UNL A   1      41.428  28.370  27.414  1.00  0.00     0.173 A 
ATOM     54  F   UNL A   1      39.277  26.266  29.449  1.00  0.00    -0.203 F 
ATOM     55  C   UNL A   1      40.086  25.948  27.259  1.00  0.00     0.198 A 
ATOM     56  C   UNL A   1      41.486  27.614  26.246  1.00  0.00     0.198 A 
ATOM     57  F   UNL A   1      42.078  29.542  27.456  1.00  0.00    -0.203 F 
ATOM     58  F   UNL A   1      39.455  24.768  27.197  1.00  0.00    -0.200 F 
ATOM     59  C   UNL A   1      40.818  26.401  26.171  1.00  0.00     0.200 A 
ATOM     60  F   UNL A   1      42.175  28.067  25.190  1.00  0.00    -0.200 F 
ATOM     61  F   UNL A   1      40.880  25.669  25.051  1.00  0.00    -0.200 F 
ENDBRANCH  27  51
BRANCH  39  62
ATOM     62  C   UNL A   1      43.941  28.294  34.665  1.00  0.00     0.064 A 
ATOM     63  C   UNL A   1      45.269  28.724  34.524  1.00  0.00     0.173 A 
ATOM     64  C   UNL A   1      43.698  27.117  35.386  1.00  0.00     0.173 A 
ATOM     65  F   UNL A   1      45.548  29.833  33.826  1.00  0.00    -0.203 F 
ATOM     66  C   UNL A   1      46.317  27.986  35.065  1.00  0.00     0.198 A 
ATOM     67  C   UNL A   1      44.748  26.396  35.948  1.00  0.00     0.198 A 
ATOM     68  F   UNL A   1      42.445  26.669  35.550  1.00  0.00    -0.203 F 
ATOM     69  F   UNL A   1      47.582  28.387  34.879  1.00  0.00    -0.200 F 
ATOM     70  C   UNL A   1      46.056  26.826  35.781  1.00  0.00     0.200 A 
ATOM     71  F   UNL A   1      44.494  25.281  36.647  1.00  0.00    -0.200 F 
ATOM     72  F   UNL A   1      47.067  26.118  36.304  1.00  0.00    -0.200 F 
ENDBRANCH  39  62
ENDBRANCH  13  14
ENDBRANCH   6   8
ENDBRANCH   3   4
ENDBRANCH   2   3
ENDBRANCH   1   2
BRANCH   1  73
ATOM     73  C   UNL A   1      33.561  29.544  26.572  1.00  0.00     0.116 C 
BRANCH  73  74
ATOM     74  N   UNL A   1      33.707  29.344  25.149  1.00  0.00    -0.356 N 
ATOM     75  C   UNL A   1      33.788  28.270  24.344  1.00  0.00     0.227 C 
ATOM     76  H   UNL A   1      33.760  30.193  24.653  1.00  0.00     0.163 HD
ATOM     77  O   UNL A   1      34.299  28.536  23.244  1.00  0.00    -0.274 OA
BRANCH  75  78
ATOM     78  C   UNL A   1      33.317  26.830  24.634  1.00  0.00     0.061 C 
ATOM     79  C   UNL A   1      33.712  26.040  23.318  1.00  0.00     0.053 C 
ATOM     80  C   UNL A   1      34.265  26.216  25.716  1.00  0.00     0.053 C 
ATOM     81  C   UNL A   1      34.211  24.733  23.852  1.00  0.00    -0.044 A 
ATOM     82  C   UNL A   1      34.498  24.825  25.213  1.00  0.00    -0.044 A 
ATOM     83  C   UNL A   1      34.426  23.560  23.149  1.00  0.00     0.004 A 
ATOM     84  C   UNL A   1      34.986  23.736  25.914  1.00  0.00     0.004 A 
ATOM     85  C   UNL A   1      34.913  22.454  23.846  1.00  0.00     0.000 A 
ATOM     86  C   UNL A   1      35.185  22.540  25.220  1.00  0.00     0.000 A 
BRANCH  78  87
ATOM     87  C   UNL A   1      31.809  26.502  24.889  1.00  0.00     0.045 C 
BRANCH  87  88
ATOM     88  C   UNL A   1      30.769  27.587  24.724  1.00  0.00    -0.025 C 
ATOM     89  C   UNL A   1      30.384  28.072  23.529  1.00  0.00     0.004 C 
BRANCH  89  90
ATOM     90  C   UNL A   1      29.500  29.236  23.310  1.00  0.00    -0.026 A 
ATOM     91  C   UNL A   1      29.873  30.469  23.860  1.00  0.00     0.008 A 
ATOM     92  C   UNL A   1      28.220  29.129  22.744  1.00  0.00     0.008 A 
ATOM     93  C   UNL A   1      28.977  31.544  23.885  1.00  0.00     0.001 A 
ATOM     94  C   UNL A   1      27.316  30.196  22.787  1.00  0.00     0.001 A 
ATOM     95  C   UNL A   1      27.692  31.400  23.371  1.00  0.00     0.000 A 
ENDBRANCH  89  90
ENDBRANCH  87  88
ENDBRANCH  78  87
ENDBRANCH  75  78
ENDBRANCH  73  74
ENDBRANCH   1  73
TORSDOF 14
ENDMDL
MODEL 2
REMARK VINA RESULT:     -13.4      5.477     11.181
REMARK SMILES O=C(NCCCCNC(=O)C1(C/C=C/c2ccccc2)Cc2ccccc2C1)c1ccc(-c2c3nc(c(-c4c(F)c(F)c(F)c(F)c4F)c4ccc([nH]4)c(-c4c(F)c(F)c(F)c(F)c4F)c4nc(c(-c5c(F)c(F)c(F)c(F)c5F)c5ccc2[nH]5)C=C4)C=C3)cc1
REMARK SMILES IDX 6 1 5 2 4 3 3 4 1 5 2 6 29 8 30 9 91 10 31 11 90 12 32 13
REMARK SMILES IDX 33 14 34 15 84 16 35 17 89 18 83 19 85 20 36 21 88 22 82 23
REMARK SMILES IDX 81 24 37 26 69 27 49 28 68 29 50 30 53 31 67 32 86 33 51 34
REMARK SMILES IDX 52 35 66 37 87 38 54 39 38 40 39 41 47 42 40 43 41 44 45 45
REMARK SMILES IDX 48 46 42 47 43 48 46 49 44 50 70 51 71 52 79 53 72 54 73 55
REMARK SMILES IDX 77 56 80 57 74 58 75 59 78 60 76 61 55 62 56 63 64 64 57 65
REMARK SMILES IDX 58 66 62 67 65 68 59 69 60 70 63 71 61 72 7 73 8 74 9 75
REMARK SMILES IDX 10 77 11 78 21 79 28 80 22 81 27 82 23 83 26 84 24 85 25 86
REMARK SMILES IDX 12 87 13 88 14 89 15 90 16 91 20 92 17 93 19 94 18 95
REMARK H PARENT 3 7 85 25 53 36 8 76
REMARK Flexibility Score: inf
ROOT
ATOM      1  C   UNL A   1      37.205  21.549  24.615  1.00  0.00     0.023 C 
ENDROOT
BRANCH   1   2
ATOM      2  C   UNL A   1      37.948  20.271  24.975  1.00  0.00     0.023 C 
BRANCH   2   3
ATOM      3  C   UNL A   1      39.221  20.380  25.793  1.00  0.00     0.116 C 
BRANCH   3   4
ATOM      4  N   UNL A   1      40.116  19.239  25.759  1.00  0.00    -0.352 N 
ATOM      5  O   UNL A   1      42.141  18.230  26.125  1.00  0.00    -0.269 OA
ATOM      6  C   UNL A   1      41.459  19.240  26.096  1.00  0.00     0.251 C 
ATOM      7  H   UNL A   1      39.731  18.380  25.470  1.00  0.00     0.163 HD
BRANCH   6   8
ATOM      8  C   UNL A   1      42.081  20.544  26.394  1.00  0.00     0.039 A 
ATOM      9  C   UNL A   1      42.281  20.916  27.723  1.00  0.00     0.014 A 
ATOM     10  C   UNL A   1      42.328  21.438  25.347  1.00  0.00     0.014 A 
ATOM     11  C   UNL A   1      42.578  22.236  28.015  1.00  0.00     0.010 A 
ATOM     12  C   UNL A   1      42.727  22.742  25.643  1.00  0.00     0.010 A 
ATOM     13  C   UNL A   1      42.820  23.158  26.979  1.00  0.00    -0.014 A 
BRANCH  13  14
ATOM     14  C   UNL A   1      43.265  24.520  27.347  1.00  0.00     0.031 A 
ATOM     15  C   UNL A   1      44.650  25.007  27.045  1.00  0.00     0.074 A 
ATOM     16  C   UNL A   1      42.351  25.334  27.908  1.00  0.00     0.049 A 
ATOM     17  N   UNL A   1      45.157  26.201  27.219  1.00  0.00    -0.248 NA
ATOM     18  C   UNL A   1      45.596  24.032  26.482  1.00  0.00     0.031 C 
ATOM     19  C   UNL A   1      40.984  24.936  28.255  1.00  0.00     0.029 A 
ATOM     20  N   UNL A   1      42.410  26.657  28.247  1.00  0.00    -0.354 N 
ATOM     21  C   UNL A   1      46.479  26.121  26.805  1.00  0.00     0.074 A 
ATOM     22  C   UNL A   1      46.706  24.753  26.388  1.00  0.00     0.031 C 
ATOM     23  C   UNL A   1      40.313  26.008  28.693  1.00  0.00     0.029 A 
ATOM     24  C   UNL A   1      41.218  27.149  28.718  1.00  0.00     0.049 A 
ATOM     25  H   UNL A   1      43.225  27.203  28.162  1.00  0.00     0.167 HD
ATOM     26  C   UNL A   1      47.410  27.105  26.778  1.00  0.00     0.037 A 
ATOM     27  C   UNL A   1      40.891  28.386  29.132  1.00  0.00     0.037 A 
ATOM     28  C   UNL A   1      47.158  28.463  27.194  1.00  0.00     0.049 A 
ATOM     29  C   UNL A   1      41.939  29.456  29.080  1.00  0.00     0.074 A 
ATOM     30  C   UNL A   1      48.021  29.545  27.190  1.00  0.00     0.029 A 
ATOM     31  N   UNL A   1      45.946  28.922  27.694  1.00  0.00    -0.354 N 
ATOM     32  N   UNL A   1      43.177  29.376  28.658  1.00  0.00    -0.248 NA
ATOM     33  C   UNL A   1      41.549  30.784  29.564  1.00  0.00     0.031 C 
ATOM     34  C   UNL A   1      47.344  30.647  27.727  1.00  0.00     0.029 A 
ATOM     35  C   UNL A   1      46.044  30.266  28.021  1.00  0.00     0.049 A 
ATOM     36  H   UNL A   1      45.135  28.374  27.800  1.00  0.00     0.167 HD
ATOM     37  C   UNL A   1      43.717  30.641  28.820  1.00  0.00     0.074 A 
ATOM     38  C   UNL A   1      42.660  31.478  29.354  1.00  0.00     0.031 C 
ATOM     39  C   UNL A   1      44.976  31.070  28.558  1.00  0.00     0.037 A 
BRANCH  26  40
ATOM     40  C   UNL A   1      48.793  26.748  26.309  1.00  0.00     0.064 A 
ATOM     41  C   UNL A   1      49.729  26.144  27.162  1.00  0.00     0.173 A 
ATOM     42  C   UNL A   1      49.174  26.978  24.978  1.00  0.00     0.173 A 
ATOM     43  F   UNL A   1      49.421  25.911  28.446  1.00  0.00    -0.203 F 
ATOM     44  C   UNL A   1      51.004  25.811  26.707  1.00  0.00     0.198 A 
ATOM     45  C   UNL A   1      50.440  26.621  24.520  1.00  0.00     0.198 A 
ATOM     46  F   UNL A   1      48.317  27.547  24.118  1.00  0.00    -0.203 F 
ATOM     47  F   UNL A   1      51.897  25.276  27.552  1.00  0.00    -0.200 F 
ATOM     48  C   UNL A   1      51.357  26.044  25.385  1.00  0.00     0.200 A 
ATOM     49  F   UNL A   1      50.774  26.838  23.240  1.00  0.00    -0.200 F 
ATOM     50  F   UNL A   1      52.582  25.721  24.949  1.00  0.00    -0.200 F 
ENDBRANCH  26  40
BRANCH  27  51
ATOM     51  C   UNL A   1      39.511  28.653  29.610  1.00  0.00     0.064 A 
ATOM     52  C   UNL A   1      39.163  28.469  30.953  1.00  0.00     0.173 A 
ATOM     53  C   UNL A   1      38.531  29.158  28.741  1.00  0.00     0.173 A 
ATOM     54  F   UNL A   1      40.062  27.980  31.818  1.00  0.00    -0.203 F 
ATOM     55  C   UNL A   1      37.883  28.777  31.411  1.00  0.00     0.198 A 
ATOM     56  C   UNL A   1      37.261  29.493  29.206  1.00  0.00     0.198 A 
ATOM     57  F   UNL A   1      38.820  29.364  27.448  1.00  0.00    -0.203 F 
ATOM     58  F   UNL A   1      37.567  28.569  32.696  1.00  0.00    -0.200 F 
ATOM     59  C   UNL A   1      36.937  29.298  30.540  1.00  0.00     0.200 A 
ATOM     60  F   UNL A   1      36.361  30.019  28.366  1.00  0.00    -0.200 F 
ATOM     61  F   UNL A   1      35.714  29.613  30.985  1.00  0.00    -0.200 F 
ENDBRANCH  27  51
BRANCH  39  62
ATOM     62  C   UNL A   1      45.264  32.513  28.841  1.00  0.00     0.064 A 
ATOM     63  C   UNL A   1      45.791  32.925  30.075  1.00  0.00     0.173 A 
ATOM     64  C   UNL A   1      45.031  33.489  27.862  1.00  0.00     0.173 A 
ATOM     65  F   UNL A   1      46.011  32.028  31.047  1.00  0.00    -0.203 F 
ATOM     66  C   UNL A   1      46.052  34.269  30.325  1.00  0.00     0.198 A 
ATOM     67  C   UNL A   1      45.317  34.829  28.108  1.00  0.00     0.198 A 
ATOM     68  F   UNL A   1      44.531  33.143  26.667  1.00  0.00    -0.203 F 
ATOM     69  F   UNL A   1      46.510  34.648  31.526  1.00  0.00    -0.200 F 
ATOM     70  C   UNL A   1      45.820  35.219  29.340  1.00  0.00     0.200 A 
ATOM     71  F   UNL A   1      45.102  35.745  27.153  1.00  0.00    -0.200 F 
ATOM     72  F   UNL A   1      46.073  36.512  29.583  1.00  0.00    -0.200 F 
ENDBRANCH  39  62
ENDBRANCH  13  14
ENDBRANCH   6   8
ENDBRANCH   3   4
ENDBRANCH   2   3
ENDBRANCH   1   2
BRANCH   1  73
ATOM     73  C   UNL A   1      37.039  22.601  25.709  1.00  0.00     0.116 C 
BRANCH  73  74
ATOM     74  N   UNL A   1      35.868  22.317  26.505  1.00  0.00    -0.356 N 
ATOM     75  C   UNL A   1      34.662  22.892  26.660  1.00  0.00     0.227 C 
ATOM     76  H   UNL A   1      35.979  21.515  27.065  1.00  0.00     0.163 HD
ATOM     77  O   UNL A   1      34.109  22.560  27.720  1.00  0.00    -0.274 OA
BRANCH  75  78
ATOM     78  C   UNL A   1      33.938  23.850  25.692  1.00  0.00     0.061 C 
ATOM     79  C   UNL A   1      32.608  24.223  26.468  1.00  0.00     0.053 C 
ATOM     80  C   UNL A   1      34.725  25.201  25.665  1.00  0.00     0.053 C 
ATOM     81  C   UNL A   1      32.447  25.681  26.173  1.00  0.00    -0.044 A 
ATOM     82  C   UNL A   1      33.636  26.228  25.693  1.00  0.00    -0.044 A 
ATOM     83  C   UNL A   1      31.320  26.462  26.361  1.00  0.00     0.004 A 
ATOM     84  C   UNL A   1      33.721  27.571  25.365  1.00  0.00     0.004 A 
ATOM     85  C   UNL A   1      31.393  27.815  26.029  1.00  0.00     0.000 A 
ATOM     86  C   UNL A   1      32.583  28.364  25.528  1.00  0.00     0.000 A 
BRANCH  78  87
ATOM     87  C   UNL A   1      33.483  23.383  24.271  1.00  0.00     0.045 C 
BRANCH  87  88
ATOM     88  C   UNL A   1      33.681  21.942  23.858  1.00  0.00    -0.025 C 
ATOM     89  C   UNL A   1      32.940  20.924  24.334  1.00  0.00     0.004 C 
BRANCH  89  90
ATOM     90  C   UNL A   1      33.189  19.486  24.097  1.00  0.00    -0.026 A 
ATOM     91  C   UNL A   1      34.341  18.909  24.644  1.00  0.00     0.008 A 
ATOM     92  C   UNL A   1      32.432  18.717  23.199  1.00  0.00     0.008 A 
ATOM     93  C   UNL A   1      34.749  17.624  24.269  1.00  0.00     0.001 A 
ATOM     94  C   UNL A   1      32.849  17.441  22.807  1.00  0.00     0.001 A 
ATOM     95  C   UNL A   1      34.016  16.900  23.334  1.00  0.00     0.000 A 
ENDBRANCH  89  90
ENDBRANCH  87  88
ENDBRANCH  78  87
ENDBRANCH  75  78
ENDBRANCH  73  74
ENDBRANCH   1  73
TORSDOF 14
ENDMDL
MODEL 3
REMARK VINA RESULT:     -13.4      2.068      4.382
REMARK SMILES O=C(NCCCCNC(=O)C1(C/C=C/c2ccccc2)Cc2ccccc2C1)c1ccc(-c2c3nc(c(-c4c(F)c(F)c(F)c(F)c4F)c4ccc([nH]4)c(-c4c(F)c(F)c(F)c(F)c4F)c4nc(c(-c5c(F)c(F)c(F)c(F)c5F)c5ccc2[nH]5)C=C4)C=C3)cc1
REMARK SMILES IDX 6 1 5 2 4 3 3 4 1 5 2 6 29 8 30 9 91 10 31 11 90 12 32 13
REMARK SMILES IDX 33 14 34 15 84 16 35 17 89 18 83 19 85 20 36 21 88 22 82 23
REMARK SMILES IDX 81 24 37 26 69 27 49 28 68 29 50 30 53 31 67 32 86 33 51 34
REMARK SMILES IDX 52 35 66 37 87 38 54 39 38 40 39 41 47 42 40 43 41 44 45 45
REMARK SMILES IDX 48 46 42 47 43 48 46 49 44 50 70 51 71 52 79 53 72 54 73 55
REMARK SMILES IDX 77 56 80 57 74 58 75 59 78 60 76 61 55 62 56 63 64 64 57 65
REMARK SMILES IDX 58 66 62 67 65 68 59 69 60 70 63 71 61 72 7 73 8 74 9 75
REMARK SMILES IDX 10 77 11 78 21 79 28 80 22 81 27 82 23 83 26 84 24 85 25 86
REMARK SMILES IDX 12 87 13 88 14 89 15 90 16 91 20 92 17 93 19 94 18 95
REMARK H PARENT 3 7 85 25 53 36 8 76
REMARK Flexibility Score: inf
ROOT
ATOM      1  C   UNL A   1      31.621  28.251  24.347  1.00  0.00     0.023 C 
ENDROOT
BRANCH   1   2
ATOM      2  C   UNL A   1      32.229  28.360  25.738  1.00  0.00     0.023 C 
BRANCH   2   3
ATOM      3  C   UNL A   1      33.230  29.467  26.005  1.00  0.00     0.116 C 
BRANCH   3   4
ATOM      4  N   UNL A   1      32.692  30.738  26.452  1.00  0.00    -0.352 N 
ATOM      5  O   UNL A   1      32.863  32.755  27.527  1.00  0.00    -0.269 OA
ATOM      6  C   UNL A   1      33.337  31.666  27.252  1.00  0.00     0.251 C 
ATOM      7  H   UNL A   1      31.780  30.963  26.156  1.00  0.00     0.163 HD
BRANCH   6   8
ATOM      8  C   UNL A   1      34.644  31.281  27.816  1.00  0.00     0.039 A 
ATOM      9  C   UNL A   1      34.825  29.983  28.294  1.00  0.00     0.014 A 
ATOM     10  C   UNL A   1      35.629  32.258  27.987  1.00  0.00     0.014 A 
ATOM     11  C   UNL A   1      35.926  29.705  29.085  1.00  0.00     0.010 A 
ATOM     12  C   UNL A   1      36.787  31.944  28.700  1.00  0.00     0.010 A 
ATOM     13  C   UNL A   1      36.925  30.676  29.283  1.00  0.00    -0.014 A 
BRANCH  13  14
ATOM     14  C   UNL A   1      38.144  30.283  30.024  1.00  0.00     0.031 A 
ATOM     15  C   UNL A   1      38.382  30.714  31.440  1.00  0.00     0.074 A 
ATOM     16  C   UNL A   1      39.007  29.463  29.394  1.00  0.00     0.049 A 
ATOM     17  N   UNL A   1      39.353  30.373  32.249  1.00  0.00    -0.248 NA
ATOM     18  C   UNL A   1      37.414  31.653  32.026  1.00  0.00     0.031 C 
ATOM     19  C   UNL A   1      38.863  29.010  28.008  1.00  0.00     0.029 A 
ATOM     20  N   UNL A   1      40.140  28.838  29.834  1.00  0.00    -0.354 N 
ATOM     21  C   UNL A   1      39.126  31.064  33.431  1.00  0.00     0.074 A 
ATOM     22  C   UNL A   1      37.934  31.861  33.230  1.00  0.00     0.031 C 
ATOM     23  C   UNL A   1      39.830  28.127  27.732  1.00  0.00     0.029 A 
ATOM     24  C   UNL A   1      40.695  28.001  28.898  1.00  0.00     0.049 A 
ATOM     25  H   UNL A   1      40.521  28.973  30.732  1.00  0.00     0.167 HD
ATOM     26  C   UNL A   1      39.851  31.028  34.576  1.00  0.00     0.037 A 
ATOM     27  C   UNL A   1      41.788  27.221  28.969  1.00  0.00     0.037 A 
ATOM     28  C   UNL A   1      41.032  30.221  34.754  1.00  0.00     0.049 A 
ATOM     29  C   UNL A   1      42.563  27.194  30.251  1.00  0.00     0.074 A 
ATOM     30  C   UNL A   1      41.833  30.092  35.875  1.00  0.00     0.029 A 
ATOM     31  N   UNL A   1      41.585  29.405  33.774  1.00  0.00    -0.354 N 
ATOM     32  N   UNL A   1      42.321  27.827  31.373  1.00  0.00    -0.248 NA
ATOM     33  C   UNL A   1      43.762  26.350  30.278  1.00  0.00     0.031 C 
ATOM     34  C   UNL A   1      42.892  29.232  35.561  1.00  0.00     0.029 A 
ATOM     35  C   UNL A   1      42.727  28.786  34.260  1.00  0.00     0.049 A 
ATOM     36  H   UNL A   1      41.220  29.283  32.868  1.00  0.00     0.167 HD
ATOM     37  C   UNL A   1      43.333  27.458  32.243  1.00  0.00     0.074 A 
ATOM     38  C   UNL A   1      44.177  26.521  31.526  1.00  0.00     0.031 C 
ATOM     39  C   UNL A   1      43.550  27.864  33.518  1.00  0.00     0.037 A 
BRANCH  26  40
ATOM     40  C   UNL A   1      39.406  31.903  35.714  1.00  0.00     0.064 A 
ATOM     41  C   UNL A   1      39.904  33.203  35.885  1.00  0.00     0.173 A 
ATOM     42  C   UNL A   1      38.440  31.447  36.625  1.00  0.00     0.173 A 
ATOM     43  F   UNL A   1      40.835  33.685  35.048  1.00  0.00    -0.203 F 
ATOM     44  C   UNL A   1      39.472  34.004  36.941  1.00  0.00     0.198 A 
ATOM     45  C   UNL A   1      37.993  32.259  37.665  1.00  0.00     0.198 A 
ATOM     46  F   UNL A   1      37.926  30.214  36.506  1.00  0.00    -0.203 F 
ATOM     47  F   UNL A   1      39.995  35.227  37.110  1.00  0.00    -0.200 F 
ATOM     48  C   UNL A   1      38.513  33.534  37.827  1.00  0.00     0.200 A 
ATOM     49  F   UNL A   1      37.058  31.806  38.513  1.00  0.00    -0.200 F 
ATOM     50  F   UNL A   1      38.098  34.306  38.840  1.00  0.00    -0.200 F 
ENDBRANCH  26  40
BRANCH  27  51
ATOM     51  C   UNL A   1      42.180  26.408  27.790  1.00  0.00     0.064 A 
ATOM     52  C   UNL A   1      43.180  26.842  26.913  1.00  0.00     0.173 A 
ATOM     53  C   UNL A   1      41.603  25.150  27.556  1.00  0.00     0.173 A 
ATOM     54  F   UNL A   1      43.753  28.041  27.090  1.00  0.00    -0.203 F 
ATOM     55  C   UNL A   1      43.587  26.050  25.841  1.00  0.00     0.198 A 
ATOM     56  C   UNL A   1      42.032  24.346  26.502  1.00  0.00     0.198 A 
ATOM     57  F   UNL A   1      40.650  24.684  28.377  1.00  0.00    -0.203 F 
ATOM     58  F   UNL A   1      44.530  26.499  25.000  1.00  0.00    -0.200 F 
ATOM     59  C   UNL A   1      43.021  24.799  25.643  1.00  0.00     0.200 A 
ATOM     60  F   UNL A   1      41.499  23.129  26.331  1.00  0.00    -0.200 F 
ATOM     61  F   UNL A   1      43.428  24.030  24.625  1.00  0.00    -0.200 F 
ENDBRANCH  27  51
BRANCH  39  62
ATOM     62  C   UNL A   1      44.745  27.282  34.213  1.00  0.00     0.064 A 
ATOM     63  C   UNL A   1      45.989  27.930  34.192  1.00  0.00     0.173 A 
ATOM     64  C   UNL A   1      44.637  26.078  34.923  1.00  0.00     0.173 A 
ATOM     65  F   UNL A   1      46.143  29.073  33.509  1.00  0.00    -0.203 F 
ATOM     66  C   UNL A   1      47.090  27.377  34.838  1.00  0.00     0.198 A 
ATOM     67  C   UNL A   1      45.734  25.542  35.589  1.00  0.00     0.198 A 
ATOM     68  F   UNL A   1      43.467  25.424  34.973  1.00  0.00    -0.203 F 
ATOM     69  F   UNL A   1      48.282  27.986  34.766  1.00  0.00    -0.200 F 
ATOM     70  C   UNL A   1      46.962  26.188  35.541  1.00  0.00     0.200 A 
ATOM     71  F   UNL A   1      45.607  24.398  36.276  1.00  0.00    -0.200 F 
ATOM     72  F   UNL A   1      48.023  25.658  36.164  1.00  0.00    -0.200 F 
ENDBRANCH  39  62
ENDBRANCH  13  14
ENDBRANCH   6   8
ENDBRANCH   3   4
ENDBRANCH   2   3
ENDBRANCH   1   2
BRANCH   1  73
ATOM     73  C   UNL A   1      31.160  26.871  23.885  1.00  0.00     0.116 C 
BRANCH  73  74
ATOM     74  N   UNL A   1      31.971  26.415  22.781  1.00  0.00    -0.356 N 
ATOM     75  C   UNL A   1      33.011  25.572  22.650  1.00  0.00     0.227 C 
ATOM     76  H   UNL A   1      31.699  26.815  21.923  1.00  0.00     0.163 HD
ATOM     77  O   UNL A   1      33.652  25.765  21.605  1.00  0.00    -0.274 OA
BRANCH  75  78
ATOM     78  C   UNL A   1      33.442  24.443  23.608  1.00  0.00     0.061 C 
ATOM     79  C   UNL A   1      34.476  23.604  22.750  1.00  0.00     0.053 C 
ATOM     80  C   UNL A   1      34.334  25.070  24.729  1.00  0.00     0.053 C 
ATOM     81  C   UNL A   1      35.538  23.262  23.748  1.00  0.00    -0.044 A 
ATOM     82  C   UNL A   1      35.441  24.072  24.878  1.00  0.00    -0.044 A 
ATOM     83  C   UNL A   1      36.540  22.315  23.625  1.00  0.00     0.004 A 
ATOM     84  C   UNL A   1      36.333  23.939  25.929  1.00  0.00     0.004 A 
ATOM     85  C   UNL A   1      37.441  22.169  24.680  1.00  0.00     0.000 A 
ATOM     86  C   UNL A   1      37.334  22.970  25.827  1.00  0.00     0.000 A 
BRANCH  78  87
ATOM     87  C   UNL A   1      32.410  23.405  24.162  1.00  0.00     0.045 C 
BRANCH  87  88
ATOM     88  C   UNL A   1      32.519  21.953  23.755  1.00  0.00    -0.025 C 
ATOM     89  C   UNL A   1      32.858  20.966  24.604  1.00  0.00     0.004 C 
BRANCH  89  90
ATOM     90  C   UNL A   1      33.139  19.563  24.235  1.00  0.00    -0.026 A 
ATOM     91  C   UNL A   1      34.295  18.958  24.742  1.00  0.00     0.008 A 
ATOM     92  C   UNL A   1      32.409  18.869  23.256  1.00  0.00     0.008 A 
ATOM     93  C   UNL A   1      34.733  17.722  24.252  1.00  0.00     0.001 A 
ATOM     94  C   UNL A   1      32.857  17.644  22.751  1.00  0.00     0.001 A 
ATOM     95  C   UNL A   1      34.028  17.078  23.241  1.00  0.00     0.000 A 
ENDBRANCH  89  90
ENDBRANCH  87  88
ENDBRANCH  78  87
ENDBRANCH  75  78
ENDBRANCH  73  74
ENDBRANCH   1  73
TORSDOF 14
ENDMDL
