MODEL 1
REMARK VINA RESULT:     -12.0      0.000      0.000
REMARK SMILES C[C@@H]1SCCC[C@]1(CC(=O)NCCCCNC(=O)c1ccc(-c2c3nc(c(-c4c(F)c(F)c(F)c(F)c4F)c4ccc([nH]4)c(-c4c(F)c(F)c(F)c(F)c4F)c4nc(c(-c5c(F)c(F)c(F)c(F)c5F)c5ccc2[nH]5)C=C4)C=C3)cc1)[NH+]1CCOCC1
REMARK SMILES IDX 13 1 12 2 11 3 9 4 10 5 8 7 7 8 1 9 2 10 3 11 4 12 6 13 5 14
REMARK SMILES IDX 82 15 83 16 87 17 84 19 86 20 85 21 14 22 15 23 16 24 17 25
REMARK SMILES IDX 18 27 19 28 20 29 81 30 21 31 80 32 22 33 23 34 24 35 74 36
REMARK SMILES IDX 25 37 79 38 73 39 75 40 26 41 78 42 72 43 71 44 27 46 59 47
REMARK SMILES IDX 39 48 58 49 40 50 43 51 57 52 76 53 41 54 42 55 56 57 77 58
REMARK SMILES IDX 44 59 28 60 29 61 37 62 30 63 31 64 35 65 38 66 32 67 33 68
REMARK SMILES IDX 36 69 34 70 60 71 61 72 69 73 62 74 63 75 67 76 70 77 64 78
REMARK SMILES IDX 65 79 68 80 66 81 45 82 46 83 54 84 47 85 48 86 52 87 55 88
REMARK SMILES IDX 49 89 50 90 53 91 51 92
REMARK H PARENT 11 6 82 18 16 26 75 45 43 56
REMARK Flexibility Score: inf
ROOT
ATOM      1  C   UNL A   1      31.798  30.583  26.570  1.00  0.00     0.023 C 
ENDROOT
BRANCH   1   2
ATOM      2  C   UNL A   1      33.201  30.087  26.914  1.00  0.00     0.116 C 
BRANCH   2   3
ATOM      3  N   UNL A   1      33.886  29.577  25.755  1.00  0.00    -0.356 N 
ATOM      4  C   UNL A   1      33.649  28.475  25.008  1.00  0.00     0.226 C 
ATOM      5  O   UNL A   1      34.216  28.458  23.907  1.00  0.00    -0.275 OA
ATOM      6  H   UNL A   1      34.652  30.120  25.458  1.00  0.00     0.163 HD
BRANCH   4   7
ATOM      7  C   UNL A   1      32.695  27.339  25.400  1.00  0.00     0.169 C 
BRANCH   7   8
ATOM      8  C   UNL A   1      32.522  25.947  24.617  1.00  0.00     0.118 C 
ATOM      9  C   UNL A   1      31.065  23.612  24.857  1.00  0.00     0.026 C 
ATOM     10  C   UNL A   1      31.538  24.970  25.406  1.00  0.00     0.105 C 
ATOM     11  S   UNL A   1      29.937  25.773  25.905  1.00  0.00    -0.152 SA
ATOM     12  C   UNL A   1      29.345  26.280  24.270  1.00  0.00     0.070 C 
ATOM     13  C   UNL A   1      31.740  26.300  23.290  1.00  0.00     0.071 C 
ATOM     14  C   UNL A   1      30.395  27.025  23.459  1.00  0.00     0.017 C 
BRANCH   8  15
ATOM     15  N   UNL A   1      33.823  25.413  24.077  1.00  0.00    -0.325 N 
ATOM     16  C   UNL A   1      34.817  24.713  24.908  1.00  0.00     0.291 C 
ATOM     17  C   UNL A   1      33.908  24.810  22.742  1.00  0.00     0.291 C 
ATOM     18  H   UNL A   1      34.066  26.403  24.053  1.00  0.00     0.348 HD
ATOM     19  C   UNL A   1      34.623  23.189  24.945  1.00  0.00     0.221 C 
ATOM     20  C   UNL A   1      33.667  23.287  22.778  1.00  0.00     0.221 C 
ATOM     21  O   UNL A   1      34.620  22.627  23.623  1.00  0.00    -0.370 OA
ENDBRANCH   8  15
ENDBRANCH   7   8
ENDBRANCH   4   7
ENDBRANCH   2   3
ENDBRANCH   1   2
BRANCH   1  22
ATOM     22  C   UNL A   1      31.604  32.085  26.627  1.00  0.00     0.023 C 
BRANCH  22  23
ATOM     23  C   UNL A   1      32.722  32.811  27.341  1.00  0.00     0.116 C 
BRANCH  23  24
ATOM     24  N   UNL A   1      32.409  34.201  27.658  1.00  0.00    -0.352 N 
ATOM     25  C   UNL A   1      32.996  34.997  28.611  1.00  0.00     0.251 C 
ATOM     26  H   UNL A   1      31.693  34.617  27.125  1.00  0.00     0.163 HD
ATOM     27  O   UNL A   1      32.572  36.119  28.860  1.00  0.00    -0.269 OA
BRANCH  25  28
ATOM     28  C   UNL A   1      34.133  34.438  29.359  1.00  0.00     0.039 A 
ATOM     29  C   UNL A   1      33.891  33.614  30.457  1.00  0.00     0.014 A 
ATOM     30  C   UNL A   1      35.428  34.627  28.870  1.00  0.00     0.014 A 
ATOM     31  C   UNL A   1      34.955  32.921  31.031  1.00  0.00     0.010 A 
ATOM     32  C   UNL A   1      36.457  33.842  29.358  1.00  0.00     0.010 A 
ATOM     33  C   UNL A   1      36.236  33.003  30.461  1.00  0.00    -0.014 A 
BRANCH  33  34
ATOM     34  C   UNL A   1      37.387  32.270  31.032  1.00  0.00     0.031 A 
ATOM     35  C   UNL A   1      37.867  32.629  32.411  1.00  0.00     0.074 A 
ATOM     36  C   UNL A   1      38.037  31.350  30.293  1.00  0.00     0.049 A 
ATOM     37  N   UNL A   1      38.907  32.188  33.069  1.00  0.00    -0.248 NA
ATOM     38  C   UNL A   1      37.101  33.663  33.129  1.00  0.00     0.031 C 
ATOM     39  C   UNL A   1      37.702  30.976  28.918  1.00  0.00     0.029 A 
ATOM     40  N   UNL A   1      39.120  30.568  30.596  1.00  0.00    -0.354 N 
ATOM     41  C   UNL A   1      38.933  32.913  34.254  1.00  0.00     0.074 A 
ATOM     42  C   UNL A   1      37.857  33.874  34.193  1.00  0.00     0.031 C 
ATOM     43  C   UNL A   1      38.540  30.008  28.509  1.00  0.00     0.029 A 
ATOM     44  C   UNL A   1      39.489  29.721  29.581  1.00  0.00     0.049 A 
ATOM     45  H   UNL A   1      39.590  30.610  31.460  1.00  0.00     0.167 HD
ATOM     46  C   UNL A   1      39.757  32.761  35.315  1.00  0.00     0.037 A 
ATOM     47  C   UNL A   1      40.480  28.811  29.531  1.00  0.00     0.037 A 
ATOM     48  C   UNL A   1      40.785  31.761  35.387  1.00  0.00     0.049 A 
ATOM     49  C   UNL A   1      41.355  28.629  30.742  1.00  0.00     0.074 A 
ATOM     50  C   UNL A   1      41.629  31.463  36.439  1.00  0.00     0.029 A 
ATOM     51  N   UNL A   1      41.097  30.884  34.357  1.00  0.00    -0.354 N 
ATOM     52  N   UNL A   1      41.326  29.266  31.887  1.00  0.00    -0.248 NA
ATOM     53  C   UNL A   1      42.396  27.595  30.657  1.00  0.00     0.031 C 
ATOM     54  C   UNL A   1      42.478  30.427  36.035  1.00  0.00     0.029 A 
ATOM     55  C   UNL A   1      42.131  30.050  34.746  1.00  0.00     0.049 A 
ATOM     56  H   UNL A   1      40.650  30.859  33.480  1.00  0.00     0.167 HD
ATOM     57  C   UNL A   1      42.319  28.694  32.670  1.00  0.00     0.074 A 
ATOM     58  C   UNL A   1      42.924  27.647  31.872  1.00  0.00     0.031 C 
ATOM     59  C   UNL A   1      42.700  29.006  33.933  1.00  0.00     0.037 A 
BRANCH  46  60
ATOM     60  C   UNL A   1      39.559  33.684  36.482  1.00  0.00     0.064 A 
ATOM     61  C   UNL A   1      40.157  34.954  36.528  1.00  0.00     0.173 A 
ATOM     62  C   UNL A   1      38.759  33.298  37.567  1.00  0.00     0.173 A 
ATOM     63  F   UNL A   1      40.947  35.364  35.524  1.00  0.00    -0.203 F 
ATOM     64  C   UNL A   1      39.990  35.786  37.630  1.00  0.00     0.198 A 
ATOM     65  C   UNL A   1      38.568  34.148  38.654  1.00  0.00     0.198 A 
ATOM     66  F   UNL A   1      38.165  32.095  37.577  1.00  0.00    -0.203 F 
ATOM     67  F   UNL A   1      40.623  36.967  37.677  1.00  0.00    -0.200 F 
ATOM     68  C   UNL A   1      39.191  35.386  38.689  1.00  0.00     0.200 A 
ATOM     69  F   UNL A   1      37.786  33.763  39.672  1.00  0.00    -0.200 F 
ATOM     70  F   UNL A   1      39.028  36.190  39.749  1.00  0.00    -0.200 F 
ENDBRANCH  46  60
BRANCH  47  71
ATOM     71  C   UNL A   1      40.662  27.972  28.318  1.00  0.00     0.064 A 
ATOM     72  C   UNL A   1      40.068  26.705  28.227  1.00  0.00     0.173 A 
ATOM     73  C   UNL A   1      41.426  28.413  27.229  1.00  0.00     0.173 A 
ATOM     74  F   UNL A   1      39.341  26.232  29.249  1.00  0.00    -0.203 F 
ATOM     75  C   UNL A   1      40.249  25.903  27.102  1.00  0.00     0.198 A 
ATOM     76  C   UNL A   1      41.586  27.621  26.093  1.00  0.00     0.198 A 
ATOM     77  F   UNL A   1      42.010  29.620  27.262  1.00  0.00    -0.203 F 
ATOM     78  F   UNL A   1      39.706  24.679  27.059  1.00  0.00    -0.200 F 
ATOM     79  C   UNL A   1      41.004  26.363  26.034  1.00  0.00     0.200 A 
ATOM     80  F   UNL A   1      42.304  28.074  25.057  1.00  0.00    -0.200 F 
ATOM     81  F   UNL A   1      41.176  25.593  24.951  1.00  0.00    -0.200 F 
ENDBRANCH  47  71
BRANCH  59  82
ATOM     82  C   UNL A   1      43.795  28.181  34.542  1.00  0.00     0.064 A 
ATOM     83  C   UNL A   1      43.523  26.978  35.207  1.00  0.00     0.173 A 
ATOM     84  C   UNL A   1      45.134  28.576  34.410  1.00  0.00     0.173 A 
ATOM     85  F   UNL A   1      42.257  26.567  35.369  1.00  0.00    -0.203 F 
ATOM     86  C   UNL A   1      44.554  26.210  35.739  1.00  0.00     0.198 A 
ATOM     87  C   UNL A   1      46.164  27.791  34.916  1.00  0.00     0.198 A 
ATOM     88  F   UNL A   1      45.444  29.716  33.773  1.00  0.00    -0.203 F 
ATOM     89  F   UNL A   1      44.271  25.084  36.409  1.00  0.00    -0.200 F 
ATOM     90  C   UNL A   1      45.873  26.613  35.587  1.00  0.00     0.200 A 
ATOM     91  F   UNL A   1      47.438  28.174  34.755  1.00  0.00    -0.200 F 
ATOM     92  F   UNL A   1      46.865  25.866  36.091  1.00  0.00    -0.200 F 
ENDBRANCH  59  82
ENDBRANCH  33  34
ENDBRANCH  25  28
ENDBRANCH  23  24
ENDBRANCH  22  23
ENDBRANCH   1  22
TORSDOF 13
ENDMDL
MODEL 2
REMARK VINA RESULT:     -12.0      0.088      1.613
REMARK SMILES C[C@@H]1SCCC[C@]1(CC(=O)NCCCCNC(=O)c1ccc(-c2c3nc(c(-c4c(F)c(F)c(F)c(F)c4F)c4ccc([nH]4)c(-c4c(F)c(F)c(F)c(F)c4F)c4nc(c(-c5c(F)c(F)c(F)c(F)c5F)c5ccc2[nH]5)C=C4)C=C3)cc1)[NH+]1CCOCC1
REMARK SMILES IDX 13 1 12 2 11 3 9 4 10 5 8 7 7 8 1 9 2 10 3 11 4 12 6 13 5 14
REMARK SMILES IDX 82 15 83 16 87 17 84 19 86 20 85 21 14 22 15 23 16 24 17 25
REMARK SMILES IDX 18 27 19 28 20 29 81 30 21 31 80 32 22 33 23 34 24 35 74 36
REMARK SMILES IDX 25 37 79 38 73 39 75 40 26 41 78 42 72 43 71 44 27 46 59 47
REMARK SMILES IDX 39 48 58 49 40 50 43 51 57 52 76 53 41 54 42 55 56 57 77 58
REMARK SMILES IDX 44 59 28 60 29 61 37 62 30 63 31 64 35 65 38 66 32 67 33 68
REMARK SMILES IDX 36 69 34 70 60 71 61 72 69 73 62 74 63 75 67 76 70 77 64 78
REMARK SMILES IDX 65 79 68 80 66 81 45 82 46 83 54 84 47 85 48 86 52 87 55 88
REMARK SMILES IDX 49 89 50 90 53 91 51 92
REMARK H PARENT 11 6 82 18 16 26 75 45 43 56
REMARK Flexibility Score: inf
ROOT
ATOM      1  C   UNL A   1      31.836  30.551  26.683  1.00  0.00     0.023 C 
ENDROOT
BRANCH   1   2
ATOM      2  C   UNL A   1      33.266  30.077  26.934  1.00  0.00     0.116 C 
BRANCH   2   3
ATOM      3  N   UNL A   1      33.887  29.593  25.728  1.00  0.00    -0.356 N 
ATOM      4  C   UNL A   1      33.618  28.500  24.977  1.00  0.00     0.226 C 
ATOM      5  O   UNL A   1      34.119  28.508  23.845  1.00  0.00    -0.275 OA
ATOM      6  H   UNL A   1      34.629  30.149  25.396  1.00  0.00     0.163 HD
BRANCH   4   7
ATOM      7  C   UNL A   1      32.699  27.349  25.404  1.00  0.00     0.169 C 
BRANCH   7   8
ATOM      8  C   UNL A   1      32.545  25.941  24.646  1.00  0.00     0.118 C 
ATOM      9  C   UNL A   1      31.094  23.605  24.908  1.00  0.00     0.026 C 
ATOM     10  C   UNL A   1      31.552  24.975  25.438  1.00  0.00     0.105 C 
ATOM     11  S   UNL A   1      29.940  25.780  25.895  1.00  0.00    -0.152 SA
ATOM     12  C   UNL A   1      29.372  26.252  24.241  1.00  0.00     0.070 C 
ATOM     13  C   UNL A   1      31.783  26.264  23.301  1.00  0.00     0.071 C 
ATOM     14  C   UNL A   1      30.432  26.986  23.433  1.00  0.00     0.017 C 
BRANCH   8  15
ATOM     15  N   UNL A   1      33.857  25.403  24.138  1.00  0.00    -0.325 N 
ATOM     16  C   UNL A   1      34.838  24.722  24.998  1.00  0.00     0.291 C 
ATOM     17  C   UNL A   1      33.966  24.776  22.816  1.00  0.00     0.291 C 
ATOM     18  H   UNL A   1      34.096  26.393  24.101  1.00  0.00     0.348 HD
ATOM     19  C   UNL A   1      34.650  23.198  25.060  1.00  0.00     0.221 C 
ATOM     20  C   UNL A   1      33.730  23.253  22.876  1.00  0.00     0.221 C 
ATOM     21  O   UNL A   1      34.672  22.612  23.749  1.00  0.00    -0.370 OA
ENDBRANCH   8  15
ENDBRANCH   7   8
ENDBRANCH   4   7
ENDBRANCH   2   3
ENDBRANCH   1   2
BRANCH   1  22
ATOM     22  C   UNL A   1      31.635  32.053  26.696  1.00  0.00     0.023 C 
BRANCH  22  23
ATOM     23  C   UNL A   1      32.772  32.808  27.346  1.00  0.00     0.116 C 
BRANCH  23  24
ATOM     24  N   UNL A   1      32.444  34.192  27.675  1.00  0.00    -0.352 N 
ATOM     25  C   UNL A   1      33.016  34.983  28.640  1.00  0.00     0.251 C 
ATOM     26  H   UNL A   1      31.727  34.607  27.142  1.00  0.00     0.163 HD
ATOM     27  O   UNL A   1      32.580  36.099  28.897  1.00  0.00    -0.269 OA
BRANCH  25  28
ATOM     28  C   UNL A   1      34.155  34.428  29.389  1.00  0.00     0.039 A 
ATOM     29  C   UNL A   1      33.913  33.601  30.485  1.00  0.00     0.014 A 
ATOM     30  C   UNL A   1      35.450  34.623  28.903  1.00  0.00     0.014 A 
ATOM     31  C   UNL A   1      34.978  32.911  31.060  1.00  0.00     0.010 A 
ATOM     32  C   UNL A   1      36.481  33.842  29.393  1.00  0.00     0.010 A 
ATOM     33  C   UNL A   1      36.261  33.000  30.493  1.00  0.00    -0.014 A 
BRANCH  33  34
ATOM     34  C   UNL A   1      37.414  32.270  31.065  1.00  0.00     0.031 A 
ATOM     35  C   UNL A   1      37.895  32.636  32.443  1.00  0.00     0.074 A 
ATOM     36  C   UNL A   1      38.063  31.349  30.329  1.00  0.00     0.049 A 
ATOM     37  N   UNL A   1      38.937  32.199  33.100  1.00  0.00    -0.248 NA
ATOM     38  C   UNL A   1      37.129  33.672  33.157  1.00  0.00     0.031 C 
ATOM     39  C   UNL A   1      37.727  30.968  28.956  1.00  0.00     0.029 A 
ATOM     40  N   UNL A   1      39.148  30.568  30.634  1.00  0.00    -0.354 N 
ATOM     41  C   UNL A   1      38.964  32.928  34.282  1.00  0.00     0.074 A 
ATOM     42  C   UNL A   1      37.887  33.888  34.219  1.00  0.00     0.031 C 
ATOM     43  C   UNL A   1      38.565  29.999  28.550  1.00  0.00     0.029 A 
ATOM     44  C   UNL A   1      39.516  29.718  29.622  1.00  0.00     0.049 A 
ATOM     45  H   UNL A   1      39.619  30.615  31.497  1.00  0.00     0.167 HD
ATOM     46  C   UNL A   1      39.790  32.782  35.342  1.00  0.00     0.037 A 
ATOM     47  C   UNL A   1      40.508  28.809  29.574  1.00  0.00     0.037 A 
ATOM     48  C   UNL A   1      40.819  31.783  35.417  1.00  0.00     0.049 A 
ATOM     49  C   UNL A   1      41.386  28.633  30.784  1.00  0.00     0.074 A 
ATOM     50  C   UNL A   1      41.665  31.490  36.469  1.00  0.00     0.029 A 
ATOM     51  N   UNL A   1      41.131  30.903  34.390  1.00  0.00    -0.354 N 
ATOM     52  N   UNL A   1      41.357  29.275  31.927  1.00  0.00    -0.248 NA
ATOM     53  C   UNL A   1      42.427  27.600  30.702  1.00  0.00     0.031 C 
ATOM     54  C   UNL A   1      42.514  30.454  36.068  1.00  0.00     0.029 A 
ATOM     55  C   UNL A   1      42.166  30.071  34.781  1.00  0.00     0.049 A 
ATOM     56  H   UNL A   1      40.682  30.873  33.514  1.00  0.00     0.167 HD
ATOM     57  C   UNL A   1      42.353  28.707  32.711  1.00  0.00     0.074 A 
ATOM     58  C   UNL A   1      42.957  27.657  31.916  1.00  0.00     0.031 C 
ATOM     59  C   UNL A   1      42.735  29.024  33.972  1.00  0.00     0.037 A 
BRANCH  46  60
ATOM     60  C   UNL A   1      39.593  33.709  36.506  1.00  0.00     0.064 A 
ATOM     61  C   UNL A   1      40.200  34.974  36.552  1.00  0.00     0.173 A 
ATOM     62  C   UNL A   1      38.784  33.333  37.588  1.00  0.00     0.173 A 
ATOM     63  F   UNL A   1      40.999  35.376  35.551  1.00  0.00    -0.203 F 
ATOM     64  C   UNL A   1      40.034  35.811  37.651  1.00  0.00     0.198 A 
ATOM     65  C   UNL A   1      38.593  34.187  38.672  1.00  0.00     0.198 A 
ATOM     66  F   UNL A   1      38.180  32.135  37.597  1.00  0.00    -0.203 F 
ATOM     67  F   UNL A   1      40.676  36.987  37.699  1.00  0.00    -0.200 F 
ATOM     68  C   UNL A   1      39.226  35.420  38.707  1.00  0.00     0.200 A 
ATOM     69  F   UNL A   1      37.803  33.812  39.686  1.00  0.00    -0.200 F 
ATOM     70  F   UNL A   1      39.064  36.228  39.763  1.00  0.00    -0.200 F 
ENDBRANCH  46  60
BRANCH  47  71
ATOM     71  C   UNL A   1      40.689  27.965  28.365  1.00  0.00     0.064 A 
ATOM     72  C   UNL A   1      41.479  28.405  27.293  1.00  0.00     0.173 A 
ATOM     73  C   UNL A   1      40.083  26.705  28.252  1.00  0.00     0.173 A 
ATOM     74  F   UNL A   1      42.067  29.609  27.347  1.00  0.00    -0.203 F 
ATOM     75  C   UNL A   1      41.638  27.629  26.147  1.00  0.00     0.198 A 
ATOM     76  C   UNL A   1      40.263  25.918  27.116  1.00  0.00     0.198 A 
ATOM     77  F   UNL A   1      39.323  26.233  29.251  1.00  0.00    -0.203 F 
ATOM     78  F   UNL A   1      42.364  28.093  25.121  1.00  0.00    -0.200 F 
ATOM     79  C   UNL A   1      41.034  26.384  26.061  1.00  0.00     0.200 A 
ATOM     80  F   UNL A   1      39.690  24.709  27.042  1.00  0.00    -0.200 F 
ATOM     81  F   UNL A   1      41.190  25.636  24.960  1.00  0.00    -0.200 F 
ENDBRANCH  47  71
BRANCH  59  82
ATOM     82  C   UNL A   1      43.831  28.204  34.582  1.00  0.00     0.064 A 
ATOM     83  C   UNL A   1      45.173  28.604  34.514  1.00  0.00     0.173 A 
ATOM     84  C   UNL A   1      43.527  27.031  35.288  1.00  0.00     0.173 A 
ATOM     85  F   UNL A   1      45.513  29.712  33.838  1.00  0.00    -0.203 F 
ATOM     86  C   UNL A   1      46.174  27.846  35.112  1.00  0.00     0.198 A 
ATOM     87  C   UNL A   1      44.527  26.292  35.910  1.00  0.00     0.198 A 
ATOM     88  F   UNL A   1      42.256  26.612  35.388  1.00  0.00    -0.203 F 
ATOM     89  F   UNL A   1      47.456  28.224  34.999  1.00  0.00    -0.200 F 
ATOM     90  C   UNL A   1      45.850  26.695  35.816  1.00  0.00     0.200 A 
ATOM     91  F   UNL A   1      44.210  25.189  36.602  1.00  0.00    -0.200 F 
ATOM     92  F   UNL A   1      46.815  25.972  36.401  1.00  0.00    -0.200 F 
ENDBRANCH  59  82
ENDBRANCH  33  34
ENDBRANCH  25  28
ENDBRANCH  23  24
ENDBRANCH  22  23
ENDBRANCH   1  22
TORSDOF 13
ENDMDL
MODEL 3
REMARK VINA RESULT:     -11.9      2.064      3.286
REMARK SMILES C[C@@H]1SCCC[C@]1(CC(=O)NCCCCNC(=O)c1ccc(-c2c3nc(c(-c4c(F)c(F)c(F)c(F)c4F)c4ccc([nH]4)c(-c4c(F)c(F)c(F)c(F)c4F)c4nc(c(-c5c(F)c(F)c(F)c(F)c5F)c5ccc2[nH]5)C=C4)C=C3)cc1)[NH+]1CCOCC1
REMARK SMILES IDX 13 1 12 2 11 3 9 4 10 5 8 7 7 8 1 9 2 10 3 11 4 12 6 13 5 14
REMARK SMILES IDX 82 15 83 16 87 17 84 19 86 20 85 21 14 22 15 23 16 24 17 25
REMARK SMILES IDX 18 27 19 28 20 29 81 30 21 31 80 32 22 33 23 34 24 35 74 36
REMARK SMILES IDX 25 37 79 38 73 39 75 40 26 41 78 42 72 43 71 44 27 46 59 47
REMARK SMILES IDX 39 48 58 49 40 50 43 51 57 52 76 53 41 54 42 55 56 57 77 58
REMARK SMILES IDX 44 59 28 60 29 61 37 62 30 63 31 64 35 65 38 66 32 67 33 68
REMARK SMILES IDX 36 69 34 70 60 71 61 72 69 73 62 74 63 75 67 76 70 77 64 78
REMARK SMILES IDX 65 79 68 80 66 81 45 82 46 83 54 84 47 85 48 86 52 87 55 88
REMARK SMILES IDX 49 89 50 90 53 91 51 92
REMARK H PARENT 11 6 82 18 16 26 75 45 43 56
REMARK Flexibility Score: inf
ROOT
ATOM      1  C   UNL A   1      31.889  27.343  26.556  1.00  0.00     0.023 C 
ENDROOT
BRANCH   1   2
ATOM      2  C   UNL A   1      31.636  26.030  25.820  1.00  0.00     0.116 C 
BRANCH   2   3
ATOM      3  N   UNL A   1      31.423  24.938  26.735  1.00  0.00    -0.356 N 
ATOM      4  C   UNL A   1      31.625  23.609  26.581  1.00  0.00     0.226 C 
ATOM      5  O   UNL A   1      31.633  22.957  27.633  1.00  0.00    -0.275 OA
ATOM      6  H   UNL A   1      31.072  25.202  27.616  1.00  0.00     0.163 HD
BRANCH   4   7
ATOM      7  C   UNL A   1      31.915  22.916  25.244  1.00  0.00     0.169 C 
BRANCH   7   8
ATOM      8  C   UNL A   1      33.369  22.514  24.692  1.00  0.00     0.118 C 
ATOM      9  C   UNL A   1      35.169  20.434  24.945  1.00  0.00     0.026 C 
ATOM     10  C   UNL A   1      33.873  21.154  25.357  1.00  0.00     0.105 C 
ATOM     11  S   UNL A   1      32.620  19.783  25.285  1.00  0.00    -0.152 SA
ATOM     12  C   UNL A   1      32.382  19.702  23.491  1.00  0.00     0.070 C 
ATOM     13  C   UNL A   1      33.160  22.149  23.169  1.00  0.00     0.071 C 
ATOM     14  C   UNL A   1      32.117  21.061  22.861  1.00  0.00     0.017 C 
BRANCH   8  15
ATOM     15  N   UNL A   1      34.307  23.689  24.602  1.00  0.00    -0.325 N 
ATOM     16  C   UNL A   1      35.030  24.236  25.763  1.00  0.00     0.291 C 
ATOM     17  C   UNL A   1      35.188  23.880  23.444  1.00  0.00     0.291 C 
ATOM     18  H   UNL A   1      33.435  24.207  24.495  1.00  0.00     0.348 HD
ATOM     19  C   UNL A   1      36.416  23.608  25.976  1.00  0.00     0.221 C 
ATOM     20  C   UNL A   1      36.561  23.207  23.644  1.00  0.00     0.221 C 
ATOM     21  O   UNL A   1      37.234  23.725  24.801  1.00  0.00    -0.370 OA
ENDBRANCH   8  15
ENDBRANCH   7   8
ENDBRANCH   4   7
ENDBRANCH   2   3
ENDBRANCH   1   2
BRANCH   1  22
ATOM     22  C   UNL A   1      31.861  28.590  25.695  1.00  0.00     0.023 C 
BRANCH  22  23
ATOM     23  C   UNL A   1      33.042  29.507  25.923  1.00  0.00     0.116 C 
BRANCH  23  24
ATOM     24  N   UNL A   1      32.666  30.848  26.359  1.00  0.00    -0.352 N 
ATOM     25  C   UNL A   1      33.347  31.671  27.223  1.00  0.00     0.251 C 
ATOM     26  H   UNL A   1      31.825  31.205  25.991  1.00  0.00     0.163 HD
ATOM     27  O   UNL A   1      32.875  32.737  27.600  1.00  0.00    -0.269 OA
BRANCH  25  28
ATOM     28  C   UNL A   1      34.654  31.209  27.715  1.00  0.00     0.039 A 
ATOM     29  C   UNL A   1      35.677  32.136  27.912  1.00  0.00     0.014 A 
ATOM     30  C   UNL A   1      34.802  29.877  28.110  1.00  0.00     0.014 A 
ATOM     31  C   UNL A   1      36.837  31.735  28.571  1.00  0.00     0.010 A 
ATOM     32  C   UNL A   1      35.896  29.515  28.874  1.00  0.00     0.010 A 
ATOM     33  C   UNL A   1      36.936  30.433  29.089  1.00  0.00    -0.014 A 
BRANCH  33  34
ATOM     34  C   UNL A   1      38.145  29.974  29.808  1.00  0.00     0.031 A 
ATOM     35  C   UNL A   1      38.388  30.464  31.209  1.00  0.00     0.074 A 
ATOM     36  C   UNL A   1      39.045  29.191  29.185  1.00  0.00     0.049 A 
ATOM     37  N   UNL A   1      39.420  30.270  31.988  1.00  0.00    -0.248 NA
ATOM     38  C   UNL A   1      37.353  31.335  31.794  1.00  0.00     0.031 C 
ATOM     39  C   UNL A   1      38.945  28.715  27.803  1.00  0.00     0.029 A 
ATOM     40  N   UNL A   1      40.227  28.661  29.633  1.00  0.00    -0.354 N 
ATOM     41  C   UNL A   1      39.168  31.017  33.132  1.00  0.00     0.074 A 
ATOM     42  C   UNL A   1      37.930  31.729  32.916  1.00  0.00     0.031 C 
ATOM     43  C   UNL A   1      40.003  27.934  27.529  1.00  0.00     0.029 A 
ATOM     44  C   UNL A   1      40.870  27.883  28.703  1.00  0.00     0.049 A 
ATOM     45  H   UNL A   1      40.582  28.826  30.537  1.00  0.00     0.167 HD
ATOM     46  C   UNL A   1      39.886  31.072  34.276  1.00  0.00     0.037 A 
ATOM     47  C   UNL A   1      42.026  27.200  28.798  1.00  0.00     0.037 A 
ATOM     48  C   UNL A   1      41.084  30.312  34.500  1.00  0.00     0.049 A 
ATOM     49  C   UNL A   1      42.784  27.240  30.098  1.00  0.00     0.074 A 
ATOM     50  C   UNL A   1      41.852  30.227  35.645  1.00  0.00     0.029 A 
ATOM     51  N   UNL A   1      41.679  29.491  33.552  1.00  0.00    -0.354 N 
ATOM     52  N   UNL A   1      42.501  27.889  31.201  1.00  0.00    -0.248 NA
ATOM     53  C   UNL A   1      44.018  26.445  30.169  1.00  0.00     0.031 C 
ATOM     54  C   UNL A   1      42.934  29.381  35.380  1.00  0.00     0.029 A 
ATOM     55  C   UNL A   1      42.814  28.904  34.083  1.00  0.00     0.049 A 
ATOM     56  H   UNL A   1      41.344  29.348  32.637  1.00  0.00     0.167 HD
ATOM     57  C   UNL A   1      43.500  27.560  32.107  1.00  0.00     0.074 A 
ATOM     58  C   UNL A   1      44.390  26.640  31.427  1.00  0.00     0.031 C 
ATOM     59  C   UNL A   1      43.670  27.980  33.385  1.00  0.00     0.037 A 
BRANCH  46  60
ATOM     60  C   UNL A   1      39.378  31.965  35.370  1.00  0.00     0.064 A 
ATOM     61  C   UNL A   1      39.740  33.319  35.444  1.00  0.00     0.173 A 
ATOM     62  C   UNL A   1      38.514  31.464  36.355  1.00  0.00     0.173 A 
ATOM     63  F   UNL A   1      40.579  33.844  34.538  1.00  0.00    -0.203 F 
ATOM     64  C   UNL A   1      39.287  34.128  36.481  1.00  0.00     0.198 A 
ATOM     65  C   UNL A   1      38.035  32.285  37.373  1.00  0.00     0.198 A 
ATOM     66  F   UNL A   1      38.136  30.177  36.333  1.00  0.00    -0.203 F 
ATOM     67  F   UNL A   1      39.698  35.401  36.565  1.00  0.00    -0.200 F 
ATOM     68  C   UNL A   1      38.429  33.612  37.441  1.00  0.00     0.200 A 
ATOM     69  F   UNL A   1      37.198  31.788  38.294  1.00  0.00    -0.200 F 
ATOM     70  F   UNL A   1      37.990  34.393  38.438  1.00  0.00    -0.200 F 
ENDBRANCH  46  60
BRANCH  47  71
ATOM     71  C   UNL A   1      42.507  26.384  27.653  1.00  0.00     0.064 A 
ATOM     72  C   UNL A   1      42.021  25.085  27.444  1.00  0.00     0.173 A 
ATOM     73  C   UNL A   1      43.455  26.878  26.746  1.00  0.00     0.173 A 
ATOM     74  F   UNL A   1      41.125  24.561  28.293  1.00  0.00    -0.203 F 
ATOM     75  C   UNL A   1      42.480  24.305  26.384  1.00  0.00     0.198 A 
ATOM     76  C   UNL A   1      43.895  26.108  25.672  1.00  0.00     0.198 A 
ATOM     77  F   UNL A   1      43.946  28.117  26.896  1.00  0.00    -0.203 F 
ATOM     78  F   UNL A   1      42.031  23.052  26.234  1.00  0.00    -0.200 F 
ATOM     79  C   UNL A   1      43.413  24.818  25.496  1.00  0.00     0.200 A 
ATOM     80  F   UNL A   1      44.785  26.611  24.807  1.00  0.00    -0.200 F 
ATOM     81  F   UNL A   1      43.852  24.069  24.476  1.00  0.00    -0.200 F 
ENDBRANCH  47  71
BRANCH  59  82
ATOM     82  C   UNL A   1      44.838  27.421  34.140  1.00  0.00     0.064 A 
ATOM     83  C   UNL A   1      46.073  28.083  34.177  1.00  0.00     0.173 A 
ATOM     84  C   UNL A   1      44.702  26.235  34.877  1.00  0.00     0.173 A 
ATOM     85  F   UNL A   1      46.255  29.213  33.477  1.00  0.00    -0.203 F 
ATOM     86  C   UNL A   1      47.138  27.566  34.908  1.00  0.00     0.198 A 
ATOM     87  C   UNL A   1      45.759  25.737  35.631  1.00  0.00     0.198 A 
ATOM     88  F   UNL A   1      43.536  25.571  34.879  1.00  0.00    -0.203 F 
ATOM     89  F   UNL A   1      48.323  28.192  34.896  1.00  0.00    -0.200 F 
ATOM     90  C   UNL A   1      46.978  26.398  35.640  1.00  0.00     0.200 A 
ATOM     91  F   UNL A   1      45.598  24.617  36.349  1.00  0.00    -0.200 F 
ATOM     92  F   UNL A   1      48.001  25.907  36.352  1.00  0.00    -0.200 F 
ENDBRANCH  59  82
ENDBRANCH  33  34
ENDBRANCH  25  28
ENDBRANCH  23  24
ENDBRANCH  22  23
ENDBRANCH   1  22
TORSDOF 13
ENDMDL
