MODEL 1
REMARK VINA RESULT:     -12.7      0.000      0.000
REMARK SMILES CCOc1ccc(-n2ncc(C(=O)NCCCCNC(=O)c3ccc(-c4c5nc(c(-c6c(F)c(F)c(F)c(F)c6F)c6ccc([nH]6)c(-c6c(F)c(F)c(F)c(F)c6F)c6nc(c(-c7c(F)c(F)c(F)c(F)c7F)c7ccc4[nH]7)C=C6)C=C5)cc3)c2C)nn1
REMARK SMILES IDX 16 1 15 2 14 3 12 4 13 5 11 7 8 8 9 9 85 10 10 11 86 12 7 13
REMARK SMILES IDX 4 14 5 15 88 16 6 17 87 18 3 19 2 20 1 21 17 22 18 23 19 24
REMARK SMILES IDX 20 25 21 27 22 28 23 29 84 30 24 31 83 32 25 33 26 34 27 35
REMARK SMILES IDX 77 36 28 37 82 38 76 39 78 40 29 41 81 42 75 43 74 44 30 46
REMARK SMILES IDX 62 47 42 48 61 49 43 50 46 51 60 52 79 53 44 54 45 55 59 57
REMARK SMILES IDX 80 58 47 59 31 60 32 61 40 62 33 63 34 64 38 65 41 66 35 67
REMARK SMILES IDX 36 68 39 69 37 70 63 71 64 72 72 73 65 74 66 75 70 76 73 77
REMARK SMILES IDX 67 78 68 79 71 80 69 81 48 82 49 83 57 84 50 85 51 86 55 87
REMARK SMILES IDX 58 88 52 89 53 90 56 91 54 92
REMARK H PARENT 14 6 19 26 78 45 46 56
REMARK Flexibility Score: inf
ROOT
ATOM      1  C   UNL A   1      32.602  30.054  25.331  1.00  0.00     0.023 C 
ENDROOT
BRANCH   1   2
ATOM      2  C   UNL A   1      31.080  30.092  25.188  1.00  0.00     0.116 C 
BRANCH   2   3
ATOM      3  N   UNL A   1      30.649  29.807  23.836  1.00  0.00    -0.352 N 
ATOM      4  C   UNL A   1      30.724  28.712  23.016  1.00  0.00     0.254 C 
ATOM      5  O   UNL A   1      30.262  28.875  21.885  1.00  0.00    -0.269 OA
ATOM      6  H   UNL A   1      30.201  30.572  23.409  1.00  0.00     0.163 HD
BRANCH   4   7
ATOM      7  C   UNL A   1      31.267  27.422  23.438  1.00  0.00     0.081 A 
ATOM      8  N   UNL A   1      32.692  25.708  23.705  1.00  0.00    -0.217 N 
ATOM      9  N   UNL A   1      31.485  25.252  24.131  1.00  0.00    -0.174 NA
ATOM     10  C   UNL A   1      32.601  27.021  23.266  1.00  0.00     0.056 A 
ATOM     11  C   UNL A   1      30.678  26.304  24.052  1.00  0.00     0.149 A 
ATOM     12  C   UNL A   1      33.724  27.777  22.636  1.00  0.00     0.068 C 
BRANCH   8  13
ATOM     13  C   UNL A   1      33.807  24.823  23.764  1.00  0.00     0.176 A 
ATOM     14  C   UNL A   1      36.003  23.244  23.875  1.00  0.00     0.233 A 
ATOM     15  C   UNL A   1      35.701  24.009  24.981  1.00  0.00     0.074 A 
ATOM     16  N   UNL A   1      35.253  23.253  22.753  1.00  0.00    -0.110 NA
ATOM     17  C   UNL A   1      34.576  24.815  24.926  1.00  0.00     0.057 A 
ATOM     18  N   UNL A   1      34.128  24.043  22.706  1.00  0.00    -0.127 NA
BRANCH  14  19
ATOM     19  O   UNL A   1      37.163  22.512  23.873  1.00  0.00    -0.477 OA
BRANCH  19  20
ATOM     20  C   UNL A   1      37.278  21.743  25.073  1.00  0.00     0.228 C 
ATOM     21  C   UNL A   1      36.443  20.471  24.986  1.00  0.00     0.049 C 
ENDBRANCH  19  20
ENDBRANCH  14  19
ENDBRANCH   8  13
ENDBRANCH   4   7
ENDBRANCH   2   3
ENDBRANCH   1   2
BRANCH   1  22
ATOM     22  C   UNL A   1      33.127  29.223  26.514  1.00  0.00     0.023 C 
BRANCH  22  23
ATOM     23  C   UNL A   1      33.657  30.032  27.696  1.00  0.00     0.116 C 
BRANCH  23  24
ATOM     24  N   UNL A   1      34.154  31.354  27.317  1.00  0.00    -0.352 N 
ATOM     25  C   UNL A   1      35.337  31.963  27.701  1.00  0.00     0.251 C 
ATOM     26  H   UNL A   1      33.576  31.875  26.714  1.00  0.00     0.163 HD
ATOM     27  O   UNL A   1      35.470  33.174  27.659  1.00  0.00    -0.269 OA
BRANCH  25  28
ATOM     28  C   UNL A   1      36.449  31.109  28.154  1.00  0.00     0.039 A 
ATOM     29  C   UNL A   1      36.584  29.789  27.723  1.00  0.00     0.014 A 
ATOM     30  C   UNL A   1      37.392  31.680  29.002  1.00  0.00     0.014 A 
ATOM     31  C   UNL A   1      37.732  29.085  28.081  1.00  0.00     0.010 A 
ATOM     32  C   UNL A   1      38.589  31.048  29.217  1.00  0.00     0.010 A 
ATOM     33  C   UNL A   1      38.748  29.731  28.806  1.00  0.00    -0.014 A 
BRANCH  33  34
ATOM     34  C   UNL A   1      40.027  29.070  29.048  1.00  0.00     0.031 A 
ATOM     35  C   UNL A   1      40.355  28.844  30.483  1.00  0.00     0.074 A 
ATOM     36  C   UNL A   1      40.779  28.518  28.070  1.00  0.00     0.049 A 
ATOM     37  N   UNL A   1      41.329  29.362  31.156  1.00  0.00    -0.248 NA
ATOM     38  C   UNL A   1      39.435  28.034  31.296  1.00  0.00     0.031 C 
ATOM     39  C   UNL A   1      40.468  28.359  26.645  1.00  0.00     0.029 A 
ATOM     40  N   UNL A   1      41.976  27.881  28.181  1.00  0.00    -0.354 N 
ATOM     41  C   UNL A   1      41.255  28.815  32.434  1.00  0.00     0.074 A 
ATOM     42  C   UNL A   1      39.992  28.125  32.506  1.00  0.00     0.031 C 
ATOM     43  C   UNL A   1      41.324  27.472  26.089  1.00  0.00     0.029 A 
ATOM     44  C   UNL A   1      42.347  27.146  27.063  1.00  0.00     0.049 A 
ATOM     45  H   UNL A   1      42.534  27.935  28.991  1.00  0.00     0.167 HD
ATOM     46  C   UNL A   1      42.343  28.793  33.252  1.00  0.00     0.037 A 
ATOM     47  C   UNL A   1      43.409  26.310  26.956  1.00  0.00     0.037 A 
ATOM     48  C   UNL A   1      43.347  29.730  32.811  1.00  0.00     0.049 A 
ATOM     49  C   UNL A   1      44.367  26.673  28.031  1.00  0.00     0.074 A 
ATOM     50  C   UNL A   1      43.362  31.097  32.601  1.00  0.00     0.029 A 
ATOM     51  N   UNL A   1      44.438  29.246  32.130  1.00  0.00    -0.354 N 
ATOM     52  N   UNL A   1      45.033  27.794  28.058  1.00  0.00    -0.248 NA
ATOM     53  C   UNL A   1      44.225  25.996  29.310  1.00  0.00     0.031 C 
ATOM     54  C   UNL A   1      44.114  31.273  31.400  1.00  0.00     0.029 A 
ATOM     55  C   UNL A   1      44.579  30.019  31.004  1.00  0.00     0.049 A 
ATOM     56  H   UNL A   1      45.008  28.490  32.397  1.00  0.00     0.167 HD
ATOM     57  C   UNL A   1      44.999  28.186  29.387  1.00  0.00     0.074 A 
ATOM     58  C   UNL A   1      44.563  27.000  30.124  1.00  0.00     0.031 C 
ATOM     59  C   UNL A   1      45.045  29.505  29.737  1.00  0.00     0.037 A 
BRANCH  46  60
ATOM     60  C   UNL A   1      42.648  27.689  34.233  1.00  0.00     0.064 A 
ATOM     61  C   UNL A   1      43.208  26.482  33.768  1.00  0.00     0.173 A 
ATOM     62  C   UNL A   1      42.141  27.654  35.550  1.00  0.00     0.173 A 
ATOM     63  F   UNL A   1      43.698  26.393  32.521  1.00  0.00    -0.203 F 
ATOM     64  C   UNL A   1      43.191  25.315  34.536  1.00  0.00     0.198 A 
ATOM     65  C   UNL A   1      42.174  26.502  36.334  1.00  0.00     0.198 A 
ATOM     66  F   UNL A   1      41.488  28.691  36.089  1.00  0.00    -0.203 F 
ATOM     67  F   UNL A   1      43.619  24.162  34.003  1.00  0.00    -0.200 F 
ATOM     68  C   UNL A   1      42.670  25.325  35.816  1.00  0.00     0.200 A 
ATOM     69  F   UNL A   1      41.644  26.527  37.565  1.00  0.00    -0.200 F 
ATOM     70  F   UNL A   1      42.597  24.194  36.531  1.00  0.00    -0.200 F 
ENDBRANCH  46  60
BRANCH  47  71
ATOM     71  C   UNL A   1      43.512  25.043  26.195  1.00  0.00     0.064 A 
ATOM     72  C   UNL A   1      44.527  24.851  25.243  1.00  0.00     0.173 A 
ATOM     73  C   UNL A   1      42.799  23.895  26.592  1.00  0.00     0.173 A 
ATOM     74  F   UNL A   1      45.280  25.886  24.842  1.00  0.00    -0.203 F 
ATOM     75  C   UNL A   1      44.834  23.580  24.745  1.00  0.00     0.198 A 
ATOM     76  C   UNL A   1      43.103  22.628  26.089  1.00  0.00     0.198 A 
ATOM     77  F   UNL A   1      41.861  23.964  27.546  1.00  0.00    -0.203 F 
ATOM     78  F   UNL A   1      45.855  23.427  23.889  1.00  0.00    -0.200 F 
ATOM     79  C   UNL A   1      44.131  22.469  25.178  1.00  0.00     0.200 A 
ATOM     80  F   UNL A   1      42.438  21.556  26.544  1.00  0.00    -0.200 F 
ATOM     81  F   UNL A   1      44.468  21.243  24.753  1.00  0.00    -0.200 F 
ENDBRANCH  47  71
BRANCH  59  82
ATOM     82  C   UNL A   1      45.385  30.510  28.670  1.00  0.00     0.064 A 
ATOM     83  C   UNL A   1      44.448  31.088  27.793  1.00  0.00     0.173 A 
ATOM     84  C   UNL A   1      46.696  31.002  28.616  1.00  0.00     0.173 A 
ATOM     85  F   UNL A   1      43.152  30.759  27.847  1.00  0.00    -0.203 F 
ATOM     86  C   UNL A   1      44.823  32.066  26.871  1.00  0.00     0.198 A 
ATOM     87  C   UNL A   1      47.059  32.007  27.723  1.00  0.00     0.198 A 
ATOM     88  F   UNL A   1      47.625  30.533  29.465  1.00  0.00    -0.203 F 
ATOM     89  F   UNL A   1      43.914  32.582  26.031  1.00  0.00    -0.200 F 
ATOM     90  C   UNL A   1      46.127  32.528  26.841  1.00  0.00     0.200 A 
ATOM     91  F   UNL A   1      48.311  32.487  27.735  1.00  0.00    -0.200 F 
ATOM     92  F   UNL A   1      46.481  33.493  25.980  1.00  0.00    -0.200 F 
ENDBRANCH  59  82
ENDBRANCH  33  34
ENDBRANCH  25  28
ENDBRANCH  23  24
ENDBRANCH  22  23
ENDBRANCH   1  22
TORSDOF 14
ENDMDL
MODEL 2
REMARK VINA RESULT:     -12.7      1.395      1.618
REMARK SMILES CCOc1ccc(-n2ncc(C(=O)NCCCCNC(=O)c3ccc(-c4c5nc(c(-c6c(F)c(F)c(F)c(F)c6F)c6ccc([nH]6)c(-c6c(F)c(F)c(F)c(F)c6F)c6nc(c(-c7c(F)c(F)c(F)c(F)c7F)c7ccc4[nH]7)C=C6)C=C5)cc3)c2C)nn1
REMARK SMILES IDX 16 1 15 2 14 3 12 4 13 5 11 7 8 8 9 9 85 10 10 11 86 12 7 13
REMARK SMILES IDX 4 14 5 15 88 16 6 17 87 18 3 19 2 20 1 21 17 22 18 23 19 24
REMARK SMILES IDX 20 25 21 27 22 28 23 29 84 30 24 31 83 32 25 33 26 34 27 35
REMARK SMILES IDX 77 36 28 37 82 38 76 39 78 40 29 41 81 42 75 43 74 44 30 46
REMARK SMILES IDX 62 47 42 48 61 49 43 50 46 51 60 52 79 53 44 54 45 55 59 57
REMARK SMILES IDX 80 58 47 59 31 60 32 61 40 62 33 63 34 64 38 65 41 66 35 67
REMARK SMILES IDX 36 68 39 69 37 70 63 71 64 72 72 73 65 74 66 75 70 76 73 77
REMARK SMILES IDX 67 78 68 79 71 80 69 81 48 82 49 83 57 84 50 85 51 86 55 87
REMARK SMILES IDX 58 88 52 89 53 90 56 91 54 92
REMARK H PARENT 14 6 19 26 78 45 46 56
REMARK Flexibility Score: inf
ROOT
ATOM      1  C   UNL A   1      31.780  30.010  25.848  1.00  0.00     0.023 C 
ENDROOT
BRANCH   1   2
ATOM      2  C   UNL A   1      31.456  29.425  24.472  1.00  0.00     0.116 C 
BRANCH   2   3
ATOM      3  N   UNL A   1      32.628  29.322  23.630  1.00  0.00    -0.352 N 
ATOM      4  C   UNL A   1      33.245  28.295  22.965  1.00  0.00     0.254 C 
ATOM      5  O   UNL A   1      34.276  28.607  22.365  1.00  0.00    -0.269 OA
ATOM      6  H   UNL A   1      33.087  30.185  23.507  1.00  0.00     0.163 HD
BRANCH   4   7
ATOM      7  C   UNL A   1      32.719  26.933  22.918  1.00  0.00     0.081 A 
ATOM      8  N   UNL A   1      32.409  24.762  23.405  1.00  0.00    -0.217 N 
ATOM      9  N   UNL A   1      31.752  24.974  22.235  1.00  0.00    -0.174 NA
ATOM     10  C   UNL A   1      33.019  25.927  23.850  1.00  0.00     0.056 A 
ATOM     11  C   UNL A   1      31.870  26.278  22.011  1.00  0.00     0.149 A 
ATOM     12  C   UNL A   1      33.907  26.006  25.048  1.00  0.00     0.068 C 
BRANCH   8  13
ATOM     13  C   UNL A   1      32.380  23.454  23.969  1.00  0.00     0.176 A 
ATOM     14  C   UNL A   1      32.284  20.924  24.927  1.00  0.00     0.233 A 
ATOM     15  C   UNL A   1      33.246  21.223  23.986  1.00  0.00     0.074 A 
ATOM     16  N   UNL A   1      31.400  21.837  25.382  1.00  0.00    -0.110 NA
ATOM     17  C   UNL A   1      33.297  22.518  23.498  1.00  0.00     0.057 A 
ATOM     18  N   UNL A   1      31.462  23.126  24.907  1.00  0.00    -0.127 NA
BRANCH  14  19
ATOM     19  O   UNL A   1      32.155  19.628  25.353  1.00  0.00    -0.477 OA
BRANCH  19  20
ATOM     20  C   UNL A   1      32.678  18.721  24.380  1.00  0.00     0.228 C 
ATOM     21  C   UNL A   1      32.761  17.307  24.942  1.00  0.00     0.049 C 
ENDBRANCH  19  20
ENDBRANCH  14  19
ENDBRANCH   8  13
ENDBRANCH   4   7
ENDBRANCH   2   3
ENDBRANCH   1   2
BRANCH   1  22
ATOM     22  C   UNL A   1      33.117  29.550  26.456  1.00  0.00     0.023 C 
BRANCH  22  23
ATOM     23  C   UNL A   1      33.591  30.347  27.669  1.00  0.00     0.116 C 
BRANCH  23  24
ATOM     24  N   UNL A   1      34.133  31.660  27.323  1.00  0.00    -0.352 N 
ATOM     25  C   UNL A   1      35.332  32.223  27.729  1.00  0.00     0.251 C 
ATOM     26  H   UNL A   1      33.578  32.213  26.727  1.00  0.00     0.163 HD
ATOM     27  O   UNL A   1      35.504  33.429  27.715  1.00  0.00    -0.269 OA
BRANCH  25  28
ATOM     28  C   UNL A   1      36.412  31.322  28.173  1.00  0.00     0.039 A 
ATOM     29  C   UNL A   1      36.537  30.025  27.676  1.00  0.00     0.014 A 
ATOM     30  C   UNL A   1      37.335  31.829  29.081  1.00  0.00     0.014 A 
ATOM     31  C   UNL A   1      37.660  29.280  28.033  1.00  0.00     0.010 A 
ATOM     32  C   UNL A   1      38.513  31.162  29.302  1.00  0.00     0.010 A 
ATOM     33  C   UNL A   1      38.662  29.866  28.825  1.00  0.00    -0.014 A 
BRANCH  33  34
ATOM     34  C   UNL A   1      39.919  29.167  29.074  1.00  0.00     0.031 A 
ATOM     35  C   UNL A   1      40.228  28.922  30.510  1.00  0.00     0.074 A 
ATOM     36  C   UNL A   1      40.665  28.602  28.099  1.00  0.00     0.049 A 
ATOM     37  N   UNL A   1      41.209  29.407  31.195  1.00  0.00    -0.248 NA
ATOM     38  C   UNL A   1      39.278  28.131  31.308  1.00  0.00     0.031 C 
ATOM     39  C   UNL A   1      40.362  28.462  26.669  1.00  0.00     0.029 A 
ATOM     40  N   UNL A   1      41.843  27.930  28.215  1.00  0.00    -0.354 N 
ATOM     41  C   UNL A   1      41.108  28.853  32.468  1.00  0.00     0.074 A 
ATOM     42  C   UNL A   1      39.826  28.198  32.524  1.00  0.00     0.031 C 
ATOM     43  C   UNL A   1      41.198  27.556  26.114  1.00  0.00     0.029 A 
ATOM     44  C   UNL A   1      42.203  27.194  27.095  1.00  0.00     0.049 A 
ATOM     45  H   UNL A   1      42.394  27.963  29.030  1.00  0.00     0.167 HD
ATOM     46  C   UNL A   1      42.188  28.794  33.296  1.00  0.00     0.037 A 
ATOM     47  C   UNL A   1      43.242  26.329  26.991  1.00  0.00     0.037 A 
ATOM     48  C   UNL A   1      43.222  29.705  32.872  1.00  0.00     0.049 A 
ATOM     49  C   UNL A   1      44.199  26.657  28.077  1.00  0.00     0.074 A 
ATOM     50  C   UNL A   1      43.276  31.072  32.673  1.00  0.00     0.029 A 
ATOM     51  N   UNL A   1      44.304  29.196  32.197  1.00  0.00    -0.354 N 
ATOM     52  N   UNL A   1      44.896  27.758  28.120  1.00  0.00    -0.248 NA
ATOM     53  C   UNL A   1      44.026  25.975  29.350  1.00  0.00     0.031 C 
ATOM     54  C   UNL A   1      44.045  31.236  31.480  1.00  0.00     0.029 A 
ATOM     55  C   UNL A   1      44.478  29.973  31.079  1.00  0.00     0.049 A 
ATOM     56  H   UNL A   1      44.851  28.423  32.464  1.00  0.00     0.167 HD
ATOM     57  C   UNL A   1      44.861  28.141  29.451  1.00  0.00     0.074 A 
ATOM     58  C   UNL A   1      44.385  26.963  30.175  1.00  0.00     0.031 C 
ATOM     59  C   UNL A   1      44.941  29.456  29.812  1.00  0.00     0.037 A 
BRANCH  46  60
ATOM     60  C   UNL A   1      42.452  27.674  34.272  1.00  0.00     0.064 A 
ATOM     61  C   UNL A   1      43.060  26.487  33.816  1.00  0.00     0.173 A 
ATOM     62  C   UNL A   1      41.868  27.603  35.555  1.00  0.00     0.173 A 
ATOM     63  F   UNL A   1      43.625  26.432  32.600  1.00  0.00    -0.203 F 
ATOM     64  C   UNL A   1      43.017  25.303  34.559  1.00  0.00     0.198 A 
ATOM     65  C   UNL A   1      41.874  26.436  36.315  1.00  0.00     0.198 A 
ATOM     66  F   UNL A   1      41.166  28.618  36.074  1.00  0.00    -0.203 F 
ATOM     67  F   UNL A   1      43.495  24.168  34.030  1.00  0.00    -0.200 F 
ATOM     68  C   UNL A   1      42.420  25.278  35.805  1.00  0.00     0.200 A 
ATOM     69  F   UNL A   1      41.271  26.426  37.513  1.00  0.00    -0.200 F 
ATOM     70  F   UNL A   1      42.323  24.131  36.492  1.00  0.00    -0.200 F 
ENDBRANCH  46  60
BRANCH  47  71
ATOM     71  C   UNL A   1      43.316  25.066  26.221  1.00  0.00     0.064 A 
ATOM     72  C   UNL A   1      44.366  24.829  25.318  1.00  0.00     0.173 A 
ATOM     73  C   UNL A   1      42.526  23.952  26.569  1.00  0.00     0.173 A 
ATOM     74  F   UNL A   1      45.190  25.827  24.966  1.00  0.00    -0.203 F 
ATOM     75  C   UNL A   1      44.630  23.549  24.821  1.00  0.00     0.198 A 
ATOM     76  C   UNL A   1      42.788  22.677  26.068  1.00  0.00     0.198 A 
ATOM     77  F   UNL A   1      41.546  24.062  27.478  1.00  0.00    -0.203 F 
ATOM     78  F   UNL A   1      45.682  23.350  24.014  1.00  0.00    -0.200 F 
ATOM     79  C   UNL A   1      43.850  22.472  25.206  1.00  0.00     0.200 A 
ATOM     80  F   UNL A   1      42.047  21.637  26.476  1.00  0.00    -0.200 F 
ATOM     81  F   UNL A   1      44.144  21.234  24.783  1.00  0.00    -0.200 F 
ENDBRANCH  47  71
BRANCH  59  82
ATOM     82  C   UNL A   1      45.319  30.459  28.755  1.00  0.00     0.064 A 
ATOM     83  C   UNL A   1      44.404  31.083  27.887  1.00  0.00     0.173 A 
ATOM     84  C   UNL A   1      46.648  30.899  28.705  1.00  0.00     0.173 A 
ATOM     85  F   UNL A   1      43.097  30.805  27.940  1.00  0.00    -0.203 F 
ATOM     86  C   UNL A   1      44.817  32.056  26.976  1.00  0.00     0.198 A 
ATOM     87  C   UNL A   1      47.050  31.900  27.823  1.00  0.00     0.198 A 
ATOM     88  F   UNL A   1      47.559  30.384  29.547  1.00  0.00    -0.203 F 
ATOM     89  F   UNL A   1      43.927  32.618  26.144  1.00  0.00    -0.200 F 
ATOM     90  C   UNL A   1      46.138  32.467  26.949  1.00  0.00     0.200 A 
ATOM     91  F   UNL A   1      48.319  32.329  27.838  1.00  0.00    -0.200 F 
ATOM     92  F   UNL A   1      46.529  33.427  26.099  1.00  0.00    -0.200 F 
ENDBRANCH  59  82
ENDBRANCH  33  34
ENDBRANCH  25  28
ENDBRANCH  23  24
ENDBRANCH  22  23
ENDBRANCH   1  22
TORSDOF 14
ENDMDL
MODEL 3
REMARK VINA RESULT:     -12.6      3.218      9.006
REMARK SMILES CCOc1ccc(-n2ncc(C(=O)NCCCCNC(=O)c3ccc(-c4c5nc(c(-c6c(F)c(F)c(F)c(F)c6F)c6ccc([nH]6)c(-c6c(F)c(F)c(F)c(F)c6F)c6nc(c(-c7c(F)c(F)c(F)c(F)c7F)c7ccc4[nH]7)C=C6)C=C5)cc3)c2C)nn1
REMARK SMILES IDX 16 1 15 2 14 3 12 4 13 5 11 7 8 8 9 9 85 10 10 11 86 12 7 13
REMARK SMILES IDX 4 14 5 15 88 16 6 17 87 18 3 19 2 20 1 21 17 22 18 23 19 24
REMARK SMILES IDX 20 25 21 27 22 28 23 29 84 30 24 31 83 32 25 33 26 34 27 35
REMARK SMILES IDX 77 36 28 37 82 38 76 39 78 40 29 41 81 42 75 43 74 44 30 46
REMARK SMILES IDX 62 47 42 48 61 49 43 50 46 51 60 52 79 53 44 54 45 55 59 57
REMARK SMILES IDX 80 58 47 59 31 60 32 61 40 62 33 63 34 64 38 65 41 66 35 67
REMARK SMILES IDX 36 68 39 69 37 70 63 71 64 72 72 73 65 74 66 75 70 76 73 77
REMARK SMILES IDX 67 78 68 79 71 80 69 81 48 82 49 83 57 84 50 85 51 86 55 87
REMARK SMILES IDX 58 88 52 89 53 90 56 91 54 92
REMARK H PARENT 14 6 19 26 78 45 46 56
REMARK Flexibility Score: inf
ROOT
ATOM      1  C   UNL A   1      36.567  21.343  25.773  1.00  0.00     0.023 C 
ENDROOT
BRANCH   1   2
ATOM      2  C   UNL A   1      35.966  20.442  24.693  1.00  0.00     0.116 C 
BRANCH   2   3
ATOM      3  N   UNL A   1      34.713  19.850  25.108  1.00  0.00    -0.352 N 
ATOM      4  C   UNL A   1      33.448  20.332  25.321  1.00  0.00     0.254 C 
ATOM      5  O   UNL A   1      32.632  19.497  25.718  1.00  0.00    -0.269 OA
ATOM      6  H   UNL A   1      34.784  18.882  25.275  1.00  0.00     0.163 HD
BRANCH   4   7
ATOM      7  C   UNL A   1      33.057  21.717  25.065  1.00  0.00     0.081 A 
ATOM      8  N   UNL A   1      32.557  23.877  25.418  1.00  0.00    -0.217 N 
ATOM      9  N   UNL A   1      32.170  23.613  24.142  1.00  0.00    -0.174 NA
ATOM     10  C   UNL A   1      33.093  22.747  26.018  1.00  0.00     0.056 A 
ATOM     11  C   UNL A   1      32.556  22.362  23.923  1.00  0.00     0.149 A 
ATOM     12  C   UNL A   1      33.514  22.673  27.449  1.00  0.00     0.068 C 
BRANCH   8  13
ATOM     13  C   UNL A   1      32.364  25.195  25.923  1.00  0.00     0.176 A 
ATOM     14  C   UNL A   1      32.079  27.672  26.979  1.00  0.00     0.233 A 
ATOM     15  C   UNL A   1      33.296  27.344  26.421  1.00  0.00     0.074 A 
ATOM     16  N   UNL A   1      31.038  26.813  27.018  1.00  0.00    -0.110 NA
ATOM     17  C   UNL A   1      33.441  26.078  25.878  1.00  0.00     0.057 A 
ATOM     18  N   UNL A   1      31.180  25.562  26.465  1.00  0.00    -0.127 NA
BRANCH  14  19
ATOM     19  O   UNL A   1      31.943  28.883  27.605  1.00  0.00    -0.477 OA
BRANCH  19  20
ATOM     20  C   UNL A   1      32.205  29.955  26.696  1.00  0.00     0.228 C 
ATOM     21  C   UNL A   1      33.283  30.882  27.244  1.00  0.00     0.049 C 
ENDBRANCH  19  20
ENDBRANCH  14  19
ENDBRANCH   8  13
ENDBRANCH   4   7
ENDBRANCH   2   3
ENDBRANCH   1   2
BRANCH   1  22
ATOM     22  C   UNL A   1      37.286  22.599  25.252  1.00  0.00     0.023 C 
BRANCH  22  23
ATOM     23  C   UNL A   1      38.319  23.201  26.201  1.00  0.00     0.116 C 
BRANCH  23  24
ATOM     24  N   UNL A   1      39.577  22.454  26.238  1.00  0.00    -0.352 N 
ATOM     25  C   UNL A   1      40.868  22.956  26.247  1.00  0.00     0.251 C 
ATOM     26  H   UNL A   1      39.495  21.474  26.260  1.00  0.00     0.163 HD
ATOM     27  O   UNL A   1      41.815  22.278  25.887  1.00  0.00    -0.269 OA
BRANCH  25  28
ATOM     28  C   UNL A   1      41.078  24.338  26.717  1.00  0.00     0.039 A 
ATOM     29  C   UNL A   1      40.717  25.440  25.942  1.00  0.00     0.014 A 
ATOM     30  C   UNL A   1      41.615  24.507  27.988  1.00  0.00     0.014 A 
ATOM     31  C   UNL A   1      40.814  26.711  26.504  1.00  0.00     0.010 A 
ATOM     32  C   UNL A   1      41.558  25.735  28.596  1.00  0.00     0.010 A 
ATOM     33  C   UNL A   1      41.209  26.851  27.846  1.00  0.00    -0.014 A 
BRANCH  33  34
ATOM     34  C   UNL A   1      41.159  28.152  28.505  1.00  0.00     0.031 A 
ATOM     35  C   UNL A   1      42.252  29.090  28.127  1.00  0.00     0.074 A 
ATOM     36  C   UNL A   1      40.112  28.573  29.250  1.00  0.00     0.049 A 
ATOM     37  N   UNL A   1      43.184  29.557  28.890  1.00  0.00    -0.248 NA
ATOM     38  C   UNL A   1      42.394  29.471  26.713  1.00  0.00     0.031 C 
ATOM     39  C   UNL A   1      38.816  27.921  29.470  1.00  0.00     0.029 A 
ATOM     40  N   UNL A   1      39.960  29.756  29.904  1.00  0.00    -0.354 N 
ATOM     41  C   UNL A   1      43.933  30.428  28.103  1.00  0.00     0.074 A 
ATOM     42  C   UNL A   1      43.497  30.223  26.745  1.00  0.00     0.031 C 
ATOM     43  C   UNL A   1      37.943  28.812  29.992  1.00  0.00     0.029 A 
ATOM     44  C   UNL A   1      38.662  30.030  30.310  1.00  0.00     0.049 A 
ATOM     45  H   UNL A   1      40.711  30.370  30.073  1.00  0.00     0.167 HD
ATOM     46  C   UNL A   1      44.697  31.404  28.667  1.00  0.00     0.037 A 
ATOM     47  C   UNL A   1      38.206  31.188  30.850  1.00  0.00     0.037 A 
ATOM     48  C   UNL A   1      44.942  31.134  30.063  1.00  0.00     0.049 A 
ATOM     49  C   UNL A   1      39.384  31.921  31.379  1.00  0.00     0.074 A 
ATOM     50  C   UNL A   1      45.525  30.087  30.753  1.00  0.00     0.029 A 
ATOM     51  N   UNL A   1      44.209  31.822  30.999  1.00  0.00    -0.354 N 
ATOM     52  N   UNL A   1      40.087  31.520  32.401  1.00  0.00    -0.248 NA
ATOM     53  C   UNL A   1      40.056  32.845  30.479  1.00  0.00     0.031 C 
ATOM     54  C   UNL A   1      44.696  29.900  31.900  1.00  0.00     0.029 A 
ATOM     55  C   UNL A   1      43.717  30.893  31.882  1.00  0.00     0.049 A 
ATOM     56  H   UNL A   1      44.063  32.795  31.031  1.00  0.00     0.167 HD
ATOM     57  C   UNL A   1      41.402  31.768  32.039  1.00  0.00     0.074 A 
ATOM     58  C   UNL A   1      41.316  32.662  30.884  1.00  0.00     0.031 C 
ATOM     59  C   UNL A   1      42.425  31.004  32.519  1.00  0.00     0.037 A 
BRANCH  46  60
ATOM     60  C   UNL A   1      44.926  32.765  28.058  1.00  0.00     0.064 A 
ATOM     61  C   UNL A   1      46.229  33.143  27.675  1.00  0.00     0.173 A 
ATOM     62  C   UNL A   1      43.981  33.813  28.113  1.00  0.00     0.173 A 
ATOM     63  F   UNL A   1      47.214  32.233  27.614  1.00  0.00    -0.203 F 
ATOM     64  C   UNL A   1      46.571  34.477  27.439  1.00  0.00     0.198 A 
ATOM     65  C   UNL A   1      44.314  35.134  27.824  1.00  0.00     0.198 A 
ATOM     66  F   UNL A   1      42.734  33.623  28.560  1.00  0.00    -0.203 F 
ATOM     67  F   UNL A   1      47.850  34.804  27.203  1.00  0.00    -0.200 F 
ATOM     68  C   UNL A   1      45.615  35.472  27.519  1.00  0.00     0.200 A 
ATOM     69  F   UNL A   1      43.377  36.087  27.928  1.00  0.00    -0.200 F 
ATOM     70  F   UNL A   1      45.953  36.758  27.354  1.00  0.00    -0.200 F 
ENDBRANCH  46  60
BRANCH  47  71
ATOM     71  C   UNL A   1      36.885  31.831  30.670  1.00  0.00     0.064 A 
ATOM     72  C   UNL A   1      35.976  31.930  31.737  1.00  0.00     0.173 A 
ATOM     73  C   UNL A   1      36.605  32.617  29.535  1.00  0.00     0.173 A 
ATOM     74  F   UNL A   1      36.191  31.245  32.871  1.00  0.00    -0.203 F 
ATOM     75  C   UNL A   1      34.874  32.790  31.684  1.00  0.00     0.198 A 
ATOM     76  C   UNL A   1      35.502  33.470  29.481  1.00  0.00     0.198 A 
ATOM     77  F   UNL A   1      37.450  32.647  28.495  1.00  0.00    -0.203 F 
ATOM     78  F   UNL A   1      34.067  32.907  32.748  1.00  0.00    -0.200 F 
ATOM     79  C   UNL A   1      34.645  33.568  30.562  1.00  0.00     0.200 A 
ATOM     80  F   UNL A   1      35.312  34.245  28.404  1.00  0.00    -0.200 F 
ATOM     81  F   UNL A   1      33.629  34.441  30.537  1.00  0.00    -0.200 F 
ENDBRANCH  47  71
BRANCH  59  82
ATOM     82  C   UNL A   1      42.128  30.047  33.643  1.00  0.00     0.064 A 
ATOM     83  C   UNL A   1      41.705  28.717  33.466  1.00  0.00     0.173 A 
ATOM     84  C   UNL A   1      42.405  30.459  34.954  1.00  0.00     0.173 A 
ATOM     85  F   UNL A   1      41.521  28.205  32.243  1.00  0.00    -0.203 F 
ATOM     86  C   UNL A   1      41.514  27.865  34.554  1.00  0.00     0.198 A 
ATOM     87  C   UNL A   1      42.253  29.594  36.034  1.00  0.00     0.198 A 
ATOM     88  F   UNL A   1      42.868  31.698  35.186  1.00  0.00    -0.203 F 
ATOM     89  F   UNL A   1      41.086  26.609  34.356  1.00  0.00    -0.200 F 
ATOM     90  C   UNL A   1      41.793  28.303  35.836  1.00  0.00     0.200 A 
ATOM     91  F   UNL A   1      42.575  30.007  37.268  1.00  0.00    -0.200 F 
ATOM     92  F   UNL A   1      41.644  27.474  36.879  1.00  0.00    -0.200 F 
ENDBRANCH  59  82
ENDBRANCH  33  34
ENDBRANCH  25  28
ENDBRANCH  23  24
ENDBRANCH  22  23
ENDBRANCH   1  22
TORSDOF 14
ENDMDL
