MODEL 1
REMARK VINA RESULT:     -11.7      0.000      0.000
REMARK SMILES C[C@@H](CC(=O)NCCCCNC(=O)c1ccc(-c2c3nc(c(-c4c(F)c(F)c(F)c(F)c4F)c4ccc([nH]4)c(-c4c(F)c(F)c(F)c(F)c4F)c4nc(c(-c5c(F)c(F)c(F)c(F)c5F)c5ccc2[nH]5)C=C4)C=C3)cc1)NC(=O)N[C@H]1CCOC1
REMARK SMILES IDX 8 1 7 2 6 3 4 4 5 5 3 7 2 8 1 9 77 10 78 11 79 13 80 14
REMARK SMILES IDX 81 16 82 17 85 18 83 19 84 20 9 21 10 22 11 23 12 24 13 26
REMARK SMILES IDX 14 27 15 28 76 29 16 30 75 31 17 32 18 33 19 34 69 35 20 36
REMARK SMILES IDX 74 37 68 38 70 39 21 40 73 41 67 42 66 43 22 45 54 46 34 47
REMARK SMILES IDX 53 48 35 49 38 50 52 51 71 52 36 53 37 54 51 56 72 57 39 58
REMARK SMILES IDX 23 59 24 60 32 61 25 62 26 63 30 64 33 65 27 66 28 67 31 68
REMARK SMILES IDX 29 69 55 70 56 71 64 72 57 73 58 74 62 75 65 76 59 77 60 78
REMARK SMILES IDX 63 79 61 80 40 81 41 82 49 83 42 84 43 85 47 86 50 87 44 88
REMARK SMILES IDX 45 89 48 90 46 91
REMARK H PARENT 6 6 77 12 80 15 11 25 70 44 38 55
REMARK Flexibility Score: inf
ROOT
ATOM      1  C   UNL A   1      31.667  30.908  26.158  1.00  0.00     0.023 C 
ENDROOT
BRANCH   1   2
ATOM      2  C   UNL A   1      32.502  30.046  27.108  1.00  0.00     0.116 C 
BRANCH   2   3
ATOM      3  N   UNL A   1      33.188  29.012  26.358  1.00  0.00    -0.356 N 
ATOM      4  C   UNL A   1      32.826  27.714  26.154  1.00  0.00     0.222 C 
ATOM      5  O   UNL A   1      33.674  26.922  25.746  1.00  0.00    -0.275 OA
ATOM      6  H   UNL A   1      34.034  29.286  25.937  1.00  0.00     0.163 HD
BRANCH   4   7
ATOM      7  C   UNL A   1      31.385  27.306  26.316  1.00  0.00     0.124 C 
BRANCH   7   8
ATOM      8  C   UNL A   1      30.548  26.946  25.091  1.00  0.00     0.090 C 
ATOM      9  C   UNL A   1      29.594  25.769  25.190  1.00  0.00     0.031 C 
BRANCH   8  10
ATOM     10  N   UNL A   1      31.234  26.869  23.836  1.00  0.00    -0.335 N 
ATOM     11  C   UNL A   1      30.826  27.334  22.648  1.00  0.00     0.315 C 
ATOM     12  H   UNL A   1      32.111  26.419  23.847  1.00  0.00     0.165 HD
ATOM     13  O   UNL A   1      31.392  26.903  21.639  1.00  0.00    -0.249 OA
ATOM     14  N   UNL A   1      29.832  28.209  22.453  1.00  0.00    -0.333 N 
ATOM     15  H   UNL A   1      29.660  28.240  21.483  1.00  0.00     0.165 HD
BRANCH  14  16
ATOM     16  C   UNL A   1      28.888  29.148  23.090  1.00  0.00     0.112 C 
ATOM     17  C   UNL A   1      29.181  30.607  22.761  1.00  0.00     0.056 C 
ATOM     18  C   UNL A   1      27.368  29.136  23.016  1.00  0.00     0.185 C 
ATOM     19  C   UNL A   1      27.909  31.347  23.164  1.00  0.00     0.162 C 
ATOM     20  O   UNL A   1      26.988  30.363  23.661  1.00  0.00    -0.379 OA
ENDBRANCH  14  16
ENDBRANCH   8  10
ENDBRANCH   7   8
ENDBRANCH   4   7
ENDBRANCH   2   3
ENDBRANCH   1   2
BRANCH   1  21
ATOM     21  C   UNL A   1      31.408  32.321  26.655  1.00  0.00     0.023 C 
BRANCH  21  22
ATOM     22  C   UNL A   1      32.621  32.957  27.289  1.00  0.00     0.116 C 
BRANCH  22  23
ATOM     23  N   UNL A   1      32.374  34.326  27.713  1.00  0.00    -0.352 N 
ATOM     24  C   UNL A   1      32.998  35.017  28.726  1.00  0.00     0.251 C 
ATOM     25  H   UNL A   1      31.679  34.817  27.217  1.00  0.00     0.163 HD
ATOM     26  O   UNL A   1      32.595  36.106  29.093  1.00  0.00    -0.269 OA
BRANCH  24  27
ATOM     27  C   UNL A   1      34.156  34.374  29.377  1.00  0.00     0.039 A 
ATOM     28  C   UNL A   1      33.941  33.488  30.430  1.00  0.00     0.014 A 
ATOM     29  C   UNL A   1      35.441  34.589  28.869  1.00  0.00     0.014 A 
ATOM     30  C   UNL A   1      35.023  32.785  30.954  1.00  0.00     0.010 A 
ATOM     31  C   UNL A   1      36.487  33.795  29.303  1.00  0.00     0.010 A 
ATOM     32  C   UNL A   1      36.299  32.919  30.379  1.00  0.00    -0.014 A 
BRANCH  32  33
ATOM     33  C   UNL A   1      37.476  32.223  30.946  1.00  0.00     0.031 A 
ATOM     34  C   UNL A   1      37.950  32.593  32.326  1.00  0.00     0.074 A 
ATOM     35  C   UNL A   1      38.139  31.309  30.214  1.00  0.00     0.049 A 
ATOM     36  N   UNL A   1      38.985  32.155  32.995  1.00  0.00    -0.248 NA
ATOM     37  C   UNL A   1      37.180  33.632  33.035  1.00  0.00     0.031 C 
ATOM     38  C   UNL A   1      37.812  30.920  28.841  1.00  0.00     0.029 A 
ATOM     39  N   UNL A   1      39.229  30.541  30.526  1.00  0.00    -0.354 N 
ATOM     40  C   UNL A   1      38.999  32.880  34.180  1.00  0.00     0.074 A 
ATOM     41  C   UNL A   1      37.926  33.844  34.106  1.00  0.00     0.031 C 
ATOM     42  C   UNL A   1      38.659  29.956  28.445  1.00  0.00     0.029 A 
ATOM     43  C   UNL A   1      39.604  29.683  29.521  1.00  0.00     0.049 A 
ATOM     44  H   UNL A   1      39.700  30.598  31.389  1.00  0.00     0.167 HD
ATOM     45  C   UNL A   1      39.806  32.727  35.255  1.00  0.00     0.037 A 
ATOM     46  C   UNL A   1      40.596  28.774  29.487  1.00  0.00     0.037 A 
ATOM     47  C   UNL A   1      40.838  31.730  35.339  1.00  0.00     0.049 A 
ATOM     48  C   UNL A   1      41.462  28.599  30.708  1.00  0.00     0.074 A 
ATOM     49  C   UNL A   1      41.676  31.441  36.399  1.00  0.00     0.029 A 
ATOM     50  N   UNL A   1      41.165  30.852  34.315  1.00  0.00    -0.354 N 
ATOM     51  N   UNL A   1      41.420  29.238  31.854  1.00  0.00    -0.248 NA
ATOM     52  C   UNL A   1      42.501  27.565  30.636  1.00  0.00     0.031 C 
ATOM     53  C   UNL A   1      42.537  30.412  36.004  1.00  0.00     0.029 A 
ATOM     54  C   UNL A   1      42.202  30.027  34.715  1.00  0.00     0.049 A 
ATOM     55  H   UNL A   1      40.725  30.821  33.435  1.00  0.00     0.167 HD
ATOM     56  C   UNL A   1      42.405  28.664  32.647  1.00  0.00     0.074 A 
ATOM     57  C   UNL A   1      43.010  27.611  31.858  1.00  0.00     0.031 C 
ATOM     58  C   UNL A   1      42.779  28.979  33.911  1.00  0.00     0.037 A 
BRANCH  45  59
ATOM     59  C   UNL A   1      39.585  33.645  36.421  1.00  0.00     0.064 A 
ATOM     60  C   UNL A   1      40.173  34.920  36.478  1.00  0.00     0.173 A 
ATOM     61  C   UNL A   1      38.773  33.252  37.495  1.00  0.00     0.173 A 
ATOM     62  F   UNL A   1      40.975  35.338  35.486  1.00  0.00    -0.203 F 
ATOM     63  C   UNL A   1      39.987  35.749  37.581  1.00  0.00     0.198 A 
ATOM     64  C   UNL A   1      38.559  34.098  38.581  1.00  0.00     0.198 A 
ATOM     65  F   UNL A   1      38.186  32.046  37.493  1.00  0.00    -0.203 F 
ATOM     66  F   UNL A   1      40.613  36.932  37.641  1.00  0.00    -0.200 F 
ATOM     67  C   UNL A   1      39.175  35.340  38.628  1.00  0.00     0.200 A 
ATOM     68  F   UNL A   1      37.767  33.706  39.587  1.00  0.00    -0.200 F 
ATOM     69  F   UNL A   1      38.994  36.140  39.689  1.00  0.00    -0.200 F 
ENDBRANCH  45  59
BRANCH  46  70
ATOM     70  C   UNL A   1      40.794  27.927  28.282  1.00  0.00     0.064 A 
ATOM     71  C   UNL A   1      40.202  26.659  28.189  1.00  0.00     0.173 A 
ATOM     72  C   UNL A   1      41.585  28.356  27.207  1.00  0.00     0.173 A 
ATOM     73  F   UNL A   1      39.449  26.197  29.198  1.00  0.00    -0.203 F 
ATOM     74  C   UNL A   1      40.417  25.842  27.082  1.00  0.00     0.198 A 
ATOM     75  C   UNL A   1      41.776  27.550  26.087  1.00  0.00     0.198 A 
ATOM     76  F   UNL A   1      42.168  29.564  27.241  1.00  0.00    -0.203 F 
ATOM     77  F   UNL A   1      39.882  24.614  27.044  1.00  0.00    -0.200 F 
ATOM     78  C   UNL A   1      41.201  26.289  26.029  1.00  0.00     0.200 A 
ATOM     79  F   UNL A   1      42.521  27.991  25.065  1.00  0.00    -0.200 F 
ATOM     80  F   UNL A   1      41.408  25.502  24.964  1.00  0.00    -0.200 F 
ENDBRANCH  46  70
BRANCH  58  81
ATOM     81  C   UNL A   1      43.866  28.148  34.528  1.00  0.00     0.064 A 
ATOM     82  C   UNL A   1      45.216  28.518  34.441  1.00  0.00     0.173 A 
ATOM     83  C   UNL A   1      43.548  26.978  35.234  1.00  0.00     0.173 A 
ATOM     84  F   UNL A   1      45.572  29.622  33.766  1.00  0.00    -0.203 F 
ATOM     85  C   UNL A   1      46.212  27.725  35.004  1.00  0.00     0.198 A 
ATOM     86  C   UNL A   1      44.543  26.206  35.826  1.00  0.00     0.198 A 
ATOM     87  F   UNL A   1      42.271  26.586  35.355  1.00  0.00    -0.203 F 
ATOM     88  F   UNL A   1      47.499  28.065  34.855  1.00  0.00    -0.200 F 
ATOM     89  C   UNL A   1      45.874  26.574  35.701  1.00  0.00     0.200 A 
ATOM     90  F   UNL A   1      44.214  25.104  36.513  1.00  0.00    -0.200 F 
ATOM     91  F   UNL A   1      46.833  25.813  36.244  1.00  0.00    -0.200 F 
ENDBRANCH  58  81
ENDBRANCH  32  33
ENDBRANCH  24  27
ENDBRANCH  22  23
ENDBRANCH  21  22
ENDBRANCH   1  21
TORSDOF 14
ENDMDL
MODEL 2
REMARK VINA RESULT:     -11.7      0.192      2.005
REMARK SMILES C[C@@H](CC(=O)NCCCCNC(=O)c1ccc(-c2c3nc(c(-c4c(F)c(F)c(F)c(F)c4F)c4ccc([nH]4)c(-c4c(F)c(F)c(F)c(F)c4F)c4nc(c(-c5c(F)c(F)c(F)c(F)c5F)c5ccc2[nH]5)C=C4)C=C3)cc1)NC(=O)N[C@H]1CCOC1
REMARK SMILES IDX 8 1 7 2 6 3 4 4 5 5 3 7 2 8 1 9 77 10 78 11 79 13 80 14
REMARK SMILES IDX 81 16 82 17 85 18 83 19 84 20 9 21 10 22 11 23 12 24 13 26
REMARK SMILES IDX 14 27 15 28 76 29 16 30 75 31 17 32 18 33 19 34 69 35 20 36
REMARK SMILES IDX 74 37 68 38 70 39 21 40 73 41 67 42 66 43 22 45 54 46 34 47
REMARK SMILES IDX 53 48 35 49 38 50 52 51 71 52 36 53 37 54 51 56 72 57 39 58
REMARK SMILES IDX 23 59 24 60 32 61 25 62 26 63 30 64 33 65 27 66 28 67 31 68
REMARK SMILES IDX 29 69 55 70 56 71 64 72 57 73 58 74 62 75 65 76 59 77 60 78
REMARK SMILES IDX 63 79 61 80 40 81 41 82 49 83 42 84 43 85 47 86 50 87 44 88
REMARK SMILES IDX 45 89 48 90 46 91
REMARK H PARENT 6 6 77 12 80 15 11 25 70 44 38 55
REMARK Flexibility Score: inf
ROOT
ATOM      1  C   UNL A   1      31.758  30.859  26.360  1.00  0.00     0.023 C 
ENDROOT
BRANCH   1   2
ATOM      2  C   UNL A   1      32.816  30.170  27.227  1.00  0.00     0.116 C 
BRANCH   2   3
ATOM      3  N   UNL A   1      33.429  29.086  26.485  1.00  0.00    -0.356 N 
ATOM      4  C   UNL A   1      32.981  27.813  26.293  1.00  0.00     0.222 C 
ATOM      5  O   UNL A   1      33.774  26.963  25.890  1.00  0.00    -0.275 OA
ATOM      6  H   UNL A   1      34.291  29.300  26.060  1.00  0.00     0.163 HD
BRANCH   4   7
ATOM      7  C   UNL A   1      31.517  27.503  26.461  1.00  0.00     0.124 C 
BRANCH   7   8
ATOM      8  C   UNL A   1      30.721  26.911  25.302  1.00  0.00     0.090 C 
ATOM      9  C   UNL A   1      29.917  25.646  25.550  1.00  0.00     0.031 C 
BRANCH   8  10
ATOM     10  N   UNL A   1      31.401  26.776  24.048  1.00  0.00    -0.335 N 
ATOM     11  C   UNL A   1      30.963  27.135  22.835  1.00  0.00     0.315 C 
ATOM     12  H   UNL A   1      32.299  26.371  24.083  1.00  0.00     0.165 HD
ATOM     13  O   UNL A   1      31.543  26.660  21.853  1.00  0.00    -0.249 OA
ATOM     14  N   UNL A   1      29.927  27.946  22.587  1.00  0.00    -0.333 N 
ATOM     15  H   UNL A   1      29.748  27.899  21.620  1.00  0.00     0.165 HD
BRANCH  14  16
ATOM     16  C   UNL A   1      28.944  28.883  23.165  1.00  0.00     0.112 C 
ATOM     17  C   UNL A   1      29.508  30.281  23.387  1.00  0.00     0.056 C 
ATOM     18  C   UNL A   1      27.553  29.213  22.645  1.00  0.00     0.185 C 
ATOM     19  C   UNL A   1      28.275  31.156  23.596  1.00  0.00     0.162 C 
ATOM     20  O   UNL A   1      27.127  30.301  23.482  1.00  0.00    -0.379 OA
ENDBRANCH  14  16
ENDBRANCH   8  10
ENDBRANCH   7   8
ENDBRANCH   4   7
ENDBRANCH   2   3
ENDBRANCH   1   2
BRANCH   1  21
ATOM     21  C   UNL A   1      31.522  32.321  26.699  1.00  0.00     0.023 C 
BRANCH  21  22
ATOM     22  C   UNL A   1      32.736  32.995  27.291  1.00  0.00     0.116 C 
BRANCH  22  23
ATOM     23  N   UNL A   1      32.452  34.343  27.759  1.00  0.00    -0.352 N 
ATOM     24  C   UNL A   1      33.042  35.009  28.807  1.00  0.00     0.251 C 
ATOM     25  H   UNL A   1      31.756  34.836  27.267  1.00  0.00     0.163 HD
ATOM     26  O   UNL A   1      32.609  36.076  29.205  1.00  0.00    -0.269 OA
BRANCH  24  27
ATOM     27  C   UNL A   1      34.201  34.368  29.458  1.00  0.00     0.039 A 
ATOM     28  C   UNL A   1      33.985  33.457  30.491  1.00  0.00     0.014 A 
ATOM     29  C   UNL A   1      35.488  34.608  28.969  1.00  0.00     0.014 A 
ATOM     30  C   UNL A   1      35.070  32.757  31.012  1.00  0.00     0.010 A 
ATOM     31  C   UNL A   1      36.539  33.818  29.398  1.00  0.00     0.010 A 
ATOM     32  C   UNL A   1      36.350  32.918  30.454  1.00  0.00    -0.014 A 
BRANCH  32  33
ATOM     33  C   UNL A   1      37.530  32.225  31.020  1.00  0.00     0.031 A 
ATOM     34  C   UNL A   1      38.004  32.596  32.400  1.00  0.00     0.074 A 
ATOM     35  C   UNL A   1      38.195  31.314  30.286  1.00  0.00     0.049 A 
ATOM     36  N   UNL A   1      39.041  32.160  33.067  1.00  0.00    -0.248 NA
ATOM     37  C   UNL A   1      37.232  33.632  33.110  1.00  0.00     0.031 C 
ATOM     38  C   UNL A   1      37.869  30.925  28.913  1.00  0.00     0.029 A 
ATOM     39  N   UNL A   1      39.288  30.548  30.597  1.00  0.00    -0.354 N 
ATOM     40  C   UNL A   1      39.053  32.883  34.253  1.00  0.00     0.074 A 
ATOM     41  C   UNL A   1      37.978  33.845  34.180  1.00  0.00     0.031 C 
ATOM     42  C   UNL A   1      38.718  29.963  28.515  1.00  0.00     0.029 A 
ATOM     43  C   UNL A   1      39.665  29.693  29.591  1.00  0.00     0.049 A 
ATOM     44  H   UNL A   1      39.759  30.606  31.460  1.00  0.00     0.167 HD
ATOM     45  C   UNL A   1      39.861  32.732  35.327  1.00  0.00     0.037 A 
ATOM     46  C   UNL A   1      40.659  28.786  29.555  1.00  0.00     0.037 A 
ATOM     47  C   UNL A   1      40.896  31.738  35.410  1.00  0.00     0.049 A 
ATOM     48  C   UNL A   1      41.526  28.613  30.776  1.00  0.00     0.074 A 
ATOM     49  C   UNL A   1      41.736  31.451  36.469  1.00  0.00     0.029 A 
ATOM     50  N   UNL A   1      41.225  30.862  34.385  1.00  0.00    -0.354 N 
ATOM     51  N   UNL A   1      41.483  29.251  31.922  1.00  0.00    -0.248 NA
ATOM     52  C   UNL A   1      42.568  27.582  30.702  1.00  0.00     0.031 C 
ATOM     53  C   UNL A   1      42.600  30.425  36.072  1.00  0.00     0.029 A 
ATOM     54  C   UNL A   1      42.265  30.039  34.784  1.00  0.00     0.049 A 
ATOM     55  H   UNL A   1      40.785  30.830  33.505  1.00  0.00     0.167 HD
ATOM     56  C   UNL A   1      42.470  28.679  32.714  1.00  0.00     0.074 A 
ATOM     57  C   UNL A   1      43.078  27.628  31.924  1.00  0.00     0.031 C 
ATOM     58  C   UNL A   1      42.844  28.994  33.978  1.00  0.00     0.037 A 
BRANCH  45  59
ATOM     59  C   UNL A   1      39.639  33.649  36.494  1.00  0.00     0.064 A 
ATOM     60  C   UNL A   1      38.828  33.277  37.579  1.00  0.00     0.173 A 
ATOM     61  C   UNL A   1      40.246  34.913  36.535  1.00  0.00     0.173 A 
ATOM     62  F   UNL A   1      38.208  32.087  37.583  1.00  0.00    -0.203 F 
ATOM     63  C   UNL A   1      38.602  34.151  38.640  1.00  0.00     0.198 A 
ATOM     64  C   UNL A   1      40.047  35.770  37.615  1.00  0.00     0.198 A 
ATOM     65  F   UNL A   1      41.030  35.319  35.525  1.00  0.00    -0.203 F 
ATOM     66  F   UNL A   1      37.771  33.798  39.631  1.00  0.00    -0.200 F 
ATOM     67  C   UNL A   1      39.218  35.393  38.660  1.00  0.00     0.200 A 
ATOM     68  F   UNL A   1      40.650  36.966  37.638  1.00  0.00    -0.200 F 
ATOM     69  F   UNL A   1      39.003  36.232  39.684  1.00  0.00    -0.200 F 
ENDBRANCH  45  59
BRANCH  46  70
ATOM     70  C   UNL A   1      40.859  27.941  28.350  1.00  0.00     0.064 A 
ATOM     71  C   UNL A   1      41.658  28.383  27.285  1.00  0.00     0.173 A 
ATOM     72  C   UNL A   1      40.251  26.683  28.228  1.00  0.00     0.173 A 
ATOM     73  F   UNL A   1      42.249  29.585  27.347  1.00  0.00    -0.203 F 
ATOM     74  C   UNL A   1      41.817  27.614  26.135  1.00  0.00     0.198 A 
ATOM     75  C   UNL A   1      40.433  25.903  27.089  1.00  0.00     0.198 A 
ATOM     76  F   UNL A   1      39.483  26.209  29.221  1.00  0.00    -0.203 F 
ATOM     77  F   UNL A   1      42.543  28.085  25.112  1.00  0.00    -0.200 F 
ATOM     78  C   UNL A   1      41.207  26.373  26.038  1.00  0.00     0.200 A 
ATOM     79  F   UNL A   1      39.855  24.697  27.005  1.00  0.00    -0.200 F 
ATOM     80  F   UNL A   1      41.359  25.634  24.930  1.00  0.00    -0.200 F 
ENDBRANCH  46  70
BRANCH  58  81
ATOM     81  C   UNL A   1      43.934  28.165  34.593  1.00  0.00     0.064 A 
ATOM     82  C   UNL A   1      43.655  26.977  35.285  1.00  0.00     0.173 A 
ATOM     83  C   UNL A   1      45.276  28.554  34.468  1.00  0.00     0.173 A 
ATOM     84  F   UNL A   1      42.387  26.569  35.443  1.00  0.00    -0.203 F 
ATOM     85  C   UNL A   1      44.677  26.230  35.863  1.00  0.00     0.198 A 
ATOM     86  C   UNL A   1      46.298  27.787  35.017  1.00  0.00     0.198 A 
ATOM     87  F   UNL A   1      45.596  29.676  33.806  1.00  0.00    -0.203 F 
ATOM     88  F   UNL A   1      44.383  25.132  36.573  1.00  0.00    -0.200 F 
ATOM     89  C   UNL A   1      45.998  26.633  35.723  1.00  0.00     0.200 A 
ATOM     90  F   UNL A   1      47.574  28.167  34.867  1.00  0.00    -0.200 F 
ATOM     91  F   UNL A   1      46.980  25.912  36.279  1.00  0.00    -0.200 F 
ENDBRANCH  58  81
ENDBRANCH  32  33
ENDBRANCH  24  27
ENDBRANCH  22  23
ENDBRANCH  21  22
ENDBRANCH   1  21
TORSDOF 14
ENDMDL
MODEL 3
REMARK VINA RESULT:     -11.7      0.713      7.531
REMARK SMILES C[C@@H](CC(=O)NCCCCNC(=O)c1ccc(-c2c3nc(c(-c4c(F)c(F)c(F)c(F)c4F)c4ccc([nH]4)c(-c4c(F)c(F)c(F)c(F)c4F)c4nc(c(-c5c(F)c(F)c(F)c(F)c5F)c5ccc2[nH]5)C=C4)C=C3)cc1)NC(=O)N[C@H]1CCOC1
REMARK SMILES IDX 8 1 7 2 6 3 4 4 5 5 3 7 2 8 1 9 77 10 78 11 79 13 80 14
REMARK SMILES IDX 81 16 82 17 85 18 83 19 84 20 9 21 10 22 11 23 12 24 13 26
REMARK SMILES IDX 14 27 15 28 76 29 16 30 75 31 17 32 18 33 19 34 69 35 20 36
REMARK SMILES IDX 74 37 68 38 70 39 21 40 73 41 67 42 66 43 22 45 54 46 34 47
REMARK SMILES IDX 53 48 35 49 38 50 52 51 71 52 36 53 37 54 51 56 72 57 39 58
REMARK SMILES IDX 23 59 24 60 32 61 25 62 26 63 30 64 33 65 27 66 28 67 31 68
REMARK SMILES IDX 29 69 55 70 56 71 64 72 57 73 58 74 62 75 65 76 59 77 60 78
REMARK SMILES IDX 63 79 61 80 40 81 41 82 49 83 42 84 43 85 47 86 50 87 44 88
REMARK SMILES IDX 45 89 48 90 46 91
REMARK H PARENT 6 6 77 12 80 15 11 25 70 44 38 55
REMARK Flexibility Score: inf
ROOT
ATOM      1  C   UNL A   1      31.802  30.712  26.229  1.00  0.00     0.023 C 
ENDROOT
BRANCH   1   2
ATOM      2  C   UNL A   1      32.568  29.843  27.229  1.00  0.00     0.116 C 
BRANCH   2   3
ATOM      3  N   UNL A   1      33.341  28.842  26.519  1.00  0.00    -0.356 N 
ATOM      4  C   UNL A   1      33.072  27.519  26.333  1.00  0.00     0.222 C 
ATOM      5  O   UNL A   1      33.982  26.778  25.964  1.00  0.00    -0.275 OA
ATOM      6  H   UNL A   1      34.179  29.165  26.116  1.00  0.00     0.163 HD
BRANCH   4   7
ATOM      7  C   UNL A   1      31.658  27.019  26.465  1.00  0.00     0.124 C 
BRANCH   7   8
ATOM      8  C   UNL A   1      30.778  26.871  25.226  1.00  0.00     0.090 C 
ATOM      9  C   UNL A   1      29.661  25.843  25.254  1.00  0.00     0.031 C 
BRANCH   8  10
ATOM     10  N   UNL A   1      31.447  26.780  23.962  1.00  0.00    -0.335 N 
ATOM     11  C   UNL A   1      30.991  27.167  22.764  1.00  0.00     0.315 C 
ATOM     12  H   UNL A   1      32.349  26.385  23.976  1.00  0.00     0.165 HD
ATOM     13  O   UNL A   1      31.565  26.727  21.763  1.00  0.00    -0.249 OA
ATOM     14  N   UNL A   1      29.943  27.972  22.550  1.00  0.00    -0.333 N 
ATOM     15  H   UNL A   1      29.753  27.950  21.584  1.00  0.00     0.165 HD
BRANCH  14  16
ATOM     16  C   UNL A   1      28.955  28.880  23.165  1.00  0.00     0.112 C 
ATOM     17  C   UNL A   1      29.440  30.322  23.253  1.00  0.00     0.056 C 
ATOM     18  C   UNL A   1      27.503  29.089  22.761  1.00  0.00     0.185 C 
ATOM     19  C   UNL A   1      28.175  31.129  23.528  1.00  0.00     0.162 C 
ATOM     20  O   UNL A   1      27.082  30.199  23.572  1.00  0.00    -0.379 OA
ENDBRANCH  14  16
ENDBRANCH   8  10
ENDBRANCH   7   8
ENDBRANCH   4   7
ENDBRANCH   2   3
ENDBRANCH   1   2
BRANCH   1  21
ATOM     21  C   UNL A   1      31.473  32.107  26.732  1.00  0.00     0.023 C 
BRANCH  21  22
ATOM     22  C   UNL A   1      32.653  32.800  27.370  1.00  0.00     0.116 C 
BRANCH  22  23
ATOM     23  N   UNL A   1      32.407  34.214  27.607  1.00  0.00    -0.352 N 
ATOM     24  C   UNL A   1      32.991  35.020  28.556  1.00  0.00     0.251 C 
ATOM     25  H   UNL A   1      31.745  34.645  27.019  1.00  0.00     0.163 HD
ATOM     26  O   UNL A   1      32.588  36.151  28.763  1.00  0.00    -0.269 OA
BRANCH  24  27
ATOM     27  C   UNL A   1      34.104  34.454  29.341  1.00  0.00     0.039 A 
ATOM     28  C   UNL A   1      33.822  33.695  30.476  1.00  0.00     0.014 A 
ATOM     29  C   UNL A   1      35.417  34.603  28.885  1.00  0.00     0.014 A 
ATOM     30  C   UNL A   1      34.867  33.055  31.137  1.00  0.00     0.010 A 
ATOM     31  C   UNL A   1      36.430  33.862  29.465  1.00  0.00     0.010 A 
ATOM     32  C   UNL A   1      36.174  33.116  30.623  1.00  0.00    -0.014 A 
BRANCH  32  33
ATOM     33  C   UNL A   1      37.311  32.486  31.332  1.00  0.00     0.031 A 
ATOM     34  C   UNL A   1      38.064  31.370  30.659  1.00  0.00     0.074 A 
ATOM     35  C   UNL A   1      37.630  32.877  32.580  1.00  0.00     0.049 A 
ATOM     36  N   UNL A   1      39.052  30.643  31.113  1.00  0.00    -0.248 NA
ATOM     37  C   UNL A   1      37.616  30.988  29.308  1.00  0.00     0.031 C 
ATOM     38  C   UNL A   1      36.927  33.900  33.356  1.00  0.00     0.029 A 
ATOM     39  N   UNL A   1      38.631  32.456  33.415  1.00  0.00    -0.354 N 
ATOM     40  C   UNL A   1      39.320  29.713  30.117  1.00  0.00     0.074 A 
ATOM     41  C   UNL A   1      38.340  29.906  29.074  1.00  0.00     0.031 C 
ATOM     42  C   UNL A   1      37.546  34.056  34.538  1.00  0.00     0.029 A 
ATOM     43  C   UNL A   1      38.665  33.123  34.614  1.00  0.00     0.049 A 
ATOM     44  H   UNL A   1      39.266  31.742  33.178  1.00  0.00     0.167 HD
ATOM     45  C   UNL A   1      40.321  28.805  30.056  1.00  0.00     0.037 A 
ATOM     46  C   UNL A   1      39.515  32.997  35.649  1.00  0.00     0.037 A 
ATOM     47  C   UNL A   1      41.322  28.654  31.076  1.00  0.00     0.049 A 
ATOM     48  C   UNL A   1      40.642  32.002  35.544  1.00  0.00     0.074 A 
ATOM     49  C   UNL A   1      42.418  27.812  31.094  1.00  0.00     0.029 A 
ATOM     50  N   UNL A   1      41.347  29.375  32.262  1.00  0.00    -0.354 N 
ATOM     51  N   UNL A   1      40.932  31.177  34.566  1.00  0.00    -0.248 NA
ATOM     52  C   UNL A   1      41.568  31.933  36.681  1.00  0.00     0.031 C 
ATOM     53  C   UNL A   1      43.086  27.996  32.309  1.00  0.00     0.029 A 
ATOM     54  C   UNL A   1      42.435  28.988  33.025  1.00  0.00     0.049 A 
ATOM     55  H   UNL A   1      40.689  30.059  32.521  1.00  0.00     0.167 HD
ATOM     56  C   UNL A   1      42.088  30.514  34.956  1.00  0.00     0.074 A 
ATOM     57  C   UNL A   1      42.457  31.051  36.250  1.00  0.00     0.031 C 
ATOM     58  C   UNL A   1      42.783  29.547  34.307  1.00  0.00     0.037 A 
BRANCH  45  59
ATOM     59  C   UNL A   1      40.385  27.928  28.839  1.00  0.00     0.064 A 
ATOM     60  C   UNL A   1      41.116  28.301  27.699  1.00  0.00     0.173 A 
ATOM     61  C   UNL A   1      39.713  26.697  28.810  1.00  0.00     0.173 A 
ATOM     62  F   UNL A   1      41.761  29.477  27.665  1.00  0.00    -0.203 F 
ATOM     63  C   UNL A   1      41.139  27.494  26.564  1.00  0.00     0.198 A 
ATOM     64  C   UNL A   1      39.768  25.875  27.687  1.00  0.00     0.198 A 
ATOM     65  F   UNL A   1      39.000  26.291  29.871  1.00  0.00    -0.203 F 
ATOM     66  F   UNL A   1      41.789  27.904  25.466  1.00  0.00    -0.200 F 
ATOM     67  C   UNL A   1      40.472  26.278  26.563  1.00  0.00     0.200 A 
ATOM     68  F   UNL A   1      39.131  24.696  27.690  1.00  0.00    -0.200 F 
ATOM     69  F   UNL A   1      40.497  25.501  25.471  1.00  0.00    -0.200 F 
ENDBRANCH  45  59
BRANCH  46  70
ATOM     70  C   UNL A   1      39.370  33.863  36.848  1.00  0.00     0.064 A 
ATOM     71  C   UNL A   1      39.927  35.150  36.878  1.00  0.00     0.173 A 
ATOM     72  C   UNL A   1      38.685  33.424  37.991  1.00  0.00     0.173 A 
ATOM     73  F   UNL A   1      40.605  35.610  35.817  1.00  0.00    -0.203 F 
ATOM     74  C   UNL A   1      39.831  35.951  38.014  1.00  0.00     0.198 A 
ATOM     75  C   UNL A   1      38.565  34.237  39.115  1.00  0.00     0.198 A 
ATOM     76  F   UNL A   1      38.125  32.205  38.012  1.00  0.00    -0.203 F 
ATOM     77  F   UNL A   1      40.419  37.155  38.033  1.00  0.00    -0.200 F 
ATOM     78  C   UNL A   1      39.147  35.496  39.130  1.00  0.00     0.200 A 
ATOM     79  F   UNL A   1      37.889  33.800  40.187  1.00  0.00    -0.200 F 
ATOM     80  F   UNL A   1      39.055  36.267  40.223  1.00  0.00    -0.200 F 
ENDBRANCH  46  70
BRANCH  58  81
ATOM     81  C   UNL A   1      44.029  29.041  34.972  1.00  0.00     0.064 A 
ATOM     82  C   UNL A   1      45.281  29.629  34.737  1.00  0.00     0.173 A 
ATOM     83  C   UNL A   1      43.965  27.967  35.872  1.00  0.00     0.173 A 
ATOM     84  F   UNL A   1      45.397  30.651  33.875  1.00  0.00    -0.203 F 
ATOM     85  C   UNL A   1      46.429  29.135  35.350  1.00  0.00     0.198 A 
ATOM     86  C   UNL A   1      45.110  27.498  36.510  1.00  0.00     0.198 A 
ATOM     87  F   UNL A   1      42.791  27.377  36.140  1.00  0.00    -0.203 F 
ATOM     88  F   UNL A   1      47.623  29.672  35.063  1.00  0.00    -0.200 F 
ATOM     89  C   UNL A   1      46.341  28.074  36.240  1.00  0.00     0.200 A 
ATOM     90  F   UNL A   1      45.021  26.485  37.383  1.00  0.00    -0.200 F 
ATOM     91  F   UNL A   1      47.446  27.601  36.830  1.00  0.00    -0.200 F 
ENDBRANCH  58  81
ENDBRANCH  32  33
ENDBRANCH  24  27
ENDBRANCH  22  23
ENDBRANCH  21  22
ENDBRANCH   1  21
TORSDOF 14
ENDMDL
