MODEL 1
REMARK VINA RESULT:     -13.0      0.000      0.000
REMARK SMILES Cc1cc(/C=C2\C(=O)N(Cc3ccco3)C(=O)[NH+]=C2NCCCCNC(=O)c2ccc(-c3c4nc(c(-c5c(F)c(F)c(F)c(F)c5F)c5ccc([nH]5)c(-c5c(F)c(F)c(F)c(F)c5F)c5nc(c(-c6c(F)c(F)c(F)c(F)c6F)c6ccc3[nH]6)C=C5)C=C4)cc2)c(C)n1-c1ccc(Cl)c(C(=O)[O-])c1
REMARK SMILES IDX 22 1 21 2 20 3 5 4 6 5 7 6 19 7 8 8 9 9 18 10 16 11 17 14
REMARK SMILES IDX 4 15 1 16 2 17 3 18 93 19 91 20 92 21 94 22 95 23 103 24
REMARK SMILES IDX 96 25 99 26 97 27 98 28 100 29 101 30 102 31 10 32 11 33
REMARK SMILES IDX 12 34 15 35 13 36 14 37 23 38 24 39 25 40 26 41 27 43 28 44
REMARK SMILES IDX 29 45 90 46 30 47 89 48 31 49 32 50 33 51 83 52 34 53 88 54
REMARK SMILES IDX 82 55 84 56 35 57 87 58 81 59 80 60 36 62 68 63 48 64 67 65
REMARK SMILES IDX 49 66 52 67 66 68 85 69 50 70 51 71 65 73 86 74 53 75 37 76
REMARK SMILES IDX 38 77 46 78 39 79 40 80 44 81 47 82 41 83 42 84 45 85 43 86
REMARK SMILES IDX 69 87 70 88 78 89 71 90 72 91 76 92 79 93 73 94 74 95 77 96
REMARK SMILES IDX 75 97 54 98 55 99 63 100 56 101 57 102 61 103 64 104 58 105
REMARK SMILES IDX 59 106 62 107 60 108
REMARK H PARENT 18 12 20 13 25 42 84 61 52 72
REMARK Flexibility Score: inf
ROOT
ATOM      1  C   UNL A   1      38.219  22.368  24.984  1.00  0.00     0.039 C 
ENDROOT
BRANCH   1   2
ATOM      2  C   UNL A   1      37.485  23.622  25.457  1.00  0.00     0.194 C 
BRANCH   2   3
ATOM      3  N   UNL A   1      36.580  23.271  26.524  1.00  0.00    -0.305 N 
ATOM      4  C   UNL A   1      34.440  24.764  24.846  1.00  0.00     0.032 C 
ATOM      5  C   UNL A   1      34.269  23.591  25.484  1.00  0.00     0.129 C 
ATOM      6  C   UNL A   1      33.077  22.712  25.378  1.00  0.00     0.323 C 
ATOM      7  C   UNL A   1      35.217  23.145  26.535  1.00  0.00     0.236 C 
ATOM      8  O   UNL A   1      32.641  22.321  24.333  1.00  0.00    -0.250 OA
ATOM      9  N   UNL A   1      32.578  22.437  26.645  1.00  0.00    -0.182 N 
ATOM     10  N   UNL A   1      34.751  22.540  27.594  1.00  0.00    -0.210 N 
ATOM     11  C   UNL A   1      33.399  22.368  27.755  1.00  0.00     0.444 C 
ATOM     12  H   UNL A   1      35.373  22.204  28.279  1.00  0.00     0.270 HD
ATOM     13  H   UNL A   1      37.014  23.094  27.389  1.00  0.00     0.256 HD
ATOM     14  O   UNL A   1      32.937  22.146  28.877  1.00  0.00    -0.212 OA
BRANCH   4  15
ATOM     15  C   UNL A   1      33.655  25.439  23.853  1.00  0.00    -0.003 A 
ATOM     16  C   UNL A   1      32.450  25.896  20.354  1.00  0.00     0.065 C 
ATOM     17  C   UNL A   1      32.775  25.894  21.807  1.00  0.00     0.020 A 
ATOM     18  C   UNL A   1      33.652  25.069  22.485  1.00  0.00     0.031 A 
ATOM     19  N   UNL A   1      32.267  26.806  22.719  1.00  0.00    -0.318 N 
ATOM     20  C   UNL A   1      32.832  26.549  23.972  1.00  0.00     0.027 A 
ATOM     21  C   UNL A   1      32.437  27.312  25.189  1.00  0.00     0.065 C 
BRANCH  19  22
ATOM     22  C   UNL A   1      31.255  27.775  22.476  1.00  0.00     0.046 A 
ATOM     23  C   UNL A   1      31.616  29.064  22.080  1.00  0.00     0.028 A 
ATOM     24  C   UNL A   1      29.934  27.491  22.832  1.00  0.00     0.038 A 
ATOM     25  C   UNL A   1      30.687  30.097  22.166  1.00  0.00     0.023 A 
ATOM     26  C   UNL A   1      28.978  28.527  22.895  1.00  0.00     0.018 A 
ATOM     27  C   UNL A   1      29.378  29.841  22.596  1.00  0.00     0.050 A 
ATOM     28  Cl  UNL A   1      28.359  31.227  22.753  1.00  0.00    -0.084 Cl
BRANCH  26  29
ATOM     29  C   UNL A   1      27.590  28.209  23.331  1.00  0.00     0.073 C 
ATOM     30  O   UNL A   1      26.585  28.880  23.200  1.00  0.00    -0.545 OA
ATOM     31  O   UNL A   1      27.509  27.002  23.924  1.00  0.00    -0.545 OA
ENDBRANCH  26  29
ENDBRANCH  19  22
ENDBRANCH   4  15
BRANCH   9  32
ATOM     32  C   UNL A   1      31.150  22.250  26.817  1.00  0.00     0.285 C 
BRANCH  32  33
ATOM     33  C   UNL A   1      30.385  23.499  26.622  1.00  0.00     0.138 A 
ATOM     34  C   UNL A   1      30.493  24.556  25.744  1.00  0.00     0.049 A 
ATOM     35  O   UNL A   1      29.281  23.650  27.405  1.00  0.00    -0.466 OA
ATOM     36  C   UNL A   1      29.397  25.409  26.020  1.00  0.00     0.042 A 
ATOM     37  C   UNL A   1      28.691  24.814  27.040  1.00  0.00     0.195 A 
ENDBRANCH  32  33
ENDBRANCH   9  32
ENDBRANCH   2   3
ENDBRANCH   1   2
BRANCH   1  38
ATOM     38  C   UNL A   1      38.804  21.480  26.095  1.00  0.00     0.024 C 
BRANCH  38  39
ATOM     39  C   UNL A   1      40.100  21.941  26.778  1.00  0.00     0.116 C 
BRANCH  39  40
ATOM     40  N   UNL A   1      41.315  21.530  26.118  1.00  0.00    -0.352 N 
ATOM     41  C   UNL A   1      42.390  22.337  25.791  1.00  0.00     0.251 C 
ATOM     42  H   UNL A   1      41.388  20.578  25.877  1.00  0.00     0.163 HD
ATOM     43  O   UNL A   1      43.271  21.885  25.063  1.00  0.00    -0.269 OA
BRANCH  41  44
ATOM     44  C   UNL A   1      42.434  23.786  26.192  1.00  0.00     0.039 A 
ATOM     45  C   UNL A   1      42.286  24.065  27.534  1.00  0.00     0.014 A 
ATOM     46  C   UNL A   1      42.439  24.887  25.314  1.00  0.00     0.014 A 
ATOM     47  C   UNL A   1      42.190  25.409  27.970  1.00  0.00     0.010 A 
ATOM     48  C   UNL A   1      42.230  26.261  25.769  1.00  0.00     0.010 A 
ATOM     49  C   UNL A   1      42.063  26.578  27.126  1.00  0.00    -0.014 A 
BRANCH  49  50
ATOM     50  C   UNL A   1      41.395  27.886  27.815  1.00  0.00     0.031 A 
ATOM     51  C   UNL A   1      42.549  28.828  27.909  1.00  0.00     0.074 A 
ATOM     52  C   UNL A   1      40.266  28.394  28.459  1.00  0.00     0.049 A 
ATOM     53  N   UNL A   1      43.613  28.453  28.561  1.00  0.00    -0.248 NA
ATOM     54  C   UNL A   1      42.753  29.947  26.986  1.00  0.00     0.031 C 
ATOM     55  C   UNL A   1      39.026  27.694  28.831  1.00  0.00     0.029 A 
ATOM     56  N   UNL A   1      39.955  29.705  28.959  1.00  0.00    -0.354 N 
ATOM     57  C   UNL A   1      44.559  29.417  28.343  1.00  0.00     0.074 A 
ATOM     58  C   UNL A   1      44.051  30.183  27.213  1.00  0.00     0.031 C 
ATOM     59  C   UNL A   1      38.089  28.554  29.336  1.00  0.00     0.029 A 
ATOM     60  C   UNL A   1      38.607  29.919  29.421  1.00  0.00     0.049 A 
ATOM     61  H   UNL A   1      40.629  30.422  28.982  1.00  0.00     0.167 HD
ATOM     62  C   UNL A   1      45.221  29.847  29.453  1.00  0.00     0.037 A 
ATOM     63  C   UNL A   1      37.971  31.063  29.907  1.00  0.00     0.037 A 
ATOM     64  C   UNL A   1      44.730  31.123  29.890  1.00  0.00     0.049 A 
ATOM     65  C   UNL A   1      39.026  31.928  30.446  1.00  0.00     0.074 A 
ATOM     66  C   UNL A   1      44.379  32.276  29.213  1.00  0.00     0.029 A 
ATOM     67  N   UNL A   1      44.047  31.152  31.084  1.00  0.00    -0.354 N 
ATOM     68  N   UNL A   1      39.541  31.706  31.616  1.00  0.00    -0.248 NA
ATOM     69  C   UNL A   1      39.459  33.157  29.789  1.00  0.00     0.031 C 
ATOM     70  C   UNL A   1      43.110  32.611  29.738  1.00  0.00     0.029 A 
ATOM     71  C   UNL A   1      42.921  31.930  30.934  1.00  0.00     0.049 A 
ATOM     72  H   UNL A   1      44.320  30.692  31.911  1.00  0.00     0.167 HD
ATOM     73  C   UNL A   1      40.687  32.427  31.582  1.00  0.00     0.074 A 
ATOM     74  C   UNL A   1      40.447  33.488  30.625  1.00  0.00     0.031 C 
ATOM     75  C   UNL A   1      41.821  31.737  31.845  1.00  0.00     0.037 A 
BRANCH  62  76
ATOM     76  C   UNL A   1      45.622  28.715  30.364  1.00  0.00     0.064 A 
ATOM     77  C   UNL A   1      46.944  28.263  30.340  1.00  0.00     0.173 A 
ATOM     78  C   UNL A   1      44.692  27.949  31.102  1.00  0.00     0.173 A 
ATOM     79  F   UNL A   1      47.888  28.981  29.712  1.00  0.00    -0.203 F 
ATOM     80  C   UNL A   1      47.304  27.063  30.956  1.00  0.00     0.198 A 
ATOM     81  C   UNL A   1      45.035  26.718  31.646  1.00  0.00     0.198 A 
ATOM     82  F   UNL A   1      43.435  28.390  31.286  1.00  0.00    -0.203 F 
ATOM     83  F   UNL A   1      48.584  26.665  30.946  1.00  0.00    -0.200 F 
ATOM     84  C   UNL A   1      46.342  26.271  31.569  1.00  0.00     0.200 A 
ATOM     85  F   UNL A   1      44.099  25.965  32.242  1.00  0.00    -0.200 F 
ATOM     86  F   UNL A   1      46.680  25.091  32.105  1.00  0.00    -0.200 F 
ENDBRANCH  62  76
BRANCH  63  87
ATOM     87  C   UNL A   1      36.594  31.680  30.278  1.00  0.00     0.064 A 
ATOM     88  C   UNL A   1      36.116  31.684  31.639  1.00  0.00     0.173 A 
ATOM     89  C   UNL A   1      35.928  32.599  29.458  1.00  0.00     0.173 A 
ATOM     90  F   UNL A   1      36.597  30.835  32.559  1.00  0.00    -0.203 F 
ATOM     91  C   UNL A   1      35.181  32.600  32.147  1.00  0.00     0.198 A 
ATOM     92  C   UNL A   1      34.952  33.497  29.964  1.00  0.00     0.198 A 
ATOM     93  F   UNL A   1      36.269  32.710  28.168  1.00  0.00    -0.203 F 
ATOM     94  F   UNL A   1      34.900  32.619  33.460  1.00  0.00    -0.200 F 
ATOM     95  C   UNL A   1      34.611  33.525  31.309  1.00  0.00     0.200 A 
ATOM     96  F   UNL A   1      34.384  34.397  29.147  1.00  0.00    -0.200 F 
ATOM     97  F   UNL A   1      33.768  34.448  31.797  1.00  0.00    -0.200 F 
ENDBRANCH  63  87
BRANCH  75  98
ATOM     98  C   UNL A   1      41.755  30.700  32.959  1.00  0.00     0.064 A 
ATOM     99  C   UNL A   1      41.244  29.380  32.876  1.00  0.00     0.173 A 
ATOM    100  C   UNL A   1      42.175  31.109  34.233  1.00  0.00     0.173 A 
ATOM    101  F   UNL A   1      40.929  28.804  31.706  1.00  0.00    -0.203 F 
ATOM    102  C   UNL A   1      41.070  28.582  34.011  1.00  0.00     0.198 A 
ATOM    103  C   UNL A   1      42.063  30.285  35.352  1.00  0.00     0.198 A 
ATOM    104  F   UNL A   1      42.726  32.321  34.398  1.00  0.00    -0.203 F 
ATOM    105  F   UNL A   1      40.505  27.369  33.900  1.00  0.00    -0.200 F 
ATOM    106  C   UNL A   1      41.481  29.035  35.248  1.00  0.00     0.200 A 
ATOM    107  F   UNL A   1      42.524  30.711  36.535  1.00  0.00    -0.200 F 
ATOM    108  F   UNL A   1      41.337  28.264  36.335  1.00  0.00    -0.200 F 
ENDBRANCH  75  98
ENDBRANCH  49  50
ENDBRANCH  41  44
ENDBRANCH  39  40
ENDBRANCH  38  39
ENDBRANCH   1  38
TORSDOF 15
ENDMDL
MODEL 2
REMARK VINA RESULT:     -12.9      3.536      9.363
REMARK SMILES Cc1cc(/C=C2\C(=O)N(Cc3ccco3)C(=O)[NH+]=C2NCCCCNC(=O)c2ccc(-c3c4nc(c(-c5c(F)c(F)c(F)c(F)c5F)c5ccc([nH]5)c(-c5c(F)c(F)c(F)c(F)c5F)c5nc(c(-c6c(F)c(F)c(F)c(F)c6F)c6ccc3[nH]6)C=C5)C=C4)cc2)c(C)n1-c1ccc(Cl)c(C(=O)[O-])c1
REMARK SMILES IDX 22 1 21 2 20 3 5 4 6 5 7 6 19 7 8 8 9 9 18 10 16 11 17 14
REMARK SMILES IDX 4 15 1 16 2 17 3 18 93 19 91 20 92 21 94 22 95 23 103 24
REMARK SMILES IDX 96 25 99 26 97 27 98 28 100 29 101 30 102 31 10 32 11 33
REMARK SMILES IDX 12 34 15 35 13 36 14 37 23 38 24 39 25 40 26 41 27 43 28 44
REMARK SMILES IDX 29 45 90 46 30 47 89 48 31 49 32 50 33 51 83 52 34 53 88 54
REMARK SMILES IDX 82 55 84 56 35 57 87 58 81 59 80 60 36 62 68 63 48 64 67 65
REMARK SMILES IDX 49 66 52 67 66 68 85 69 50 70 51 71 65 73 86 74 53 75 37 76
REMARK SMILES IDX 38 77 46 78 39 79 40 80 44 81 47 82 41 83 42 84 45 85 43 86
REMARK SMILES IDX 69 87 70 88 78 89 71 90 72 91 76 92 79 93 73 94 74 95 77 96
REMARK SMILES IDX 75 97 54 98 55 99 63 100 56 101 57 102 61 103 64 104 58 105
REMARK SMILES IDX 59 106 62 107 60 108
REMARK H PARENT 18 12 20 13 25 42 84 61 52 72
REMARK Flexibility Score: inf
ROOT
ATOM      1  C   UNL A   1      33.557  27.997  24.119  1.00  0.00     0.039 C 
ENDROOT
BRANCH   1   2
ATOM      2  C   UNL A   1      33.835  26.980  25.226  1.00  0.00     0.194 C 
BRANCH   2   3
ATOM      3  N   UNL A   1      33.034  25.801  25.003  1.00  0.00    -0.305 N 
ATOM      4  C   UNL A   1      35.661  24.238  25.527  1.00  0.00     0.032 C 
ATOM      5  C   UNL A   1      34.443  23.919  26.001  1.00  0.00     0.129 C 
ATOM      6  C   UNL A   1      34.149  22.852  26.990  1.00  0.00     0.323 C 
ATOM      7  C   UNL A   1      33.214  24.508  25.414  1.00  0.00     0.236 C 
ATOM      8  O   UNL A   1      34.692  22.776  28.055  1.00  0.00    -0.250 OA
ATOM      9  N   UNL A   1      33.180  21.992  26.486  1.00  0.00    -0.182 N 
ATOM     10  N   UNL A   1      32.154  23.758  25.275  1.00  0.00    -0.210 N 
ATOM     11  C   UNL A   1      32.196  22.430  25.619  1.00  0.00     0.444 C 
ATOM     12  H   UNL A   1      31.321  24.147  24.924  1.00  0.00     0.270 HD
ATOM     13  H   UNL A   1      32.223  25.951  24.466  1.00  0.00     0.256 HD
ATOM     14  O   UNL A   1      31.357  21.650  25.162  1.00  0.00    -0.212 OA
BRANCH   4  15
ATOM     15  C   UNL A   1      36.976  23.777  25.872  1.00  0.00    -0.003 A 
ATOM     16  C   UNL A   1      40.154  24.026  27.805  1.00  0.00     0.065 C 
ATOM     17  C   UNL A   1      38.979  23.720  26.943  1.00  0.00     0.020 A 
ATOM     18  C   UNL A   1      37.800  24.429  26.823  1.00  0.00     0.031 A 
ATOM     19  N   UNL A   1      38.928  22.664  26.047  1.00  0.00    -0.318 N 
ATOM     20  C   UNL A   1      37.709  22.715  25.363  1.00  0.00     0.027 A 
ATOM     21  C   UNL A   1      37.311  21.674  24.376  1.00  0.00     0.065 C 
BRANCH  19  22
ATOM     22  C   UNL A   1      39.885  21.622  25.906  1.00  0.00     0.046 A 
ATOM     23  C   UNL A   1      39.504  20.299  26.135  1.00  0.00     0.028 A 
ATOM     24  C   UNL A   1      41.235  21.949  25.743  1.00  0.00     0.038 A 
ATOM     25  C   UNL A   1      40.479  19.325  26.333  1.00  0.00     0.023 A 
ATOM     26  C   UNL A   1      42.228  20.962  25.914  1.00  0.00     0.018 A 
ATOM     27  C   UNL A   1      41.839  19.654  26.249  1.00  0.00     0.050 A 
ATOM     28  Cl  UNL A   1      42.940  18.374  26.616  1.00  0.00    -0.084 Cl
BRANCH  26  29
ATOM     29  C   UNL A   1      43.662  21.346  25.791  1.00  0.00     0.073 C 
ATOM     30  O   UNL A   1      44.365  21.916  26.604  1.00  0.00    -0.545 OA
ATOM     31  O   UNL A   1      44.188  20.970  24.609  1.00  0.00    -0.545 OA
ENDBRANCH  26  29
ENDBRANCH  19  22
ENDBRANCH   4  15
BRANCH   9  32
ATOM     32  C   UNL A   1      33.218  20.590  26.852  1.00  0.00     0.285 C 
BRANCH  32  33
ATOM     33  C   UNL A   1      33.303  19.698  25.677  1.00  0.00     0.138 A 
ATOM     34  C   UNL A   1      34.186  19.588  24.624  1.00  0.00     0.049 A 
ATOM     35  O   UNL A   1      32.372  18.705  25.614  1.00  0.00    -0.466 OA
ATOM     36  C   UNL A   1      33.758  18.470  23.868  1.00  0.00     0.042 A 
ATOM     37  C   UNL A   1      32.650  17.970  24.510  1.00  0.00     0.195 A 
ENDBRANCH  32  33
ENDBRANCH   9  32
ENDBRANCH   2   3
ENDBRANCH   1   2
BRANCH   1  38
ATOM     38  C   UNL A   1      32.898  29.311  24.573  1.00  0.00     0.024 C 
BRANCH  38  39
ATOM     39  C   UNL A   1      32.843  29.606  26.079  1.00  0.00     0.116 C 
BRANCH  39  40
ATOM     40  N   UNL A   1      32.796  31.006  26.424  1.00  0.00    -0.352 N 
ATOM     41  C   UNL A   1      33.638  31.668  27.300  1.00  0.00     0.251 C 
ATOM     42  H   UNL A   1      32.094  31.545  25.993  1.00  0.00     0.163 HD
ATOM     43  O   UNL A   1      33.358  32.816  27.637  1.00  0.00    -0.269 OA
BRANCH  41  44
ATOM     44  C   UNL A   1      34.805  30.971  27.945  1.00  0.00     0.039 A 
ATOM     45  C   UNL A   1      35.990  31.671  28.007  1.00  0.00     0.014 A 
ATOM     46  C   UNL A   1      34.848  29.618  28.332  1.00  0.00     0.014 A 
ATOM     47  C   UNL A   1      37.162  31.035  28.485  1.00  0.00     0.010 A 
ATOM     48  C   UNL A   1      36.087  28.946  28.719  1.00  0.00     0.010 A 
ATOM     49  C   UNL A   1      37.313  29.626  28.781  1.00  0.00    -0.014 A 
BRANCH  49  50
ATOM     50  C   UNL A   1      38.829  29.047  28.738  1.00  0.00     0.031 A 
ATOM     51  C   UNL A   1      39.109  28.760  30.175  1.00  0.00     0.074 A 
ATOM     52  C   UNL A   1      39.966  28.865  27.949  1.00  0.00     0.049 A 
ATOM     53  N   UNL A   1      39.008  29.732  31.039  1.00  0.00    -0.248 NA
ATOM     54  C   UNL A   1      39.066  27.414  30.751  1.00  0.00     0.031 C 
ATOM     55  C   UNL A   1      40.199  29.287  26.558  1.00  0.00     0.029 A 
ATOM     56  N   UNL A   1      41.232  28.242  28.220  1.00  0.00    -0.354 N 
ATOM     57  C   UNL A   1      39.142  29.162  32.276  1.00  0.00     0.074 A 
ATOM     58  C   UNL A   1      38.961  27.735  32.047  1.00  0.00     0.031 C 
ATOM     59  C   UNL A   1      41.390  28.818  26.077  1.00  0.00     0.029 A 
ATOM     60  C   UNL A   1      42.127  28.079  27.103  1.00  0.00     0.049 A 
ATOM     61  H   UNL A   1      41.475  27.940  29.125  1.00  0.00     0.167 HD
ATOM     62  C   UNL A   1      39.996  29.802  33.122  1.00  0.00     0.037 A 
ATOM     63  C   UNL A   1      43.384  27.479  27.009  1.00  0.00     0.037 A 
ATOM     64  C   UNL A   1      41.253  29.114  33.212  1.00  0.00     0.049 A 
ATOM     65  C   UNL A   1      43.968  27.528  28.354  1.00  0.00     0.074 A 
ATOM     66  C   UNL A   1      41.586  27.777  33.310  1.00  0.00     0.029 A 
ATOM     67  N   UNL A   1      42.349  29.749  32.675  1.00  0.00    -0.354 N 
ATOM     68  N   UNL A   1      44.511  28.615  28.810  1.00  0.00    -0.248 NA
ATOM     69  C   UNL A   1      44.113  26.348  29.201  1.00  0.00     0.031 C 
ATOM     70  C   UNL A   1      42.575  27.595  32.316  1.00  0.00     0.029 A 
ATOM     71  C   UNL A   1      43.079  28.836  31.947  1.00  0.00     0.049 A 
ATOM     72  H   UNL A   1      42.574  30.700  32.792  1.00  0.00     0.167 HD
ATOM     73  C   UNL A   1      44.564  28.389  30.144  1.00  0.00     0.074 A 
ATOM     74  C   UNL A   1      44.604  26.947  30.289  1.00  0.00     0.031 C 
ATOM     75  C   UNL A   1      43.967  29.321  30.921  1.00  0.00     0.037 A 
BRANCH  62  76
ATOM     76  C   UNL A   1      39.827  31.300  33.094  1.00  0.00     0.064 A 
ATOM     77  C   UNL A   1      39.166  31.927  34.153  1.00  0.00     0.173 A 
ATOM     78  C   UNL A   1      40.126  32.090  31.961  1.00  0.00     0.173 A 
ATOM     79  F   UNL A   1      38.913  31.248  35.282  1.00  0.00    -0.203 F 
ATOM     80  C   UNL A   1      38.752  33.257  34.054  1.00  0.00     0.198 A 
ATOM     81  C   UNL A   1      39.645  33.387  31.834  1.00  0.00     0.198 A 
ATOM     82  F   UNL A   1      40.878  31.597  30.961  1.00  0.00    -0.203 F 
ATOM     83  F   UNL A   1      38.147  33.846  35.094  1.00  0.00    -0.200 F 
ATOM     84  C   UNL A   1      38.952  33.970  32.880  1.00  0.00     0.200 A 
ATOM     85  F   UNL A   1      39.850  34.069  30.697  1.00  0.00    -0.200 F 
ATOM     86  F   UNL A   1      38.499  35.226  32.767  1.00  0.00    -0.200 F 
ENDBRANCH  62  76
BRANCH  63  87
ATOM     87  C   UNL A   1      44.470  26.973  26.021  1.00  0.00     0.064 A 
ATOM     88  C   UNL A   1      45.656  27.748  25.747  1.00  0.00     0.173 A 
ATOM     89  C   UNL A   1      44.596  25.627  25.655  1.00  0.00     0.173 A 
ATOM     90  F   UNL A   1      45.706  29.067  25.981  1.00  0.00    -0.203 F 
ATOM     91  C   UNL A   1      46.868  27.206  25.293  1.00  0.00     0.198 A 
ATOM     92  C   UNL A   1      45.811  25.088  25.157  1.00  0.00     0.198 A 
ATOM     93  F   UNL A   1      43.575  24.784  25.855  1.00  0.00    -0.203 F 
ATOM     94  F   UNL A   1      47.961  27.981  25.200  1.00  0.00    -0.200 F 
ATOM     95  C   UNL A   1      46.953  25.865  25.016  1.00  0.00     0.200 A 
ATOM     96  F   UNL A   1      45.896  23.780  24.875  1.00  0.00    -0.200 F 
ATOM     97  F   UNL A   1      48.124  25.325  24.647  1.00  0.00    -0.200 F 
ENDBRANCH  63  87
BRANCH  75  98
ATOM     98  C   UNL A   1      44.153  30.778  30.516  1.00  0.00     0.064 A 
ATOM     99  C   UNL A   1      43.515  31.462  29.450  1.00  0.00     0.173 A 
ATOM    100  C   UNL A   1      45.114  31.516  31.221  1.00  0.00     0.173 A 
ATOM    101  F   UNL A   1      42.485  30.934  28.772  1.00  0.00    -0.203 F 
ATOM    102  C   UNL A   1      43.901  32.748  29.061  1.00  0.00     0.198 A 
ATOM    103  C   UNL A   1      45.449  32.824  30.874  1.00  0.00     0.198 A 
ATOM    104  F   UNL A   1      45.729  30.972  32.282  1.00  0.00    -0.203 F 
ATOM    105  F   UNL A   1      43.330  33.329  27.994  1.00  0.00    -0.200 F 
ATOM    106  C   UNL A   1      44.867  33.429  29.775  1.00  0.00     0.200 A 
ATOM    107  F   UNL A   1      46.341  33.496  31.613  1.00  0.00    -0.200 F 
ATOM    108  F   UNL A   1      45.223  34.671  29.420  1.00  0.00    -0.200 F 
ENDBRANCH  75  98
ENDBRANCH  49  50
ENDBRANCH  41  44
ENDBRANCH  39  40
ENDBRANCH  38  39
ENDBRANCH   1  38
TORSDOF 15
ENDMDL
MODEL 3
REMARK VINA RESULT:     -12.2      6.556     11.339
REMARK SMILES Cc1cc(/C=C2\C(=O)N(Cc3ccco3)C(=O)[NH+]=C2NCCCCNC(=O)c2ccc(-c3c4nc(c(-c5c(F)c(F)c(F)c(F)c5F)c5ccc([nH]5)c(-c5c(F)c(F)c(F)c(F)c5F)c5nc(c(-c6c(F)c(F)c(F)c(F)c6F)c6ccc3[nH]6)C=C5)C=C4)cc2)c(C)n1-c1ccc(Cl)c(C(=O)[O-])c1
REMARK SMILES IDX 22 1 21 2 20 3 5 4 6 5 7 6 19 7 8 8 9 9 18 10 16 11 17 14
REMARK SMILES IDX 4 15 1 16 2 17 3 18 93 19 91 20 92 21 94 22 95 23 103 24
REMARK SMILES IDX 96 25 99 26 97 27 98 28 100 29 101 30 102 31 10 32 11 33
REMARK SMILES IDX 12 34 15 35 13 36 14 37 23 38 24 39 25 40 26 41 27 43 28 44
REMARK SMILES IDX 29 45 90 46 30 47 89 48 31 49 32 50 33 51 83 52 34 53 88 54
REMARK SMILES IDX 82 55 84 56 35 57 87 58 81 59 80 60 36 62 68 63 48 64 67 65
REMARK SMILES IDX 49 66 52 67 66 68 85 69 50 70 51 71 65 73 86 74 53 75 37 76
REMARK SMILES IDX 38 77 46 78 39 79 40 80 44 81 47 82 41 83 42 84 45 85 43 86
REMARK SMILES IDX 69 87 70 88 78 89 71 90 72 91 76 92 79 93 73 94 74 95 77 96
REMARK SMILES IDX 75 97 54 98 55 99 63 100 56 101 57 102 61 103 64 104 58 105
REMARK SMILES IDX 59 106 62 107 60 108
REMARK H PARENT 18 12 20 13 25 42 84 61 52 72
REMARK Flexibility Score: inf
ROOT
ATOM      1  C   UNL A   1      41.049  33.507  35.405  1.00  0.00     0.039 C 
ENDROOT
BRANCH   1   2
ATOM      2  C   UNL A   1      40.621  33.506  33.939  1.00  0.00     0.194 C 
BRANCH   2   3
ATOM      3  N   UNL A   1      39.446  34.328  33.784  1.00  0.00    -0.305 N 
ATOM      4  C   UNL A   1      38.840  32.538  31.324  1.00  0.00     0.032 C 
ATOM      5  C   UNL A   1      37.946  32.950  32.242  1.00  0.00     0.129 C 
ATOM      6  C   UNL A   1      36.535  32.501  32.341  1.00  0.00     0.323 C 
ATOM      7  C   UNL A   1      38.254  34.075  33.160  1.00  0.00     0.236 C 
ATOM      8  O   UNL A   1      36.216  31.348  32.403  1.00  0.00    -0.250 OA
ATOM      9  N   UNL A   1      35.687  33.602  32.346  1.00  0.00    -0.182 N 
ATOM     10  N   UNL A   1      37.312  34.930  33.454  1.00  0.00    -0.210 N 
ATOM     11  C   UNL A   1      36.071  34.818  32.879  1.00  0.00     0.444 C 
ATOM     12  H   UNL A   1      37.493  35.657  34.093  1.00  0.00     0.270 HD
ATOM     13  H   UNL A   1      39.512  35.220  34.194  1.00  0.00     0.256 HD
ATOM     14  O   UNL A   1      35.314  35.792  32.855  1.00  0.00    -0.212 OA
BRANCH   4  15
ATOM     15  C   UNL A   1      38.771  31.534  30.301  1.00  0.00    -0.003 A 
ATOM     16  C   UNL A   1      37.145  29.944  27.347  1.00  0.00     0.065 C 
ATOM     17  C   UNL A   1      37.971  30.412  28.494  1.00  0.00     0.020 A 
ATOM     18  C   UNL A   1      37.725  31.470  29.347  1.00  0.00     0.031 A 
ATOM     19  N   UNL A   1      39.127  29.783  28.927  1.00  0.00    -0.318 N 
ATOM     20  C   UNL A   1      39.604  30.451  30.059  1.00  0.00     0.027 A 
ATOM     21  C   UNL A   1      40.877  30.065  30.728  1.00  0.00     0.065 C 
BRANCH  19  22
ATOM     22  C   UNL A   1      39.801  28.709  28.284  1.00  0.00     0.046 A 
ATOM     23  C   UNL A   1      39.645  27.409  28.766  1.00  0.00     0.028 A 
ATOM     24  C   UNL A   1      40.766  28.990  27.312  1.00  0.00     0.038 A 
ATOM     25  C   UNL A   1      40.540  26.416  28.375  1.00  0.00     0.023 A 
ATOM     26  C   UNL A   1      41.660  27.983  26.890  1.00  0.00     0.018 A 
ATOM     27  C   UNL A   1      41.562  26.702  27.460  1.00  0.00     0.050 A 
ATOM     28  Cl  UNL A   1      42.662  25.408  27.141  1.00  0.00    -0.084 Cl
BRANCH  26  29
ATOM     29  C   UNL A   1      42.716  28.320  25.895  1.00  0.00     0.073 C 
ATOM     30  O   UNL A   1      43.865  28.663  26.098  1.00  0.00    -0.545 OA
ATOM     31  O   UNL A   1      42.278  28.192  24.627  1.00  0.00    -0.545 OA
ENDBRANCH  26  29
ENDBRANCH  19  22
ENDBRANCH   4  15
BRANCH   9  32
ATOM     32  C   UNL A   1      34.372  33.484  31.744  1.00  0.00     0.285 C 
BRANCH  32  33
ATOM     33  C   UNL A   1      34.418  33.525  30.267  1.00  0.00     0.138 A 
ATOM     34  C   UNL A   1      34.677  34.518  29.348  1.00  0.00     0.049 A 
ATOM     35  O   UNL A   1      34.246  32.331  29.633  1.00  0.00    -0.466 OA
ATOM     36  C   UNL A   1      34.647  33.895  28.077  1.00  0.00     0.042 A 
ATOM     37  C   UNL A   1      34.378  32.565  28.305  1.00  0.00     0.195 A 
ENDBRANCH  32  33
ENDBRANCH   9  32
ENDBRANCH   2   3
ENDBRANCH   1   2
BRANCH   1  38
ATOM     38  C   UNL A   1      40.832  32.186  36.164  1.00  0.00     0.024 C 
BRANCH  38  39
ATOM     39  C   UNL A   1      41.173  30.876  35.440  1.00  0.00     0.116 C 
BRANCH  39  40
ATOM     40  N   UNL A   1      42.383  30.230  35.886  1.00  0.00    -0.352 N 
ATOM     41  C   UNL A   1      43.660  30.444  35.400  1.00  0.00     0.251 C 
ATOM     42  H   UNL A   1      42.291  29.569  36.610  1.00  0.00     0.163 HD
ATOM     43  O   UNL A   1      44.562  29.684  35.748  1.00  0.00    -0.269 OA
BRANCH  41  44
ATOM     44  C   UNL A   1      43.939  31.495  34.361  1.00  0.00     0.039 A 
ATOM     45  C   UNL A   1      44.444  32.696  34.810  1.00  0.00     0.014 A 
ATOM     46  C   UNL A   1      43.573  31.431  33.002  1.00  0.00     0.014 A 
ATOM     47  C   UNL A   1      44.611  33.775  33.907  1.00  0.00     0.010 A 
ATOM     48  C   UNL A   1      43.650  32.586  32.109  1.00  0.00     0.010 A 
ATOM     49  C   UNL A   1      44.147  33.826  32.538  1.00  0.00    -0.014 A 
BRANCH  49  50
ATOM     50  C   UNL A   1      43.925  35.308  31.915  1.00  0.00     0.031 A 
ATOM     51  C   UNL A   1      43.281  35.016  30.601  1.00  0.00     0.074 A 
ATOM     52  C   UNL A   1      44.222  36.665  32.049  1.00  0.00     0.049 A 
ATOM     53  N   UNL A   1      43.906  34.246  29.755  1.00  0.00    -0.248 NA
ATOM     54  C   UNL A   1      41.844  35.165  30.357  1.00  0.00     0.031 C 
ATOM     55  C   UNL A   1      45.081  37.326  33.044  1.00  0.00     0.029 A 
ATOM     56  N   UNL A   1      43.815  37.816  31.290  1.00  0.00    -0.354 N 
ATOM     57  C   UNL A   1      43.029  34.009  28.731  1.00  0.00     0.074 A 
ATOM     58  C   UNL A   1      41.732  34.414  29.255  1.00  0.00     0.031 C 
ATOM     59  C   UNL A   1      45.029  38.689  32.937  1.00  0.00     0.029 A 
ATOM     60  C   UNL A   1      44.180  39.105  31.821  1.00  0.00     0.049 A 
ATOM     61  H   UNL A   1      43.309  37.727  30.450  1.00  0.00     0.167 HD
ATOM     62  C   UNL A   1      43.542  34.157  27.478  1.00  0.00     0.037 A 
ATOM     63  C   UNL A   1      43.902  40.397  31.373  1.00  0.00     0.037 A 
ATOM     64  C   UNL A   1      43.128  35.399  26.890  1.00  0.00     0.049 A 
ATOM     65  C   UNL A   1      43.659  40.294  29.930  1.00  0.00     0.074 A 
ATOM     66  C   UNL A   1      41.918  36.068  26.863  1.00  0.00     0.029 A 
ATOM     67  N   UNL A   1      44.102  36.351  26.693  1.00  0.00    -0.354 N 
ATOM     68  N   UNL A   1      44.645  40.206  29.090  1.00  0.00    -0.248 NA
ATOM     69  C   UNL A   1      42.334  40.431  29.334  1.00  0.00     0.031 C 
ATOM     70  C   UNL A   1      42.248  37.389  27.245  1.00  0.00     0.029 A 
ATOM     71  C   UNL A   1      43.617  37.574  27.100  1.00  0.00     0.049 A 
ATOM     72  H   UNL A   1      44.999  36.184  26.322  1.00  0.00     0.167 HD
ATOM     73  C   UNL A   1      44.043  39.747  27.967  1.00  0.00     0.074 A 
ATOM     74  C   UNL A   1      42.663  40.182  28.064  1.00  0.00     0.031 C 
ATOM     75  C   UNL A   1      44.557  38.609  27.448  1.00  0.00     0.037 A 
BRANCH  62  76
ATOM     76  C   UNL A   1      44.913  33.546  27.336  1.00  0.00     0.064 A 
ATOM     77  C   UNL A   1      45.042  32.316  26.685  1.00  0.00     0.173 A 
ATOM     78  C   UNL A   1      46.056  34.048  27.998  1.00  0.00     0.173 A 
ATOM     79  F   UNL A   1      44.012  31.817  25.984  1.00  0.00    -0.203 F 
ATOM     80  C   UNL A   1      46.229  31.586  26.758  1.00  0.00     0.198 A 
ATOM     81  C   UNL A   1      47.209  33.286  28.134  1.00  0.00     0.198 A 
ATOM     82  F   UNL A   1      46.052  35.283  28.530  1.00  0.00    -0.203 F 
ATOM     83  F   UNL A   1      46.340  30.424  26.100  1.00  0.00    -0.200 F 
ATOM     84  C   UNL A   1      47.295  32.050  27.518  1.00  0.00     0.200 A 
ATOM     85  F   UNL A   1      48.235  33.747  28.866  1.00  0.00    -0.200 F 
ATOM     86  F   UNL A   1      48.411  31.318  27.635  1.00  0.00    -0.200 F 
ENDBRANCH  62  76
BRANCH  63  87
ATOM     87  C   UNL A   1      43.947  41.903  31.756  1.00  0.00     0.064 A 
ATOM     88  C   UNL A   1      42.767  42.596  32.211  1.00  0.00     0.173 A 
ATOM     89  C   UNL A   1      45.136  42.569  32.077  1.00  0.00     0.173 A 
ATOM     90  F   UNL A   1      41.534  42.139  31.951  1.00  0.00    -0.203 F 
ATOM     91  C   UNL A   1      42.786  43.747  33.015  1.00  0.00     0.198 A 
ATOM     92  C   UNL A   1      45.152  43.756  32.856  1.00  0.00     0.198 A 
ATOM     93  F   UNL A   1      46.313  42.039  31.722  1.00  0.00    -0.203 F 
ATOM     94  F   UNL A   1      41.640  44.245  33.509  1.00  0.00    -0.200 F 
ATOM     95  C   UNL A   1      43.986  44.319  33.356  1.00  0.00     0.200 A 
ATOM     96  F   UNL A   1      46.322  44.324  33.183  1.00  0.00    -0.200 F 
ATOM     97  F   UNL A   1      44.019  45.378  34.179  1.00  0.00    -0.200 F 
ENDBRANCH  63  87
BRANCH  75  98
ATOM     98  C   UNL A   1      46.075  38.471  27.457  1.00  0.00     0.064 A 
ATOM     99  C   UNL A   1      46.913  38.263  28.581  1.00  0.00     0.173 A 
ATOM    100  C   UNL A   1      46.735  38.643  26.231  1.00  0.00     0.173 A 
ATOM    101  F   UNL A   1      46.426  37.953  29.791  1.00  0.00    -0.203 F 
ATOM    102  C   UNL A   1      48.306  38.335  28.488  1.00  0.00     0.198 A 
ATOM    103  C   UNL A   1      48.125  38.645  26.131  1.00  0.00     0.198 A 
ATOM    104  F   UNL A   1      46.024  38.788  25.103  1.00  0.00    -0.203 F 
ATOM    105  F   UNL A   1      49.061  38.215  29.591  1.00  0.00    -0.200 F 
ATOM    106  C   UNL A   1      48.911  38.525  27.262  1.00  0.00     0.200 A 
ATOM    107  F   UNL A   1      48.700  38.766  24.927  1.00  0.00    -0.200 F 
ATOM    108  F   UNL A   1      50.247  38.570  27.164  1.00  0.00    -0.200 F 
ENDBRANCH  75  98
ENDBRANCH  49  50
ENDBRANCH  41  44
ENDBRANCH  39  40
ENDBRANCH  38  39
ENDBRANCH   1  38
TORSDOF 15
ENDMDL
