MODEL 1
REMARK VINA RESULT:     -14.0      0.000      0.000
REMARK SMILES Cn1c(=O)c(=O)n(C)c2cc(S(=O)(=O)N3CCC[C@H]3C(=O)NCCCCNC(=O)c3ccc(-c4c5nc(c(-c6c(F)c(F)c(F)c(F)c6F)c6ccc([nH]6)c(-c6c(F)c(F)c(F)c(F)c6F)c6nc(c(-c7c(F)c(F)c(F)c(F)c7F)c7ccc4[nH]7)C=C6)C=C5)cc3)ccc21
REMARK SMILES IDX 24 1 23 2 22 3 20 4 21 5 19 7 15 8 16 9 17 10 18 11 12 12
REMARK SMILES IDX 13 13 14 14 11 15 1 16 2 17 3 18 95 19 4 20 5 21 9 22 94 23
REMARK SMILES IDX 6 24 7 25 10 26 93 27 8 28 25 29 26 30 27 31 28 32 29 34
REMARK SMILES IDX 30 35 31 36 92 37 32 38 91 39 33 40 34 41 35 42 85 43 36 44
REMARK SMILES IDX 90 45 84 46 86 47 37 48 89 49 83 50 82 51 38 53 70 54 50 55
REMARK SMILES IDX 69 56 51 57 54 58 68 59 87 60 52 61 53 62 67 64 88 65 55 66
REMARK SMILES IDX 39 67 40 68 48 69 41 70 42 71 46 72 49 73 43 74 44 75 47 76
REMARK SMILES IDX 45 77 71 78 72 79 80 80 73 81 74 82 78 83 81 84 75 85 76 86
REMARK SMILES IDX 79 87 77 88 56 89 57 90 65 91 58 92 59 93 63 94 66 95 60 96
REMARK SMILES IDX 61 97 64 98 62 99
REMARK H PARENT 22 6 27 33 86 52 54 63
REMARK Flexibility Score: inf
ROOT
ATOM      1  C   UNL A   1      32.032  30.421  26.867  1.00  0.00     0.023 C 
ENDROOT
BRANCH   1   2
ATOM      2  C   UNL A   1      32.267  29.875  25.457  1.00  0.00     0.116 C 
BRANCH   2   3
ATOM      3  N   UNL A   1      31.048  29.849  24.660  1.00  0.00    -0.355 N 
ATOM      4  C   UNL A   1      30.520  28.811  23.920  1.00  0.00     0.238 C 
ATOM      5  O   UNL A   1      29.483  29.001  23.288  1.00  0.00    -0.273 OA
ATOM      6  H   UNL A   1      30.531  30.687  24.648  1.00  0.00     0.163 HD
BRANCH   4   7
ATOM      7  C   UNL A   1      31.289  27.497  23.912  1.00  0.00     0.162 C 
ATOM      8  N   UNL A   1      30.620  26.305  24.475  1.00  0.00    -0.185 NA
ATOM      9  C   UNL A   1      30.272  25.381  23.388  1.00  0.00     0.103 C 
ATOM     10  C   UNL A   1      31.362  25.609  22.362  1.00  0.00     0.019 C 
ATOM     11  C   UNL A   1      31.647  27.096  22.473  1.00  0.00     0.032 C 
BRANCH   8  12
ATOM     12  S   UNL A   1      31.124  25.704  25.967  1.00  0.00     0.243 S 
ATOM     13  O   UNL A   1      30.122  24.761  26.409  1.00  0.00    -0.207 OA
ATOM     14  O   UNL A   1      31.529  26.826  26.789  1.00  0.00    -0.207 OA
BRANCH  12  15
ATOM     15  C   UNL A   1      32.626  24.752  25.691  1.00  0.00     0.084 A 
ATOM     16  C   UNL A   1      37.427  22.982  25.444  1.00  0.00     0.154 C 
ATOM     17  N   UNL A   1      36.115  22.369  25.295  1.00  0.00    -0.305 N 
ATOM     18  C   UNL A   1      36.059  21.008  25.014  1.00  0.00     0.316 A 
ATOM     19  C   UNL A   1      34.938  23.150  25.429  1.00  0.00     0.068 A 
ATOM     20  O   UNL A   1      37.057  20.307  24.865  1.00  0.00    -0.263 OA
ATOM     21  C   UNL A   1      34.674  20.359  24.894  1.00  0.00     0.316 A 
ATOM     22  C   UNL A   1      33.665  22.579  25.242  1.00  0.00     0.069 A 
ATOM     23  C   UNL A   1      35.029  24.503  25.767  1.00  0.00     0.030 A 
ATOM     24  O   UNL A   1      34.613  19.145  24.721  1.00  0.00    -0.263 OA
ATOM     25  N   UNL A   1      33.552  21.183  24.991  1.00  0.00    -0.305 N 
ATOM     26  C   UNL A   1      32.518  23.398  25.347  1.00  0.00     0.050 A 
ATOM     27  C   UNL A   1      33.888  25.285  25.924  1.00  0.00     0.024 A 
ATOM     28  C   UNL A   1      32.243  20.557  24.888  1.00  0.00     0.154 C 
ENDBRANCH  12  15
ENDBRANCH   8  12
ENDBRANCH   4   7
ENDBRANCH   2   3
ENDBRANCH   1   2
BRANCH   1  29
ATOM     29  C   UNL A   1      31.685  31.904  26.921  1.00  0.00     0.023 C 
BRANCH  29  30
ATOM     30  C   UNL A   1      32.838  32.805  27.331  1.00  0.00     0.116 C 
BRANCH  30  31
ATOM     31  N   UNL A   1      32.428  34.158  27.685  1.00  0.00    -0.352 N 
ATOM     32  C   UNL A   1      32.982  34.998  28.624  1.00  0.00     0.251 C 
ATOM     33  H   UNL A   1      31.658  34.516  27.187  1.00  0.00     0.163 HD
ATOM     34  O   UNL A   1      32.462  36.080  28.875  1.00  0.00    -0.269 OA
BRANCH  32  35
ATOM     35  C   UNL A   1      34.181  34.553  29.363  1.00  0.00     0.039 A 
ATOM     36  C   UNL A   1      35.449  34.720  28.808  1.00  0.00     0.014 A 
ATOM     37  C   UNL A   1      34.025  33.897  30.587  1.00  0.00     0.014 A 
ATOM     38  C   UNL A   1      36.535  34.067  29.375  1.00  0.00     0.010 A 
ATOM     39  C   UNL A   1      35.138  33.328  31.212  1.00  0.00     0.010 A 
ATOM     40  C   UNL A   1      36.392  33.363  30.583  1.00  0.00    -0.014 A 
BRANCH  40  41
ATOM     41  C   UNL A   1      37.583  32.695  31.162  1.00  0.00     0.031 A 
ATOM     42  C   UNL A   1      38.060  33.014  32.550  1.00  0.00     0.074 A 
ATOM     43  C   UNL A   1      38.190  31.731  30.444  1.00  0.00     0.049 A 
ATOM     44  N   UNL A   1      39.029  32.459  33.235  1.00  0.00    -0.248 NA
ATOM     45  C   UNL A   1      37.372  34.101  33.263  1.00  0.00     0.031 C 
ATOM     46  C   UNL A   1      37.818  31.343  29.082  1.00  0.00     0.029 A 
ATOM     47  N   UNL A   1      39.214  30.878  30.765  1.00  0.00    -0.354 N 
ATOM     48  C   UNL A   1      39.082  33.141  34.443  1.00  0.00     0.074 A 
ATOM     49  C   UNL A   1      38.065  34.169  34.391  1.00  0.00     0.031 C 
ATOM     50  C   UNL A   1      38.546  30.282  28.714  1.00  0.00     0.029 A 
ATOM     51  C   UNL A   1      39.482  29.956  29.786  1.00  0.00     0.049 A 
ATOM     52  H   UNL A   1      39.709  30.924  31.616  1.00  0.00     0.167 HD
ATOM     53  C   UNL A   1      39.899  32.920  35.500  1.00  0.00     0.037 A 
ATOM     54  C   UNL A   1      40.380  28.954  29.749  1.00  0.00     0.037 A 
ATOM     55  C   UNL A   1      40.886  31.873  35.558  1.00  0.00     0.049 A 
ATOM     56  C   UNL A   1      41.278  28.733  30.930  1.00  0.00     0.074 A 
ATOM     57  C   UNL A   1      41.723  31.534  36.606  1.00  0.00     0.029 A 
ATOM     58  N   UNL A   1      41.170  30.997  34.520  1.00  0.00    -0.354 N 
ATOM     59  N   UNL A   1      41.297  29.367  32.076  1.00  0.00    -0.248 NA
ATOM     60  C   UNL A   1      42.284  27.670  30.808  1.00  0.00     0.031 C 
ATOM     61  C   UNL A   1      42.545  30.484  36.188  1.00  0.00     0.029 A 
ATOM     62  C   UNL A   1      42.190  30.137  34.894  1.00  0.00     0.049 A 
ATOM     63  H   UNL A   1      40.713  30.987  33.648  1.00  0.00     0.167 HD
ATOM     64  C   UNL A   1      42.316  28.783  32.816  1.00  0.00     0.074 A 
ATOM     65  C   UNL A   1      42.876  27.729  31.995  1.00  0.00     0.031 C 
ATOM     66  C   UNL A   1      42.746  29.100  34.061  1.00  0.00     0.037 A 
BRANCH  53  67
ATOM     67  C   UNL A   1      39.775  33.837  36.683  1.00  0.00     0.064 A 
ATOM     68  C   UNL A   1      40.432  35.075  36.730  1.00  0.00     0.173 A 
ATOM     69  C   UNL A   1      38.947  33.493  37.762  1.00  0.00     0.173 A 
ATOM     70  F   UNL A   1      41.245  35.447  35.729  1.00  0.00    -0.203 F 
ATOM     71  C   UNL A   1      40.283  35.924  37.825  1.00  0.00     0.198 A 
ATOM     72  C   UNL A   1      38.779  34.355  38.843  1.00  0.00     0.198 A 
ATOM     73  F   UNL A   1      38.290  32.323  37.764  1.00  0.00    -0.203 F 
ATOM     74  F   UNL A   1      40.954  37.083  37.868  1.00  0.00    -0.200 F 
ATOM     75  C   UNL A   1      39.452  35.566  38.877  1.00  0.00     0.200 A 
ATOM     76  F   UNL A   1      37.967  34.013  39.852  1.00  0.00    -0.200 F 
ATOM     77  F   UNL A   1      39.305  36.388  39.926  1.00  0.00    -0.200 F 
ENDBRANCH  53  67
BRANCH  54  78
ATOM     78  C   UNL A   1      40.435  28.086  28.547  1.00  0.00     0.064 A 
ATOM     79  C   UNL A   1      41.219  28.442  27.442  1.00  0.00     0.173 A 
ATOM     80  C   UNL A   1      39.788  26.842  28.520  1.00  0.00     0.173 A 
ATOM     81  F   UNL A   1      41.846  29.627  27.419  1.00  0.00    -0.203 F 
ATOM     82  C   UNL A   1      41.364  27.577  26.358  1.00  0.00     0.198 A 
ATOM     83  C   UNL A   1      39.953  25.969  27.449  1.00  0.00     0.198 A 
ATOM     84  F   UNL A   1      39.036  26.454  29.561  1.00  0.00    -0.203 F 
ATOM     85  F   UNL A   1      42.116  27.941  25.311  1.00  0.00    -0.200 F 
ATOM     86  C   UNL A   1      40.742  26.337  26.369  1.00  0.00     0.200 A 
ATOM     87  F   UNL A   1      39.371  24.763  27.473  1.00  0.00    -0.200 F 
ATOM     88  F   UNL A   1      40.910  25.494  25.342  1.00  0.00    -0.200 F 
ENDBRANCH  54  78
BRANCH  66  89
ATOM     89  C   UNL A   1      43.888  28.305  34.619  1.00  0.00     0.064 A 
ATOM     90  C   UNL A   1      45.213  28.747  34.486  1.00  0.00     0.173 A 
ATOM     91  C   UNL A   1      43.651  27.141  35.363  1.00  0.00     0.173 A 
ATOM     92  F   UNL A   1      45.490  29.847  33.772  1.00  0.00    -0.203 F 
ATOM     93  C   UNL A   1      46.260  28.045  35.076  1.00  0.00     0.198 A 
ATOM     94  C   UNL A   1      44.698  26.455  35.970  1.00  0.00     0.198 A 
ATOM     95  F   UNL A   1      42.399  26.685  35.522  1.00  0.00    -0.203 F 
ATOM     96  F   UNL A   1      47.521  28.470  34.919  1.00  0.00    -0.200 F 
ATOM     97  C   UNL A   1      46.001  26.907  35.826  1.00  0.00     0.200 A 
ATOM     98  F   UNL A   1      44.445  25.363  36.706  1.00  0.00    -0.200 F 
ATOM     99  F   UNL A   1      47.009  26.243  36.409  1.00  0.00    -0.200 F 
ENDBRANCH  66  89
ENDBRANCH  40  41
ENDBRANCH  32  35
ENDBRANCH  30  31
ENDBRANCH  29  30
ENDBRANCH   1  29
TORSDOF 13
ENDMDL
MODEL 2
REMARK VINA RESULT:     -14.0      0.240      1.115
REMARK SMILES Cn1c(=O)c(=O)n(C)c2cc(S(=O)(=O)N3CCC[C@H]3C(=O)NCCCCNC(=O)c3ccc(-c4c5nc(c(-c6c(F)c(F)c(F)c(F)c6F)c6ccc([nH]6)c(-c6c(F)c(F)c(F)c(F)c6F)c6nc(c(-c7c(F)c(F)c(F)c(F)c7F)c7ccc4[nH]7)C=C6)C=C5)cc3)ccc21
REMARK SMILES IDX 24 1 23 2 22 3 20 4 21 5 19 7 15 8 16 9 17 10 18 11 12 12
REMARK SMILES IDX 13 13 14 14 11 15 1 16 2 17 3 18 95 19 4 20 5 21 9 22 94 23
REMARK SMILES IDX 6 24 7 25 10 26 93 27 8 28 25 29 26 30 27 31 28 32 29 34
REMARK SMILES IDX 30 35 31 36 92 37 32 38 91 39 33 40 34 41 35 42 85 43 36 44
REMARK SMILES IDX 90 45 84 46 86 47 37 48 89 49 83 50 82 51 38 53 70 54 50 55
REMARK SMILES IDX 69 56 51 57 54 58 68 59 87 60 52 61 53 62 67 64 88 65 55 66
REMARK SMILES IDX 39 67 40 68 48 69 41 70 42 71 46 72 49 73 43 74 44 75 47 76
REMARK SMILES IDX 45 77 71 78 72 79 80 80 73 81 74 82 78 83 81 84 75 85 76 86
REMARK SMILES IDX 79 87 77 88 56 89 57 90 65 91 58 92 59 93 63 94 66 95 60 96
REMARK SMILES IDX 61 97 64 98 62 99
REMARK H PARENT 22 6 27 33 86 52 54 63
REMARK Flexibility Score: inf
ROOT
ATOM      1  C   UNL A   1      32.182  30.240  26.793  1.00  0.00     0.023 C 
ENDROOT
BRANCH   1   2
ATOM      2  C   UNL A   1      32.400  29.752  25.358  1.00  0.00     0.116 C 
BRANCH   2   3
ATOM      3  N   UNL A   1      31.162  29.708  24.593  1.00  0.00    -0.355 N 
ATOM      4  C   UNL A   1      30.614  28.651  23.894  1.00  0.00     0.238 C 
ATOM      5  O   UNL A   1      29.562  28.826  23.283  1.00  0.00    -0.273 OA
ATOM      6  H   UNL A   1      30.646  30.546  24.570  1.00  0.00     0.163 HD
BRANCH   4   7
ATOM      7  C   UNL A   1      31.380  27.335  23.904  1.00  0.00     0.162 C 
ATOM      8  N   UNL A   1      30.705  26.150  24.473  1.00  0.00    -0.185 NA
ATOM      9  C   UNL A   1      30.362  25.217  23.391  1.00  0.00     0.103 C 
ATOM     10  C   UNL A   1      31.460  25.434  22.372  1.00  0.00     0.019 C 
ATOM     11  C   UNL A   1      31.748  26.920  22.472  1.00  0.00     0.032 C 
BRANCH   8  12
ATOM     12  S   UNL A   1      31.195  25.561  25.973  1.00  0.00     0.243 S 
ATOM     13  O   UNL A   1      30.181  24.635  26.423  1.00  0.00    -0.207 OA
ATOM     14  O   UNL A   1      31.611  26.688  26.783  1.00  0.00    -0.207 OA
BRANCH  12  15
ATOM     15  C   UNL A   1      32.686  24.588  25.715  1.00  0.00     0.084 A 
ATOM     16  C   UNL A   1      37.460  22.735  25.549  1.00  0.00     0.154 C 
ATOM     17  N   UNL A   1      36.141  22.149  25.355  1.00  0.00    -0.305 N 
ATOM     18  C   UNL A   1      36.068  20.795  25.043  1.00  0.00     0.316 A 
ATOM     19  C   UNL A   1      34.975  22.949  25.476  1.00  0.00     0.068 A 
ATOM     20  O   UNL A   1      37.056  20.079  24.904  1.00  0.00    -0.263 OA
ATOM     21  C   UNL A   1      34.675  20.175  24.875  1.00  0.00     0.316 A 
ATOM     22  C   UNL A   1      33.697  22.406  25.245  1.00  0.00     0.069 A 
ATOM     23  C   UNL A   1      35.082  24.293  25.845  1.00  0.00     0.030 A 
ATOM     24  O   UNL A   1      34.597  18.966  24.675  1.00  0.00    -0.263 OA
ATOM     25  N   UNL A   1      33.565  21.018  24.962  1.00  0.00    -0.305 N 
ATOM     26  C   UNL A   1      32.563  23.243  25.340  1.00  0.00     0.050 A 
ATOM     27  C   UNL A   1      33.952  25.092  25.990  1.00  0.00     0.024 A 
ATOM     28  C   UNL A   1      32.249  20.418  24.813  1.00  0.00     0.154 C 
ENDBRANCH  12  15
ENDBRANCH   8  12
ENDBRANCH   4   7
ENDBRANCH   2   3
ENDBRANCH   1   2
BRANCH   1  29
ATOM     29  C   UNL A   1      31.807  31.713  26.910  1.00  0.00     0.023 C 
BRANCH  29  30
ATOM     30  C   UNL A   1      32.941  32.616  27.365  1.00  0.00     0.116 C 
BRANCH  30  31
ATOM     31  N   UNL A   1      32.519  33.977  27.674  1.00  0.00    -0.352 N 
ATOM     32  C   UNL A   1      33.048  34.843  28.603  1.00  0.00     0.251 C 
ATOM     33  H   UNL A   1      31.759  34.319  27.149  1.00  0.00     0.163 HD
ATOM     34  O   UNL A   1      32.520  35.929  28.813  1.00  0.00    -0.269 OA
BRANCH  32  35
ATOM     35  C   UNL A   1      34.232  34.422  29.380  1.00  0.00     0.039 A 
ATOM     36  C   UNL A   1      35.515  34.638  28.877  1.00  0.00     0.014 A 
ATOM     37  C   UNL A   1      34.050  33.739  30.586  1.00  0.00     0.014 A 
ATOM     38  C   UNL A   1      36.597  34.009  29.475  1.00  0.00     0.010 A 
ATOM     39  C   UNL A   1      35.156  33.194  31.244  1.00  0.00     0.010 A 
ATOM     40  C   UNL A   1      36.431  33.279  30.665  1.00  0.00    -0.014 A 
BRANCH  40  41
ATOM     41  C   UNL A   1      37.620  32.637  31.278  1.00  0.00     0.031 A 
ATOM     42  C   UNL A   1      38.057  32.978  32.674  1.00  0.00     0.074 A 
ATOM     43  C   UNL A   1      38.261  31.678  30.584  1.00  0.00     0.049 A 
ATOM     44  N   UNL A   1      39.019  32.446  33.387  1.00  0.00    -0.248 NA
ATOM     45  C   UNL A   1      37.333  34.058  33.360  1.00  0.00     0.031 C 
ATOM     46  C   UNL A   1      37.928  31.271  29.218  1.00  0.00     0.029 A 
ATOM     47  N   UNL A   1      39.292  30.846  30.938  1.00  0.00    -0.354 N 
ATOM     48  C   UNL A   1      39.031  33.140  34.589  1.00  0.00     0.074 A 
ATOM     49  C   UNL A   1      37.998  34.149  34.504  1.00  0.00     0.031 C 
ATOM     50  C   UNL A   1      38.684  30.220  28.877  1.00  0.00     0.029 A 
ATOM     51  C   UNL A   1      39.599  29.920  29.973  1.00  0.00     0.049 A 
ATOM     52  H   UNL A   1      39.765  30.909  31.799  1.00  0.00     0.167 HD
ATOM     53  C   UNL A   1      39.826  32.943  35.668  1.00  0.00     0.037 A 
ATOM     54  C   UNL A   1      40.516  28.935  29.968  1.00  0.00     0.037 A 
ATOM     55  C   UNL A   1      40.830  31.915  35.759  1.00  0.00     0.049 A 
ATOM     56  C   UNL A   1      41.389  28.740  31.171  1.00  0.00     0.074 A 
ATOM     57  C   UNL A   1      41.647  31.601  36.830  1.00  0.00     0.029 A 
ATOM     58  N   UNL A   1      41.155  31.034  34.737  1.00  0.00    -0.354 N 
ATOM     59  N   UNL A   1      41.369  29.385  32.312  1.00  0.00    -0.248 NA
ATOM     60  C   UNL A   1      42.416  27.695  31.084  1.00  0.00     0.031 C 
ATOM     61  C   UNL A   1      42.498  30.561  36.442  1.00  0.00     0.029 A 
ATOM     62  C   UNL A   1      42.181  30.196  35.143  1.00  0.00     0.049 A 
ATOM     63  H   UNL A   1      40.719  31.008  33.854  1.00  0.00     0.167 HD
ATOM     64  C   UNL A   1      42.380  28.827  33.081  1.00  0.00     0.074 A 
ATOM     65  C   UNL A   1      42.979  27.775  32.284  1.00  0.00     0.031 C 
ATOM     66  C   UNL A   1      42.775  29.162  34.333  1.00  0.00     0.037 A 
BRANCH  53  67
ATOM     67  C   UNL A   1      39.658  33.868  36.839  1.00  0.00     0.064 A 
ATOM     68  C   UNL A   1      40.261  35.134  36.873  1.00  0.00     0.173 A 
ATOM     69  C   UNL A   1      38.842  33.502  37.919  1.00  0.00     0.173 A 
ATOM     70  F   UNL A   1      41.060  35.529  35.870  1.00  0.00    -0.203 F 
ATOM     71  C   UNL A   1      40.070  35.989  37.957  1.00  0.00     0.198 A 
ATOM     72  C   UNL A   1      38.632  34.369  38.989  1.00  0.00     0.198 A 
ATOM     73  F   UNL A   1      38.236  32.305  37.933  1.00  0.00    -0.203 F 
ATOM     74  F   UNL A   1      40.690  37.177  37.987  1.00  0.00    -0.200 F 
ATOM     75  C   UNL A   1      39.252  35.609  39.010  1.00  0.00     0.200 A 
ATOM     76  F   UNL A   1      37.831  34.005  39.999  1.00  0.00    -0.200 F 
ATOM     77  F   UNL A   1      39.065  36.436  40.048  1.00  0.00    -0.200 F 
ENDBRANCH  53  67
BRANCH  54  78
ATOM     78  C   UNL A   1      40.615  28.057  28.776  1.00  0.00     0.064 A 
ATOM     79  C   UNL A   1      39.874  26.871  28.696  1.00  0.00     0.173 A 
ATOM     80  C   UNL A   1      41.372  28.435  27.657  1.00  0.00     0.173 A 
ATOM     81  F   UNL A   1      39.145  26.464  29.745  1.00  0.00    -0.203 F 
ATOM     82  C   UNL A   1      39.876  26.102  27.533  1.00  0.00     0.198 A 
ATOM     83  C   UNL A   1      41.354  27.680  26.488  1.00  0.00     0.198 A 
ATOM     84  F   UNL A   1      42.088  29.569  27.685  1.00  0.00    -0.203 F 
ATOM     85  F   UNL A   1      39.162  24.970  27.481  1.00  0.00    -0.200 F 
ATOM     86  C   UNL A   1      40.606  26.514  26.427  1.00  0.00     0.200 A 
ATOM     87  F   UNL A   1      42.041  28.093  25.415  1.00  0.00    -0.200 F 
ATOM     88  F   UNL A   1      40.580  25.791  25.299  1.00  0.00    -0.200 F 
ENDBRANCH  54  78
BRANCH  66  89
ATOM     89  C   UNL A   1      43.917  28.393  34.925  1.00  0.00     0.064 A 
ATOM     90  C   UNL A   1      45.233  28.870  34.842  1.00  0.00     0.173 A 
ATOM     91  C   UNL A   1      43.684  27.217  35.653  1.00  0.00     0.173 A 
ATOM     92  F   UNL A   1      45.506  29.983  34.146  1.00  0.00    -0.203 F 
ATOM     93  C   UNL A   1      46.278  28.191  35.464  1.00  0.00     0.198 A 
ATOM     94  C   UNL A   1      44.727  26.554  36.292  1.00  0.00     0.198 A 
ATOM     95  F   UNL A   1      42.440  26.727  35.765  1.00  0.00    -0.203 F 
ATOM     96  F   UNL A   1      47.532  28.650  35.355  1.00  0.00    -0.200 F 
ATOM     97  C   UNL A   1      46.023  27.041  36.196  1.00  0.00     0.200 A 
ATOM     98  F   UNL A   1      44.477  25.450  37.010  1.00  0.00    -0.200 F 
ATOM     99  F   UNL A   1      47.026  26.399  36.811  1.00  0.00    -0.200 F 
ENDBRANCH  66  89
ENDBRANCH  40  41
ENDBRANCH  32  35
ENDBRANCH  30  31
ENDBRANCH  29  30
ENDBRANCH   1  29
TORSDOF 13
ENDMDL
MODEL 3
REMARK VINA RESULT:     -14.0      0.339      6.996
REMARK SMILES Cn1c(=O)c(=O)n(C)c2cc(S(=O)(=O)N3CCC[C@H]3C(=O)NCCCCNC(=O)c3ccc(-c4c5nc(c(-c6c(F)c(F)c(F)c(F)c6F)c6ccc([nH]6)c(-c6c(F)c(F)c(F)c(F)c6F)c6nc(c(-c7c(F)c(F)c(F)c(F)c7F)c7ccc4[nH]7)C=C6)C=C5)cc3)ccc21
REMARK SMILES IDX 24 1 23 2 22 3 20 4 21 5 19 7 15 8 16 9 17 10 18 11 12 12
REMARK SMILES IDX 13 13 14 14 11 15 1 16 2 17 3 18 95 19 4 20 5 21 9 22 94 23
REMARK SMILES IDX 6 24 7 25 10 26 93 27 8 28 25 29 26 30 27 31 28 32 29 34
REMARK SMILES IDX 30 35 31 36 92 37 32 38 91 39 33 40 34 41 35 42 85 43 36 44
REMARK SMILES IDX 90 45 84 46 86 47 37 48 89 49 83 50 82 51 38 53 70 54 50 55
REMARK SMILES IDX 69 56 51 57 54 58 68 59 87 60 52 61 53 62 67 64 88 65 55 66
REMARK SMILES IDX 39 67 40 68 48 69 41 70 42 71 46 72 49 73 43 74 44 75 47 76
REMARK SMILES IDX 45 77 71 78 72 79 80 80 73 81 74 82 78 83 81 84 75 85 76 86
REMARK SMILES IDX 79 87 77 88 56 89 57 90 65 91 58 92 59 93 63 94 66 95 60 96
REMARK SMILES IDX 61 97 64 98 62 99
REMARK H PARENT 22 6 27 33 86 52 54 63
REMARK Flexibility Score: inf
ROOT
ATOM      1  C   UNL A   1      31.983  30.494  26.839  1.00  0.00     0.023 C 
ENDROOT
BRANCH   1   2
ATOM      2  C   UNL A   1      32.235  29.932  25.438  1.00  0.00     0.116 C 
BRANCH   2   3
ATOM      3  N   UNL A   1      31.023  29.886  24.632  1.00  0.00    -0.355 N 
ATOM      4  C   UNL A   1      30.518  28.839  23.889  1.00  0.00     0.238 C 
ATOM      5  O   UNL A   1      29.483  29.012  23.249  1.00  0.00    -0.273 OA
ATOM      6  H   UNL A   1      30.493  30.716  24.614  1.00  0.00     0.163 HD
BRANCH   4   7
ATOM      7  C   UNL A   1      31.307  27.536  23.890  1.00  0.00     0.162 C 
ATOM      8  N   UNL A   1      30.658  26.340  24.465  1.00  0.00    -0.185 NA
ATOM      9  C   UNL A   1      30.321  25.401  23.386  1.00  0.00     0.103 C 
ATOM     10  C   UNL A   1      31.405  25.638  22.356  1.00  0.00     0.019 C 
ATOM     11  C   UNL A   1      31.668  27.129  22.454  1.00  0.00     0.032 C 
BRANCH   8  12
ATOM     12  S   UNL A   1      31.174  25.759  25.960  1.00  0.00     0.243 S 
ATOM     13  O   UNL A   1      30.164  24.842  26.435  1.00  0.00    -0.207 OA
ATOM     14  O   UNL A   1      31.612  26.889  26.753  1.00  0.00    -0.207 OA
BRANCH  12  15
ATOM     15  C   UNL A   1      32.655  24.775  25.680  1.00  0.00     0.084 A 
ATOM     16  C   UNL A   1      37.419  22.912  25.402  1.00  0.00     0.154 C 
ATOM     17  N   UNL A   1      36.094  22.322  25.276  1.00  0.00    -0.305 N 
ATOM     18  C   UNL A   1      36.009  20.958  25.011  1.00  0.00     0.316 A 
ATOM     19  C   UNL A   1      34.933  23.126  25.412  1.00  0.00     0.068 A 
ATOM     20  O   UNL A   1      36.992  20.237  24.860  1.00  0.00    -0.263 OA
ATOM     21  C   UNL A   1      34.611  20.334  24.915  1.00  0.00     0.316 A 
ATOM     22  C   UNL A   1      33.648  22.578  25.246  1.00  0.00     0.069 A 
ATOM     23  C   UNL A   1      35.054  24.482  25.733  1.00  0.00     0.030 A 
ATOM     24  O   UNL A   1      34.526  19.120  24.757  1.00  0.00    -0.263 OA
ATOM     25  N   UNL A   1      33.506  21.181  25.014  1.00  0.00    -0.305 N 
ATOM     26  C   UNL A   1      32.518  23.420  25.354  1.00  0.00     0.050 A 
ATOM     27  C   UNL A   1      33.930  25.287  25.892  1.00  0.00     0.024 A 
ATOM     28  C   UNL A   1      32.184  20.579  24.932  1.00  0.00     0.154 C 
ENDBRANCH  12  15
ENDBRANCH   8  12
ENDBRANCH   4   7
ENDBRANCH   2   3
ENDBRANCH   1   2
BRANCH   1  29
ATOM     29  C   UNL A   1      31.686  31.988  26.878  1.00  0.00     0.023 C 
BRANCH  29  30
ATOM     30  C   UNL A   1      32.876  32.856  27.253  1.00  0.00     0.116 C 
BRANCH  30  31
ATOM     31  N   UNL A   1      32.513  34.216  27.632  1.00  0.00    -0.352 N 
ATOM     32  C   UNL A   1      33.032  34.984  28.649  1.00  0.00     0.251 C 
ATOM     33  H   UNL A   1      31.807  34.638  27.090  1.00  0.00     0.163 HD
ATOM     34  O   UNL A   1      32.554  36.084  28.905  1.00  0.00    -0.269 OA
BRANCH  32  35
ATOM     35  C   UNL A   1      34.139  34.440  29.462  1.00  0.00     0.039 A 
ATOM     36  C   UNL A   1      35.459  34.582  29.034  1.00  0.00     0.014 A 
ATOM     37  C   UNL A   1      33.845  33.719  30.622  1.00  0.00     0.014 A 
ATOM     38  C   UNL A   1      36.460  33.847  29.652  1.00  0.00     0.010 A 
ATOM     39  C   UNL A   1      34.873  33.064  31.306  1.00  0.00     0.010 A 
ATOM     40  C   UNL A   1      36.179  33.079  30.795  1.00  0.00    -0.014 A 
BRANCH  40  41
ATOM     41  C   UNL A   1      37.284  32.323  31.434  1.00  0.00     0.031 A 
ATOM     42  C   UNL A   1      38.031  31.254  30.687  1.00  0.00     0.074 A 
ATOM     43  C   UNL A   1      37.661  32.666  32.680  1.00  0.00     0.049 A 
ATOM     44  N   UNL A   1      39.076  30.562  31.069  1.00  0.00    -0.248 NA
ATOM     45  C   UNL A   1      37.544  30.907  29.344  1.00  0.00     0.031 C 
ATOM     46  C   UNL A   1      37.003  33.683  33.502  1.00  0.00     0.029 A 
ATOM     47  N   UNL A   1      38.706  32.234  33.456  1.00  0.00    -0.354 N 
ATOM     48  C   UNL A   1      39.354  29.686  30.029  1.00  0.00     0.074 A 
ATOM     49  C   UNL A   1      38.354  29.913  29.008  1.00  0.00     0.031 C 
ATOM     50  C   UNL A   1      37.700  33.852  34.632  1.00  0.00     0.029 A 
ATOM     51  C   UNL A   1      38.816  32.911  34.644  1.00  0.00     0.049 A 
ATOM     52  H   UNL A   1      39.315  31.509  33.188  1.00  0.00     0.167 HD
ATOM     53  C   UNL A   1      40.358  28.783  29.934  1.00  0.00     0.037 A 
ATOM     54  C   UNL A   1      39.716  32.792  35.638  1.00  0.00     0.037 A 
ATOM     55  C   UNL A   1      41.370  28.585  30.939  1.00  0.00     0.049 A 
ATOM     56  C   UNL A   1      40.815  31.781  35.512  1.00  0.00     0.074 A 
ATOM     57  C   UNL A   1      42.460  27.734  30.910  1.00  0.00     0.029 A 
ATOM     58  N   UNL A   1      41.413  29.247  32.158  1.00  0.00    -0.354 N 
ATOM     59  N   UNL A   1      41.082  30.979  34.511  1.00  0.00    -0.248 NA
ATOM     60  C   UNL A   1      41.728  31.647  36.655  1.00  0.00     0.031 C 
ATOM     61  C   UNL A   1      43.136  27.846  32.128  1.00  0.00     0.029 A 
ATOM     62  C   UNL A   1      42.495  28.801  32.900  1.00  0.00     0.049 A 
ATOM     63  H   UNL A   1      40.770  29.934  32.451  1.00  0.00     0.167 HD
ATOM     64  C   UNL A   1      42.193  30.244  34.899  1.00  0.00     0.074 A 
ATOM     65  C   UNL A   1      42.563  30.711  36.220  1.00  0.00     0.031 C 
ATOM     66  C   UNL A   1      42.842  29.267  34.220  1.00  0.00     0.037 A 
BRANCH  53  67
ATOM     67  C   UNL A   1      40.411  27.922  28.704  1.00  0.00     0.064 A 
ATOM     68  C   UNL A   1      41.147  28.296  27.571  1.00  0.00     0.173 A 
ATOM     69  C   UNL A   1      39.755  26.682  28.679  1.00  0.00     0.173 A 
ATOM     70  F   UNL A   1      41.784  29.476  27.539  1.00  0.00    -0.203 F 
ATOM     71  C   UNL A   1      41.206  27.470  26.450  1.00  0.00     0.198 A 
ATOM     72  C   UNL A   1      39.837  25.847  27.568  1.00  0.00     0.198 A 
ATOM     73  F   UNL A   1      39.042  26.272  29.740  1.00  0.00    -0.203 F 
ATOM     74  F   UNL A   1      41.882  27.867  25.363  1.00  0.00    -0.200 F 
ATOM     75  C   UNL A   1      40.557  26.245  26.452  1.00  0.00     0.200 A 
ATOM     76  F   UNL A   1      39.219  24.658  27.576  1.00  0.00    -0.200 F 
ATOM     77  F   UNL A   1      40.620  25.449  25.375  1.00  0.00    -0.200 F 
ENDBRANCH  53  67
BRANCH  54  78
ATOM     78  C   UNL A   1      39.601  33.686  36.817  1.00  0.00     0.064 A 
ATOM     79  C   UNL A   1      40.171  34.965  36.805  1.00  0.00     0.173 A 
ATOM     80  C   UNL A   1      38.839  33.317  37.936  1.00  0.00     0.173 A 
ATOM     81  F   UNL A   1      40.917  35.356  35.762  1.00  0.00    -0.203 F 
ATOM     82  C   UNL A   1      39.970  35.849  37.864  1.00  0.00     0.198 A 
ATOM     83  C   UNL A   1      38.618  34.209  38.981  1.00  0.00     0.198 A 
ATOM     84  F   UNL A   1      38.266  32.105  37.986  1.00  0.00    -0.203 F 
ATOM     85  F   UNL A   1      40.527  37.067  37.830  1.00  0.00    -0.200 F 
ATOM     86  C   UNL A   1      39.183  35.475  38.944  1.00  0.00     0.200 A 
ATOM     87  F   UNL A   1      37.839  33.852  40.011  1.00  0.00    -0.200 F 
ATOM     88  F   UNL A   1      38.963  36.338  39.944  1.00  0.00    -0.200 F 
ENDBRANCH  54  78
BRANCH  66  89
ATOM     89  C   UNL A   1      44.017  28.624  34.891  1.00  0.00     0.064 A 
ATOM     90  C   UNL A   1      45.302  29.179  34.793  1.00  0.00     0.173 A 
ATOM     91  C   UNL A   1      43.845  27.496  35.705  1.00  0.00     0.173 A 
ATOM     92  F   UNL A   1      45.517  30.250  34.015  1.00  0.00    -0.203 F 
ATOM     93  C   UNL A   1      46.374  28.622  35.484  1.00  0.00     0.198 A 
ATOM     94  C   UNL A   1      44.915  26.955  36.412  1.00  0.00     0.198 A 
ATOM     95  F   UNL A   1      42.633  26.934  35.834  1.00  0.00    -0.203 F 
ATOM     96  F   UNL A   1      47.598  29.153  35.360  1.00  0.00    -0.200 F 
ATOM     97  C   UNL A   1      46.178  27.518  36.301  1.00  0.00     0.200 A 
ATOM     98  F   UNL A   1      44.721  25.896  37.212  1.00  0.00    -0.200 F 
ATOM     99  F   UNL A   1      47.207  26.994  36.981  1.00  0.00    -0.200 F 
ENDBRANCH  66  89
ENDBRANCH  40  41
ENDBRANCH  32  35
ENDBRANCH  30  31
ENDBRANCH  29  30
ENDBRANCH   1  29
TORSDOF 13
ENDMDL
