MODEL 1
REMARK VINA RESULT:     -12.2      0.000      0.000
REMARK SMILES CCOC(=O)C1=NN(c2ccc(C)cc2Cl)[C@@](C)(C(=O)NCCCCNC(=O)c2ccc(-c3c4nc(c(-c5c(F)c(F)c(F)c(F)c5F)c5ccc([nH]5)c(-c5c(F)c(F)c(F)c(F)c5F)c5nc(c(-c6c(F)c(F)c(F)c(F)c6F)c6ccc3[nH]6)C=C5)C=C4)cc2)C1
REMARK SMILES IDX 23 1 22 2 21 3 19 4 20 5 17 7 6 8 7 9 92 10 8 11 18 12 4 13
REMARK SMILES IDX 5 14 3 15 2 16 1 17 9 18 10 19 15 20 11 21 14 22 16 23 12 24
REMARK SMILES IDX 13 25 24 26 25 27 26 28 27 29 28 31 29 32 30 33 91 34 31 35
REMARK SMILES IDX 90 36 32 37 33 38 34 39 84 40 35 41 89 42 83 43 85 44 36 45
REMARK SMILES IDX 88 46 82 47 81 48 37 50 69 51 49 52 68 53 50 54 53 55 67 56
REMARK SMILES IDX 86 57 51 58 52 59 66 61 87 62 54 63 38 64 39 65 47 66 40 67
REMARK SMILES IDX 41 68 45 69 48 70 42 71 43 72 46 73 44 74 70 75 71 76 79 77
REMARK SMILES IDX 72 78 73 79 77 80 80 81 74 82 75 83 78 84 76 85 55 86 56 87
REMARK SMILES IDX 64 88 57 89 58 90 62 91 65 92 59 93 60 94 63 95 61 96
REMARK H PARENT 21 6 26 30 85 49 53 60
REMARK Flexibility Score: inf
ROOT
ATOM      1  C   UNL A   1      32.894  26.798  26.512  1.00  0.00     0.023 C 
ENDROOT
BRANCH   1   2
ATOM      2  C   UNL A   1      33.952  26.113  25.651  1.00  0.00     0.116 C 
BRANCH   2   3
ATOM      3  N   UNL A   1      34.365  24.849  26.219  1.00  0.00    -0.354 N 
ATOM      4  C   UNL A   1      34.363  23.575  25.744  1.00  0.00     0.248 C 
ATOM      5  O   UNL A   1      34.681  22.725  26.589  1.00  0.00    -0.272 OA
ATOM      6  H   UNL A   1      34.718  24.926  27.134  1.00  0.00     0.163 HD
BRANCH   4   7
ATOM      7  C   UNL A   1      34.056  23.168  24.266  1.00  0.00     0.144 C 
ATOM      8  C   UNL A   1      33.024  21.098  24.351  1.00  0.00     0.149 C 
ATOM      9  N   UNL A   1      32.038  21.921  24.183  1.00  0.00    -0.169 NA
ATOM     10  C   UNL A   1      34.385  21.656  24.124  1.00  0.00     0.106 C 
ATOM     11  N   UNL A   1      32.594  23.156  23.970  1.00  0.00    -0.248 N 
ATOM     12  C   UNL A   1      34.936  23.902  23.257  1.00  0.00     0.048 C 
BRANCH   8  13
ATOM     13  C   UNL A   1      32.865  19.642  24.694  1.00  0.00     0.354 C 
ATOM     14  O   UNL A   1      32.173  19.280  25.628  1.00  0.00    -0.245 OA
BRANCH  13  15
ATOM     15  O   UNL A   1      33.620  18.880  23.880  1.00  0.00    -0.461 OA
BRANCH  15  16
ATOM     16  C   UNL A   1      33.010  17.655  23.452  1.00  0.00     0.230 C 
ATOM     17  C   UNL A   1      34.063  16.601  23.164  1.00  0.00     0.049 C 
ENDBRANCH  15  16
ENDBRANCH  13  15
ENDBRANCH   8  13
BRANCH  11  18
ATOM     18  C   UNL A   1      31.743  24.241  23.785  1.00  0.00     0.079 A 
ATOM     19  C   UNL A   1      31.832  25.009  22.608  1.00  0.00     0.030 A 
ATOM     20  C   UNL A   1      30.742  24.626  24.707  1.00  0.00     0.066 A 
ATOM     21  C   UNL A   1      31.049  26.151  22.396  1.00  0.00     0.006 A 
ATOM     22  C   UNL A   1      29.949  25.767  24.491  1.00  0.00     0.026 A 
ATOM     23  Cl  UNL A   1      30.510  23.830  26.234  1.00  0.00    -0.082 Cl
ATOM     24  C   UNL A   1      30.106  26.546  23.342  1.00  0.00    -0.049 A 
ATOM     25  C   UNL A   1      29.330  27.818  23.173  1.00  0.00     0.044 C 
ENDBRANCH  11  18
ENDBRANCH   4   7
ENDBRANCH   2   3
ENDBRANCH   1   2
BRANCH   1  26
ATOM     26  C   UNL A   1      32.242  28.039  25.903  1.00  0.00     0.023 C 
BRANCH  26  27
ATOM     27  C   UNL A   1      33.186  29.197  25.611  1.00  0.00     0.116 C 
BRANCH  27  28
ATOM     28  N   UNL A   1      32.676  30.480  26.069  1.00  0.00    -0.352 N 
ATOM     29  C   UNL A   1      33.207  31.340  26.999  1.00  0.00     0.251 C 
ATOM     30  H   UNL A   1      31.831  30.772  25.655  1.00  0.00     0.163 HD
ATOM     31  O   UNL A   1      32.589  32.341  27.342  1.00  0.00    -0.269 OA
BRANCH  29  32
ATOM     32  C   UNL A   1      34.515  31.034  27.613  1.00  0.00     0.039 A 
ATOM     33  C   UNL A   1      35.456  32.062  27.732  1.00  0.00     0.014 A 
ATOM     34  C   UNL A   1      34.808  29.749  28.077  1.00  0.00     0.014 A 
ATOM     35  C   UNL A   1      36.664  31.821  28.389  1.00  0.00     0.010 A 
ATOM     36  C   UNL A   1      35.994  29.520  28.768  1.00  0.00     0.010 A 
ATOM     37  C   UNL A   1      36.924  30.558  28.940  1.00  0.00    -0.014 A 
BRANCH  37  38
ATOM     38  C   UNL A   1      38.158  30.290  29.712  1.00  0.00     0.031 A 
ATOM     39  C   UNL A   1      39.213  29.392  29.144  1.00  0.00     0.074 A 
ATOM     40  C   UNL A   1      38.283  30.777  30.960  1.00  0.00     0.049 A 
ATOM     41  N   UNL A   1      40.254  28.864  29.733  1.00  0.00    -0.248 NA
ATOM     42  C   UNL A   1      39.061  29.013  27.730  1.00  0.00     0.031 C 
ATOM     43  C   UNL A   1      37.313  31.638  31.638  1.00  0.00     0.029 A 
ATOM     44  N   UNL A   1      39.277  30.597  31.889  1.00  0.00    -0.354 N 
ATOM     45  C   UNL A   1      40.843  28.040  28.786  1.00  0.00     0.074 A 
ATOM     46  C   UNL A   1      40.062  28.158  27.572  1.00  0.00     0.031 C 
ATOM     47  C   UNL A   1      37.764  31.922  32.870  1.00  0.00     0.029 A 
ATOM     48  C   UNL A   1      39.038  31.237  33.078  1.00  0.00     0.049 A 
ATOM     49  H   UNL A   1      40.084  30.060  31.718  1.00  0.00     0.167 HD
ATOM     50  C   UNL A   1      41.927  27.241  28.926  1.00  0.00     0.037 A 
ATOM     51  C   UNL A   1      39.760  31.258  34.213  1.00  0.00     0.037 A 
ATOM     52  C   UNL A   1      42.734  27.162  30.113  1.00  0.00     0.049 A 
ATOM     53  C   UNL A   1      41.036  30.473  34.293  1.00  0.00     0.074 A 
ATOM     54  C   UNL A   1      43.845  26.373  30.356  1.00  0.00     0.029 A 
ATOM     55  N   UNL A   1      42.526  27.925  31.251  1.00  0.00    -0.354 N 
ATOM     56  N   UNL A   1      41.560  29.662  33.407  1.00  0.00    -0.248 NA
ATOM     57  C   UNL A   1      41.820  30.603  35.529  1.00  0.00     0.031 C 
ATOM     58  C   UNL A   1      44.318  26.671  31.641  1.00  0.00     0.029 A 
ATOM     59  C   UNL A   1      43.506  27.649  32.189  1.00  0.00     0.049 A 
ATOM     60  H   UNL A   1      41.792  28.569  31.373  1.00  0.00     0.167 HD
ATOM     61  C   UNL A   1      42.730  29.184  33.976  1.00  0.00     0.074 A 
ATOM     62  C   UNL A   1      42.851  29.807  35.278  1.00  0.00     0.031 C 
ATOM     63  C   UNL A   1      43.616  28.296  33.468  1.00  0.00     0.037 A 
BRANCH  50  64
ATOM     64  C   UNL A   1      42.278  26.365  27.767  1.00  0.00     0.064 A 
ATOM     65  C   UNL A   1      41.650  25.131  27.564  1.00  0.00     0.173 A 
ATOM     66  C   UNL A   1      43.255  26.774  26.848  1.00  0.00     0.173 A 
ATOM     67  F   UNL A   1      40.727  24.694  28.433  1.00  0.00    -0.203 F 
ATOM     68  C   UNL A   1      41.996  24.328  26.481  1.00  0.00     0.198 A 
ATOM     69  C   UNL A   1      43.589  25.973  25.760  1.00  0.00     0.198 A 
ATOM     70  F   UNL A   1      43.887  27.946  27.010  1.00  0.00    -0.203 F 
ATOM     71  F   UNL A   1      41.406  23.135  26.317  1.00  0.00    -0.200 F 
ATOM     72  C   UNL A   1      42.962  24.749  25.578  1.00  0.00     0.200 A 
ATOM     73  F   UNL A   1      44.525  26.381  24.890  1.00  0.00    -0.200 F 
ATOM     74  F   UNL A   1      43.297  23.971  24.540  1.00  0.00    -0.200 F 
ENDBRANCH  50  64
BRANCH  51  75
ATOM     75  C   UNL A   1      39.295  32.069  35.359  1.00  0.00     0.064 A 
ATOM     76  C   UNL A   1      39.631  33.427  35.452  1.00  0.00     0.173 A 
ATOM     77  C   UNL A   1      38.494  31.517  36.365  1.00  0.00     0.173 A 
ATOM     78  F   UNL A   1      40.412  33.987  34.517  1.00  0.00    -0.203 F 
ATOM     79  C   UNL A   1      39.185  34.202  36.518  1.00  0.00     0.198 A 
ATOM     80  C   UNL A   1      38.038  32.297  37.426  1.00  0.00     0.198 A 
ATOM     81  F   UNL A   1      38.149  30.222  36.312  1.00  0.00    -0.203 F 
ATOM     82  F   UNL A   1      39.533  35.494  36.596  1.00  0.00    -0.200 F 
ATOM     83  C   UNL A   1      38.385  33.638  37.502  1.00  0.00     0.200 A 
ATOM     84  F   UNL A   1      37.265  31.752  38.374  1.00  0.00    -0.200 F 
ATOM     85  F   UNL A   1      37.954  34.386  38.527  1.00  0.00    -0.200 F 
ENDBRANCH  51  75
BRANCH  63  86
ATOM     86  C   UNL A   1      44.804  27.967  34.313  1.00  0.00     0.064 A 
ATOM     87  C   UNL A   1      45.984  28.718  34.223  1.00  0.00     0.173 A 
ATOM     88  C   UNL A   1      44.750  26.919  35.240  1.00  0.00     0.173 A 
ATOM     89  F   UNL A   1      46.079  29.722  33.339  1.00  0.00    -0.203 F 
ATOM     90  C   UNL A   1      47.076  28.425  35.035  1.00  0.00     0.198 A 
ATOM     91  C   UNL A   1      45.842  26.633  36.054  1.00  0.00     0.198 A 
ATOM     92  F   UNL A   1      43.642  26.172  35.350  1.00  0.00    -0.203 F 
ATOM     93  F   UNL A   1      48.202  29.144  34.928  1.00  0.00    -0.200 F 
ATOM     94  C   UNL A   1      47.003  27.385  35.951  1.00  0.00     0.200 A 
ATOM     95  F   UNL A   1      45.773  25.625  36.934  1.00  0.00    -0.200 F 
ATOM     96  F   UNL A   1      48.057  27.103  36.730  1.00  0.00    -0.200 F 
ENDBRANCH  63  86
ENDBRANCH  37  38
ENDBRANCH  29  32
ENDBRANCH  27  28
ENDBRANCH  26  27
ENDBRANCH   1  26
TORSDOF 15
ENDMDL
MODEL 2
REMARK VINA RESULT:     -12.2      2.303      3.440
REMARK SMILES CCOC(=O)C1=NN(c2ccc(C)cc2Cl)[C@@](C)(C(=O)NCCCCNC(=O)c2ccc(-c3c4nc(c(-c5c(F)c(F)c(F)c(F)c5F)c5ccc([nH]5)c(-c5c(F)c(F)c(F)c(F)c5F)c5nc(c(-c6c(F)c(F)c(F)c(F)c6F)c6ccc3[nH]6)C=C5)C=C4)cc2)C1
REMARK SMILES IDX 23 1 22 2 21 3 19 4 20 5 17 7 6 8 7 9 92 10 8 11 18 12 4 13
REMARK SMILES IDX 5 14 3 15 2 16 1 17 9 18 10 19 15 20 11 21 14 22 16 23 12 24
REMARK SMILES IDX 13 25 24 26 25 27 26 28 27 29 28 31 29 32 30 33 91 34 31 35
REMARK SMILES IDX 90 36 32 37 33 38 34 39 84 40 35 41 89 42 83 43 85 44 36 45
REMARK SMILES IDX 88 46 82 47 81 48 37 50 69 51 49 52 68 53 50 54 53 55 67 56
REMARK SMILES IDX 86 57 51 58 52 59 66 61 87 62 54 63 38 64 39 65 47 66 40 67
REMARK SMILES IDX 41 68 45 69 48 70 42 71 43 72 46 73 44 74 70 75 71 76 79 77
REMARK SMILES IDX 72 78 73 79 77 80 80 81 74 82 75 83 78 84 76 85 55 86 56 87
REMARK SMILES IDX 64 88 57 89 58 90 62 91 65 92 59 93 60 94 63 95 61 96
REMARK H PARENT 21 6 26 30 85 49 53 60
REMARK Flexibility Score: inf
ROOT
ATOM      1  C   UNL A   1      31.798  30.318  26.762  1.00  0.00     0.023 C 
ENDROOT
BRANCH   1   2
ATOM      2  C   UNL A   1      32.288  29.652  25.480  1.00  0.00     0.116 C 
BRANCH   2   3
ATOM      3  N   UNL A   1      32.889  28.363  25.744  1.00  0.00    -0.354 N 
ATOM      4  C   UNL A   1      33.238  27.322  24.942  1.00  0.00     0.248 C 
ATOM      5  O   UNL A   1      33.614  26.316  25.563  1.00  0.00    -0.272 OA
ATOM      6  H   UNL A   1      33.082  28.208  26.697  1.00  0.00     0.163 HD
BRANCH   4   7
ATOM      7  C   UNL A   1      33.242  27.355  23.379  1.00  0.00     0.144 C 
ATOM      8  C   UNL A   1      32.856  25.185  22.672  1.00  0.00     0.149 C 
ATOM      9  N   UNL A   1      31.700  25.756  22.542  1.00  0.00    -0.169 NA
ATOM     10  C   UNL A   1      34.012  26.095  22.892  1.00  0.00     0.106 C 
ATOM     11  N   UNL A   1      31.894  27.088  22.800  1.00  0.00    -0.248 N 
ATOM     12  C   UNL A   1      33.985  28.563  22.816  1.00  0.00     0.048 C 
BRANCH   8  13
ATOM     13  C   UNL A   1      33.087  23.703  22.557  1.00  0.00     0.354 C 
ATOM     14  O   UNL A   1      32.182  22.904  22.709  1.00  0.00    -0.245 OA
BRANCH  13  15
ATOM     15  O   UNL A   1      34.389  23.445  22.332  1.00  0.00    -0.461 OA
BRANCH  15  16
ATOM     16  C   UNL A   1      35.065  22.751  23.389  1.00  0.00     0.230 C 
ATOM     17  C   UNL A   1      36.568  22.917  23.267  1.00  0.00     0.049 C 
ENDBRANCH  15  16
ENDBRANCH  13  15
ENDBRANCH   8  13
BRANCH  11  18
ATOM     18  C   UNL A   1      30.792  27.938  22.754  1.00  0.00     0.079 A 
ATOM     19  C   UNL A   1      30.869  29.148  22.039  1.00  0.00     0.030 A 
ATOM     20  C   UNL A   1      29.550  27.654  23.369  1.00  0.00     0.066 A 
ATOM     21  C   UNL A   1      29.817  30.072  22.013  1.00  0.00     0.006 A 
ATOM     22  C   UNL A   1      28.490  28.578  23.336  1.00  0.00     0.026 A 
ATOM     23  Cl  UNL A   1      29.278  26.234  24.332  1.00  0.00    -0.082 Cl
ATOM     24  C   UNL A   1      28.621  29.799  22.672  1.00  0.00    -0.049 A 
ATOM     25  C   UNL A   1      27.523  30.820  22.733  1.00  0.00     0.044 C 
ENDBRANCH  11  18
ENDBRANCH   4   7
ENDBRANCH   2   3
ENDBRANCH   1   2
BRANCH   1  26
ATOM     26  C   UNL A   1      31.628  31.836  26.700  1.00  0.00     0.023 C 
BRANCH  26  27
ATOM     27  C   UNL A   1      32.782  32.648  27.270  1.00  0.00     0.116 C 
BRANCH  27  28
ATOM     28  N   UNL A   1      32.408  34.011  27.613  1.00  0.00    -0.352 N 
ATOM     29  C   UNL A   1      32.964  34.852  28.546  1.00  0.00     0.251 C 
ATOM     30  H   UNL A   1      31.651  34.383  27.104  1.00  0.00     0.163 HD
ATOM     31  O   UNL A   1      32.457  35.943  28.778  1.00  0.00    -0.269 OA
BRANCH  29  32
ATOM     32  C   UNL A   1      34.159  34.419  29.298  1.00  0.00     0.039 A 
ATOM     33  C   UNL A   1      33.982  33.797  30.538  1.00  0.00     0.014 A 
ATOM     34  C   UNL A   1      35.443  34.615  28.782  1.00  0.00     0.014 A 
ATOM     35  C   UNL A   1      35.089  33.299  31.227  1.00  0.00     0.010 A 
ATOM     36  C   UNL A   1      36.542  34.083  29.448  1.00  0.00     0.010 A 
ATOM     37  C   UNL A   1      36.372  33.409  30.669  1.00  0.00    -0.014 A 
BRANCH  37  38
ATOM     38  C   UNL A   1      37.557  32.822  31.332  1.00  0.00     0.031 A 
ATOM     39  C   UNL A   1      38.324  31.727  30.657  1.00  0.00     0.074 A 
ATOM     40  C   UNL A   1      37.883  33.208  32.580  1.00  0.00     0.049 A 
ATOM     41  N   UNL A   1      39.247  30.942  31.147  1.00  0.00    -0.248 NA
ATOM     42  C   UNL A   1      37.986  31.460  29.250  1.00  0.00     0.031 C 
ATOM     43  C   UNL A   1      37.197  34.242  33.356  1.00  0.00     0.029 A 
ATOM     44  N   UNL A   1      38.868  32.756  33.421  1.00  0.00    -0.354 N 
ATOM     45  C   UNL A   1      39.554  30.047  30.133  1.00  0.00     0.074 A 
ATOM     46  C   UNL A   1      38.740  30.402  28.989  1.00  0.00     0.031 C 
ATOM     47  C   UNL A   1      37.789  34.354  34.556  1.00  0.00     0.029 A 
ATOM     48  C   UNL A   1      38.873  33.379  34.643  1.00  0.00     0.049 A 
ATOM     49  H   UNL A   1      39.508  32.052  33.172  1.00  0.00     0.167 HD
ATOM     50  C   UNL A   1      40.422  29.009  30.165  1.00  0.00     0.037 A 
ATOM     51  C   UNL A   1      39.658  33.176  35.716  1.00  0.00     0.037 A 
ATOM     52  C   UNL A   1      41.269  28.687  31.281  1.00  0.00     0.049 A 
ATOM     53  C   UNL A   1      40.712  32.109  35.673  1.00  0.00     0.074 A 
ATOM     54  C   UNL A   1      42.174  27.647  31.413  1.00  0.00     0.029 A 
ATOM     55  N   UNL A   1      41.330  29.424  32.453  1.00  0.00    -0.354 N 
ATOM     56  N   UNL A   1      40.962  31.239  34.727  1.00  0.00    -0.248 NA
ATOM     57  C   UNL A   1      41.589  31.994  36.846  1.00  0.00     0.031 C 
ATOM     58  C   UNL A   1      42.794  27.765  32.664  1.00  0.00     0.029 A 
ATOM     59  C   UNL A   1      42.279  28.881  33.302  1.00  0.00     0.049 A 
ATOM     60  H   UNL A   1      40.783  30.217  32.651  1.00  0.00     0.167 HD
ATOM     61  C   UNL A   1      42.021  30.472  35.187  1.00  0.00     0.074 A 
ATOM     62  C   UNL A   1      42.379  30.989  36.492  1.00  0.00     0.031 C 
ATOM     63  C   UNL A   1      42.631  29.425  34.586  1.00  0.00     0.037 A 
BRANCH  50  64
ATOM     64  C   UNL A   1      40.472  28.129  28.958  1.00  0.00     0.064 A 
ATOM     65  C   UNL A   1      39.711  26.956  28.874  1.00  0.00     0.173 A 
ATOM     66  C   UNL A   1      41.290  28.471  27.872  1.00  0.00     0.173 A 
ATOM     67  F   UNL A   1      38.933  26.583  29.900  1.00  0.00    -0.203 F 
ATOM     68  C   UNL A   1      39.776  26.148  27.742  1.00  0.00     0.198 A 
ATOM     69  C   UNL A   1      41.342  27.665  26.737  1.00  0.00     0.198 A 
ATOM     70  F   UNL A   1      42.041  29.581  27.915  1.00  0.00    -0.203 F 
ATOM     71  F   UNL A   1      39.063  25.014  27.689  1.00  0.00    -0.200 F 
ATOM     72  C   UNL A   1      40.588  26.503  26.674  1.00  0.00     0.200 A 
ATOM     73  F   UNL A   1      42.130  28.008  25.708  1.00  0.00    -0.200 F 
ATOM     74  F   UNL A   1      40.652  25.720  25.589  1.00  0.00    -0.200 F 
ENDBRANCH  50  64
BRANCH  51  75
ATOM     75  C   UNL A   1      39.483  34.021  36.918  1.00  0.00     0.064 A 
ATOM     76  C   UNL A   1      38.713  33.570  37.999  1.00  0.00     0.173 A 
ATOM     77  C   UNL A   1      40.094  35.277  37.021  1.00  0.00     0.173 A 
ATOM     78  F   UNL A   1      38.098  32.380  37.930  1.00  0.00    -0.203 F 
ATOM     79  C   UNL A   1      38.556  34.350  39.140  1.00  0.00     0.198 A 
ATOM     80  C   UNL A   1      39.944  36.053  38.169  1.00  0.00     0.198 A 
ATOM     81  F   UNL A   1      40.840  35.744  36.010  1.00  0.00    -0.203 F 
ATOM     82  F   UNL A   1      37.801  33.907  40.155  1.00  0.00    -0.200 F 
ATOM     83  C   UNL A   1      39.175  35.590  39.226  1.00  0.00     0.200 A 
ATOM     84  F   UNL A   1      40.544  37.247  38.252  1.00  0.00    -0.200 F 
ATOM     85  F   UNL A   1      39.025  36.340  40.327  1.00  0.00    -0.200 F 
ENDBRANCH  51  75
BRANCH  63  86
ATOM     86  C   UNL A   1      43.763  28.785  35.324  1.00  0.00     0.064 A 
ATOM     87  C   UNL A   1      45.089  29.174  35.089  1.00  0.00     0.173 A 
ATOM     88  C   UNL A   1      43.516  27.807  36.295  1.00  0.00     0.173 A 
ATOM     89  F   UNL A   1      45.366  30.099  34.158  1.00  0.00    -0.203 F 
ATOM     90  C   UNL A   1      46.135  28.596  35.802  1.00  0.00     0.198 A 
ATOM     91  C   UNL A   1      44.565  27.236  37.010  1.00  0.00     0.198 A 
ATOM     92  F   UNL A   1      42.262  27.403  36.543  1.00  0.00    -0.203 F 
ATOM     93  F   UNL A   1      47.399  28.968  35.556  1.00  0.00    -0.200 F 
ATOM     94  C   UNL A   1      45.872  27.630  36.763  1.00  0.00     0.200 A 
ATOM     95  F   UNL A   1      44.312  26.299  37.934  1.00  0.00    -0.200 F 
ATOM     96  F   UNL A   1      46.881  27.073  37.447  1.00  0.00    -0.200 F 
ENDBRANCH  63  86
ENDBRANCH  37  38
ENDBRANCH  29  32
ENDBRANCH  27  28
ENDBRANCH  26  27
ENDBRANCH   1  26
TORSDOF 15
ENDMDL
MODEL 3
REMARK VINA RESULT:     -12.2      2.330      3.848
REMARK SMILES CCOC(=O)C1=NN(c2ccc(C)cc2Cl)[C@@](C)(C(=O)NCCCCNC(=O)c2ccc(-c3c4nc(c(-c5c(F)c(F)c(F)c(F)c5F)c5ccc([nH]5)c(-c5c(F)c(F)c(F)c(F)c5F)c5nc(c(-c6c(F)c(F)c(F)c(F)c6F)c6ccc3[nH]6)C=C5)C=C4)cc2)C1
REMARK SMILES IDX 23 1 22 2 21 3 19 4 20 5 17 7 6 8 7 9 92 10 8 11 18 12 4 13
REMARK SMILES IDX 5 14 3 15 2 16 1 17 9 18 10 19 15 20 11 21 14 22 16 23 12 24
REMARK SMILES IDX 13 25 24 26 25 27 26 28 27 29 28 31 29 32 30 33 91 34 31 35
REMARK SMILES IDX 90 36 32 37 33 38 34 39 84 40 35 41 89 42 83 43 85 44 36 45
REMARK SMILES IDX 88 46 82 47 81 48 37 50 69 51 49 52 68 53 50 54 53 55 67 56
REMARK SMILES IDX 86 57 51 58 52 59 66 61 87 62 54 63 38 64 39 65 47 66 40 67
REMARK SMILES IDX 41 68 45 69 48 70 42 71 43 72 46 73 44 74 70 75 71 76 79 77
REMARK SMILES IDX 72 78 73 79 77 80 80 81 74 82 75 83 78 84 76 85 55 86 56 87
REMARK SMILES IDX 64 88 57 89 58 90 62 91 65 92 59 93 60 94 63 95 61 96
REMARK H PARENT 21 6 26 30 85 49 53 60
REMARK Flexibility Score: inf
ROOT
ATOM      1  C   UNL A   1      31.765  30.320  26.723  1.00  0.00     0.023 C 
ENDROOT
BRANCH   1   2
ATOM      2  C   UNL A   1      32.149  29.638  25.413  1.00  0.00     0.116 C 
BRANCH   2   3
ATOM      3  N   UNL A   1      32.705  28.322  25.640  1.00  0.00    -0.354 N 
ATOM      4  C   UNL A   1      33.034  27.299  24.806  1.00  0.00     0.248 C 
ATOM      5  O   UNL A   1      33.368  26.261  25.396  1.00  0.00    -0.272 OA
ATOM      6  H   UNL A   1      32.879  28.127  26.589  1.00  0.00     0.163 HD
BRANCH   4   7
ATOM      7  C   UNL A   1      33.063  27.387  23.246  1.00  0.00     0.144 C 
ATOM      8  C   UNL A   1      32.618  25.257  22.456  1.00  0.00     0.149 C 
ATOM      9  N   UNL A   1      31.484  25.869  22.330  1.00  0.00    -0.169 NA
ATOM     10  C   UNL A   1      33.799  26.121  22.725  1.00  0.00     0.106 C 
ATOM     11  N   UNL A   1      31.716  27.185  22.638  1.00  0.00    -0.248 N 
ATOM     12  C   UNL A   1      33.852  28.590  22.736  1.00  0.00     0.048 C 
BRANCH   8  13
ATOM     13  C   UNL A   1      32.804  23.774  22.291  1.00  0.00     0.354 C 
ATOM     14  O   UNL A   1      33.648  23.317  21.543  1.00  0.00    -0.245 OA
BRANCH  13  15
ATOM     15  O   UNL A   1      31.895  23.100  23.020  1.00  0.00    -0.461 OA
BRANCH  15  16
ATOM     16  C   UNL A   1      32.180  23.012  24.422  1.00  0.00     0.230 C 
ATOM     17  C   UNL A   1      30.985  23.459  25.244  1.00  0.00     0.049 C 
ENDBRANCH  15  16
ENDBRANCH  13  15
ENDBRANCH   8  13
BRANCH  11  18
ATOM     18  C   UNL A   1      30.642  28.071  22.607  1.00  0.00     0.079 A 
ATOM     19  C   UNL A   1      30.762  29.293  21.919  1.00  0.00     0.030 A 
ATOM     20  C   UNL A   1      29.389  27.814  23.211  1.00  0.00     0.066 A 
ATOM     21  C   UNL A   1      29.741  30.252  21.910  1.00  0.00     0.006 A 
ATOM     22  C   UNL A   1      28.360  28.773  23.194  1.00  0.00     0.026 A 
ATOM     23  Cl  UNL A   1      29.066  26.383  24.142  1.00  0.00    -0.082 Cl
ATOM     24  C   UNL A   1      28.533  30.004  22.557  1.00  0.00    -0.049 A 
ATOM     25  C   UNL A   1      27.469  31.058  22.637  1.00  0.00     0.044 C 
ENDBRANCH  11  18
ENDBRANCH   4   7
ENDBRANCH   2   3
ENDBRANCH   1   2
BRANCH   1  26
ATOM     26  C   UNL A   1      31.635  31.842  26.667  1.00  0.00     0.023 C 
BRANCH  26  27
ATOM     27  C   UNL A   1      32.764  32.621  27.328  1.00  0.00     0.116 C 
BRANCH  27  28
ATOM     28  N   UNL A   1      32.400  33.990  27.654  1.00  0.00    -0.352 N 
ATOM     29  C   UNL A   1      32.970  34.842  28.568  1.00  0.00     0.251 C 
ATOM     30  H   UNL A   1      31.638  34.358  27.149  1.00  0.00     0.163 HD
ATOM     31  O   UNL A   1      32.470  35.939  28.789  1.00  0.00    -0.269 OA
BRANCH  29  32
ATOM     32  C   UNL A   1      34.172  34.416  29.313  1.00  0.00     0.039 A 
ATOM     33  C   UNL A   1      34.009  33.837  30.575  1.00  0.00     0.014 A 
ATOM     34  C   UNL A   1      35.449  34.576  28.767  1.00  0.00     0.014 A 
ATOM     35  C   UNL A   1      35.121  33.344  31.260  1.00  0.00     0.010 A 
ATOM     36  C   UNL A   1      36.552  34.047  29.431  1.00  0.00     0.010 A 
ATOM     37  C   UNL A   1      36.394  33.417  30.675  1.00  0.00    -0.014 A 
BRANCH  37  38
ATOM     38  C   UNL A   1      37.583  32.833  31.337  1.00  0.00     0.031 A 
ATOM     39  C   UNL A   1      38.348  31.737  30.662  1.00  0.00     0.074 A 
ATOM     40  C   UNL A   1      37.912  33.223  32.582  1.00  0.00     0.049 A 
ATOM     41  N   UNL A   1      39.275  30.955  31.151  1.00  0.00    -0.248 NA
ATOM     42  C   UNL A   1      38.006  31.466  29.257  1.00  0.00     0.031 C 
ATOM     43  C   UNL A   1      37.228  34.258  33.357  1.00  0.00     0.029 A 
ATOM     44  N   UNL A   1      38.901  32.775  33.421  1.00  0.00    -0.354 N 
ATOM     45  C   UNL A   1      39.579  30.057  30.139  1.00  0.00     0.074 A 
ATOM     46  C   UNL A   1      38.760  30.407  28.997  1.00  0.00     0.031 C 
ATOM     47  C   UNL A   1      37.824  34.376  34.555  1.00  0.00     0.029 A 
ATOM     48  C   UNL A   1      38.910  33.402  34.641  1.00  0.00     0.049 A 
ATOM     49  H   UNL A   1      39.541  32.071  33.172  1.00  0.00     0.167 HD
ATOM     50  C   UNL A   1      40.448  29.020  30.171  1.00  0.00     0.037 A 
ATOM     51  C   UNL A   1      39.699  33.203  35.712  1.00  0.00     0.037 A 
ATOM     52  C   UNL A   1      41.299  28.702  31.285  1.00  0.00     0.049 A 
ATOM     53  C   UNL A   1      40.754  32.138  35.668  1.00  0.00     0.074 A 
ATOM     54  C   UNL A   1      42.206  27.664  31.417  1.00  0.00     0.029 A 
ATOM     55  N   UNL A   1      41.364  29.444  32.455  1.00  0.00    -0.354 N 
ATOM     56  N   UNL A   1      41.002  31.265  34.724  1.00  0.00    -0.248 NA
ATOM     57  C   UNL A   1      41.635  32.027  36.839  1.00  0.00     0.031 C 
ATOM     58  C   UNL A   1      42.830  27.787  32.665  1.00  0.00     0.029 A 
ATOM     59  C   UNL A   1      42.317  28.904  33.302  1.00  0.00     0.049 A 
ATOM     60  H   UNL A   1      40.816  30.236  32.652  1.00  0.00     0.167 HD
ATOM     61  C   UNL A   1      42.063  30.501  35.183  1.00  0.00     0.074 A 
ATOM     62  C   UNL A   1      42.425  31.022  36.485  1.00  0.00     0.031 C 
ATOM     63  C   UNL A   1      42.673  29.452  34.582  1.00  0.00     0.037 A 
BRANCH  50  64
ATOM     64  C   UNL A   1      40.495  28.136  28.966  1.00  0.00     0.064 A 
ATOM     65  C   UNL A   1      41.277  28.459  27.851  1.00  0.00     0.173 A 
ATOM     66  C   UNL A   1      39.748  26.950  28.935  1.00  0.00     0.173 A 
ATOM     67  F   UNL A   1      41.988  29.595  27.833  1.00  0.00    -0.203 F 
ATOM     68  C   UNL A   1      41.302  27.625  26.736  1.00  0.00     0.198 A 
ATOM     69  C   UNL A   1      39.785  26.113  27.823  1.00  0.00     0.198 A 
ATOM     70  F   UNL A   1      38.979  26.608  29.979  1.00  0.00    -0.203 F 
ATOM     71  F   UNL A   1      42.034  27.962  25.665  1.00  0.00    -0.200 F 
ATOM     72  C   UNL A   1      40.560  26.452  26.723  1.00  0.00     0.200 A 
ATOM     73  F   UNL A   1      39.065  24.982  27.811  1.00  0.00    -0.200 F 
ATOM     74  F   UNL A   1      40.582  25.655  25.647  1.00  0.00    -0.200 F 
ENDBRANCH  50  64
BRANCH  51  75
ATOM     75  C   UNL A   1      39.527  34.052  36.912  1.00  0.00     0.064 A 
ATOM     76  C   UNL A   1      38.754  33.607  37.993  1.00  0.00     0.173 A 
ATOM     77  C   UNL A   1      40.144  35.304  37.013  1.00  0.00     0.173 A 
ATOM     78  F   UNL A   1      38.132  32.421  37.926  1.00  0.00    -0.203 F 
ATOM     79  C   UNL A   1      38.600  34.391  39.132  1.00  0.00     0.198 A 
ATOM     80  C   UNL A   1      39.998  36.084  38.159  1.00  0.00     0.198 A 
ATOM     81  F   UNL A   1      40.894  35.766  36.001  1.00  0.00    -0.203 F 
ATOM     82  F   UNL A   1      37.841  33.954  40.147  1.00  0.00    -0.200 F 
ATOM     83  C   UNL A   1      39.225  35.627  39.216  1.00  0.00     0.200 A 
ATOM     84  F   UNL A   1      40.604  37.275  38.240  1.00  0.00    -0.200 F 
ATOM     85  F   UNL A   1      39.078  36.380  40.315  1.00  0.00    -0.200 F 
ENDBRANCH  51  75
BRANCH  63  86
ATOM     86  C   UNL A   1      43.808  28.817  35.319  1.00  0.00     0.064 A 
ATOM     87  C   UNL A   1      43.579  27.805  36.262  1.00  0.00     0.173 A 
ATOM     88  C   UNL A   1      45.129  29.195  35.054  1.00  0.00     0.173 A 
ATOM     89  F   UNL A   1      42.327  27.424  36.552  1.00  0.00    -0.203 F 
ATOM     90  C   UNL A   1      44.642  27.196  36.922  1.00  0.00     0.198 A 
ATOM     91  C   UNL A   1      46.190  28.579  35.711  1.00  0.00     0.198 A 
ATOM     92  F   UNL A   1      45.389  30.164  34.163  1.00  0.00    -0.203 F 
ATOM     93  F   UNL A   1      44.407  26.241  37.831  1.00  0.00    -0.200 F 
ATOM     94  C   UNL A   1      45.946  27.581  36.644  1.00  0.00     0.200 A 
ATOM     95  F   UNL A   1      47.449  28.955  35.447  1.00  0.00    -0.200 F 
ATOM     96  F   UNL A   1      46.968  26.995  37.282  1.00  0.00    -0.200 F 
ENDBRANCH  63  86
ENDBRANCH  37  38
ENDBRANCH  29  32
ENDBRANCH  27  28
ENDBRANCH  26  27
ENDBRANCH   1  26
TORSDOF 15
ENDMDL
