MODEL 1
REMARK VINA RESULT:     -10.3      0.000      0.000
REMARK SMILES COc1ccc(N2CCN(c3ccc(NS(=O)(=O)c4cccs4)cc3C(=O)NCCCCNC(=O)c3ccc(-c4c5nc(c(-c6c(F)c(F)c(F)c(F)c6F)c6ccc([nH]6)c(-c6c(F)c(F)c(F)c(F)c6F)c6nc(c(-c7c(F)c(F)c(F)c(F)c7F)c7ccc4[nH]7)C=C6)C=C5)cc3)CC2)cc1
REMARK SMILES IDX 30 1 29 2 28 3 26 4 27 5 25 7 11 8 12 9 13 10 24 11 14 12
REMARK SMILES IDX 10 13 7 14 8 15 100 16 9 17 99 18 6 19 3 20 4 21 102 22 5 23
REMARK SMILES IDX 101 24 2 25 1 26 15 27 16 29 17 30 18 31 19 32 20 33 23 34
REMARK SMILES IDX 21 35 22 36 31 37 32 38 33 39 34 40 35 42 36 43 37 44 98 45
REMARK SMILES IDX 38 46 97 47 39 48 40 49 41 50 91 51 42 52 96 53 90 54 92 55
REMARK SMILES IDX 43 56 95 57 89 58 88 59 44 61 76 62 56 63 75 64 57 65 60 66
REMARK SMILES IDX 74 67 93 68 58 69 59 70 73 72 94 73 61 74 45 75 46 76 54 77
REMARK SMILES IDX 47 78 48 79 52 80 55 81 49 82 50 83 53 84 51 85 77 86 78 87
REMARK SMILES IDX 86 88 79 89 80 90 84 91 87 92 81 93 82 94 85 95 83 96 62 97
REMARK SMILES IDX 63 98 71 99 64 100 65 101 69 102 72 103 66 104 67 105 70 106
REMARK SMILES IDX 68 107
REMARK H PARENT 28 6 15 28 33 41 92 60 60 71
REMARK Flexibility Score: inf
ROOT
ATOM      1  C   UNL A   1      45.131  25.304  30.727  1.00  0.00     0.023 C 
ENDROOT
BRANCH   1   2
ATOM      2  C   UNL A   1      45.602  24.043  29.996  1.00  0.00     0.116 C 
BRANCH   2   3
ATOM      3  N   UNL A   1      44.484  23.503  29.243  1.00  0.00    -0.352 N 
ATOM      4  C   UNL A   1      44.045  23.634  27.952  1.00  0.00     0.253 C 
ATOM      5  O   UNL A   1      42.827  23.460  27.808  1.00  0.00    -0.269 OA
ATOM      6  H   UNL A   1      43.911  22.910  29.782  1.00  0.00     0.163 HD
BRANCH   4   7
ATOM      7  C   UNL A   1      44.884  23.758  26.715  1.00  0.00     0.065 A 
ATOM      8  C   UNL A   1      45.660  24.833  26.241  1.00  0.00     0.050 A 
ATOM      9  C   UNL A   1      46.502  24.588  25.133  1.00  0.00     0.029 A 
ATOM     10  C   UNL A   1      46.443  23.408  24.391  1.00  0.00     0.029 A 
ATOM     11  C   UNL A   1      44.787  22.602  25.892  1.00  0.00     0.042 A 
ATOM     12  C   UNL A   1      45.491  22.455  24.697  1.00  0.00     0.050 A 
BRANCH   8  13
ATOM     13  N   UNL A   1      45.491  26.165  26.643  1.00  0.00    -0.367 N 
ATOM     14  N   UNL A   1      45.298  28.996  27.164  1.00  0.00    -0.368 N 
ATOM     15  C   UNL A   1      44.471  28.387  26.095  1.00  0.00     0.138 C 
ATOM     16  C   UNL A   1      46.117  28.096  28.025  1.00  0.00     0.138 C 
ATOM     17  C   UNL A   1      45.008  27.048  25.548  1.00  0.00     0.138 C 
ATOM     18  C   UNL A   1      46.613  26.816  27.349  1.00  0.00     0.138 C 
BRANCH  14  19
ATOM     19  C   UNL A   1      44.833  30.171  27.776  1.00  0.00     0.037 A 
ATOM     20  C   UNL A   1      43.659  32.447  29.050  1.00  0.00     0.119 A 
ATOM     21  C   UNL A   1      43.874  32.428  27.675  1.00  0.00     0.048 A 
ATOM     22  C   UNL A   1      44.060  31.345  29.796  1.00  0.00     0.048 A 
ATOM     23  C   UNL A   1      44.465  31.318  27.053  1.00  0.00     0.030 A 
ATOM     24  C   UNL A   1      44.637  30.229  29.164  1.00  0.00     0.030 A 
BRANCH  20  25
ATOM     25  O   UNL A   1      43.034  33.565  29.524  1.00  0.00    -0.497 OA
ATOM     26  C   UNL A   1      41.742  33.389  30.092  1.00  0.00     0.278 C 
ENDBRANCH  20  25
ENDBRANCH  14  19
ENDBRANCH   8  13
BRANCH  12  27
ATOM     27  N   UNL A   1      44.951  21.531  23.749  1.00  0.00    -0.279 N 
ATOM     28  H   UNL A   1      44.494  21.908  22.962  1.00  0.00     0.180 HD
BRANCH  27  29
ATOM     29  S   UNL A   1      45.030  19.863  23.864  1.00  0.00     0.271 S 
ATOM     30  O   UNL A   1      44.372  19.311  22.699  1.00  0.00    -0.200 OA
ATOM     31  O   UNL A   1      46.403  19.527  24.173  1.00  0.00    -0.200 OA
BRANCH  29  32
ATOM     32  C   UNL A   1      44.080  19.244  25.237  1.00  0.00     0.140 A 
ATOM     33  C   UNL A   1      44.260  18.122  26.026  1.00  0.00     0.034 A 
ATOM     34  S   UNL A   1      42.655  20.090  25.671  1.00  0.00    -0.131 S 
ATOM     35  C   UNL A   1      43.139  17.864  26.865  1.00  0.00     0.013 A 
ATOM     36  C   UNL A   1      42.169  18.834  26.733  1.00  0.00     0.066 A 
ENDBRANCH  29  32
ENDBRANCH  27  29
ENDBRANCH  12  27
ENDBRANCH   4   7
ENDBRANCH   2   3
ENDBRANCH   1   2
BRANCH   1  37
ATOM     37  C   UNL A   1      46.164  26.198  31.410  1.00  0.00     0.023 C 
BRANCH  37  38
ATOM     38  C   UNL A   1      46.874  25.692  32.655  1.00  0.00     0.116 C 
BRANCH  38  39
ATOM     39  N   UNL A   1      48.095  26.393  33.011  1.00  0.00    -0.352 N 
ATOM     40  C   UNL A   1      48.271  27.424  33.904  1.00  0.00     0.251 C 
ATOM     41  H   UNL A   1      48.909  26.089  32.548  1.00  0.00     0.163 HD
ATOM     42  O   UNL A   1      49.361  27.735  34.365  1.00  0.00    -0.269 OA
BRANCH  40  43
ATOM     43  C   UNL A   1      47.110  28.294  34.105  1.00  0.00     0.039 A 
ATOM     44  C   UNL A   1      46.935  29.310  33.157  1.00  0.00     0.014 A 
ATOM     45  C   UNL A   1      46.092  27.909  34.971  1.00  0.00     0.014 A 
ATOM     46  C   UNL A   1      45.682  29.876  32.987  1.00  0.00     0.010 A 
ATOM     47  C   UNL A   1      44.825  28.420  34.746  1.00  0.00     0.010 A 
ATOM     48  C   UNL A   1      44.611  29.382  33.738  1.00  0.00    -0.014 A 
BRANCH  48  49
ATOM     49  C   UNL A   1      43.235  29.878  33.543  1.00  0.00     0.031 A 
ATOM     50  C   UNL A   1      42.452  29.293  32.414  1.00  0.00     0.074 A 
ATOM     51  C   UNL A   1      42.771  30.907  34.274  1.00  0.00     0.049 A 
ATOM     52  N   UNL A   1      41.373  29.739  31.835  1.00  0.00    -0.248 NA
ATOM     53  C   UNL A   1      43.002  28.062  31.820  1.00  0.00     0.031 C 
ATOM     54  C   UNL A   1      43.464  31.537  35.401  1.00  0.00     0.029 A 
ATOM     55  N   UNL A   1      41.612  31.630  34.152  1.00  0.00    -0.354 N 
ATOM     56  C   UNL A   1      41.143  28.871  30.778  1.00  0.00     0.074 A 
ATOM     57  C   UNL A   1      42.215  27.900  30.770  1.00  0.00     0.031 C 
ATOM     58  C   UNL A   1      42.718  32.555  35.862  1.00  0.00     0.029 A 
ATOM     59  C   UNL A   1      41.528  32.686  35.028  1.00  0.00     0.049 A 
ATOM     60  H   UNL A   1      40.907  31.413  33.500  1.00  0.00     0.167 HD
ATOM     61  C   UNL A   1      40.116  28.886  29.900  1.00  0.00     0.037 A 
ATOM     62  C   UNL A   1      40.607  33.665  35.109  1.00  0.00     0.037 A 
ATOM     63  C   UNL A   1      39.046  29.843  29.959  1.00  0.00     0.049 A 
ATOM     64  C   UNL A   1      39.479  33.669  34.109  1.00  0.00     0.074 A 
ATOM     65  C   UNL A   1      37.921  29.931  29.164  1.00  0.00     0.029 A 
ATOM     66  N   UNL A   1      38.974  30.878  30.882  1.00  0.00    -0.354 N 
ATOM     67  N   UNL A   1      39.246  32.835  33.122  1.00  0.00    -0.248 NA
ATOM     68  C   UNL A   1      38.496  34.755  34.222  1.00  0.00     0.031 C 
ATOM     69  C   UNL A   1      37.185  31.044  29.582  1.00  0.00     0.029 A 
ATOM     70  C   UNL A   1      37.831  31.625  30.664  1.00  0.00     0.049 A 
ATOM     71  H   UNL A   1      39.639  31.055  31.587  1.00  0.00     0.167 HD
ATOM     72  C   UNL A   1      38.083  33.282  32.509  1.00  0.00     0.074 A 
ATOM     73  C   UNL A   1      37.649  34.452  33.247  1.00  0.00     0.031 C 
ATOM     74  C   UNL A   1      37.432  32.777  31.432  1.00  0.00     0.037 A 
BRANCH  61  75
ATOM     75  C   UNL A   1      40.124  27.853  28.815  1.00  0.00     0.064 A 
ATOM     76  C   UNL A   1      39.484  26.614  28.971  1.00  0.00     0.173 A 
ATOM     77  C   UNL A   1      40.795  28.098  27.608  1.00  0.00     0.173 A 
ATOM     78  F   UNL A   1      38.850  26.320  30.116  1.00  0.00    -0.203 F 
ATOM     79  C   UNL A   1      39.548  25.645  27.973  1.00  0.00     0.198 A 
ATOM     80  C   UNL A   1      40.828  27.139  26.599  1.00  0.00     0.198 A 
ATOM     81  F   UNL A   1      41.428  29.264  27.410  1.00  0.00    -0.203 F 
ATOM     82  F   UNL A   1      38.987  24.443  28.173  1.00  0.00    -0.200 F 
ATOM     83  C   UNL A   1      40.214  25.910  26.787  1.00  0.00     0.200 A 
ATOM     84  F   UNL A   1      41.467  27.399  25.450  1.00  0.00    -0.200 F 
ATOM     85  F   UNL A   1      40.274  24.976  25.828  1.00  0.00    -0.200 F 
ENDBRANCH  61  75
BRANCH  62  86
ATOM     86  C   UNL A   1      40.714  34.718  36.155  1.00  0.00     0.064 A 
ATOM     87  C   UNL A   1      39.836  34.735  37.248  1.00  0.00     0.173 A 
ATOM     88  C   UNL A   1      41.683  35.730  36.086  1.00  0.00     0.173 A 
ATOM     89  F   UNL A   1      38.877  33.802  37.348  1.00  0.00    -0.203 F 
ATOM     90  C   UNL A   1      39.910  35.730  38.220  1.00  0.00     0.198 A 
ATOM     91  C   UNL A   1      41.775  36.711  37.073  1.00  0.00     0.198 A 
ATOM     92  F   UNL A   1      42.550  35.764  35.062  1.00  0.00    -0.203 F 
ATOM     93  F   UNL A   1      39.029  35.746  39.229  1.00  0.00    -0.200 F 
ATOM     94  C   UNL A   1      40.883  36.714  38.135  1.00  0.00     0.200 A 
ATOM     95  F   UNL A   1      42.724  37.654  36.994  1.00  0.00    -0.200 F 
ATOM     96  F   UNL A   1      40.956  37.670  39.072  1.00  0.00    -0.200 F 
ENDBRANCH  62  86
BRANCH  74  97
ATOM     97  C   UNL A   1      36.176  33.473  31.005  1.00  0.00     0.064 A 
ATOM     98  C   UNL A   1      35.066  33.562  31.856  1.00  0.00     0.173 A 
ATOM     99  C   UNL A   1      36.115  34.124  29.764  1.00  0.00     0.173 A 
ATOM    100  F   UNL A   1      35.075  32.942  33.045  1.00  0.00    -0.203 F 
ATOM    101  C   UNL A   1      33.932  34.274  31.475  1.00  0.00     0.198 A 
ATOM    102  C   UNL A   1      34.991  34.858  29.399  1.00  0.00     0.198 A 
ATOM    103  F   UNL A   1      37.157  34.072  28.921  1.00  0.00    -0.203 F 
ATOM    104  F   UNL A   1      32.870  34.322  32.288  1.00  0.00    -0.200 F 
ATOM    105  C   UNL A   1      33.900  34.929  30.252  1.00  0.00     0.200 A 
ATOM    106  F   UNL A   1      34.968  35.504  28.225  1.00  0.00    -0.200 F 
ATOM    107  F   UNL A   1      32.815  35.630  29.895  1.00  0.00    -0.200 F 
ENDBRANCH  74  97
ENDBRANCH  48  49
ENDBRANCH  40  43
ENDBRANCH  38  39
ENDBRANCH  37  38
ENDBRANCH   1  37
TORSDOF 17
ENDMDL
MODEL 2
REMARK VINA RESULT:      -9.8      7.464     13.840
REMARK SMILES COc1ccc(N2CCN(c3ccc(NS(=O)(=O)c4cccs4)cc3C(=O)NCCCCNC(=O)c3ccc(-c4c5nc(c(-c6c(F)c(F)c(F)c(F)c6F)c6ccc([nH]6)c(-c6c(F)c(F)c(F)c(F)c6F)c6nc(c(-c7c(F)c(F)c(F)c(F)c7F)c7ccc4[nH]7)C=C6)C=C5)cc3)CC2)cc1
REMARK SMILES IDX 30 1 29 2 28 3 26 4 27 5 25 7 11 8 12 9 13 10 24 11 14 12
REMARK SMILES IDX 10 13 7 14 8 15 100 16 9 17 99 18 6 19 3 20 4 21 102 22 5 23
REMARK SMILES IDX 101 24 2 25 1 26 15 27 16 29 17 30 18 31 19 32 20 33 23 34
REMARK SMILES IDX 21 35 22 36 31 37 32 38 33 39 34 40 35 42 36 43 37 44 98 45
REMARK SMILES IDX 38 46 97 47 39 48 40 49 41 50 91 51 42 52 96 53 90 54 92 55
REMARK SMILES IDX 43 56 95 57 89 58 88 59 44 61 76 62 56 63 75 64 57 65 60 66
REMARK SMILES IDX 74 67 93 68 58 69 59 70 73 72 94 73 61 74 45 75 46 76 54 77
REMARK SMILES IDX 47 78 48 79 52 80 55 81 49 82 50 83 53 84 51 85 77 86 78 87
REMARK SMILES IDX 86 88 79 89 80 90 84 91 87 92 81 93 82 94 85 95 83 96 62 97
REMARK SMILES IDX 63 98 71 99 64 100 65 101 69 102 72 103 66 104 67 105 70 106
REMARK SMILES IDX 68 107
REMARK H PARENT 28 6 15 28 33 41 92 60 60 71
REMARK Flexibility Score: inf
ROOT
ATOM      1  C   UNL A   1      47.239  35.512  26.098  1.00  0.00     0.023 C 
ENDROOT
BRANCH   1   2
ATOM      2  C   UNL A   1      46.063  36.489  26.008  1.00  0.00     0.116 C 
BRANCH   2   3
ATOM      3  N   UNL A   1      46.591  37.828  25.817  1.00  0.00    -0.352 N 
ATOM      4  C   UNL A   1      46.058  39.088  25.886  1.00  0.00     0.253 C 
ATOM      5  O   UNL A   1      46.640  39.926  25.184  1.00  0.00    -0.269 OA
ATOM      6  H   UNL A   1      47.548  37.832  25.585  1.00  0.00     0.163 HD
BRANCH   4   7
ATOM      7  C   UNL A   1      45.013  39.582  26.842  1.00  0.00     0.065 A 
ATOM      8  C   UNL A   1      43.817  40.286  26.604  1.00  0.00     0.050 A 
ATOM      9  C   UNL A   1      42.931  40.449  27.693  1.00  0.00     0.029 A 
ATOM     10  C   UNL A   1      43.283  40.120  29.002  1.00  0.00     0.029 A 
ATOM     11  C   UNL A   1      45.374  39.335  28.195  1.00  0.00     0.042 A 
ATOM     12  C   UNL A   1      44.561  39.673  29.276  1.00  0.00     0.050 A 
BRANCH   8  13
ATOM     13  N   UNL A   1      43.551  41.018  25.439  1.00  0.00    -0.367 N 
ATOM     14  N   UNL A   1      43.013  42.814  23.245  1.00  0.00    -0.368 N 
ATOM     15  C   UNL A   1      44.350  42.814  23.885  1.00  0.00     0.138 C 
ATOM     16  C   UNL A   1      42.021  41.789  23.680  1.00  0.00     0.138 C 
ATOM     17  C   UNL A   1      44.380  42.248  25.320  1.00  0.00     0.138 C 
ATOM     18  C   UNL A   1      42.141  41.338  25.137  1.00  0.00     0.138 C 
BRANCH  14  19
ATOM     19  C   UNL A   1      42.916  43.232  21.909  1.00  0.00     0.037 A 
ATOM     20  C   UNL A   1      42.698  44.322  19.274  1.00  0.00     0.119 A 
ATOM     21  C   UNL A   1      41.628  43.656  19.863  1.00  0.00     0.048 A 
ATOM     22  C   UNL A   1      43.889  44.416  19.983  1.00  0.00     0.048 A 
ATOM     23  C   UNL A   1      41.740  43.107  21.150  1.00  0.00     0.030 A 
ATOM     24  C   UNL A   1      43.990  43.878  21.279  1.00  0.00     0.030 A 
BRANCH  20  25
ATOM     25  O   UNL A   1      42.443  44.850  18.040  1.00  0.00    -0.497 OA
ATOM     26  C   UNL A   1      43.466  45.650  17.458  1.00  0.00     0.278 C 
ENDBRANCH  20  25
ENDBRANCH  14  19
ENDBRANCH   8  13
BRANCH  12  27
ATOM     27  N   UNL A   1      45.214  39.841  30.537  1.00  0.00    -0.279 N 
ATOM     28  H   UNL A   1      45.150  39.099  31.180  1.00  0.00     0.180 HD
BRANCH  27  29
ATOM     29  S   UNL A   1      46.079  41.194  31.010  1.00  0.00     0.271 S 
ATOM     30  O   UNL A   1      45.561  41.619  32.294  1.00  0.00    -0.200 OA
ATOM     31  O   UNL A   1      47.481  40.878  30.841  1.00  0.00    -0.200 OA
BRANCH  29  32
ATOM     32  C   UNL A   1      45.783  42.584  29.937  1.00  0.00     0.140 A 
ATOM     33  C   UNL A   1      46.505  43.059  28.858  1.00  0.00     0.034 A 
ATOM     34  S   UNL A   1      44.434  43.584  30.275  1.00  0.00    -0.131 S 
ATOM     35  C   UNL A   1      46.051  44.336  28.423  1.00  0.00     0.013 A 
ATOM     36  C   UNL A   1      44.957  44.762  29.144  1.00  0.00     0.066 A 
ENDBRANCH  29  32
ENDBRANCH  27  29
ENDBRANCH  12  27
ENDBRANCH   4   7
ENDBRANCH   2   3
ENDBRANCH   1   2
BRANCH   1  37
ATOM     37  C   UNL A   1      48.492  35.921  26.869  1.00  0.00     0.023 C 
BRANCH  37  38
ATOM     38  C   UNL A   1      48.552  35.677  28.368  1.00  0.00     0.116 C 
BRANCH  38  39
ATOM     39  N   UNL A   1      48.004  36.735  29.199  1.00  0.00    -0.352 N 
ATOM     40  C   UNL A   1      47.097  36.643  30.229  1.00  0.00     0.251 C 
ATOM     41  H   UNL A   1      48.328  37.643  28.997  1.00  0.00     0.163 HD
ATOM     42  O   UNL A   1      46.938  37.525  31.063  1.00  0.00    -0.269 OA
BRANCH  40  43
ATOM     43  C   UNL A   1      46.155  35.525  30.147  1.00  0.00     0.039 A 
ATOM     44  C   UNL A   1      45.152  35.641  29.177  1.00  0.00     0.014 A 
ATOM     45  C   UNL A   1      46.459  34.311  30.754  1.00  0.00     0.014 A 
ATOM     46  C   UNL A   1      44.516  34.499  28.714  1.00  0.00     0.010 A 
ATOM     47  C   UNL A   1      45.879  33.166  30.236  1.00  0.00     0.010 A 
ATOM     48  C   UNL A   1      44.928  33.254  29.199  1.00  0.00    -0.014 A 
BRANCH  48  49
ATOM     49  C   UNL A   1      44.355  31.996  28.684  1.00  0.00     0.031 A 
ATOM     50  C   UNL A   1      43.000  31.609  29.179  1.00  0.00     0.074 A 
ATOM     51  C   UNL A   1      45.091  31.178  27.909  1.00  0.00     0.049 A 
ATOM     52  N   UNL A   1      42.403  30.451  29.141  1.00  0.00    -0.248 NA
ATOM     53  C   UNL A   1      42.240  32.668  29.865  1.00  0.00     0.031 C 
ATOM     54  C   UNL A   1      46.421  31.477  27.373  1.00  0.00     0.029 A 
ATOM     55  N   UNL A   1      44.832  29.907  27.466  1.00  0.00    -0.354 N 
ATOM     56  C   UNL A   1      41.219  30.630  29.841  1.00  0.00     0.074 A 
ATOM     57  C   UNL A   1      41.202  31.992  30.327  1.00  0.00     0.031 C 
ATOM     58  C   UNL A   1      46.863  30.415  26.679  1.00  0.00     0.029 A 
ATOM     59  C   UNL A   1      45.876  29.344  26.772  1.00  0.00     0.049 A 
ATOM     60  H   UNL A   1      43.981  29.441  27.630  1.00  0.00     0.167 HD
ATOM     61  C   UNL A   1      40.232  29.730  30.046  1.00  0.00     0.037 A 
ATOM     62  C   UNL A   1      46.022  28.090  26.303  1.00  0.00     0.037 A 
ATOM     63  C   UNL A   1      40.265  28.395  29.517  1.00  0.00     0.049 A 
ATOM     64  C   UNL A   1      44.914  27.100  26.558  1.00  0.00     0.074 A 
ATOM     65  C   UNL A   1      39.305  27.407  29.608  1.00  0.00     0.029 A 
ATOM     66  N   UNL A   1      41.322  27.869  28.786  1.00  0.00    -0.354 N 
ATOM     67  N   UNL A   1      43.781  27.273  27.200  1.00  0.00    -0.248 NA
ATOM     68  C   UNL A   1      45.107  25.739  26.040  1.00  0.00     0.031 C 
ATOM     69  C   UNL A   1      39.797  26.268  28.963  1.00  0.00     0.029 A 
ATOM     70  C   UNL A   1      41.047  26.561  28.435  1.00  0.00     0.049 A 
ATOM     71  H   UNL A   1      42.146  28.356  28.554  1.00  0.00     0.167 HD
ATOM     72  C   UNL A   1      43.120  26.053  27.147  1.00  0.00     0.074 A 
ATOM     73  C   UNL A   1      43.971  25.153  26.395  1.00  0.00     0.031 C 
ATOM     74  C   UNL A   1      41.921  25.703  27.674  1.00  0.00     0.037 A 
BRANCH  61  75
ATOM     75  C   UNL A   1      39.067  30.166  30.881  1.00  0.00     0.064 A 
ATOM     76  C   UNL A   1      37.948  30.796  30.315  1.00  0.00     0.173 A 
ATOM     77  C   UNL A   1      39.076  29.968  32.270  1.00  0.00     0.173 A 
ATOM     78  F   UNL A   1      37.902  31.032  28.995  1.00  0.00    -0.203 F 
ATOM     79  C   UNL A   1      36.898  31.243  31.112  1.00  0.00     0.198 A 
ATOM     80  C   UNL A   1      38.009  30.387  33.060  1.00  0.00     0.198 A 
ATOM     81  F   UNL A   1      40.124  29.376  32.862  1.00  0.00    -0.203 F 
ATOM     82  F   UNL A   1      35.872  31.903  30.556  1.00  0.00    -0.200 F 
ATOM     83  C   UNL A   1      36.926  31.033  32.482  1.00  0.00     0.200 A 
ATOM     84  F   UNL A   1      38.034  30.176  34.383  1.00  0.00    -0.200 F 
ATOM     85  F   UNL A   1      35.915  31.465  33.248  1.00  0.00    -0.200 F 
ENDBRANCH  61  75
BRANCH  62  86
ATOM     86  C   UNL A   1      47.251  27.697  25.564  1.00  0.00     0.064 A 
ATOM     87  C   UNL A   1      48.391  27.255  26.251  1.00  0.00     0.173 A 
ATOM     88  C   UNL A   1      47.321  27.759  24.164  1.00  0.00     0.173 A 
ATOM     89  F   UNL A   1      48.382  27.200  27.591  1.00  0.00    -0.203 F 
ATOM     90  C   UNL A   1      49.556  26.909  25.570  1.00  0.00     0.198 A 
ATOM     91  C   UNL A   1      48.479  27.386  23.481  1.00  0.00     0.198 A 
ATOM     92  F   UNL A   1      46.261  28.174  23.454  1.00  0.00    -0.203 F 
ATOM     93  F   UNL A   1      50.644  26.533  26.257  1.00  0.00    -0.200 F 
ATOM     94  C   UNL A   1      49.598  26.969  24.186  1.00  0.00     0.200 A 
ATOM     95  F   UNL A   1      48.511  27.434  22.142  1.00  0.00    -0.200 F 
ATOM     96  F   UNL A   1      50.719  26.633  23.531  1.00  0.00    -0.200 F 
ENDBRANCH  62  86
BRANCH  74  97
ATOM     97  C   UNL A   1      41.453  24.300  27.436  1.00  0.00     0.064 A 
ATOM     98  C   UNL A   1      42.066  23.209  28.066  1.00  0.00     0.173 A 
ATOM     99  C   UNL A   1      40.330  24.056  26.631  1.00  0.00     0.173 A 
ATOM    100  F   UNL A   1      43.151  23.395  28.832  1.00  0.00    -0.203 F 
ATOM    101  C   UNL A   1      41.575  21.919  27.893  1.00  0.00     0.198 A 
ATOM    102  C   UNL A   1      39.826  22.769  26.483  1.00  0.00     0.198 A 
ATOM    103  F   UNL A   1      39.707  25.071  26.014  1.00  0.00    -0.203 F 
ATOM    104  F   UNL A   1      42.193  20.885  28.479  1.00  0.00    -0.200 F 
ATOM    105  C   UNL A   1      40.450  21.702  27.110  1.00  0.00     0.200 A 
ATOM    106  F   UNL A   1      38.729  22.563  25.740  1.00  0.00    -0.200 F 
ATOM    107  F   UNL A   1      39.967  20.460  26.960  1.00  0.00    -0.200 F 
ENDBRANCH  74  97
ENDBRANCH  48  49
ENDBRANCH  40  43
ENDBRANCH  38  39
ENDBRANCH  37  38
ENDBRANCH   1  37
TORSDOF 17
ENDMDL
MODEL 3
REMARK VINA RESULT:      -9.8      5.057     11.574
REMARK SMILES COc1ccc(N2CCN(c3ccc(NS(=O)(=O)c4cccs4)cc3C(=O)NCCCCNC(=O)c3ccc(-c4c5nc(c(-c6c(F)c(F)c(F)c(F)c6F)c6ccc([nH]6)c(-c6c(F)c(F)c(F)c(F)c6F)c6nc(c(-c7c(F)c(F)c(F)c(F)c7F)c7ccc4[nH]7)C=C6)C=C5)cc3)CC2)cc1
REMARK SMILES IDX 30 1 29 2 28 3 26 4 27 5 25 7 11 8 12 9 13 10 24 11 14 12
REMARK SMILES IDX 10 13 7 14 8 15 100 16 9 17 99 18 6 19 3 20 4 21 102 22 5 23
REMARK SMILES IDX 101 24 2 25 1 26 15 27 16 29 17 30 18 31 19 32 20 33 23 34
REMARK SMILES IDX 21 35 22 36 31 37 32 38 33 39 34 40 35 42 36 43 37 44 98 45
REMARK SMILES IDX 38 46 97 47 39 48 40 49 41 50 91 51 42 52 96 53 90 54 92 55
REMARK SMILES IDX 43 56 95 57 89 58 88 59 44 61 76 62 56 63 75 64 57 65 60 66
REMARK SMILES IDX 74 67 93 68 58 69 59 70 73 72 94 73 61 74 45 75 46 76 54 77
REMARK SMILES IDX 47 78 48 79 52 80 55 81 49 82 50 83 53 84 51 85 77 86 78 87
REMARK SMILES IDX 86 88 79 89 80 90 84 91 87 92 81 93 82 94 85 95 83 96 62 97
REMARK SMILES IDX 63 98 71 99 64 100 65 101 69 102 72 103 66 104 67 105 70 106
REMARK SMILES IDX 68 107
REMARK H PARENT 28 6 15 28 33 41 92 60 60 71
REMARK Flexibility Score: inf
ROOT
ATOM      1  C   UNL A   1      39.149  33.482  32.605  1.00  0.00     0.023 C 
ENDROOT
BRANCH   1   2
ATOM      2  C   UNL A   1      37.872  33.031  31.889  1.00  0.00     0.116 C 
BRANCH   2   3
ATOM      3  N   UNL A   1      37.689  31.610  32.124  1.00  0.00    -0.352 N 
ATOM      4  C   UNL A   1      36.907  30.637  31.560  1.00  0.00     0.253 C 
ATOM      5  O   UNL A   1      36.637  29.697  32.320  1.00  0.00    -0.269 OA
ATOM      6  H   UNL A   1      38.255  31.268  32.854  1.00  0.00     0.163 HD
BRANCH   4   7
ATOM      7  C   UNL A   1      36.531  30.497  30.115  1.00  0.00     0.065 A 
ATOM      8  C   UNL A   1      37.105  29.718  29.093  1.00  0.00     0.050 A 
ATOM      9  C   UNL A   1      36.411  29.643  27.864  1.00  0.00     0.029 A 
ATOM     10  C   UNL A   1      35.313  30.452  27.572  1.00  0.00     0.029 A 
ATOM     11  C   UNL A   1      35.464  31.368  29.759  1.00  0.00     0.042 A 
ATOM     12  C   UNL A   1      34.910  31.412  28.480  1.00  0.00     0.050 A 
BRANCH   8  13
ATOM     13  N   UNL A   1      38.407  29.199  29.132  1.00  0.00    -0.367 N 
ATOM     14  N   UNL A   1      41.054  28.137  29.567  1.00  0.00    -0.368 N 
ATOM     15  C   UNL A   1      39.867  27.304  29.876  1.00  0.00     0.138 C 
ATOM     16  C   UNL A   1      40.839  29.462  28.919  1.00  0.00     0.138 C 
ATOM     17  C   UNL A   1      38.567  28.098  30.119  1.00  0.00     0.138 C 
ATOM     18  C   UNL A   1      39.522  30.157  29.271  1.00  0.00     0.138 C 
BRANCH  14  19
ATOM     19  C   UNL A   1      42.257  27.487  29.247  1.00  0.00     0.037 A 
ATOM     20  C   UNL A   1      44.590  26.077  28.383  1.00  0.00     0.119 A 
ATOM     21  C   UNL A   1      43.798  25.584  29.415  1.00  0.00     0.048 A 
ATOM     22  C   UNL A   1      44.240  27.290  27.802  1.00  0.00     0.048 A 
ATOM     23  C   UNL A   1      42.662  26.284  29.850  1.00  0.00     0.030 A 
ATOM     24  C   UNL A   1      43.091  27.979  28.232  1.00  0.00     0.030 A 
BRANCH  20  25
ATOM     25  O   UNL A   1      45.638  25.278  28.024  1.00  0.00    -0.497 OA
ATOM     26  C   UNL A   1      45.363  23.893  27.852  1.00  0.00     0.278 C 
ENDBRANCH  20  25
ENDBRANCH  14  19
ENDBRANCH   8  13
BRANCH  12  27
ATOM     27  N   UNL A   1      34.233  32.619  28.121  1.00  0.00    -0.279 N 
ATOM     28  H   UNL A   1      33.342  32.531  27.710  1.00  0.00     0.180 HD
BRANCH  27  29
ATOM     29  S   UNL A   1      34.828  34.168  28.340  1.00  0.00     0.271 S 
ATOM     30  O   UNL A   1      36.240  34.058  28.637  1.00  0.00    -0.200 OA
ATOM     31  O   UNL A   1      34.361  34.960  27.222  1.00  0.00    -0.200 OA
BRANCH  29  32
ATOM     32  C   UNL A   1      34.136  34.950  29.783  1.00  0.00     0.140 A 
ATOM     33  C   UNL A   1      34.166  34.574  31.114  1.00  0.00     0.034 A 
ATOM     34  S   UNL A   1      33.210  36.373  29.557  1.00  0.00    -0.131 S 
ATOM     35  C   UNL A   1      33.286  35.354  31.916  1.00  0.00     0.013 A 
ATOM     36  C   UNL A   1      32.663  36.339  31.182  1.00  0.00     0.066 A 
ENDBRANCH  29  32
ENDBRANCH  27  29
ENDBRANCH  12  27
ENDBRANCH   4   7
ENDBRANCH   2   3
ENDBRANCH   1   2
BRANCH   1  37
ATOM     37  C   UNL A   1      39.050  34.517  33.723  1.00  0.00     0.023 C 
BRANCH  37  38
ATOM     38  C   UNL A   1      39.387  34.105  35.146  1.00  0.00     0.116 C 
BRANCH  38  39
ATOM     39  N   UNL A   1      38.379  33.310  35.825  1.00  0.00    -0.352 N 
ATOM     40  C   UNL A   1      38.496  32.057  36.383  1.00  0.00     0.251 C 
ATOM     41  H   UNL A   1      37.489  33.724  35.896  1.00  0.00     0.163 HD
ATOM     42  O   UNL A   1      37.700  31.607  37.195  1.00  0.00    -0.269 OA
BRANCH  40  43
ATOM     43  C   UNL A   1      39.506  31.186  35.778  1.00  0.00     0.039 A 
ATOM     44  C   UNL A   1      39.051  30.335  34.763  1.00  0.00     0.014 A 
ATOM     45  C   UNL A   1      40.858  31.447  35.971  1.00  0.00     0.014 A 
ATOM     46  C   UNL A   1      39.954  29.823  33.845  1.00  0.00     0.010 A 
ATOM     47  C   UNL A   1      41.747  30.999  35.008  1.00  0.00     0.010 A 
ATOM     48  C   UNL A   1      41.295  30.210  33.931  1.00  0.00    -0.014 A 
BRANCH  48  49
ATOM     49  C   UNL A   1      42.291  29.774  32.934  1.00  0.00     0.031 A 
ATOM     50  C   UNL A   1      43.000  28.486  33.195  1.00  0.00     0.074 A 
ATOM     51  C   UNL A   1      42.631  30.580  31.912  1.00  0.00     0.049 A 
ATOM     52  N   UNL A   1      44.102  28.025  32.674  1.00  0.00    -0.248 NA
ATOM     53  C   UNL A   1      42.408  27.626  34.234  1.00  0.00     0.031 C 
ATOM     54  C   UNL A   1      41.989  31.853  31.577  1.00  0.00     0.029 A 
ATOM     55  N   UNL A   1      43.632  30.459  30.983  1.00  0.00    -0.354 N 
ATOM     56  C   UNL A   1      44.362  26.847  33.356  1.00  0.00     0.074 A 
ATOM     57  C   UNL A   1      43.329  26.684  34.354  1.00  0.00     0.031 C 
ATOM     58  C   UNL A   1      42.616  32.398  30.521  1.00  0.00     0.029 A 
ATOM     59  C   UNL A   1      43.738  31.544  30.145  1.00  0.00     0.049 A 
ATOM     60  H   UNL A   1      44.219  29.671  30.922  1.00  0.00     0.167 HD
ATOM     61  C   UNL A   1      45.375  25.976  33.153  1.00  0.00     0.037 A 
ATOM     62  C   UNL A   1      44.667  31.821  29.210  1.00  0.00     0.037 A 
ATOM     63  C   UNL A   1      46.365  26.149  32.126  1.00  0.00     0.049 A 
ATOM     64  C   UNL A   1      45.795  30.842  29.012  1.00  0.00     0.074 A 
ATOM     65  C   UNL A   1      47.408  25.312  31.782  1.00  0.00     0.029 A 
ATOM     66  N   UNL A   1      46.421  27.242  31.271  1.00  0.00    -0.354 N 
ATOM     67  N   UNL A   1      46.031  29.713  29.640  1.00  0.00    -0.248 NA
ATOM     68  C   UNL A   1      46.794  31.178  27.989  1.00  0.00     0.031 C 
ATOM     69  C   UNL A   1      48.120  25.917  30.742  1.00  0.00     0.029 A 
ATOM     70  C   UNL A   1      47.495  27.111  30.410  1.00  0.00     0.049 A 
ATOM     71  H   UNL A   1      45.791  27.998  31.277  1.00  0.00     0.167 HD
ATOM     72  C   UNL A   1      47.190  29.196  29.078  1.00  0.00     0.074 A 
ATOM     73  C   UNL A   1      47.601  30.126  28.046  1.00  0.00     0.031 C 
ATOM     74  C   UNL A   1      47.861  28.059  29.388  1.00  0.00     0.037 A 
BRANCH  61  75
ATOM     75  C   UNL A   1      45.455  24.789  34.063  1.00  0.00     0.064 A 
ATOM     76  C   UNL A   1      44.802  23.584  33.765  1.00  0.00     0.173 A 
ATOM     77  C   UNL A   1      46.180  24.862  35.262  1.00  0.00     0.173 A 
ATOM     78  F   UNL A   1      44.073  23.470  32.644  1.00  0.00    -0.203 F 
ATOM     79  C   UNL A   1      44.841  22.509  34.649  1.00  0.00     0.198 A 
ATOM     80  C   UNL A   1      46.246  23.774  36.127  1.00  0.00     0.198 A 
ATOM     81  F   UNL A   1      46.819  25.993  35.598  1.00  0.00    -0.203 F 
ATOM     82  F   UNL A   1      44.153  21.392  34.373  1.00  0.00    -0.200 F 
ATOM     83  C   UNL A   1      45.568  22.603  35.825  1.00  0.00     0.200 A 
ATOM     84  F   UNL A   1      46.955  23.864  37.262  1.00  0.00    -0.200 F 
ATOM     85  F   UNL A   1      45.605  21.567  36.675  1.00  0.00    -0.200 F 
ENDBRANCH  61  75
BRANCH  62  86
ATOM     86  C   UNL A   1      44.579  33.069  28.405  1.00  0.00     0.064 A 
ATOM     87  C   UNL A   1      44.956  34.304  28.952  1.00  0.00     0.173 A 
ATOM     88  C   UNL A   1      44.114  33.061  27.081  1.00  0.00     0.173 A 
ATOM     89  F   UNL A   1      45.386  34.367  30.221  1.00  0.00    -0.203 F 
ATOM     90  C   UNL A   1      44.854  35.482  28.216  1.00  0.00     0.198 A 
ATOM     91  C   UNL A   1      44.038  34.238  26.335  1.00  0.00     0.198 A 
ATOM     92  F   UNL A   1      43.740  31.909  26.505  1.00  0.00    -0.203 F 
ATOM     93  F   UNL A   1      45.179  36.653  28.782  1.00  0.00    -0.200 F 
ATOM     94  C   UNL A   1      44.401  35.448  26.906  1.00  0.00     0.200 A 
ATOM     95  F   UNL A   1      43.611  34.199  25.066  1.00  0.00    -0.200 F 
ATOM     96  F   UNL A   1      44.306  36.582  26.198  1.00  0.00    -0.200 F 
ENDBRANCH  62  86
BRANCH  74  97
ATOM     97  C   UNL A   1      49.089  27.750  28.586  1.00  0.00     0.064 A 
ATOM     98  C   UNL A   1      50.369  28.056  29.066  1.00  0.00     0.173 A 
ATOM     99  C   UNL A   1      48.983  27.070  27.364  1.00  0.00     0.173 A 
ATOM    100  F   UNL A   1      50.516  28.719  30.223  1.00  0.00    -0.203 F 
ATOM    101  C   UNL A   1      51.504  27.699  28.345  1.00  0.00     0.198 A 
ATOM    102  C   UNL A   1      50.121  26.689  26.660  1.00  0.00     0.198 A 
ATOM    103  F   UNL A   1      47.778  26.750  26.870  1.00  0.00    -0.203 F 
ATOM    104  F   UNL A   1      52.718  28.026  28.805  1.00  0.00    -0.200 F 
ATOM    105  C   UNL A   1      51.379  27.006  27.149  1.00  0.00     0.200 A 
ATOM    106  F   UNL A   1      49.999  26.006  25.513  1.00  0.00    -0.200 F 
ATOM    107  F   UNL A   1      52.474  26.646  26.465  1.00  0.00    -0.200 F 
ENDBRANCH  74  97
ENDBRANCH  48  49
ENDBRANCH  40  43
ENDBRANCH  38  39
ENDBRANCH  37  38
ENDBRANCH   1  37
TORSDOF 17
ENDMDL
