MODEL 1
REMARK VINA RESULT:     -11.6      0.000      0.000
REMARK SMILES CCOC[C@@H](O)C[C@@]1(C(=O)NCCCCNC(=O)c2ccc(-c3c4nc(c(-c5c(F)c(F)c(F)c(F)c5F)c5ccc([nH]5)c(-c5c(F)c(F)c(F)c(F)c5F)c5nc(c(-c6c(F)c(F)c(F)c(F)c6F)c6ccc3[nH]6)C=C5)C=C4)cc2)CC[C@H](C)C1
REMARK SMILES IDX 12 1 11 2 9 3 10 4 8 6 82 7 86 8 83 9 84 10 85 11 7 12 5 13
REMARK SMILES IDX 4 14 3 15 2 16 1 17 6 18 13 20 14 21 15 22 16 23 17 24 18 26
REMARK SMILES IDX 19 27 20 28 81 29 21 30 80 31 22 32 23 33 24 34 74 35 25 36
REMARK SMILES IDX 79 37 73 38 75 39 26 40 78 41 72 42 71 43 27 45 59 46 39 47
REMARK SMILES IDX 58 48 40 49 43 50 57 51 76 52 41 53 42 54 56 56 77 57 44 58
REMARK SMILES IDX 28 59 29 60 37 61 30 62 31 63 35 64 38 65 32 66 33 67 36 68
REMARK SMILES IDX 34 69 60 70 61 71 69 72 62 73 63 74 67 75 70 76 64 77 65 78
REMARK SMILES IDX 68 79 66 80 45 81 46 82 54 83 47 84 48 85 52 86 55 87 49 88
REMARK SMILES IDX 50 89 53 90 51 91
REMARK H PARENT 11 5 6 19 16 25 75 44 43 55
REMARK Flexibility Score: inf
ROOT
ATOM      1  C   UNL A   1      32.723  29.963  26.029  1.00  0.00     0.116 C 
ENDROOT
BRANCH   1   2
ATOM      2  N   UNL A   1      33.231  29.681  24.704  1.00  0.00    -0.356 N 
ATOM      3  C   UNL A   1      32.829  28.872  23.696  1.00  0.00     0.226 C 
ATOM      4  O   UNL A   1      33.602  28.851  22.730  1.00  0.00    -0.274 OA
ATOM      5  H   UNL A   1      34.046  30.187  24.489  1.00  0.00     0.163 HD
BRANCH   3   6
ATOM      6  C   UNL A   1      31.518  28.042  23.689  1.00  0.00     0.052 C 
ATOM      7  C   UNL A   1      31.316  27.509  25.158  1.00  0.00     0.017 C 
ATOM      8  C   UNL A   1      31.670  26.661  23.018  1.00  0.00     0.020 C 
ATOM      9  C   UNL A   1      30.413  26.277  25.050  1.00  0.00     0.004 C 
ATOM     10  C   UNL A   1      30.493  25.848  23.580  1.00  0.00    -0.013 C 
ATOM     11  C   UNL A   1      30.619  24.346  23.415  1.00  0.00     0.007 C 
BRANCH   6  12
ATOM     12  C   UNL A   1      30.219  28.862  23.393  1.00  0.00     0.051 C 
BRANCH  12  13
ATOM     13  C   UNL A   1      29.734  29.302  22.006  1.00  0.00     0.141 C 
BRANCH  13  14
ATOM     14  C   UNL A   1      28.412  30.075  21.890  1.00  0.00     0.191 C 
BRANCH  14  15
ATOM     15  O   UNL A   1      28.276  31.047  22.939  1.00  0.00    -0.379 OA
BRANCH  15  16
ATOM     16  C   UNL A   1      28.024  32.391  22.543  1.00  0.00     0.157 C 
ATOM     17  C   UNL A   1      29.043  33.371  23.094  1.00  0.00     0.035 C 
ENDBRANCH  15  16
ENDBRANCH  14  15
ENDBRANCH  13  14
BRANCH  13  18
ATOM     18  O   UNL A   1      30.781  30.148  21.485  1.00  0.00    -0.391 OA
ATOM     19  H   UNL A   1      30.503  30.520  20.634  1.00  0.00     0.211 HD
ENDBRANCH  13  18
ENDBRANCH  12  13
ENDBRANCH   6  12
ENDBRANCH   3   6
ENDBRANCH   1   2
BRANCH   1  20
ATOM     20  C   UNL A   1      31.608  31.016  25.970  1.00  0.00     0.023 C 
BRANCH  20  21
ATOM     21  C   UNL A   1      31.522  31.962  27.159  1.00  0.00     0.023 C 
BRANCH  21  22
ATOM     22  C   UNL A   1      32.723  32.883  27.311  1.00  0.00     0.116 C 
BRANCH  22  23
ATOM     23  N   UNL A   1      32.396  34.263  27.651  1.00  0.00    -0.352 N 
ATOM     24  C   UNL A   1      32.999  35.071  28.593  1.00  0.00     0.251 C 
ATOM     25  H   UNL A   1      31.654  34.668  27.147  1.00  0.00     0.163 HD
ATOM     26  O   UNL A   1      32.572  36.191  28.832  1.00  0.00    -0.269 OA
BRANCH  24  27
ATOM     27  C   UNL A   1      34.154  34.533  29.348  1.00  0.00     0.039 A 
ATOM     28  C   UNL A   1      33.928  33.827  30.531  1.00  0.00     0.014 A 
ATOM     29  C   UNL A   1      35.444  34.652  28.830  1.00  0.00     0.014 A 
ATOM     30  C   UNL A   1      34.993  33.162  31.145  1.00  0.00     0.010 A 
ATOM     31  C   UNL A   1      36.475  33.902  29.378  1.00  0.00     0.010 A 
ATOM     32  C   UNL A   1      36.265  33.155  30.547  1.00  0.00    -0.014 A 
BRANCH  32  33
ATOM     33  C   UNL A   1      37.400  32.396  31.132  1.00  0.00     0.031 A 
ATOM     34  C   UNL A   1      37.884  32.726  32.518  1.00  0.00     0.074 A 
ATOM     35  C   UNL A   1      38.047  31.474  30.392  1.00  0.00     0.049 A 
ATOM     36  N   UNL A   1      38.906  32.243  33.177  1.00  0.00    -0.248 NA
ATOM     37  C   UNL A   1      37.149  33.775  33.242  1.00  0.00     0.031 C 
ATOM     38  C   UNL A   1      37.729  31.115  29.009  1.00  0.00     0.029 A 
ATOM     39  N   UNL A   1      39.120  30.675  30.701  1.00  0.00    -0.354 N 
ATOM     40  C   UNL A   1      38.954  32.954  34.369  1.00  0.00     0.074 A 
ATOM     41  C   UNL A   1      37.901  33.942  34.318  1.00  0.00     0.031 C 
ATOM     42  C   UNL A   1      38.558  30.139  28.605  1.00  0.00     0.029 A 
ATOM     43  C   UNL A   1      39.488  29.826  29.685  1.00  0.00     0.049 A 
ATOM     44  H   UNL A   1      39.582  30.707  31.570  1.00  0.00     0.167 HD
ATOM     45  C   UNL A   1      39.781  32.778  35.428  1.00  0.00     0.037 A 
ATOM     46  C   UNL A   1      40.457  28.893  29.641  1.00  0.00     0.037 A 
ATOM     47  C   UNL A   1      40.784  31.751  35.503  1.00  0.00     0.049 A 
ATOM     48  C   UNL A   1      41.324  28.676  30.851  1.00  0.00     0.074 A 
ATOM     49  C   UNL A   1      41.609  31.427  36.565  1.00  0.00     0.029 A 
ATOM     50  N   UNL A   1      41.088  30.872  34.474  1.00  0.00    -0.354 N 
ATOM     51  N   UNL A   1      41.305  29.296  32.006  1.00  0.00    -0.248 NA
ATOM     52  C   UNL A   1      42.340  27.618  30.755  1.00  0.00     0.031 C 
ATOM     53  C   UNL A   1      42.436  30.370  36.167  1.00  0.00     0.029 A 
ATOM     54  C   UNL A   1      42.097  30.011  34.873  1.00  0.00     0.049 A 
ATOM     55  H   UNL A   1      40.652  30.862  33.592  1.00  0.00     0.167 HD
ATOM     56  C   UNL A   1      42.275  28.682  32.785  1.00  0.00     0.074 A 
ATOM     57  C   UNL A   1      42.860  27.634  31.974  1.00  0.00     0.031 C 
ATOM     58  C   UNL A   1      42.649  28.960  34.058  1.00  0.00     0.037 A 
BRANCH  45  59
ATOM     59  C   UNL A   1      39.619  33.710  36.593  1.00  0.00     0.064 A 
ATOM     60  C   UNL A   1      38.825  33.375  37.701  1.00  0.00     0.173 A 
ATOM     61  C   UNL A   1      40.274  34.951  36.607  1.00  0.00     0.173 A 
ATOM     62  F   UNL A   1      38.166  32.207  37.728  1.00  0.00    -0.203 F 
ATOM     63  C   UNL A   1      38.662  34.262  38.761  1.00  0.00     0.198 A 
ATOM     64  C   UNL A   1      40.135  35.821  37.685  1.00  0.00     0.198 A 
ATOM     65  F   UNL A   1      41.049  35.320  35.576  1.00  0.00    -0.203 F 
ATOM     66  F   UNL A   1      37.850  33.945  39.778  1.00  0.00    -0.200 F 
ATOM     67  C   UNL A   1      39.322  35.481  38.756  1.00  0.00     0.200 A 
ATOM     68  F   UNL A   1      40.782  36.995  37.684  1.00  0.00    -0.200 F 
ATOM     69  F   UNL A   1      39.165  36.333  39.778  1.00  0.00    -0.200 F 
ENDBRANCH  45  59
BRANCH  46  70
ATOM     70  C   UNL A   1      40.621  28.047  28.431  1.00  0.00     0.064 A 
ATOM     71  C   UNL A   1      41.426  28.476  27.365  1.00  0.00     0.173 A 
ATOM     72  C   UNL A   1      39.979  26.807  28.305  1.00  0.00     0.173 A 
ATOM     73  F   UNL A   1      42.045  29.663  27.431  1.00  0.00    -0.203 F 
ATOM     74  C   UNL A   1      41.563  27.708  26.211  1.00  0.00     0.198 A 
ATOM     75  C   UNL A   1      40.136  26.029  27.159  1.00  0.00     0.198 A 
ATOM     76  F   UNL A   1      39.202  26.349  29.298  1.00  0.00    -0.203 F 
ATOM     77  F   UNL A   1      42.302  28.165  25.189  1.00  0.00    -0.200 F 
ATOM     78  C   UNL A   1      40.921  26.484  26.110  1.00  0.00     0.200 A 
ATOM     79  F   UNL A   1      39.524  24.840  27.070  1.00  0.00    -0.200 F 
ATOM     80  F   UNL A   1      41.053  25.745  24.999  1.00  0.00    -0.200 F 
ENDBRANCH  46  70
BRANCH  58  81
ATOM     81  C   UNL A   1      43.705  28.087  34.670  1.00  0.00     0.064 A 
ATOM     82  C   UNL A   1      45.060  28.442  34.648  1.00  0.00     0.173 A 
ATOM     83  C   UNL A   1      43.345  26.897  35.321  1.00  0.00     0.173 A 
ATOM     84  F   UNL A   1      45.453  29.563  34.025  1.00  0.00    -0.203 F 
ATOM     85  C   UNL A   1      46.023  27.623  35.232  1.00  0.00     0.198 A 
ATOM     86  C   UNL A   1      44.307  26.095  35.929  1.00  0.00     0.198 A 
ATOM     87  F   UNL A   1      42.060  26.516  35.375  1.00  0.00    -0.203 F 
ATOM     88  F   UNL A   1      47.318  27.959  35.159  1.00  0.00    -0.200 F 
ATOM     89  C   UNL A   1      45.645  26.455  35.878  1.00  0.00     0.200 A 
ATOM     90  F   UNL A   1      43.939  24.973  36.562  1.00  0.00    -0.200 F 
ATOM     91  F   UNL A   1      46.573  25.671  36.444  1.00  0.00    -0.200 F 
ENDBRANCH  58  81
ENDBRANCH  32  33
ENDBRANCH  24  27
ENDBRANCH  22  23
ENDBRANCH  21  22
ENDBRANCH  20  21
ENDBRANCH   1  20
TORSDOF 17
ENDMDL
MODEL 2
REMARK VINA RESULT:     -11.4      0.976      2.539
REMARK SMILES CCOC[C@@H](O)C[C@@]1(C(=O)NCCCCNC(=O)c2ccc(-c3c4nc(c(-c5c(F)c(F)c(F)c(F)c5F)c5ccc([nH]5)c(-c5c(F)c(F)c(F)c(F)c5F)c5nc(c(-c6c(F)c(F)c(F)c(F)c6F)c6ccc3[nH]6)C=C5)C=C4)cc2)CC[C@H](C)C1
REMARK SMILES IDX 12 1 11 2 9 3 10 4 8 6 82 7 86 8 83 9 84 10 85 11 7 12 5 13
REMARK SMILES IDX 4 14 3 15 2 16 1 17 6 18 13 20 14 21 15 22 16 23 17 24 18 26
REMARK SMILES IDX 19 27 20 28 81 29 21 30 80 31 22 32 23 33 24 34 74 35 25 36
REMARK SMILES IDX 79 37 73 38 75 39 26 40 78 41 72 42 71 43 27 45 59 46 39 47
REMARK SMILES IDX 58 48 40 49 43 50 57 51 76 52 41 53 42 54 56 56 77 57 44 58
REMARK SMILES IDX 28 59 29 60 37 61 30 62 31 63 35 64 38 65 32 66 33 67 36 68
REMARK SMILES IDX 34 69 60 70 61 71 69 72 62 73 63 74 67 75 70 76 64 77 65 78
REMARK SMILES IDX 68 79 66 80 45 81 46 82 54 83 47 84 48 85 52 86 55 87 49 88
REMARK SMILES IDX 50 89 53 90 51 91
REMARK H PARENT 11 5 6 19 16 25 75 44 43 55
REMARK Flexibility Score: inf
ROOT
ATOM      1  C   UNL A   1      32.431  29.906  25.510  1.00  0.00     0.116 C 
ENDROOT
BRANCH   1   2
ATOM      2  N   UNL A   1      31.299  30.081  24.626  1.00  0.00    -0.356 N 
ATOM      3  C   UNL A   1      30.587  29.245  23.834  1.00  0.00     0.226 C 
ATOM      4  O   UNL A   1      29.724  29.813  23.151  1.00  0.00    -0.274 OA
ATOM      5  H   UNL A   1      30.977  31.011  24.592  1.00  0.00     0.163 HD
BRANCH   3   6
ATOM      6  C   UNL A   1      30.776  27.707  23.765  1.00  0.00     0.052 C 
ATOM      7  C   UNL A   1      29.350  27.092  23.494  1.00  0.00     0.017 C 
ATOM      8  C   UNL A   1      30.993  27.054  25.145  1.00  0.00     0.020 C 
ATOM      9  C   UNL A   1      29.407  25.642  23.985  1.00  0.00     0.004 C 
ATOM     10  C   UNL A   1      30.623  25.580  24.916  1.00  0.00    -0.013 C 
ATOM     11  C   UNL A   1      30.352  24.785  26.179  1.00  0.00     0.007 C 
BRANCH   6  12
ATOM     12  C   UNL A   1      31.648  27.202  22.568  1.00  0.00     0.051 C 
BRANCH  12  13
ATOM     13  C   UNL A   1      33.169  27.000  22.592  1.00  0.00     0.141 C 
BRANCH  13  14
ATOM     14  C   UNL A   1      33.730  25.599  22.872  1.00  0.00     0.191 C 
BRANCH  14  15
ATOM     15  O   UNL A   1      33.521  24.715  21.759  1.00  0.00    -0.379 OA
BRANCH  15  16
ATOM     16  C   UNL A   1      33.198  23.362  22.064  1.00  0.00     0.157 C 
ATOM     17  C   UNL A   1      33.170  23.081  23.554  1.00  0.00     0.035 C 
ENDBRANCH  15  16
ENDBRANCH  14  15
ENDBRANCH  13  14
BRANCH  13  18
ATOM     18  O   UNL A   1      33.628  27.400  21.283  1.00  0.00    -0.391 OA
ATOM     19  H   UNL A   1      34.307  26.780  20.975  1.00  0.00     0.211 HD
ENDBRANCH  13  18
ENDBRANCH  12  13
ENDBRANCH   6  12
ENDBRANCH   3   6
ENDBRANCH   1   2
BRANCH   1  20
ATOM     20  C   UNL A   1      32.150  30.533  26.882  1.00  0.00     0.023 C 
BRANCH  20  21
ATOM     21  C   UNL A   1      31.766  32.006  26.876  1.00  0.00     0.023 C 
BRANCH  21  22
ATOM     22  C   UNL A   1      32.906  32.949  27.227  1.00  0.00     0.116 C 
BRANCH  22  23
ATOM     23  N   UNL A   1      32.488  34.274  27.670  1.00  0.00    -0.352 N 
ATOM     24  C   UNL A   1      33.017  35.032  28.695  1.00  0.00     0.251 C 
ATOM     25  H   UNL A   1      31.737  34.678  27.179  1.00  0.00     0.163 HD
ATOM     26  O   UNL A   1      32.518  36.102  29.013  1.00  0.00    -0.269 OA
BRANCH  24  27
ATOM     27  C   UNL A   1      34.181  34.499  29.439  1.00  0.00     0.039 A 
ATOM     28  C   UNL A   1      33.968  33.774  30.613  1.00  0.00     0.014 A 
ATOM     29  C   UNL A   1      35.468  34.640  28.918  1.00  0.00     0.014 A 
ATOM     30  C   UNL A   1      35.043  33.115  31.216  1.00  0.00     0.010 A 
ATOM     31  C   UNL A   1      36.509  33.895  29.453  1.00  0.00     0.010 A 
ATOM     32  C   UNL A   1      36.313  33.131  30.613  1.00  0.00    -0.014 A 
BRANCH  32  33
ATOM     33  C   UNL A   1      37.459  32.378  31.184  1.00  0.00     0.031 A 
ATOM     34  C   UNL A   1      37.958  32.711  32.564  1.00  0.00     0.074 A 
ATOM     35  C   UNL A   1      38.102  31.460  30.437  1.00  0.00     0.049 A 
ATOM     36  N   UNL A   1      38.991  32.234  33.211  1.00  0.00    -0.248 NA
ATOM     37  C   UNL A   1      37.226  33.756  33.297  1.00  0.00     0.031 C 
ATOM     38  C   UNL A   1      37.769  31.098  29.058  1.00  0.00     0.029 A 
ATOM     39  N   UNL A   1      39.183  30.666  30.733  1.00  0.00    -0.354 N 
ATOM     40  C   UNL A   1      39.050  32.945  34.402  1.00  0.00     0.074 A 
ATOM     41  C   UNL A   1      37.991  33.927  34.363  1.00  0.00     0.031 C 
ATOM     42  C   UNL A   1      38.598  30.127  28.644  1.00  0.00     0.029 A 
ATOM     43  C   UNL A   1      39.542  29.819  29.713  1.00  0.00     0.049 A 
ATOM     44  H   UNL A   1      39.656  30.701  31.596  1.00  0.00     0.167 HD
ATOM     45  C   UNL A   1      39.890  32.774  35.450  1.00  0.00     0.037 A 
ATOM     46  C   UNL A   1      40.517  28.891  29.656  1.00  0.00     0.037 A 
ATOM     47  C   UNL A   1      40.899  31.752  35.514  1.00  0.00     0.049 A 
ATOM     48  C   UNL A   1      41.399  28.679  30.856  1.00  0.00     0.074 A 
ATOM     49  C   UNL A   1      41.740  31.433  36.565  1.00  0.00     0.029 A 
ATOM     50  N   UNL A   1      41.196  30.875  34.482  1.00  0.00    -0.354 N 
ATOM     51  N   UNL A   1      41.391  29.299  32.012  1.00  0.00    -0.248 NA
ATOM     52  C   UNL A   1      42.420  27.627  30.748  1.00  0.00     0.031 C 
ATOM     53  C   UNL A   1      42.567  30.381  36.158  1.00  0.00     0.029 A 
ATOM     54  C   UNL A   1      42.214  30.019  34.868  1.00  0.00     0.049 A 
ATOM     55  H   UNL A   1      40.749  30.863  33.605  1.00  0.00     0.167 HD
ATOM     56  C   UNL A   1      42.374  28.690  32.779  1.00  0.00     0.074 A 
ATOM     57  C   UNL A   1      42.954  27.645  31.961  1.00  0.00     0.031 C 
ATOM     58  C   UNL A   1      42.762  28.971  34.047  1.00  0.00     0.037 A 
BRANCH  45  59
ATOM     59  C   UNL A   1      39.737  33.706  36.617  1.00  0.00     0.064 A 
ATOM     60  C   UNL A   1      38.911  33.393  37.707  1.00  0.00     0.173 A 
ATOM     61  C   UNL A   1      40.435  34.923  36.651  1.00  0.00     0.173 A 
ATOM     62  F   UNL A   1      38.211  32.248  37.716  1.00  0.00    -0.203 F 
ATOM     63  C   UNL A   1      38.758  34.280  38.769  1.00  0.00     0.198 A 
ATOM     64  C   UNL A   1      40.305  35.793  37.731  1.00  0.00     0.198 A 
ATOM     65  F   UNL A   1      41.242  35.270  35.638  1.00  0.00    -0.203 F 
ATOM     66  F   UNL A   1      37.915  33.986  39.769  1.00  0.00    -0.200 F 
ATOM     67  C   UNL A   1      39.459  35.475  38.783  1.00  0.00     0.200 A 
ATOM     68  F   UNL A   1      40.991  36.943  37.749  1.00  0.00    -0.200 F 
ATOM     69  F   UNL A   1      39.311  36.328  39.807  1.00  0.00    -0.200 F 
ENDBRANCH  45  59
BRANCH  46  70
ATOM     70  C   UNL A   1      40.670  28.045  28.445  1.00  0.00     0.064 A 
ATOM     71  C   UNL A   1      40.037  26.796  28.364  1.00  0.00     0.173 A 
ATOM     72  C   UNL A   1      41.450  28.453  27.354  1.00  0.00     0.173 A 
ATOM     73  F   UNL A   1      39.296  26.354  29.391  1.00  0.00    -0.203 F 
ATOM     74  C   UNL A   1      40.198  25.977  27.249  1.00  0.00     0.198 A 
ATOM     75  C   UNL A   1      41.590  27.643  26.229  1.00  0.00     0.198 A 
ATOM     76  F   UNL A   1      42.071  29.641  27.379  1.00  0.00    -0.203 F 
ATOM     77  F   UNL A   1      39.619  24.768  27.219  1.00  0.00    -0.200 F 
ATOM     78  C   UNL A   1      40.972  26.403  26.180  1.00  0.00     0.200 A 
ATOM     79  F   UNL A   1      42.329  28.062  25.192  1.00  0.00    -0.200 F 
ATOM     80  F   UNL A   1      41.126  25.615  25.107  1.00  0.00    -0.200 F 
ENDBRANCH  46  70
BRANCH  58  81
ATOM     81  C   UNL A   1      43.829  28.104  34.646  1.00  0.00     0.064 A 
ATOM     82  C   UNL A   1      45.182  28.469  34.614  1.00  0.00     0.173 A 
ATOM     83  C   UNL A   1      43.485  26.908  35.295  1.00  0.00     0.173 A 
ATOM     84  F   UNL A   1      45.561  29.597  33.992  1.00  0.00    -0.203 F 
ATOM     85  C   UNL A   1      46.156  27.656  35.186  1.00  0.00     0.198 A 
ATOM     86  C   UNL A   1      44.458  26.112  35.891  1.00  0.00     0.198 A 
ATOM     87  F   UNL A   1      42.203  26.518  35.359  1.00  0.00    -0.203 F 
ATOM     88  F   UNL A   1      47.447  28.002  35.103  1.00  0.00    -0.200 F 
ATOM     89  C   UNL A   1      45.792  26.482  35.830  1.00  0.00     0.200 A 
ATOM     90  F   UNL A   1      44.105  24.984  36.523  1.00  0.00    -0.200 F 
ATOM     91  F   UNL A   1      46.732  25.704  36.386  1.00  0.00    -0.200 F 
ENDBRANCH  58  81
ENDBRANCH  32  33
ENDBRANCH  24  27
ENDBRANCH  22  23
ENDBRANCH  21  22
ENDBRANCH  20  21
ENDBRANCH   1  20
TORSDOF 17
ENDMDL
MODEL 3
REMARK VINA RESULT:     -11.4      0.972      2.356
REMARK SMILES CCOC[C@@H](O)C[C@@]1(C(=O)NCCCCNC(=O)c2ccc(-c3c4nc(c(-c5c(F)c(F)c(F)c(F)c5F)c5ccc([nH]5)c(-c5c(F)c(F)c(F)c(F)c5F)c5nc(c(-c6c(F)c(F)c(F)c(F)c6F)c6ccc3[nH]6)C=C5)C=C4)cc2)CC[C@H](C)C1
REMARK SMILES IDX 12 1 11 2 9 3 10 4 8 6 82 7 86 8 83 9 84 10 85 11 7 12 5 13
REMARK SMILES IDX 4 14 3 15 2 16 1 17 6 18 13 20 14 21 15 22 16 23 17 24 18 26
REMARK SMILES IDX 19 27 20 28 81 29 21 30 80 31 22 32 23 33 24 34 74 35 25 36
REMARK SMILES IDX 79 37 73 38 75 39 26 40 78 41 72 42 71 43 27 45 59 46 39 47
REMARK SMILES IDX 58 48 40 49 43 50 57 51 76 52 41 53 42 54 56 56 77 57 44 58
REMARK SMILES IDX 28 59 29 60 37 61 30 62 31 63 35 64 38 65 32 66 33 67 36 68
REMARK SMILES IDX 34 69 60 70 61 71 69 72 62 73 63 74 67 75 70 76 64 77 65 78
REMARK SMILES IDX 68 79 66 80 45 81 46 82 54 83 47 84 48 85 52 86 55 87 49 88
REMARK SMILES IDX 50 89 53 90 51 91
REMARK H PARENT 11 5 6 19 16 25 75 44 43 55
REMARK Flexibility Score: inf
ROOT
ATOM      1  C   UNL A   1      31.469  29.778  25.468  1.00  0.00     0.116 C 
ENDROOT
BRANCH   1   2
ATOM      2  N   UNL A   1      32.435  29.672  24.397  1.00  0.00    -0.356 N 
ATOM      3  C   UNL A   1      33.127  28.643  23.854  1.00  0.00     0.226 C 
ATOM      4  O   UNL A   1      33.940  28.987  22.985  1.00  0.00    -0.274 OA
ATOM      5  H   UNL A   1      32.631  30.536  23.969  1.00  0.00     0.163 HD
BRANCH   3   6
ATOM      6  C   UNL A   1      32.945  27.149  24.231  1.00  0.00     0.052 C 
ATOM      7  C   UNL A   1      33.650  26.950  25.626  1.00  0.00     0.017 C 
ATOM      8  C   UNL A   1      33.860  26.199  23.431  1.00  0.00     0.020 C 
ATOM      9  C   UNL A   1      33.983  25.459  25.732  1.00  0.00     0.004 C 
ATOM     10  C   UNL A   1      33.914  24.929  24.294  1.00  0.00    -0.013 C 
ATOM     11  C   UNL A   1      35.052  23.982  23.966  1.00  0.00     0.007 C 
BRANCH   6  12
ATOM     12  C   UNL A   1      31.465  26.707  24.479  1.00  0.00     0.051 C 
BRANCH  12  13
ATOM     13  C   UNL A   1      30.378  26.574  23.405  1.00  0.00     0.141 C 
BRANCH  13  14
ATOM     14  C   UNL A   1      29.489  27.785  23.091  1.00  0.00     0.191 C 
BRANCH  14  15
ATOM     15  O   UNL A   1      30.089  28.637  22.100  1.00  0.00    -0.379 OA
BRANCH  15  16
ATOM     16  C   UNL A   1      29.674  29.999  22.085  1.00  0.00     0.157 C 
ATOM     17  C   UNL A   1      28.263  30.182  21.559  1.00  0.00     0.035 C 
ENDBRANCH  15  16
ENDBRANCH  14  15
ENDBRANCH  13  14
BRANCH  13  18
ATOM     18  O   UNL A   1      31.078  26.221  22.194  1.00  0.00    -0.391 OA
ATOM     19  H   UNL A   1      31.286  25.274  22.205  1.00  0.00     0.211 HD
ENDBRANCH  13  18
ENDBRANCH  12  13
ENDBRANCH   6  12
ENDBRANCH   3   6
ENDBRANCH   1   2
BRANCH   1  20
ATOM     20  C   UNL A   1      32.076  30.501  26.678  1.00  0.00     0.023 C 
BRANCH  20  21
ATOM     21  C   UNL A   1      31.680  31.961  26.849  1.00  0.00     0.023 C 
BRANCH  21  22
ATOM     22  C   UNL A   1      32.835  32.882  27.208  1.00  0.00     0.116 C 
BRANCH  22  23
ATOM     23  N   UNL A   1      32.442  34.226  27.616  1.00  0.00    -0.352 N 
ATOM     24  C   UNL A   1      32.988  35.003  28.617  1.00  0.00     0.251 C 
ATOM     25  H   UNL A   1      31.696  34.628  27.116  1.00  0.00     0.163 HD
ATOM     26  O   UNL A   1      32.508  36.089  28.907  1.00  0.00    -0.269 OA
BRANCH  24  27
ATOM     27  C   UNL A   1      34.146  34.471  29.371  1.00  0.00     0.039 A 
ATOM     28  C   UNL A   1      33.923  33.708  30.519  1.00  0.00     0.014 A 
ATOM     29  C   UNL A   1      35.441  34.653  28.883  1.00  0.00     0.014 A 
ATOM     30  C   UNL A   1      34.998  33.053  31.126  1.00  0.00     0.010 A 
ATOM     31  C   UNL A   1      36.486  33.913  29.419  1.00  0.00     0.010 A 
ATOM     32  C   UNL A   1      36.279  33.112  30.552  1.00  0.00    -0.014 A 
BRANCH  32  33
ATOM     33  C   UNL A   1      37.428  32.365  31.126  1.00  0.00     0.031 A 
ATOM     34  C   UNL A   1      37.928  32.708  32.504  1.00  0.00     0.074 A 
ATOM     35  C   UNL A   1      38.073  31.444  30.384  1.00  0.00     0.049 A 
ATOM     36  N   UNL A   1      38.962  32.237  33.153  1.00  0.00    -0.248 NA
ATOM     37  C   UNL A   1      37.194  33.755  33.231  1.00  0.00     0.031 C 
ATOM     38  C   UNL A   1      37.739  31.074  29.007  1.00  0.00     0.029 A 
ATOM     39  N   UNL A   1      39.156  30.656  30.683  1.00  0.00    -0.354 N 
ATOM     40  C   UNL A   1      39.021  32.955  34.339  1.00  0.00     0.074 A 
ATOM     41  C   UNL A   1      37.959  33.935  34.296  1.00  0.00     0.031 C 
ATOM     42  C   UNL A   1      38.571  30.102  28.598  1.00  0.00     0.029 A 
ATOM     43  C   UNL A   1      39.517  29.803  29.668  1.00  0.00     0.049 A 
ATOM     44  H   UNL A   1      39.630  30.697  31.546  1.00  0.00     0.167 HD
ATOM     45  C   UNL A   1      39.863  32.793  35.388  1.00  0.00     0.037 A 
ATOM     46  C   UNL A   1      40.494  28.877  29.616  1.00  0.00     0.037 A 
ATOM     47  C   UNL A   1      40.875  31.774  35.456  1.00  0.00     0.049 A 
ATOM     48  C   UNL A   1      41.378  28.675  30.816  1.00  0.00     0.074 A 
ATOM     49  C   UNL A   1      41.717  31.463  36.509  1.00  0.00     0.029 A 
ATOM     50  N   UNL A   1      41.172  30.891  34.429  1.00  0.00    -0.354 N 
ATOM     51  N   UNL A   1      41.369  29.302  31.968  1.00  0.00    -0.248 NA
ATOM     52  C   UNL A   1      42.402  27.624  30.714  1.00  0.00     0.031 C 
ATOM     53  C   UNL A   1      42.546  30.411  36.107  1.00  0.00     0.029 A 
ATOM     54  C   UNL A   1      42.193  30.041  34.819  1.00  0.00     0.049 A 
ATOM     55  H   UNL A   1      40.724  30.873  33.553  1.00  0.00     0.167 HD
ATOM     56  C   UNL A   1      42.355  28.700  32.738  1.00  0.00     0.074 A 
ATOM     57  C   UNL A   1      42.937  27.652  31.926  1.00  0.00     0.031 C 
ATOM     58  C   UNL A   1      42.743  28.989  34.003  1.00  0.00     0.037 A 
BRANCH  45  59
ATOM     59  C   UNL A   1      39.708  33.731  36.549  1.00  0.00     0.064 A 
ATOM     60  C   UNL A   1      40.404  34.947  36.613  1.00  0.00     0.173 A 
ATOM     61  C   UNL A   1      38.843  33.414  37.608  1.00  0.00     0.173 A 
ATOM     62  F   UNL A   1      41.255  35.289  35.633  1.00  0.00    -0.203 F 
ATOM     63  C   UNL A   1      40.272  35.793  37.710  1.00  0.00     0.198 A 
ATOM     64  C   UNL A   1      38.688  34.279  38.689  1.00  0.00     0.198 A 
ATOM     65  F   UNL A   1      38.149  32.266  37.597  1.00  0.00    -0.203 F 
ATOM     66  F   UNL A   1      40.995  36.920  37.776  1.00  0.00    -0.200 F 
ATOM     67  C   UNL A   1      39.409  35.462  38.743  1.00  0.00     0.200 A 
ATOM     68  F   UNL A   1      37.846  33.963  39.682  1.00  0.00    -0.200 F 
ATOM     69  F   UNL A   1      39.282  36.279  39.799  1.00  0.00    -0.200 F 
ENDBRANCH  45  59
BRANCH  46  70
ATOM     70  C   UNL A   1      40.648  28.025  28.409  1.00  0.00     0.064 A 
ATOM     71  C   UNL A   1      40.024  26.771  28.339  1.00  0.00     0.173 A 
ATOM     72  C   UNL A   1      41.421  28.432  27.313  1.00  0.00     0.173 A 
ATOM     73  F   UNL A   1      39.291  26.330  29.372  1.00  0.00    -0.203 F 
ATOM     74  C   UNL A   1      40.186  25.946  27.228  1.00  0.00     0.198 A 
ATOM     75  C   UNL A   1      41.562  27.615  26.192  1.00  0.00     0.198 A 
ATOM     76  F   UNL A   1      42.033  29.624  27.328  1.00  0.00    -0.203 F 
ATOM     77  F   UNL A   1      39.616  24.733  27.209  1.00  0.00    -0.200 F 
ATOM     78  C   UNL A   1      40.952  26.370  26.154  1.00  0.00     0.200 A 
ATOM     79  F   UNL A   1      42.293  28.033  25.149  1.00  0.00    -0.200 F 
ATOM     80  F   UNL A   1      41.108  25.577  25.085  1.00  0.00    -0.200 F 
ENDBRANCH  46  70
BRANCH  58  81
ATOM     81  C   UNL A   1      43.813  28.128  34.607  1.00  0.00     0.064 A 
ATOM     82  C   UNL A   1      43.510  26.936  35.278  1.00  0.00     0.173 A 
ATOM     83  C   UNL A   1      45.164  28.487  34.477  1.00  0.00     0.173 A 
ATOM     84  F   UNL A   1      42.232  26.559  35.439  1.00  0.00    -0.203 F 
ATOM     85  C   UNL A   1      44.519  26.145  35.821  1.00  0.00     0.198 A 
ATOM     86  C   UNL A   1      46.171  27.679  34.996  1.00  0.00     0.198 A 
ATOM     87  F   UNL A   1      45.506  29.615  33.838  1.00  0.00    -0.203 F 
ATOM     88  F   UNL A   1      44.204  25.033  36.498  1.00  0.00    -0.200 F 
ATOM     89  C   UNL A   1      45.848  26.514  35.674  1.00  0.00     0.200 A 
ATOM     90  F   UNL A   1      47.455  28.031  34.843  1.00  0.00    -0.200 F 
ATOM     91  F   UNL A   1      46.818  25.748  36.193  1.00  0.00    -0.200 F 
ENDBRANCH  58  81
ENDBRANCH  32  33
ENDBRANCH  24  27
ENDBRANCH  22  23
ENDBRANCH  21  22
ENDBRANCH  20  21
ENDBRANCH   1  20
TORSDOF 17
ENDMDL
