MODEL 1
REMARK VINA RESULT:     -10.9      0.000      0.000
REMARK SMILES CCc1nc(NCC2CC2)nc(OCC(=O)NCCCCNC(=O)c2ccc(-c3c4nc(c(-c5c(F)c(F)c(F)c(F)c5F)c5ccc([nH]5)c(-c5c(F)c(F)c(F)c(F)c5F)c5nc(c(-c6c(F)c(F)c(F)c(F)c6F)c6ccc3[nH]6)C=C5)C=C4)cc2)c1C
REMARK SMILES IDX 18 1 17 2 15 3 16 4 14 6 13 7 12 8 3 9 4 10 88 11 5 12 89 13
REMARK SMILES IDX 11 14 2 15 1 16 6 17 7 19 8 20 9 21 10 22 19 23 20 24 21 25
REMARK SMILES IDX 22 26 23 27 24 29 25 30 26 31 87 32 27 33 86 34 28 35 29 36
REMARK SMILES IDX 30 37 80 38 31 39 85 40 79 41 81 42 32 43 84 44 78 45 77 46
REMARK SMILES IDX 33 48 65 49 45 50 64 51 46 52 49 53 63 54 82 55 47 56 48 57
REMARK SMILES IDX 62 59 83 60 50 61 34 62 35 63 43 64 36 65 37 66 41 67 44 68
REMARK SMILES IDX 38 69 39 70 42 71 40 72 66 73 67 74 75 75 68 76 69 77 73 78
REMARK SMILES IDX 76 79 70 80 71 81 74 82 72 83 51 84 52 85 60 86 53 87 54 88
REMARK SMILES IDX 58 89 61 90 55 91 56 92 59 93 57 94
REMARK H PARENT 17 5 6 18 22 28 81 47 49 58
REMARK Flexibility Score: inf
ROOT
ATOM      1  C   UNL A   1      40.140  21.583  26.883  1.00  0.00     0.116 C 
ENDROOT
BRANCH   1   2
ATOM      2  N   UNL A   1      39.974  23.017  26.994  1.00  0.00    -0.353 N 
ATOM      3  C   UNL A   1      38.919  23.777  26.587  1.00  0.00     0.258 C 
ATOM      4  O   UNL A   1      38.886  24.961  26.927  1.00  0.00    -0.271 OA
ATOM      5  H   UNL A   1      40.717  23.505  27.416  1.00  0.00     0.163 HD
BRANCH   3   6
ATOM      6  C   UNL A   1      37.778  23.136  25.790  1.00  0.00     0.331 C 
BRANCH   6   7
ATOM      7  O   UNL A   1      36.587  23.844  25.546  1.00  0.00    -0.467 OA
BRANCH   7   8
ATOM      8  C   UNL A   1      35.372  23.261  25.391  1.00  0.00     0.221 A 
ATOM      9  C   UNL A   1      33.053  22.948  25.243  1.00  0.00     0.052 A 
ATOM     10  N   UNL A   1      33.238  21.622  25.082  1.00  0.00    -0.218 NA
ATOM     11  C   UNL A   1      34.109  23.835  25.466  1.00  0.00     0.033 A 
ATOM     12  C   UNL A   1      34.480  21.149  25.117  1.00  0.00     0.226 A 
ATOM     13  C   UNL A   1      33.822  25.270  25.764  1.00  0.00     0.052 C 
ATOM     14  N   UNL A   1      35.550  21.930  25.231  1.00  0.00    -0.177 NA
BRANCH   9  15
ATOM     15  C   UNL A   1      31.599  23.359  25.200  1.00  0.00     0.053 C 
ATOM     16  C   UNL A   1      30.768  22.817  26.356  1.00  0.00     0.011 C 
ENDBRANCH   9  15
BRANCH  12  17
ATOM     17  N   UNL A   1      34.705  19.803  25.042  1.00  0.00    -0.354 N 
ATOM     18  H   UNL A   1      35.586  19.457  25.312  1.00  0.00     0.163 HD
BRANCH  17  19
ATOM     19  C   UNL A   1      33.707  18.873  24.587  1.00  0.00     0.119 C 
BRANCH  19  20
ATOM     20  C   UNL A   1      34.383  17.572  24.276  1.00  0.00     0.008 C 
ATOM     21  C   UNL A   1      33.617  16.273  24.284  1.00  0.00     0.006 C 
ATOM     22  C   UNL A   1      34.106  16.849  22.982  1.00  0.00     0.006 C 
ENDBRANCH  19  20
ENDBRANCH  17  19
ENDBRANCH  12  17
ENDBRANCH   7   8
ENDBRANCH   6   7
ENDBRANCH   3   6
ENDBRANCH   1   2
BRANCH   1  23
ATOM     23  C   UNL A   1      41.481  21.190  26.274  1.00  0.00     0.023 C 
BRANCH  23  24
ATOM     24  C   UNL A   1      41.653  19.703  25.960  1.00  0.00     0.023 C 
BRANCH  24  25
ATOM     25  C   UNL A   1      43.037  19.120  26.222  1.00  0.00     0.116 C 
BRANCH  25  26
ATOM     26  N   UNL A   1      43.754  18.759  25.010  1.00  0.00    -0.352 N 
ATOM     27  C   UNL A   1      44.586  19.520  24.226  1.00  0.00     0.251 C 
ATOM     28  H   UNL A   1      43.624  17.831  24.706  1.00  0.00     0.163 HD
ATOM     29  O   UNL A   1      45.031  19.063  23.175  1.00  0.00    -0.269 OA
BRANCH  27  30
ATOM     30  C   UNL A   1      44.920  20.905  24.623  1.00  0.00     0.039 A 
ATOM     31  C   UNL A   1      44.545  21.951  23.775  1.00  0.00     0.014 A 
ATOM     32  C   UNL A   1      45.584  21.176  25.821  1.00  0.00     0.014 A 
ATOM     33  C   UNL A   1      44.771  23.272  24.165  1.00  0.00     0.010 A 
ATOM     34  C   UNL A   1      45.741  22.494  26.242  1.00  0.00     0.010 A 
ATOM     35  C   UNL A   1      45.333  23.556  25.420  1.00  0.00    -0.014 A 
BRANCH  35  36
ATOM     36  C   UNL A   1      45.494  24.957  25.890  1.00  0.00     0.031 A 
ATOM     37  C   UNL A   1      46.842  25.619  25.856  1.00  0.00     0.074 A 
ATOM     38  C   UNL A   1      44.436  25.610  26.410  1.00  0.00     0.049 A 
ATOM     39  N   UNL A   1      47.195  26.805  26.284  1.00  0.00    -0.248 NA
ATOM     40  C   UNL A   1      47.949  24.832  25.291  1.00  0.00     0.031 C 
ATOM     41  C   UNL A   1      43.086  25.060  26.546  1.00  0.00     0.029 A 
ATOM     42  N   UNL A   1      44.332  26.875  26.933  1.00  0.00    -0.354 N 
ATOM     43  C   UNL A   1      48.560  26.902  26.050  1.00  0.00     0.074 A 
ATOM     44  C   UNL A   1      48.983  25.634  25.498  1.00  0.00     0.031 C 
ATOM     45  C   UNL A   1      42.287  25.986  27.097  1.00  0.00     0.029 A 
ATOM     46  C   UNL A   1      43.073  27.181  27.390  1.00  0.00     0.049 A 
ATOM     47  H   UNL A   1      45.088  27.505  26.977  1.00  0.00     0.167 HD
ATOM     48  C   UNL A   1      49.380  27.961  26.253  1.00  0.00     0.037 A 
ATOM     49  C   UNL A   1      42.607  28.294  27.989  1.00  0.00     0.037 A 
ATOM     50  C   UNL A   1      48.951  29.227  26.788  1.00  0.00     0.049 A 
ATOM     51  C   UNL A   1      43.542  29.452  28.214  1.00  0.00     0.074 A 
ATOM     52  C   UNL A   1      49.694  30.378  26.981  1.00  0.00     0.029 A 
ATOM     53  N   UNL A   1      47.663  29.506  27.222  1.00  0.00    -0.354 N 
ATOM     54  N   UNL A   1      44.815  29.558  27.922  1.00  0.00    -0.248 NA
ATOM     55  C   UNL A   1      42.970  30.650  28.844  1.00  0.00     0.031 C 
ATOM     56  C   UNL A   1      48.869  31.337  27.579  1.00  0.00     0.029 A 
ATOM     57  C   UNL A   1      47.596  30.804  27.705  1.00  0.00     0.049 A 
ATOM     58  H   UNL A   1      46.908  28.874  27.192  1.00  0.00     0.167 HD
ATOM     59  C   UNL A   1      45.190  30.839  28.306  1.00  0.00     0.074 A 
ATOM     60  C   UNL A   1      44.005  31.479  28.837  1.00  0.00     0.031 C 
ATOM     61  C   UNL A   1      46.407  31.430  28.226  1.00  0.00     0.037 A 
BRANCH  48  62
ATOM     62  C   UNL A   1      50.829  27.793  25.893  1.00  0.00     0.064 A 
ATOM     63  C   UNL A   1      51.791  27.448  26.856  1.00  0.00     0.173 A 
ATOM     64  C   UNL A   1      51.257  27.947  24.566  1.00  0.00     0.173 A 
ATOM     65  F   UNL A   1      51.438  27.298  28.141  1.00  0.00    -0.203 F 
ATOM     66  C   UNL A   1      53.133  27.300  26.509  1.00  0.00     0.198 A 
ATOM     67  C   UNL A   1      52.594  27.765  24.218  1.00  0.00     0.198 A 
ATOM     68  F   UNL A   1      50.380  28.269  23.605  1.00  0.00    -0.203 F 
ATOM     69  F   UNL A   1      54.041  27.027  27.456  1.00  0.00    -0.200 F 
ATOM     70  C   UNL A   1      53.531  27.451  25.190  1.00  0.00     0.200 A 
ATOM     71  F   UNL A   1      52.975  27.896  22.940  1.00  0.00    -0.200 F 
ATOM     72  F   UNL A   1      54.821  27.303  24.857  1.00  0.00    -0.200 F 
ENDBRANCH  48  62
BRANCH  49  73
ATOM     73  C   UNL A   1      41.181  28.372  28.401  1.00  0.00     0.064 A 
ATOM     74  C   UNL A   1      40.210  28.913  27.547  1.00  0.00     0.173 A 
ATOM     75  C   UNL A   1      40.760  27.913  29.659  1.00  0.00     0.173 A 
ATOM     76  F   UNL A   1      40.567  29.385  26.343  1.00  0.00    -0.203 F 
ATOM     77  C   UNL A   1      38.878  29.011  27.940  1.00  0.00     0.198 A 
ATOM     78  C   UNL A   1      39.421  27.983  30.039  1.00  0.00     0.198 A 
ATOM     79  F   UNL A   1      41.646  27.382  30.513  1.00  0.00    -0.203 F 
ATOM     80  F   UNL A   1      37.980  29.576  27.122  1.00  0.00    -0.200 F 
ATOM     81  C   UNL A   1      38.483  28.540  29.183  1.00  0.00     0.200 A 
ATOM     82  F   UNL A   1      39.041  27.514  31.235  1.00  0.00    -0.200 F 
ATOM     83  F   UNL A   1      37.200  28.630  29.560  1.00  0.00    -0.200 F 
ENDBRANCH  49  73
BRANCH  61  84
ATOM     84  C   UNL A   1      46.513  32.854  28.690  1.00  0.00     0.064 A 
ATOM     85  C   UNL A   1      46.867  33.177  30.008  1.00  0.00     0.173 A 
ATOM     86  C   UNL A   1      46.297  33.911  27.792  1.00  0.00     0.173 A 
ATOM     87  F   UNL A   1      47.070  32.205  30.910  1.00  0.00    -0.203 F 
ATOM     88  C   UNL A   1      46.971  34.504  30.417  1.00  0.00     0.198 A 
ATOM     89  C   UNL A   1      46.434  35.236  28.195  1.00  0.00     0.198 A 
ATOM     90  F   UNL A   1      45.963  33.657  26.517  1.00  0.00    -0.203 F 
ATOM     91  F   UNL A   1      47.260  34.789  31.695  1.00  0.00    -0.200 F 
ATOM     92  C   UNL A   1      46.763  35.532  29.509  1.00  0.00     0.200 A 
ATOM     93  F   UNL A   1      46.248  36.227  27.312  1.00  0.00    -0.200 F 
ATOM     94  F   UNL A   1      46.873  36.808  29.903  1.00  0.00    -0.200 F 
ENDBRANCH  61  84
ENDBRANCH  35  36
ENDBRANCH  27  30
ENDBRANCH  25  26
ENDBRANCH  24  25
ENDBRANCH  23  24
ENDBRANCH   1  23
TORSDOF 17
ENDMDL
MODEL 2
REMARK VINA RESULT:     -10.3      1.173      2.914
REMARK SMILES CCc1nc(NCC2CC2)nc(OCC(=O)NCCCCNC(=O)c2ccc(-c3c4nc(c(-c5c(F)c(F)c(F)c(F)c5F)c5ccc([nH]5)c(-c5c(F)c(F)c(F)c(F)c5F)c5nc(c(-c6c(F)c(F)c(F)c(F)c6F)c6ccc3[nH]6)C=C5)C=C4)cc2)c1C
REMARK SMILES IDX 18 1 17 2 15 3 16 4 14 6 13 7 12 8 3 9 4 10 88 11 5 12 89 13
REMARK SMILES IDX 11 14 2 15 1 16 6 17 7 19 8 20 9 21 10 22 19 23 20 24 21 25
REMARK SMILES IDX 22 26 23 27 24 29 25 30 26 31 87 32 27 33 86 34 28 35 29 36
REMARK SMILES IDX 30 37 80 38 31 39 85 40 79 41 81 42 32 43 84 44 78 45 77 46
REMARK SMILES IDX 33 48 65 49 45 50 64 51 46 52 49 53 63 54 82 55 47 56 48 57
REMARK SMILES IDX 62 59 83 60 50 61 34 62 35 63 43 64 36 65 37 66 41 67 44 68
REMARK SMILES IDX 38 69 39 70 42 71 40 72 66 73 67 74 75 75 68 76 69 77 73 78
REMARK SMILES IDX 76 79 70 80 71 81 74 82 72 83 51 84 52 85 60 86 53 87 54 88
REMARK SMILES IDX 58 89 61 90 55 91 56 92 59 93 57 94
REMARK H PARENT 17 5 6 18 22 28 81 47 49 58
REMARK Flexibility Score: inf
ROOT
ATOM      1  C   UNL A   1      39.676  21.727  26.113  1.00  0.00     0.116 C 
ENDROOT
BRANCH   1   2
ATOM      2  N   UNL A   1      39.553  23.056  26.675  1.00  0.00    -0.353 N 
ATOM      3  C   UNL A   1      38.538  23.950  26.510  1.00  0.00     0.258 C 
ATOM      4  O   UNL A   1      38.532  24.963  27.211  1.00  0.00    -0.271 OA
ATOM      5  H   UNL A   1      40.296  23.351  27.250  1.00  0.00     0.163 HD
BRANCH   3   6
ATOM      6  C   UNL A   1      37.407  23.647  25.522  1.00  0.00     0.331 C 
BRANCH   6   7
ATOM      7  O   UNL A   1      36.330  22.823  25.895  1.00  0.00    -0.467 OA
BRANCH   7   8
ATOM      8  C   UNL A   1      35.030  23.214  25.883  1.00  0.00     0.221 A 
ATOM      9  C   UNL A   1      32.687  23.157  25.887  1.00  0.00     0.052 A 
ATOM     10  N   UNL A   1      32.650  24.499  25.765  1.00  0.00    -0.218 NA
ATOM     11  C   UNL A   1      33.882  22.433  25.894  1.00  0.00     0.033 A 
ATOM     12  C   UNL A   1      33.802  25.157  25.667  1.00  0.00     0.226 A 
ATOM     13  C   UNL A   1      33.844  20.940  25.904  1.00  0.00     0.052 C 
ATOM     14  N   UNL A   1      34.987  24.559  25.758  1.00  0.00    -0.177 NA
BRANCH   9  15
ATOM     15  C   UNL A   1      31.316  22.526  25.973  1.00  0.00     0.053 C 
ATOM     16  C   UNL A   1      30.296  23.364  26.734  1.00  0.00     0.011 C 
ENDBRANCH   9  15
BRANCH  12  17
ATOM     17  N   UNL A   1      33.807  26.507  25.457  1.00  0.00    -0.354 N 
ATOM     18  H   UNL A   1      34.658  26.944  25.222  1.00  0.00     0.163 HD
BRANCH  17  19
ATOM     19  C   UNL A   1      32.622  27.314  25.563  1.00  0.00     0.119 C 
BRANCH  19  20
ATOM     20  C   UNL A   1      32.673  28.057  26.862  1.00  0.00     0.008 C 
ATOM     21  C   UNL A   1      31.967  29.378  27.035  1.00  0.00     0.006 C 
ATOM     22  C   UNL A   1      31.453  28.154  27.744  1.00  0.00     0.006 C 
ENDBRANCH  19  20
ENDBRANCH  17  19
ENDBRANCH  12  17
ENDBRANCH   7   8
ENDBRANCH   6   7
ENDBRANCH   3   6
ENDBRANCH   1   2
BRANCH   1  23
ATOM     23  C   UNL A   1      41.114  21.220  26.109  1.00  0.00     0.023 C 
BRANCH  23  24
ATOM     24  C   UNL A   1      41.277  19.699  26.081  1.00  0.00     0.023 C 
BRANCH  24  25
ATOM     25  C   UNL A   1      42.667  19.170  26.421  1.00  0.00     0.116 C 
BRANCH  25  26
ATOM     26  N   UNL A   1      43.430  18.752  25.256  1.00  0.00    -0.352 N 
ATOM     27  C   UNL A   1      44.315  19.468  24.488  1.00  0.00     0.251 C 
ATOM     28  H   UNL A   1      43.291  17.818  24.977  1.00  0.00     0.163 HD
ATOM     29  O   UNL A   1      44.796  18.967  23.475  1.00  0.00    -0.269 OA
BRANCH  27  30
ATOM     30  C   UNL A   1      44.663  20.858  24.855  1.00  0.00     0.039 A 
ATOM     31  C   UNL A   1      44.302  21.889  23.984  1.00  0.00     0.014 A 
ATOM     32  C   UNL A   1      45.328  21.147  26.048  1.00  0.00     0.014 A 
ATOM     33  C   UNL A   1      44.542  23.216  24.345  1.00  0.00     0.010 A 
ATOM     34  C   UNL A   1      45.499  22.472  26.441  1.00  0.00     0.010 A 
ATOM     35  C   UNL A   1      45.105  23.521  25.595  1.00  0.00    -0.014 A 
BRANCH  35  36
ATOM     36  C   UNL A   1      45.280  24.930  26.035  1.00  0.00     0.031 A 
ATOM     37  C   UNL A   1      46.632  25.583  25.969  1.00  0.00     0.074 A 
ATOM     38  C   UNL A   1      44.233  25.600  26.557  1.00  0.00     0.049 A 
ATOM     39  N   UNL A   1      46.997  26.776  26.368  1.00  0.00    -0.248 NA
ATOM     40  C   UNL A   1      47.725  24.778  25.405  1.00  0.00     0.031 C 
ATOM     41  C   UNL A   1      42.883  25.061  26.722  1.00  0.00     0.029 A 
ATOM     42  N   UNL A   1      44.144  26.876  27.055  1.00  0.00    -0.354 N 
ATOM     43  C   UNL A   1      48.359  26.860  26.113  1.00  0.00     0.074 A 
ATOM     44  C   UNL A   1      48.768  25.578  25.580  1.00  0.00     0.031 C 
ATOM     45  C   UNL A   1      42.096  26.002  27.266  1.00  0.00     0.029 A 
ATOM     46  C   UNL A   1      42.893  27.198  27.524  1.00  0.00     0.049 A 
ATOM     47  H   UNL A   1      44.904  27.501  27.076  1.00  0.00     0.167 HD
ATOM     48  C   UNL A   1      49.189  27.917  26.283  1.00  0.00     0.037 A 
ATOM     49  C   UNL A   1      42.442  28.325  28.107  1.00  0.00     0.037 A 
ATOM     50  C   UNL A   1      48.774  29.196  26.799  1.00  0.00     0.049 A 
ATOM     51  C   UNL A   1      43.387  29.482  28.296  1.00  0.00     0.074 A 
ATOM     52  C   UNL A   1      49.527  30.346  26.958  1.00  0.00     0.029 A 
ATOM     53  N   UNL A   1      47.493  29.491  27.245  1.00  0.00    -0.354 N 
ATOM     54  N   UNL A   1      44.656  29.575  27.984  1.00  0.00    -0.248 NA
ATOM     55  C   UNL A   1      42.831  30.696  28.910  1.00  0.00     0.031 C 
ATOM     56  C   UNL A   1      48.715  31.321  27.548  1.00  0.00     0.029 A 
ATOM     57  C   UNL A   1      47.441  30.799  27.703  1.00  0.00     0.049 A 
ATOM     58  H   UNL A   1      46.735  28.864  27.238  1.00  0.00     0.167 HD
ATOM     59  C   UNL A   1      45.045  30.860  28.337  1.00  0.00     0.074 A 
ATOM     60  C   UNL A   1      43.870  31.518  28.871  1.00  0.00     0.031 C 
ATOM     61  C   UNL A   1      46.263  31.442  28.228  1.00  0.00     0.037 A 
BRANCH  48  62
ATOM     62  C   UNL A   1      50.631  27.733  25.907  1.00  0.00     0.064 A 
ATOM     63  C   UNL A   1      51.604  27.397  26.862  1.00  0.00     0.173 A 
ATOM     64  C   UNL A   1      51.042  27.863  24.571  1.00  0.00     0.173 A 
ATOM     65  F   UNL A   1      51.267  27.269  28.154  1.00  0.00    -0.203 F 
ATOM     66  C   UNL A   1      52.939  27.234  26.499  1.00  0.00     0.198 A 
ATOM     67  C   UNL A   1      52.372  27.666  24.208  1.00  0.00     0.198 A 
ATOM     68  F   UNL A   1      50.154  28.175  23.617  1.00  0.00    -0.203 F 
ATOM     69  F   UNL A   1      53.858  26.969  27.438  1.00  0.00    -0.200 F 
ATOM     70  C   UNL A   1      53.321  27.361  25.173  1.00  0.00     0.200 A 
ATOM     71  F   UNL A   1      52.737  27.774  22.923  1.00  0.00    -0.200 F 
ATOM     72  F   UNL A   1      54.605  27.198  24.825  1.00  0.00    -0.200 F 
ENDBRANCH  48  62
BRANCH  49  73
ATOM     73  C   UNL A   1      41.023  28.421  28.537  1.00  0.00     0.064 A 
ATOM     74  C   UNL A   1      40.043  28.946  27.685  1.00  0.00     0.173 A 
ATOM     75  C   UNL A   1      40.617  27.992  29.811  1.00  0.00     0.173 A 
ATOM     76  F   UNL A   1      40.385  29.389  26.465  1.00  0.00    -0.203 F 
ATOM     77  C   UNL A   1      38.716  29.060  28.094  1.00  0.00     0.198 A 
ATOM     78  C   UNL A   1      39.285  28.079  30.208  1.00  0.00     0.198 A 
ATOM     79  F   UNL A   1      41.514  27.477  30.664  1.00  0.00    -0.203 F 
ATOM     80  F   UNL A   1      37.809  29.611  27.276  1.00  0.00    -0.200 F 
ATOM     81  C   UNL A   1      38.337  28.621  29.353  1.00  0.00     0.200 A 
ATOM     82  F   UNL A   1      38.920  27.638  31.420  1.00  0.00    -0.200 F 
ATOM     83  F   UNL A   1      37.060  28.726  29.746  1.00  0.00    -0.200 F 
ENDBRANCH  49  73
BRANCH  61  84
ATOM     84  C   UNL A   1      46.385  32.875  28.662  1.00  0.00     0.064 A 
ATOM     85  C   UNL A   1      46.152  33.938  27.778  1.00  0.00     0.173 A 
ATOM     86  C   UNL A   1      46.700  33.187  29.994  1.00  0.00     0.173 A 
ATOM     87  F   UNL A   1      45.862  33.694  26.490  1.00  0.00    -0.203 F 
ATOM     88  C   UNL A   1      46.258  35.260  28.202  1.00  0.00     0.198 A 
ATOM     89  C   UNL A   1      46.772  34.510  30.423  1.00  0.00     0.198 A 
ATOM     90  F   UNL A   1      46.925  32.209  30.883  1.00  0.00    -0.203 F 
ATOM     91  F   UNL A   1      46.081  36.259  27.326  1.00  0.00    -0.200 F 
ATOM     92  C   UNL A   1      46.560  35.545  29.525  1.00  0.00     0.200 A 
ATOM     93  F   UNL A   1      47.049  34.782  31.706  1.00  0.00    -0.200 F 
ATOM     94  F   UNL A   1      46.653  36.818  29.934  1.00  0.00    -0.200 F 
ENDBRANCH  61  84
ENDBRANCH  35  36
ENDBRANCH  27  30
ENDBRANCH  25  26
ENDBRANCH  24  25
ENDBRANCH  23  24
ENDBRANCH   1  23
TORSDOF 17
ENDMDL
MODEL 3
REMARK VINA RESULT:     -10.0      5.271      7.628
REMARK SMILES CCc1nc(NCC2CC2)nc(OCC(=O)NCCCCNC(=O)c2ccc(-c3c4nc(c(-c5c(F)c(F)c(F)c(F)c5F)c5ccc([nH]5)c(-c5c(F)c(F)c(F)c(F)c5F)c5nc(c(-c6c(F)c(F)c(F)c(F)c6F)c6ccc3[nH]6)C=C5)C=C4)cc2)c1C
REMARK SMILES IDX 18 1 17 2 15 3 16 4 14 6 13 7 12 8 3 9 4 10 88 11 5 12 89 13
REMARK SMILES IDX 11 14 2 15 1 16 6 17 7 19 8 20 9 21 10 22 19 23 20 24 21 25
REMARK SMILES IDX 22 26 23 27 24 29 25 30 26 31 87 32 27 33 86 34 28 35 29 36
REMARK SMILES IDX 30 37 80 38 31 39 85 40 79 41 81 42 32 43 84 44 78 45 77 46
REMARK SMILES IDX 33 48 65 49 45 50 64 51 46 52 49 53 63 54 82 55 47 56 48 57
REMARK SMILES IDX 62 59 83 60 50 61 34 62 35 63 43 64 36 65 37 66 41 67 44 68
REMARK SMILES IDX 38 69 39 70 42 71 40 72 66 73 67 74 75 75 68 76 69 77 73 78
REMARK SMILES IDX 76 79 70 80 71 81 74 82 72 83 51 84 52 85 60 86 53 87 54 88
REMARK SMILES IDX 58 89 61 90 55 91 56 92 59 93 57 94
REMARK H PARENT 17 5 6 18 22 28 81 47 49 58
REMARK Flexibility Score: inf
ROOT
ATOM      1  C   UNL A   1      39.724  20.929  26.071  1.00  0.00     0.116 C 
ENDROOT
BRANCH   1   2
ATOM      2  N   UNL A   1      39.516  22.361  26.117  1.00  0.00    -0.353 N 
ATOM      3  C   UNL A   1      38.345  23.047  26.000  1.00  0.00     0.258 C 
ATOM      4  O   UNL A   1      38.348  24.256  26.241  1.00  0.00    -0.271 OA
ATOM      5  H   UNL A   1      40.323  22.910  26.251  1.00  0.00     0.163 HD
BRANCH   3   6
ATOM      6  C   UNL A   1      37.055  22.300  25.645  1.00  0.00     0.331 C 
BRANCH   6   7
ATOM      7  O   UNL A   1      36.047  22.927  24.890  1.00  0.00    -0.467 OA
BRANCH   7   8
ATOM      8  C   UNL A   1      34.736  22.579  24.931  1.00  0.00     0.221 A 
ATOM      9  C   UNL A   1      32.414  22.673  25.246  1.00  0.00     0.052 A 
ATOM     10  N   UNL A   1      32.311  21.374  24.897  1.00  0.00    -0.218 NA
ATOM     11  C   UNL A   1      33.643  23.333  25.340  1.00  0.00     0.033 A 
ATOM     12  C   UNL A   1      33.424  20.706  24.611  1.00  0.00     0.226 A 
ATOM     13  C   UNL A   1      33.694  24.733  25.857  1.00  0.00     0.052 C 
ATOM     14  N   UNL A   1      34.625  21.278  24.583  1.00  0.00    -0.177 NA
BRANCH   9  15
ATOM     15  C   UNL A   1      31.083  23.315  25.562  1.00  0.00     0.053 C 
ATOM     16  C   UNL A   1      30.218  22.507  26.521  1.00  0.00     0.011 C 
ENDBRANCH   9  15
BRANCH  12  17
ATOM     17  N   UNL A   1      33.371  19.369  24.334  1.00  0.00    -0.354 N 
ATOM     18  H   UNL A   1      33.814  19.038  23.519  1.00  0.00     0.163 HD
BRANCH  17  19
ATOM     19  C   UNL A   1      32.698  18.426  25.185  1.00  0.00     0.119 C 
BRANCH  19  20
ATOM     20  C   UNL A   1      33.085  17.044  24.754  1.00  0.00     0.008 C 
ATOM     21  C   UNL A   1      33.908  16.814  23.512  1.00  0.00     0.006 C 
ATOM     22  C   UNL A   1      34.513  16.571  24.868  1.00  0.00     0.006 C 
ENDBRANCH  19  20
ENDBRANCH  17  19
ENDBRANCH  12  17
ENDBRANCH   7   8
ENDBRANCH   6   7
ENDBRANCH   3   6
ENDBRANCH   1   2
BRANCH   1  23
ATOM     23  C   UNL A   1      40.951  20.487  26.860  1.00  0.00     0.023 C 
BRANCH  23  24
ATOM     24  C   UNL A   1      42.288  20.614  26.127  1.00  0.00     0.023 C 
BRANCH  24  25
ATOM     25  C   UNL A   1      43.203  21.740  26.597  1.00  0.00     0.116 C 
BRANCH  25  26
ATOM     26  N   UNL A   1      43.832  22.470  25.509  1.00  0.00    -0.352 N 
ATOM     27  C   UNL A   1      43.904  23.824  25.291  1.00  0.00     0.251 C 
ATOM     28  H   UNL A   1      44.271  21.911  24.828  1.00  0.00     0.163 HD
ATOM     29  O   UNL A   1      44.401  24.255  24.253  1.00  0.00    -0.269 OA
BRANCH  27  30
ATOM     30  C   UNL A   1      43.348  24.767  26.285  1.00  0.00     0.039 A 
ATOM     31  C   UNL A   1      42.265  24.355  27.065  1.00  0.00     0.014 A 
ATOM     32  C   UNL A   1      43.892  26.042  26.457  1.00  0.00     0.014 A 
ATOM     33  C   UNL A   1      41.775  25.192  28.069  1.00  0.00     0.010 A 
ATOM     34  C   UNL A   1      43.453  26.845  27.507  1.00  0.00     0.010 A 
ATOM     35  C   UNL A   1      42.392  26.428  28.325  1.00  0.00    -0.014 A 
BRANCH  35  36
ATOM     36  C   UNL A   1      41.945  27.290  29.451  1.00  0.00     0.031 A 
ATOM     37  C   UNL A   1      42.639  27.220  30.782  1.00  0.00     0.074 A 
ATOM     38  C   UNL A   1      40.870  28.088  29.293  1.00  0.00     0.049 A 
ATOM     39  N   UNL A   1      42.353  27.839  31.900  1.00  0.00    -0.248 NA
ATOM     40  C   UNL A   1      43.791  26.311  30.878  1.00  0.00     0.031 C 
ATOM     41  C   UNL A   1      40.080  28.207  28.067  1.00  0.00     0.029 A 
ATOM     42  N   UNL A   1      40.250  28.940  30.172  1.00  0.00    -0.354 N 
ATOM     43  C   UNL A   1      43.281  27.389  32.830  1.00  0.00     0.074 A 
ATOM     44  C   UNL A   1      44.100  26.400  32.163  1.00  0.00     0.031 C 
ATOM     45  C   UNL A   1      39.092  29.094  28.265  1.00  0.00     0.029 A 
ATOM     46  C   UNL A   1      39.154  29.576  29.641  1.00  0.00     0.049 A 
ATOM     47  H   UNL A   1      40.560  29.083  31.095  1.00  0.00     0.167 HD
ATOM     48  C   UNL A   1      43.450  27.783  34.115  1.00  0.00     0.037 A 
ATOM     49  C   UNL A   1      38.289  30.442  30.204  1.00  0.00     0.037 A 
ATOM     50  C   UNL A   1      42.642  28.780  34.770  1.00  0.00     0.049 A 
ATOM     51  C   UNL A   1      38.491  30.855  31.637  1.00  0.00     0.074 A 
ATOM     52  C   UNL A   1      42.768  29.286  36.051  1.00  0.00     0.029 A 
ATOM     53  N   UNL A   1      41.552  29.417  34.193  1.00  0.00    -0.354 N 
ATOM     54  N   UNL A   1      39.416  30.477  32.486  1.00  0.00    -0.248 NA
ATOM     55  C   UNL A   1      37.534  31.824  32.188  1.00  0.00     0.031 C 
ATOM     56  C   UNL A   1      41.724  30.192  36.268  1.00  0.00     0.029 A 
ATOM     57  C   UNL A   1      40.982  30.294  35.103  1.00  0.00     0.049 A 
ATOM     58  H   UNL A   1      41.232  29.266  33.275  1.00  0.00     0.167 HD
ATOM     59  C   UNL A   1      39.170  31.178  33.658  1.00  0.00     0.074 A 
ATOM     60  C   UNL A   1      38.019  32.020  33.406  1.00  0.00     0.031 C 
ATOM     61  C   UNL A   1      39.838  31.130  34.836  1.00  0.00     0.037 A 
BRANCH  48  62
ATOM     62  C   UNL A   1      44.554  27.132  34.898  1.00  0.00     0.064 A 
ATOM     63  C   UNL A   1      44.346  25.942  35.614  1.00  0.00     0.173 A 
ATOM     64  C   UNL A   1      45.843  27.686  34.909  1.00  0.00     0.173 A 
ATOM     65  F   UNL A   1      43.130  25.376  35.645  1.00  0.00    -0.203 F 
ATOM     66  C   UNL A   1      45.378  25.352  36.341  1.00  0.00     0.198 A 
ATOM     67  C   UNL A   1      46.880  27.074  35.609  1.00  0.00     0.198 A 
ATOM     68  F   UNL A   1      46.100  28.817  34.237  1.00  0.00    -0.203 F 
ATOM     69  F   UNL A   1      45.140  24.248  37.062  1.00  0.00    -0.200 F 
ATOM     70  C   UNL A   1      46.645  25.914  36.332  1.00  0.00     0.200 A 
ATOM     71  F   UNL A   1      48.108  27.610  35.587  1.00  0.00    -0.200 F 
ATOM     72  F   UNL A   1      47.639  25.342  37.026  1.00  0.00    -0.200 F 
ENDBRANCH  48  62
BRANCH  49  73
ATOM     73  C   UNL A   1      37.162  30.990  29.404  1.00  0.00     0.064 A 
ATOM     74  C   UNL A   1      37.195  32.303  28.915  1.00  0.00     0.173 A 
ATOM     75  C   UNL A   1      36.029  30.215  29.115  1.00  0.00     0.173 A 
ATOM     76  F   UNL A   1      38.247  33.091  29.184  1.00  0.00    -0.203 F 
ATOM     77  C   UNL A   1      36.130  32.828  28.187  1.00  0.00     0.198 A 
ATOM     78  C   UNL A   1      34.977  30.731  28.360  1.00  0.00     0.198 A 
ATOM     79  F   UNL A   1      35.949  28.951  29.554  1.00  0.00    -0.203 F 
ATOM     80  F   UNL A   1      36.167  34.102  27.773  1.00  0.00    -0.200 F 
ATOM     81  C   UNL A   1      35.025  32.040  27.904  1.00  0.00     0.200 A 
ATOM     82  F   UNL A   1      33.918  29.960  28.076  1.00  0.00    -0.200 F 
ATOM     83  F   UNL A   1      34.002  32.543  27.199  1.00  0.00    -0.200 F 
ENDBRANCH  49  73
BRANCH  61  84
ATOM     84  C   UNL A   1      39.364  32.037  35.935  1.00  0.00     0.064 A 
ATOM     85  C   UNL A   1      38.380  31.638  36.850  1.00  0.00     0.173 A 
ATOM     86  C   UNL A   1      39.933  33.310  36.098  1.00  0.00     0.173 A 
ATOM     87  F   UNL A   1      37.794  30.437  36.731  1.00  0.00    -0.203 F 
ATOM     88  C   UNL A   1      37.961  32.490  37.870  1.00  0.00     0.198 A 
ATOM     89  C   UNL A   1      39.536  34.147  37.137  1.00  0.00     0.198 A 
ATOM     90  F   UNL A   1      40.883  33.740  35.254  1.00  0.00    -0.203 F 
ATOM     91  F   UNL A   1      36.983  32.106  38.702  1.00  0.00    -0.200 F 
ATOM     92  C   UNL A   1      38.545  33.739  38.018  1.00  0.00     0.200 A 
ATOM     93  F   UNL A   1      40.113  35.347  37.287  1.00  0.00    -0.200 F 
ATOM     94  F   UNL A   1      38.147  34.554  39.005  1.00  0.00    -0.200 F 
ENDBRANCH  61  84
ENDBRANCH  35  36
ENDBRANCH  27  30
ENDBRANCH  25  26
ENDBRANCH  24  25
ENDBRANCH  23  24
ENDBRANCH   1  23
TORSDOF 17
ENDMDL
