MODEL 1
REMARK VINA RESULT:      -9.8      0.000      0.000
REMARK SMILES O=C(NCCCCNC(=O)c1ccc(-c2c3nc(c(-c4c(F)c(F)c(F)c(F)c4F)c4ccc([nH]4)c(-c4c(F)c(F)c(F)c(F)c4F)c4nc(c(-c5c(F)c(F)c(F)c(F)c5F)c5ccc2[nH]5)C=C4)C=C3)cc1)c1ccc(-c2ccsc2)cc1
REMARK SMILES IDX 6 1 5 2 4 3 3 4 1 5 2 6 74 8 75 9 84 10 76 11 83 12 77 13
REMARK SMILES IDX 78 14 79 15 82 16 80 17 81 18 7 19 8 20 9 21 10 23 11 24
REMARK SMILES IDX 12 25 73 26 13 27 72 28 14 29 15 30 16 31 66 32 17 33 71 34
REMARK SMILES IDX 65 35 67 36 18 37 70 38 64 39 63 40 19 42 51 43 31 44 50 45
REMARK SMILES IDX 32 46 35 47 49 48 68 49 33 50 34 51 48 53 69 54 36 55 20 56
REMARK SMILES IDX 21 57 29 58 22 59 23 60 27 61 30 62 24 63 25 64 28 65 26 66
REMARK SMILES IDX 52 67 53 68 61 69 54 70 55 71 59 72 62 73 56 74 57 75 60 76
REMARK SMILES IDX 58 77 37 78 38 79 46 80 39 81 40 82 44 83 47 84 41 85 42 86
REMARK SMILES IDX 45 87 43 88
REMARK H PARENT 3 7 8 22 67 41 35 52
REMARK Flexibility Score: inf
ROOT
ATOM      1  C   UNL A   1      42.124  22.255  27.876  1.00  0.00     0.023 C 
ENDROOT
BRANCH   1   2
ATOM      2  C   UNL A   1      42.584  23.471  28.681  1.00  0.00     0.023 C 
BRANCH   2   3
ATOM      3  C   UNL A   1      44.044  23.446  29.127  1.00  0.00     0.116 C 
BRANCH   3   4
ATOM      4  N   UNL A   1      44.918  22.839  28.136  1.00  0.00    -0.352 N 
ATOM      5  O   UNL A   1      46.149  22.743  26.245  1.00  0.00    -0.269 OA
ATOM      6  C   UNL A   1      45.565  23.428  27.079  1.00  0.00     0.251 C 
ATOM      7  H   UNL A   1      45.066  21.871  28.239  1.00  0.00     0.163 HD
BRANCH   6   8
ATOM      8  C   UNL A   1      45.534  24.896  26.934  1.00  0.00     0.039 A 
ATOM      9  C   UNL A   1      46.504  25.694  27.547  1.00  0.00     0.014 A 
ATOM     10  C   UNL A   1      44.511  25.477  26.181  1.00  0.00     0.014 A 
ATOM     11  C   UNL A   1      46.401  27.084  27.477  1.00  0.00     0.009 A 
ATOM     12  C   UNL A   1      44.415  26.869  26.106  1.00  0.00     0.009 A 
ATOM     13  C   UNL A   1      45.347  27.681  26.770  1.00  0.00    -0.018 A 
BRANCH  13  14
ATOM     14  C   UNL A   1      45.193  29.131  26.757  1.00  0.00    -0.008 A 
ATOM     15  C   UNL A   1      44.029  29.874  27.134  1.00  0.00     0.020 A 
ATOM     16  C   UNL A   1      46.216  29.974  26.367  1.00  0.00     0.073 A 
ATOM     17  C   UNL A   1      44.215  31.235  27.031  1.00  0.00     0.065 A 
ATOM     18  S   UNL A   1      45.781  31.626  26.469  1.00  0.00    -0.152 S 
ENDBRANCH  13  14
ENDBRANCH   6   8
ENDBRANCH   3   4
ENDBRANCH   2   3
ENDBRANCH   1   2
BRANCH   1  19
ATOM     19  C   UNL A   1      41.865  22.505  26.393  1.00  0.00     0.116 C 
BRANCH  19  20
ATOM     20  N   UNL A   1      40.468  22.357  26.018  1.00  0.00    -0.352 N 
ATOM     21  C   UNL A   1      39.404  23.195  26.259  1.00  0.00     0.251 C 
ATOM     22  H   UNL A   1      40.252  21.537  25.519  1.00  0.00     0.163 HD
ATOM     23  O   UNL A   1      38.268  22.850  25.950  1.00  0.00    -0.269 OA
BRANCH  21  24
ATOM     24  C   UNL A   1      39.621  24.496  26.928  1.00  0.00     0.039 A 
ATOM     25  C   UNL A   1      39.142  24.668  28.230  1.00  0.00     0.014 A 
ATOM     26  C   UNL A   1      40.302  25.535  26.289  1.00  0.00     0.014 A 
ATOM     27  C   UNL A   1      39.417  25.852  28.920  1.00  0.00     0.010 A 
ATOM     28  C   UNL A   1      40.634  26.685  27.000  1.00  0.00     0.010 A 
ATOM     29  C   UNL A   1      40.202  26.852  28.324  1.00  0.00    -0.014 A 
BRANCH  29  30
ATOM     30  C   UNL A   1      40.597  28.071  29.076  1.00  0.00     0.031 A 
ATOM     31  C   UNL A   1      41.972  28.180  29.673  1.00  0.00     0.074 A 
ATOM     32  C   UNL A   1      39.691  29.044  29.289  1.00  0.00     0.049 A 
ATOM     33  N   UNL A   1      42.472  29.120  30.434  1.00  0.00    -0.248 NA
ATOM     34  C   UNL A   1      42.900  27.073  29.398  1.00  0.00     0.031 C 
ATOM     35  C   UNL A   1      38.309  29.034  28.807  1.00  0.00     0.029 A 
ATOM     36  N   UNL A   1      39.792  30.226  29.981  1.00  0.00    -0.354 N 
ATOM     37  C   UNL A   1      43.760  28.710  30.746  1.00  0.00     0.074 A 
ATOM     38  C   UNL A   1      43.952  27.414  30.128  1.00  0.00     0.031 C 
ATOM     39  C   UNL A   1      37.697  30.161  29.201  1.00  0.00     0.029 A 
ATOM     40  C   UNL A   1      38.630  30.958  29.993  1.00  0.00     0.049 A 
ATOM     41  H   UNL A   1      40.619  30.521  30.424  1.00  0.00     0.167 HD
ATOM     42  C   UNL A   1      44.705  29.361  31.465  1.00  0.00     0.037 A 
ATOM     43  C   UNL A   1      38.346  32.136  30.582  1.00  0.00     0.037 A 
ATOM     44  C   UNL A   1      44.525  30.664  32.050  1.00  0.00     0.049 A 
ATOM     45  C   UNL A   1      39.417  32.844  31.365  1.00  0.00     0.074 A 
ATOM     46  C   UNL A   1      45.445  31.435  32.740  1.00  0.00     0.029 A 
ATOM     47  N   UNL A   1      43.342  31.387  32.016  1.00  0.00    -0.354 N 
ATOM     48  N   UNL A   1      40.653  32.476  31.597  1.00  0.00    -0.248 NA
ATOM     49  C   UNL A   1      39.054  34.136  31.963  1.00  0.00     0.031 C 
ATOM     50  C   UNL A   1      44.807  32.610  33.154  1.00  0.00     0.029 A 
ATOM     51  C   UNL A   1      43.504  32.590  32.686  1.00  0.00     0.049 A 
ATOM     52  H   UNL A   1      42.511  31.091  31.580  1.00  0.00     0.167 HD
ATOM     53  C   UNL A   1      41.223  33.499  32.343  1.00  0.00     0.074 A 
ATOM     54  C   UNL A   1      40.201  34.509  32.515  1.00  0.00     0.031 C 
ATOM     55  C   UNL A   1      42.480  33.590  32.840  1.00  0.00     0.037 A 
BRANCH  42  56
ATOM     56  C   UNL A   1      46.027  28.677  31.651  1.00  0.00     0.064 A 
ATOM     57  C   UNL A   1      46.278  27.852  32.757  1.00  0.00     0.173 A 
ATOM     58  C   UNL A   1      47.044  28.822  30.696  1.00  0.00     0.173 A 
ATOM     59  F   UNL A   1      45.341  27.690  33.704  1.00  0.00    -0.203 F 
ATOM     60  C   UNL A   1      47.507  27.218  32.914  1.00  0.00     0.198 A 
ATOM     61  C   UNL A   1      48.263  28.165  30.842  1.00  0.00     0.198 A 
ATOM     62  F   UNL A   1      46.854  29.597  29.616  1.00  0.00    -0.203 F 
ATOM     63  F   UNL A   1      47.740  26.472  34.003  1.00  0.00    -0.200 F 
ATOM     64  C   UNL A   1      48.496  27.370  31.955  1.00  0.00     0.200 A 
ATOM     65  F   UNL A   1      49.214  28.303  29.907  1.00  0.00    -0.200 F 
ATOM     66  F   UNL A   1      49.678  26.755  32.105  1.00  0.00    -0.200 F 
ENDBRANCH  42  56
BRANCH  43  67
ATOM     67  C   UNL A   1      36.995  32.732  30.430  1.00  0.00     0.064 A 
ATOM     68  C   UNL A   1      36.666  33.479  29.290  1.00  0.00     0.173 A 
ATOM     69  C   UNL A   1      36.010  32.571  31.414  1.00  0.00     0.173 A 
ATOM     70  F   UNL A   1      37.584  33.677  28.333  1.00  0.00    -0.203 F 
ATOM     71  C   UNL A   1      35.407  34.056  29.148  1.00  0.00     0.198 A 
ATOM     72  C   UNL A   1      34.741  33.128  31.258  1.00  0.00     0.198 A 
ATOM     73  F   UNL A   1      36.274  31.863  32.520  1.00  0.00    -0.203 F 
ATOM     74  F   UNL A   1      35.131  34.799  28.066  1.00  0.00    -0.200 F 
ATOM     75  C   UNL A   1      34.444  33.875  30.129  1.00  0.00     0.200 A 
ATOM     76  F   UNL A   1      33.810  32.942  32.202  1.00  0.00    -0.200 F 
ATOM     77  F   UNL A   1      33.231  34.428  29.990  1.00  0.00    -0.200 F 
ENDBRANCH  43  67
BRANCH  55  78
ATOM     78  C   UNL A   1      42.833  34.842  33.588  1.00  0.00     0.064 A 
ATOM     79  C   UNL A   1      43.233  36.008  32.921  1.00  0.00     0.173 A 
ATOM     80  C   UNL A   1      42.728  34.885  34.987  1.00  0.00     0.173 A 
ATOM     81  F   UNL A   1      43.362  36.011  31.585  1.00  0.00    -0.203 F 
ATOM     82  C   UNL A   1      43.536  37.167  33.628  1.00  0.00     0.198 A 
ATOM     83  C   UNL A   1      43.008  36.054  35.689  1.00  0.00     0.198 A 
ATOM     84  F   UNL A   1      42.345  33.797  35.670  1.00  0.00    -0.203 F 
ATOM     85  F   UNL A   1      43.957  38.260  32.974  1.00  0.00    -0.200 F 
ATOM     86  C   UNL A   1      43.417  37.193  35.010  1.00  0.00     0.200 A 
ATOM     87  F   UNL A   1      42.882  36.079  37.023  1.00  0.00    -0.200 F 
ATOM     88  F   UNL A   1      43.703  38.311  35.689  1.00  0.00    -0.200 F 
ENDBRANCH  55  78
ENDBRANCH  29  30
ENDBRANCH  21  24
ENDBRANCH  19  20
ENDBRANCH   1  19
TORSDOF 12
ENDMDL
MODEL 2
REMARK VINA RESULT:      -9.7      3.759     10.009
REMARK SMILES O=C(NCCCCNC(=O)c1ccc(-c2c3nc(c(-c4c(F)c(F)c(F)c(F)c4F)c4ccc([nH]4)c(-c4c(F)c(F)c(F)c(F)c4F)c4nc(c(-c5c(F)c(F)c(F)c(F)c5F)c5ccc2[nH]5)C=C4)C=C3)cc1)c1ccc(-c2ccsc2)cc1
REMARK SMILES IDX 6 1 5 2 4 3 3 4 1 5 2 6 74 8 75 9 84 10 76 11 83 12 77 13
REMARK SMILES IDX 78 14 79 15 82 16 80 17 81 18 7 19 8 20 9 21 10 23 11 24
REMARK SMILES IDX 12 25 73 26 13 27 72 28 14 29 15 30 16 31 66 32 17 33 71 34
REMARK SMILES IDX 65 35 67 36 18 37 70 38 64 39 63 40 19 42 51 43 31 44 50 45
REMARK SMILES IDX 32 46 35 47 49 48 68 49 33 50 34 51 48 53 69 54 36 55 20 56
REMARK SMILES IDX 21 57 29 58 22 59 23 60 27 61 30 62 24 63 25 64 28 65 26 66
REMARK SMILES IDX 52 67 53 68 61 69 54 70 55 71 59 72 62 73 56 74 57 75 60 76
REMARK SMILES IDX 58 77 37 78 38 79 46 80 39 81 40 82 44 83 47 84 41 85 42 86
REMARK SMILES IDX 45 87 43 88
REMARK H PARENT 3 7 8 22 67 41 35 52
REMARK Flexibility Score: inf
ROOT
ATOM      1  C   UNL A   1      36.152  33.460  29.196  1.00  0.00     0.023 C 
ENDROOT
BRANCH   1   2
ATOM      2  C   UNL A   1      37.630  33.153  29.430  1.00  0.00     0.023 C 
BRANCH   2   3
ATOM      3  C   UNL A   1      38.405  34.215  30.207  1.00  0.00     0.116 C 
BRANCH   3   4
ATOM      4  N   UNL A   1      37.595  34.855  31.231  1.00  0.00    -0.352 N 
ATOM      5  O   UNL A   1      36.537  35.037  33.218  1.00  0.00    -0.269 OA
ATOM      6  C   UNL A   1      37.371  34.461  32.526  1.00  0.00     0.251 C 
ATOM      7  H   UNL A   1      37.147  35.688  30.957  1.00  0.00     0.163 HD
BRANCH   6   8
ATOM      8  C   UNL A   1      38.121  33.316  33.078  1.00  0.00     0.039 A 
ATOM      9  C   UNL A   1      39.360  33.508  33.697  1.00  0.00     0.014 A 
ATOM     10  C   UNL A   1      37.577  32.035  32.963  1.00  0.00     0.014 A 
ATOM     11  C   UNL A   1      40.096  32.403  34.126  1.00  0.00     0.009 A 
ATOM     12  C   UNL A   1      38.314  30.932  33.400  1.00  0.00     0.009 A 
ATOM     13  C   UNL A   1      39.586  31.107  33.965  1.00  0.00    -0.018 A 
BRANCH  13  14
ATOM     14  C   UNL A   1      40.383  29.946  34.343  1.00  0.00    -0.008 A 
ATOM     15  C   UNL A   1      40.736  28.837  33.508  1.00  0.00     0.020 A 
ATOM     16  C   UNL A   1      40.913  29.801  35.611  1.00  0.00     0.073 A 
ATOM     17  C   UNL A   1      41.521  27.913  34.161  1.00  0.00     0.065 A 
ATOM     18  S   UNL A   1      41.827  28.364  35.781  1.00  0.00    -0.152 S 
ENDBRANCH  13  14
ENDBRANCH   6   8
ENDBRANCH   3   4
ENDBRANCH   2   3
ENDBRANCH   1   2
BRANCH   1  19
ATOM     19  C   UNL A   1      35.165  32.524  29.888  1.00  0.00     0.116 C 
BRANCH  19  20
ATOM     20  N   UNL A   1      34.411  31.692  28.963  1.00  0.00    -0.352 N 
ATOM     21  C   UNL A   1      34.808  30.571  28.274  1.00  0.00     0.251 C 
ATOM     22  H   UNL A   1      33.482  31.975  28.807  1.00  0.00     0.163 HD
ATOM     23  O   UNL A   1      34.055  30.056  27.452  1.00  0.00    -0.269 OA
BRANCH  21  24
ATOM     24  C   UNL A   1      36.156  30.003  28.491  1.00  0.00     0.039 A 
ATOM     25  C   UNL A   1      37.102  30.111  27.467  1.00  0.00     0.014 A 
ATOM     26  C   UNL A   1      36.496  29.382  29.696  1.00  0.00     0.014 A 
ATOM     27  C   UNL A   1      38.410  29.671  27.682  1.00  0.00     0.010 A 
ATOM     28  C   UNL A   1      37.816  29.007  29.933  1.00  0.00     0.010 A 
ATOM     29  C   UNL A   1      38.787  29.155  28.932  1.00  0.00    -0.014 A 
BRANCH  29  30
ATOM     30  C   UNL A   1      40.196  28.780  29.217  1.00  0.00     0.031 A 
ATOM     31  C   UNL A   1      41.101  29.735  29.944  1.00  0.00     0.074 A 
ATOM     32  C   UNL A   1      40.683  27.614  28.751  1.00  0.00     0.049 A 
ATOM     33  N   UNL A   1      42.379  29.627  30.207  1.00  0.00    -0.248 NA
ATOM     34  C   UNL A   1      40.495  30.988  30.415  1.00  0.00     0.031 C 
ATOM     35  C   UNL A   1      39.921  26.625  27.987  1.00  0.00     0.029 A 
ATOM     36  N   UNL A   1      41.940  27.069  28.837  1.00  0.00    -0.354 N 
ATOM     37  C   UNL A   1      42.733  30.803  30.853  1.00  0.00     0.074 A 
ATOM     38  C   UNL A   1      41.546  31.630  30.905  1.00  0.00     0.031 C 
ATOM     39  C   UNL A   1      40.719  25.588  27.690  1.00  0.00     0.029 A 
ATOM     40  C   UNL A   1      42.058  25.852  28.211  1.00  0.00     0.049 A 
ATOM     41  H   UNL A   1      42.686  27.509  29.305  1.00  0.00     0.167 HD
ATOM     42  C   UNL A   1      43.932  31.153  31.374  1.00  0.00     0.037 A 
ATOM     43  C   UNL A   1      43.126  25.045  28.067  1.00  0.00     0.037 A 
ATOM     44  C   UNL A   1      45.104  30.316  31.353  1.00  0.00     0.049 A 
ATOM     45  C   UNL A   1      44.444  25.452  28.666  1.00  0.00     0.074 A 
ATOM     46  C   UNL A   1      46.347  30.555  31.913  1.00  0.00     0.029 A 
ATOM     47  N   UNL A   1      45.175  29.077  30.734  1.00  0.00    -0.354 N 
ATOM     48  N   UNL A   1      44.749  26.538  29.332  1.00  0.00    -0.248 NA
ATOM     49  C   UNL A   1      45.565  24.517  28.496  1.00  0.00     0.031 C 
ATOM     50  C   UNL A   1      47.181  29.476  31.603  1.00  0.00     0.029 A 
ATOM     51  C   UNL A   1      46.447  28.546  30.886  1.00  0.00     0.049 A 
ATOM     52  H   UNL A   1      44.433  28.639  30.259  1.00  0.00     0.167 HD
ATOM     53  C   UNL A   1      46.085  26.407  29.685  1.00  0.00     0.074 A 
ATOM     54  C   UNL A   1      46.530  25.130  29.168  1.00  0.00     0.031 C 
ATOM     55  C   UNL A   1      46.871  27.269  30.374  1.00  0.00     0.037 A 
BRANCH  42  56
ATOM     56  C   UNL A   1      44.038  32.502  32.024  1.00  0.00     0.064 A 
ATOM     57  C   UNL A   1      44.427  33.638  31.300  1.00  0.00     0.173 A 
ATOM     58  C   UNL A   1      43.713  32.665  33.379  1.00  0.00     0.173 A 
ATOM     59  F   UNL A   1      44.759  33.531  30.004  1.00  0.00    -0.203 F 
ATOM     60  C   UNL A   1      44.514  34.884  31.914  1.00  0.00     0.198 A 
ATOM     61  C   UNL A   1      43.775  33.919  33.984  1.00  0.00     0.198 A 
ATOM     62  F   UNL A   1      43.330  31.611  34.116  1.00  0.00    -0.203 F 
ATOM     63  F   UNL A   1      44.934  35.946  31.213  1.00  0.00    -0.200 F 
ATOM     64  C   UNL A   1      44.183  35.024  33.253  1.00  0.00     0.200 A 
ATOM     65  F   UNL A   1      43.443  34.055  35.276  1.00  0.00    -0.200 F 
ATOM     66  F   UNL A   1      44.262  36.227  33.841  1.00  0.00    -0.200 F 
ENDBRANCH  42  56
BRANCH  43  67
ATOM     67  C   UNL A   1      42.985  23.754  27.346  1.00  0.00     0.064 A 
ATOM     68  C   UNL A   1      43.364  23.641  26.001  1.00  0.00     0.173 A 
ATOM     69  C   UNL A   1      42.474  22.614  27.980  1.00  0.00     0.173 A 
ATOM     70  F   UNL A   1      43.839  24.711  25.347  1.00  0.00    -0.203 F 
ATOM     71  C   UNL A   1      43.220  22.438  25.312  1.00  0.00     0.198 A 
ATOM     72  C   UNL A   1      42.354  21.404  27.298  1.00  0.00     0.198 A 
ATOM     73  F   UNL A   1      42.102  22.671  29.267  1.00  0.00    -0.203 F 
ATOM     74  F   UNL A   1      43.552  22.368  24.016  1.00  0.00    -0.200 F 
ATOM     75  C   UNL A   1      42.721  21.320  25.963  1.00  0.00     0.200 A 
ATOM     76  F   UNL A   1      41.883  20.323  27.932  1.00  0.00    -0.200 F 
ATOM     77  F   UNL A   1      42.586  20.162  25.302  1.00  0.00    -0.200 F 
ENDBRANCH  43  67
BRANCH  55  78
ATOM     78  C   UNL A   1      48.285  26.844  30.641  1.00  0.00     0.064 A 
ATOM     79  C   UNL A   1      49.338  27.222  29.796  1.00  0.00     0.173 A 
ATOM     80  C   UNL A   1      48.594  26.085  31.780  1.00  0.00     0.173 A 
ATOM     81  F   UNL A   1      49.090  27.935  28.687  1.00  0.00    -0.203 F 
ATOM     82  C   UNL A   1      50.647  26.838  30.070  1.00  0.00     0.198 A 
ATOM     83  C   UNL A   1      49.908  25.724  32.064  1.00  0.00     0.198 A 
ATOM     84  F   UNL A   1      47.623  25.703  32.622  1.00  0.00    -0.203 F 
ATOM     85  F   UNL A   1      51.634  27.174  29.226  1.00  0.00    -0.200 F 
ATOM     86  C   UNL A   1      50.933  26.096  31.206  1.00  0.00     0.200 A 
ATOM     87  F   UNL A   1      50.183  25.017  33.168  1.00  0.00    -0.200 F 
ATOM     88  F   UNL A   1      52.194  25.732  31.471  1.00  0.00    -0.200 F 
ENDBRANCH  55  78
ENDBRANCH  29  30
ENDBRANCH  21  24
ENDBRANCH  19  20
ENDBRANCH   1  19
TORSDOF 12
ENDMDL
MODEL 3
REMARK VINA RESULT:      -9.6      5.760      9.530
REMARK SMILES O=C(NCCCCNC(=O)c1ccc(-c2c3nc(c(-c4c(F)c(F)c(F)c(F)c4F)c4ccc([nH]4)c(-c4c(F)c(F)c(F)c(F)c4F)c4nc(c(-c5c(F)c(F)c(F)c(F)c5F)c5ccc2[nH]5)C=C4)C=C3)cc1)c1ccc(-c2ccsc2)cc1
REMARK SMILES IDX 6 1 5 2 4 3 3 4 1 5 2 6 74 8 75 9 84 10 76 11 83 12 77 13
REMARK SMILES IDX 78 14 79 15 82 16 80 17 81 18 7 19 8 20 9 21 10 23 11 24
REMARK SMILES IDX 12 25 73 26 13 27 72 28 14 29 15 30 16 31 66 32 17 33 71 34
REMARK SMILES IDX 65 35 67 36 18 37 70 38 64 39 63 40 19 42 51 43 31 44 50 45
REMARK SMILES IDX 32 46 35 47 49 48 68 49 33 50 34 51 48 53 69 54 36 55 20 56
REMARK SMILES IDX 21 57 29 58 22 59 23 60 27 61 30 62 24 63 25 64 28 65 26 66
REMARK SMILES IDX 52 67 53 68 61 69 54 70 55 71 59 72 62 73 56 74 57 75 60 76
REMARK SMILES IDX 58 77 37 78 38 79 46 80 39 81 40 82 44 83 47 84 41 85 42 86
REMARK SMILES IDX 45 87 43 88
REMARK H PARENT 3 7 8 22 67 41 35 52
REMARK Flexibility Score: inf
ROOT
ATOM      1  C   UNL A   1      31.909  28.144  26.350  1.00  0.00     0.023 C 
ENDROOT
BRANCH   1   2
ATOM      2  C   UNL A   1      32.336  26.688  26.158  1.00  0.00     0.023 C 
BRANCH   2   3
ATOM      3  C   UNL A   1      31.213  25.658  26.262  1.00  0.00     0.116 C 
BRANCH   3   4
ATOM      4  N   UNL A   1      31.219  24.717  25.155  1.00  0.00    -0.352 N 
ATOM      5  O   UNL A   1      30.673  23.922  23.112  1.00  0.00    -0.269 OA
ATOM      6  C   UNL A   1      30.721  24.874  23.885  1.00  0.00     0.251 C 
ATOM      7  H   UNL A   1      31.638  23.845  25.341  1.00  0.00     0.163 HD
BRANCH   6   8
ATOM      8  C   UNL A   1      30.218  26.195  23.460  1.00  0.00     0.039 A 
ATOM      9  C   UNL A   1      31.030  27.065  22.728  1.00  0.00     0.014 A 
ATOM     10  C   UNL A   1      28.917  26.564  23.810  1.00  0.00     0.014 A 
ATOM     11  C   UNL A   1      30.568  28.346  22.419  1.00  0.00     0.009 A 
ATOM     12  C   UNL A   1      28.455  27.844  23.493  1.00  0.00     0.009 A 
ATOM     13  C   UNL A   1      29.285  28.749  22.814  1.00  0.00    -0.018 A 
BRANCH  13  14
ATOM     14  C   UNL A   1      28.826  30.110  22.560  1.00  0.00    -0.008 A 
ATOM     15  C   UNL A   1      28.551  31.120  23.536  1.00  0.00     0.020 A 
ATOM     16  C   UNL A   1      28.611  30.584  21.280  1.00  0.00     0.073 A 
ATOM     17  C   UNL A   1      28.157  32.311  22.968  1.00  0.00     0.065 A 
ATOM     18  S   UNL A   1      28.101  32.218  21.262  1.00  0.00    -0.152 S 
ENDBRANCH  13  14
ENDBRANCH   6   8
ENDBRANCH   3   4
ENDBRANCH   2   3
ENDBRANCH   1   2
BRANCH   1  19
ATOM     19  C   UNL A   1      32.868  29.192  25.793  1.00  0.00     0.116 C 
BRANCH  19  20
ATOM     20  N   UNL A   1      32.512  30.554  26.161  1.00  0.00    -0.352 N 
ATOM     21  C   UNL A   1      33.161  31.431  26.997  1.00  0.00     0.251 C 
ATOM     22  H   UNL A   1      31.685  30.896  25.752  1.00  0.00     0.163 HD
ATOM     23  O   UNL A   1      32.650  32.514  27.268  1.00  0.00    -0.269 OA
BRANCH  21  24
ATOM     24  C   UNL A   1      34.457  31.059  27.604  1.00  0.00     0.039 A 
ATOM     25  C   UNL A   1      35.426  32.052  27.776  1.00  0.00     0.014 A 
ATOM     26  C   UNL A   1      34.716  29.749  28.015  1.00  0.00     0.014 A 
ATOM     27  C   UNL A   1      36.621  31.749  28.434  1.00  0.00     0.010 A 
ATOM     28  C   UNL A   1      35.876  29.465  28.731  1.00  0.00     0.010 A 
ATOM     29  C   UNL A   1      36.836  30.463  28.955  1.00  0.00    -0.014 A 
BRANCH  29  30
ATOM     30  C   UNL A   1      38.050  30.147  29.750  1.00  0.00     0.031 A 
ATOM     31  C   UNL A   1      39.083  29.199  29.210  1.00  0.00     0.074 A 
ATOM     32  C   UNL A   1      38.182  30.651  30.992  1.00  0.00     0.049 A 
ATOM     33  N   UNL A   1      40.161  28.732  29.789  1.00  0.00    -0.248 NA
ATOM     34  C   UNL A   1      38.863  28.689  27.849  1.00  0.00     0.031 C 
ATOM     35  C   UNL A   1      37.223  31.541  31.650  1.00  0.00     0.029 A 
ATOM     36  N   UNL A   1      39.168  30.475  31.931  1.00  0.00    -0.354 N 
ATOM     37  C   UNL A   1      40.733  27.860  28.874  1.00  0.00     0.074 A 
ATOM     38  C   UNL A   1      39.862  27.828  27.718  1.00  0.00     0.031 C 
ATOM     39  C   UNL A   1      37.677  31.847  32.876  1.00  0.00     0.029 A 
ATOM     40  C   UNL A   1      38.939  31.148  33.105  1.00  0.00     0.049 A 
ATOM     41  H   UNL A   1      39.966  29.919  31.775  1.00  0.00     0.167 HD
ATOM     42  C   UNL A   1      41.890  27.164  28.978  1.00  0.00     0.037 A 
ATOM     43  C   UNL A   1      39.660  31.191  34.242  1.00  0.00     0.037 A 
ATOM     44  C   UNL A   1      42.774  27.222  30.113  1.00  0.00     0.049 A 
ATOM     45  C   UNL A   1      40.947  30.419  34.327  1.00  0.00     0.074 A 
ATOM     46  C   UNL A   1      44.001  26.606  30.285  1.00  0.00     0.029 A 
ATOM     47  N   UNL A   1      42.520  27.939  31.273  1.00  0.00    -0.354 N 
ATOM     48  N   UNL A   1      41.511  29.649  33.430  1.00  0.00    -0.248 NA
ATOM     49  C   UNL A   1      41.701  30.526  35.584  1.00  0.00     0.031 C 
ATOM     50  C   UNL A   1      44.474  26.922  31.563  1.00  0.00     0.029 A 
ATOM     51  C   UNL A   1      43.562  27.768  32.171  1.00  0.00     0.049 A 
ATOM     52  H   UNL A   1      41.720  28.489  31.434  1.00  0.00     0.167 HD
ATOM     53  C   UNL A   1      42.696  29.203  33.999  1.00  0.00     0.074 A 
ATOM     54  C   UNL A   1      42.775  29.796  35.317  1.00  0.00     0.031 C 
ATOM     55  C   UNL A   1      43.632  28.374  33.476  1.00  0.00     0.037 A 
BRANCH  42  56
ATOM     56  C   UNL A   1      42.275  26.283  27.826  1.00  0.00     0.064 A 
ATOM     57  C   UNL A   1      41.728  25.002  27.666  1.00  0.00     0.173 A 
ATOM     58  C   UNL A   1      43.176  26.739  26.852  1.00  0.00     0.173 A 
ATOM     59  F   UNL A   1      40.871  24.516  28.577  1.00  0.00    -0.203 F 
ATOM     60  C   UNL A   1      42.089  24.198  26.588  1.00  0.00     0.198 A 
ATOM     61  C   UNL A   1      43.514  25.943  25.760  1.00  0.00     0.198 A 
ATOM     62  F   UNL A   1      43.725  27.960  26.955  1.00  0.00    -0.203 F 
ATOM     63  F   UNL A   1      41.589  22.959  26.482  1.00  0.00    -0.200 F 
ATOM     64  C   UNL A   1      42.976  24.671  25.634  1.00  0.00     0.200 A 
ATOM     65  F   UNL A   1      44.364  26.406  24.832  1.00  0.00    -0.200 F 
ATOM     66  F   UNL A   1      43.319  23.897  24.594  1.00  0.00    -0.200 F 
ENDBRANCH  42  56
BRANCH  43  67
ATOM     67  C   UNL A   1      39.193  32.019  35.383  1.00  0.00     0.064 A 
ATOM     68  C   UNL A   1      39.520  33.380  35.461  1.00  0.00     0.173 A 
ATOM     69  C   UNL A   1      38.416  31.473  36.413  1.00  0.00     0.173 A 
ATOM     70  F   UNL A   1      40.279  33.941  34.508  1.00  0.00    -0.203 F 
ATOM     71  C   UNL A   1      39.101  34.160  36.536  1.00  0.00     0.198 A 
ATOM     72  C   UNL A   1      37.975  32.260  37.476  1.00  0.00     0.198 A 
ATOM     73  F   UNL A   1      38.074  30.177  36.382  1.00  0.00    -0.203 F 
ATOM     74  F   UNL A   1      39.461  35.449  36.606  1.00  0.00    -0.200 F 
ATOM     75  C   UNL A   1      38.324  33.601  37.539  1.00  0.00     0.200 A 
ATOM     76  F   UNL A   1      37.216  31.720  38.437  1.00  0.00    -0.200 F 
ATOM     77  F   UNL A   1      37.918  34.352  38.572  1.00  0.00    -0.200 F 
ENDBRANCH  43  67
BRANCH  55  78
ATOM     78  C   UNL A   1      44.842  28.088  34.315  1.00  0.00     0.064 A 
ATOM     79  C   UNL A   1      45.972  28.917  34.280  1.00  0.00     0.173 A 
ATOM     80  C   UNL A   1      44.852  26.996  35.196  1.00  0.00     0.173 A 
ATOM     81  F   UNL A   1      46.016  29.964  33.442  1.00  0.00    -0.203 F 
ATOM     82  C   UNL A   1      47.079  28.650  35.081  1.00  0.00     0.198 A 
ATOM     83  C   UNL A   1      45.950  26.747  36.014  1.00  0.00     0.198 A 
ATOM     84  F   UNL A   1      43.792  26.177  35.270  1.00  0.00    -0.203 F 
ATOM     85  F   UNL A   1      48.166  29.430  35.001  1.00  0.00    -0.200 F 
ATOM     86  C   UNL A   1      47.065  27.570  35.952  1.00  0.00     0.200 A 
ATOM     87  F   UNL A   1      45.930  25.711  36.862  1.00  0.00    -0.200 F 
ATOM     88  F   UNL A   1      48.128  27.319  36.727  1.00  0.00    -0.200 F 
ENDBRANCH  55  78
ENDBRANCH  29  30
ENDBRANCH  21  24
ENDBRANCH  19  20
ENDBRANCH   1  19
TORSDOF 12
ENDMDL
