MODEL 1
REMARK VINA RESULT:     -14.4      0.000      0.000
REMARK SMILES C[C@@H](NC(=O)[C@H]1CC=CC[C@@H]1C(=O)NCCCCNC(=O)c1ccc(-c2c3nc(c(-c4c(F)c(F)c(F)c(F)c4F)c4ccc([nH]4)c(-c4c(F)c(F)c(F)c(F)c4F)c4nc(c(-c5c(F)c(F)c(F)c(F)c5F)c5ccc2[nH]5)C=C4)C=C3)cc1)c1ccc(-n2ccnc2)cc1
REMARK SMILES IDX 15 1 14 2 12 3 13 4 11 6 6 7 7 8 8 9 10 10 9 11 4 12 3 13
REMARK SMILES IDX 5 15 2 16 1 17 85 18 86 19 95 20 87 21 94 22 88 23 89 24
REMARK SMILES IDX 90 25 93 26 91 27 92 28 16 29 17 30 18 31 19 32 20 33 21 35
REMARK SMILES IDX 22 36 23 37 84 38 24 39 83 40 25 41 26 42 27 43 77 44 28 45
REMARK SMILES IDX 82 46 76 47 78 48 29 49 81 50 75 51 74 52 30 54 62 55 42 56
REMARK SMILES IDX 61 57 43 58 46 59 60 60 79 61 44 62 45 63 59 65 80 66 47 67
REMARK SMILES IDX 31 68 32 69 40 70 33 71 34 72 38 73 41 74 35 75 36 76 39 77
REMARK SMILES IDX 37 78 63 79 64 80 72 81 65 82 66 83 70 84 73 85 67 86 68 87
REMARK SMILES IDX 71 88 69 89 48 90 49 91 57 92 50 93 51 94 55 95 58 96 52 97
REMARK SMILES IDX 53 98 56 99 54 100
REMARK H PARENT 14 5 3 14 19 34 78 53 46 64
REMARK Flexibility Score: inf
ROOT
ATOM      1  C   UNL A   1      32.791  29.797  25.596  1.00  0.00     0.116 C 
ENDROOT
BRANCH   1   2
ATOM      2  N   UNL A   1      33.213  29.650  24.220  1.00  0.00    -0.356 N 
ATOM      3  C   UNL A   1      33.571  28.575  23.467  1.00  0.00     0.224 C 
ATOM      4  O   UNL A   1      34.070  28.869  22.372  1.00  0.00    -0.275 OA
ATOM      5  H   UNL A   1      33.249  30.502  23.728  1.00  0.00     0.163 HD
BRANCH   3   6
ATOM      6  C   UNL A   1      33.383  26.981  23.988  1.00  0.00     0.095 C 
ATOM      7  C   UNL A   1      31.705  26.817  22.999  1.00  0.00     0.095 C 
ATOM      8  C   UNL A   1      30.172  26.436  24.048  1.00  0.00     0.041 C 
ATOM      9  C   UNL A   1      30.257  25.793  25.779  1.00  0.00    -0.030 C 
ATOM     10  C   UNL A   1      33.240  26.038  25.997  1.00  0.00     0.041 C 
ATOM     11  C   UNL A   1      31.443  25.604  26.586  1.00  0.00    -0.030 C 
BRANCH   7  12
ATOM     12  C   UNL A   1      31.889  25.722  21.881  1.00  0.00     0.224 C 
ATOM     13  N   UNL A   1      32.399  24.454  22.076  1.00  0.00    -0.349 N 
ATOM     14  H   UNL A   1      32.238  23.872  21.299  1.00  0.00     0.164 HD
ATOM     15  O   UNL A   1      31.456  25.957  20.745  1.00  0.00    -0.275 OA
BRANCH  13  16
ATOM     16  C   UNL A   1      33.134  23.733  23.171  1.00  0.00     0.109 C 
ATOM     17  C   UNL A   1      34.590  23.503  22.791  1.00  0.00     0.036 C 
BRANCH  16  18
ATOM     18  C   UNL A   1      32.463  22.424  23.525  1.00  0.00    -0.026 A 
ATOM     19  C   UNL A   1      32.909  21.935  25.109  1.00  0.00     0.008 A 
ATOM     20  C   UNL A   1      32.153  21.173  22.376  1.00  0.00     0.008 A 
ATOM     21  C   UNL A   1      33.270  20.052  25.505  1.00  0.00     0.027 A 
ATOM     22  C   UNL A   1      32.359  19.484  22.723  1.00  0.00     0.027 A 
ATOM     23  C   UNL A   1      32.914  18.880  24.241  1.00  0.00     0.046 A 
BRANCH  23  24
ATOM     24  N   UNL A   1      32.937  17.500  24.480  1.00  0.00    -0.306 N 
ATOM     25  C   UNL A   1      32.155  16.810  25.368  1.00  0.00     0.113 A 
ATOM     26  C   UNL A   1      33.933  16.645  24.088  1.00  0.00     0.204 A 
ATOM     27  C   UNL A   1      32.679  15.540  25.412  1.00  0.00     0.131 A 
ATOM     28  N   UNL A   1      33.801  15.453  24.633  1.00  0.00    -0.245 NA
ENDBRANCH  23  24
ENDBRANCH  16  18
ENDBRANCH  13  16
ENDBRANCH   7  12
ENDBRANCH   3   6
ENDBRANCH   1   2
BRANCH   1  29
ATOM     29  C   UNL A   1      31.387  30.410  25.668  1.00  0.00     0.023 C 
BRANCH  29  30
ATOM     30  C   UNL A   1      31.316  31.790  26.342  1.00  0.00     0.023 C 
BRANCH  30  31
ATOM     31  C   UNL A   1      32.613  32.250  26.999  1.00  0.00     0.116 C 
BRANCH  31  32
ATOM     32  N   UNL A   1      32.562  33.657  27.361  1.00  0.00    -0.352 N 
ATOM     33  C   UNL A   1      33.217  34.326  28.364  1.00  0.00     0.251 C 
ATOM     34  H   UNL A   1      31.969  34.212  26.804  1.00  0.00     0.163 HD
ATOM     35  O   UNL A   1      32.823  35.435  28.715  1.00  0.00    -0.269 OA
BRANCH  33  36
ATOM     36  C   UNL A   1      34.391  33.721  29.030  1.00  0.00     0.039 A 
ATOM     37  C   UNL A   1      34.185  32.731  29.992  1.00  0.00     0.014 A 
ATOM     38  C   UNL A   1      35.687  34.164  28.751  1.00  0.00     0.014 A 
ATOM     39  C   UNL A   1      35.280  32.148  30.635  1.00  0.00     0.010 A 
ATOM     40  C   UNL A   1      36.783  33.534  29.340  1.00  0.00     0.010 A 
ATOM     41  C   UNL A   1      36.591  32.522  30.293  1.00  0.00    -0.014 A 
BRANCH  41  42
ATOM     42  C   UNL A   1      37.760  31.845  30.915  1.00  0.00     0.031 A 
ATOM     43  C   UNL A   1      38.212  32.208  32.304  1.00  0.00     0.074 A 
ATOM     44  C   UNL A   1      38.435  30.915  30.210  1.00  0.00     0.049 A 
ATOM     45  N   UNL A   1      39.207  31.722  33.003  1.00  0.00    -0.248 NA
ATOM     46  C   UNL A   1      37.460  33.268  32.992  1.00  0.00     0.031 C 
ATOM     47  C   UNL A   1      38.129  30.512  28.836  1.00  0.00     0.029 A 
ATOM     48  N   UNL A   1      39.518  30.143  30.548  1.00  0.00    -0.354 N 
ATOM     49  C   UNL A   1      39.201  32.414  34.207  1.00  0.00     0.074 A 
ATOM     50  C   UNL A   1      38.139  33.394  34.124  1.00  0.00     0.031 C 
ATOM     51  C   UNL A   1      38.982  29.547  28.460  1.00  0.00     0.029 A 
ATOM     52  C   UNL A   1      39.920  29.290  29.548  1.00  0.00     0.049 A 
ATOM     53  H   UNL A   1      39.964  30.195  31.424  1.00  0.00     0.167 HD
ATOM     54  C   UNL A   1      39.990  32.231  35.293  1.00  0.00     0.037 A 
ATOM     55  C   UNL A   1      40.934  28.404  29.511  1.00  0.00     0.037 A 
ATOM     56  C   UNL A   1      41.041  31.249  35.378  1.00  0.00     0.049 A 
ATOM     57  C   UNL A   1      41.805  28.238  30.727  1.00  0.00     0.074 A 
ATOM     58  C   UNL A   1      41.865  30.957  36.452  1.00  0.00     0.029 A 
ATOM     59  N   UNL A   1      41.418  30.403  34.346  1.00  0.00    -0.354 N 
ATOM     60  N   UNL A   1      41.736  28.843  31.888  1.00  0.00    -0.248 NA
ATOM     61  C   UNL A   1      42.893  27.254  30.629  1.00  0.00     0.031 C 
ATOM     62  C   UNL A   1      42.773  29.971  36.053  1.00  0.00     0.029 A 
ATOM     63  C   UNL A   1      42.479  29.606  34.750  1.00  0.00     0.049 A 
ATOM     64  H   UNL A   1      40.996  30.373  33.457  1.00  0.00     0.167 HD
ATOM     65  C   UNL A   1      42.750  28.298  32.663  1.00  0.00     0.074 A 
ATOM     66  C   UNL A   1      43.400  27.289  31.852  1.00  0.00     0.031 C 
ATOM     67  C   UNL A   1      43.115  28.605  33.933  1.00  0.00     0.037 A 
BRANCH  54  68
ATOM     68  C   UNL A   1      39.746  33.105  36.491  1.00  0.00     0.064 A 
ATOM     69  C   UNL A   1      40.427  34.320  36.665  1.00  0.00     0.173 A 
ATOM     70  C   UNL A   1      38.773  32.760  37.442  1.00  0.00     0.173 A 
ATOM     71  F   UNL A   1      41.373  34.694  35.789  1.00  0.00    -0.203 F 
ATOM     72  C   UNL A   1      40.158  35.145  37.753  1.00  0.00     0.198 A 
ATOM     73  C   UNL A   1      38.485  33.602  38.513  1.00  0.00     0.198 A 
ATOM     74  F   UNL A   1      38.085  31.614  37.322  1.00  0.00    -0.203 F 
ATOM     75  F   UNL A   1      40.850  36.281  37.917  1.00  0.00    -0.200 F 
ATOM     76  C   UNL A   1      39.181  34.790  38.671  1.00  0.00     0.200 A 
ATOM     77  F   UNL A   1      37.529  33.265  39.390  1.00  0.00    -0.200 F 
ATOM     78  F   UNL A   1      38.912  35.594  39.709  1.00  0.00    -0.200 F 
ENDBRANCH  54  68
BRANCH  55  79
ATOM     79  C   UNL A   1      41.177  27.592  28.289  1.00  0.00     0.064 A 
ATOM     80  C   UNL A   1      40.622  26.313  28.147  1.00  0.00     0.173 A 
ATOM     81  C   UNL A   1      41.996  28.064  27.252  1.00  0.00     0.173 A 
ATOM     82  F   UNL A   1      39.847  25.808  29.119  1.00  0.00    -0.203 F 
ATOM     83  C   UNL A   1      40.905  25.522  27.036  1.00  0.00     0.198 A 
ATOM     84  C   UNL A   1      42.250  27.286  26.124  1.00  0.00     0.198 A 
ATOM     85  F   UNL A   1      42.548  29.284  27.332  1.00  0.00    -0.203 F 
ATOM     86  F   UNL A   1      40.412  24.278  26.958  1.00  0.00    -0.200 F 
ATOM     87  C   UNL A   1      41.716  26.011  26.023  1.00  0.00     0.200 A 
ATOM     88  F   UNL A   1      43.021  27.770  25.140  1.00  0.00    -0.200 F 
ATOM     89  F   UNL A   1      41.991  25.250  24.955  1.00  0.00    -0.200 F 
ENDBRANCH  55  79
BRANCH  67  90
ATOM     90  C   UNL A   1      44.249  27.820  34.528  1.00  0.00     0.064 A 
ATOM     91  C   UNL A   1      45.578  28.267  34.448  1.00  0.00     0.173 A 
ATOM     92  C   UNL A   1      44.005  26.610  35.195  1.00  0.00     0.173 A 
ATOM     93  F   UNL A   1      45.869  29.410  33.809  1.00  0.00    -0.203 F 
ATOM     94  C   UNL A   1      46.621  27.511  34.976  1.00  0.00     0.198 A 
ATOM     95  C   UNL A   1      45.046  25.874  35.754  1.00  0.00     0.198 A 
ATOM     96  F   UNL A   1      42.753  26.141  35.307  1.00  0.00    -0.203 F 
ATOM     97  F   UNL A   1      47.887  27.924  34.829  1.00  0.00    -0.200 F 
ATOM     98  C   UNL A   1      46.354  26.319  35.634  1.00  0.00     0.200 A 
ATOM     99  F   UNL A   1      44.784  24.731  36.402  1.00  0.00    -0.200 F 
ATOM    100  F   UNL A   1      47.359  25.593  36.141  1.00  0.00    -0.200 F 
ENDBRANCH  67  90
ENDBRANCH  41  42
ENDBRANCH  33  36
ENDBRANCH  31  32
ENDBRANCH  30  31
ENDBRANCH  29  30
ENDBRANCH   1  29
TORSDOF 15
ENDMDL
MODEL 2
REMARK VINA RESULT:     -14.2      0.423      7.087
REMARK SMILES C[C@@H](NC(=O)[C@H]1CC=CC[C@@H]1C(=O)NCCCCNC(=O)c1ccc(-c2c3nc(c(-c4c(F)c(F)c(F)c(F)c4F)c4ccc([nH]4)c(-c4c(F)c(F)c(F)c(F)c4F)c4nc(c(-c5c(F)c(F)c(F)c(F)c5F)c5ccc2[nH]5)C=C4)C=C3)cc1)c1ccc(-n2ccnc2)cc1
REMARK SMILES IDX 15 1 14 2 12 3 13 4 11 6 6 7 7 8 8 9 10 10 9 11 4 12 3 13
REMARK SMILES IDX 5 15 2 16 1 17 85 18 86 19 95 20 87 21 94 22 88 23 89 24
REMARK SMILES IDX 90 25 93 26 91 27 92 28 16 29 17 30 18 31 19 32 20 33 21 35
REMARK SMILES IDX 22 36 23 37 84 38 24 39 83 40 25 41 26 42 27 43 77 44 28 45
REMARK SMILES IDX 82 46 76 47 78 48 29 49 81 50 75 51 74 52 30 54 62 55 42 56
REMARK SMILES IDX 61 57 43 58 46 59 60 60 79 61 44 62 45 63 59 65 80 66 47 67
REMARK SMILES IDX 31 68 32 69 40 70 33 71 34 72 38 73 41 74 35 75 36 76 39 77
REMARK SMILES IDX 37 78 63 79 64 80 72 81 65 82 66 83 70 84 73 85 67 86 68 87
REMARK SMILES IDX 71 88 69 89 48 90 49 91 57 92 50 93 51 94 55 95 58 96 52 97
REMARK SMILES IDX 53 98 56 99 54 100
REMARK H PARENT 14 5 3 14 19 34 78 53 46 64
REMARK Flexibility Score: inf
ROOT
ATOM      1  C   UNL A   1      32.785  29.857  25.603  1.00  0.00     0.116 C 
ENDROOT
BRANCH   1   2
ATOM      2  N   UNL A   1      33.191  29.701  24.223  1.00  0.00    -0.356 N 
ATOM      3  C   UNL A   1      33.550  28.622  23.476  1.00  0.00     0.224 C 
ATOM      4  O   UNL A   1      34.032  28.911  22.372  1.00  0.00    -0.275 OA
ATOM      5  H   UNL A   1      33.211  30.548  23.723  1.00  0.00     0.163 HD
BRANCH   3   6
ATOM      6  C   UNL A   1      33.387  27.032  24.015  1.00  0.00     0.095 C 
ATOM      7  C   UNL A   1      31.711  26.831  23.029  1.00  0.00     0.095 C 
ATOM      8  C   UNL A   1      30.184  26.439  24.082  1.00  0.00     0.041 C 
ATOM      9  C   UNL A   1      30.279  25.817  25.820  1.00  0.00    -0.030 C 
ATOM     10  C   UNL A   1      33.259  26.109  26.034  1.00  0.00     0.041 C 
ATOM     11  C   UNL A   1      31.468  25.655  26.629  1.00  0.00    -0.030 C 
BRANCH   7  12
ATOM     12  C   UNL A   1      31.911  25.727  21.923  1.00  0.00     0.224 C 
ATOM     13  N   UNL A   1      32.415  24.460  22.137  1.00  0.00    -0.349 N 
ATOM     14  H   UNL A   1      32.266  23.871  21.362  1.00  0.00     0.164 HD
ATOM     15  O   UNL A   1      31.498  25.953  20.778  1.00  0.00    -0.275 OA
BRANCH  13  16
ATOM     16  C   UNL A   1      33.129  23.745  23.250  1.00  0.00     0.109 C 
ATOM     17  C   UNL A   1      34.596  23.528  22.906  1.00  0.00     0.036 C 
BRANCH  16  18
ATOM     18  C   UNL A   1      32.462  22.431  23.588  1.00  0.00    -0.026 A 
ATOM     19  C   UNL A   1      32.910  21.924  25.166  1.00  0.00     0.008 A 
ATOM     20  C   UNL A   1      32.153  21.193  22.425  1.00  0.00     0.008 A 
ATOM     21  C   UNL A   1      33.276  20.037  25.539  1.00  0.00     0.027 A 
ATOM     22  C   UNL A   1      32.364  19.501  22.751  1.00  0.00     0.027 A 
ATOM     23  C   UNL A   1      32.921  18.879  24.261  1.00  0.00     0.046 A 
BRANCH  23  24
ATOM     24  N   UNL A   1      32.947  17.497  24.483  1.00  0.00    -0.306 N 
ATOM     25  C   UNL A   1      32.153  16.791  25.348  1.00  0.00     0.113 A 
ATOM     26  C   UNL A   1      33.955  16.652  24.099  1.00  0.00     0.204 A 
ATOM     27  C   UNL A   1      32.683  15.524  25.386  1.00  0.00     0.131 A 
ATOM     28  N   UNL A   1      33.820  15.453  24.627  1.00  0.00    -0.245 NA
ENDBRANCH  23  24
ENDBRANCH  16  18
ENDBRANCH  13  16
ENDBRANCH   7  12
ENDBRANCH   3   6
ENDBRANCH   1   2
BRANCH   1  29
ATOM     29  C   UNL A   1      31.375  30.454  25.688  1.00  0.00     0.023 C 
BRANCH  29  30
ATOM     30  C   UNL A   1      31.308  31.879  26.263  1.00  0.00     0.023 C 
BRANCH  30  31
ATOM     31  C   UNL A   1      32.561  32.330  27.005  1.00  0.00     0.116 C 
BRANCH  31  32
ATOM     32  N   UNL A   1      32.499  33.739  27.356  1.00  0.00    -0.352 N 
ATOM     33  C   UNL A   1      33.120  34.415  28.376  1.00  0.00     0.251 C 
ATOM     34  H   UNL A   1      31.925  34.291  26.775  1.00  0.00     0.163 HD
ATOM     35  O   UNL A   1      32.715  35.526  28.706  1.00  0.00    -0.269 OA
BRANCH  33  36
ATOM     36  C   UNL A   1      34.271  33.814  29.085  1.00  0.00     0.039 A 
ATOM     37  C   UNL A   1      34.028  32.876  30.090  1.00  0.00     0.014 A 
ATOM     38  C   UNL A   1      35.580  34.212  28.802  1.00  0.00     0.014 A 
ATOM     39  C   UNL A   1      35.101  32.298  30.774  1.00  0.00     0.010 A 
ATOM     40  C   UNL A   1      36.653  33.583  29.435  1.00  0.00     0.010 A 
ATOM     41  C   UNL A   1      36.425  32.623  30.432  1.00  0.00    -0.014 A 
BRANCH  41  42
ATOM     42  C   UNL A   1      37.569  31.948  31.101  1.00  0.00     0.031 A 
ATOM     43  C   UNL A   1      38.367  30.892  30.385  1.00  0.00     0.074 A 
ATOM     44  C   UNL A   1      37.871  32.272  32.374  1.00  0.00     0.049 A 
ATOM     45  N   UNL A   1      39.395  30.201  30.813  1.00  0.00    -0.248 NA
ATOM     46  C   UNL A   1      37.946  30.553  29.017  1.00  0.00     0.031 C 
ATOM     47  C   UNL A   1      37.142  33.241  33.194  1.00  0.00     0.029 A 
ATOM     48  N   UNL A   1      38.868  31.821  33.203  1.00  0.00    -0.354 N 
ATOM     49  C   UNL A   1      39.742  29.350  29.771  1.00  0.00     0.074 A 
ATOM     50  C   UNL A   1      38.781  29.569  28.711  1.00  0.00     0.031 C 
ATOM     51  C   UNL A   1      37.732  33.335  34.394  1.00  0.00     0.029 A 
ATOM     52  C   UNL A   1      38.857  32.406  34.446  1.00  0.00     0.049 A 
ATOM     53  H   UNL A   1      39.528  31.143  32.932  1.00  0.00     0.167 HD
ATOM     54  C   UNL A   1      40.782  28.485  29.694  1.00  0.00     0.037 A 
ATOM     55  C   UNL A   1      39.659  32.211  35.510  1.00  0.00     0.037 A 
ATOM     56  C   UNL A   1      41.743  28.275  30.747  1.00  0.00     0.049 A 
ATOM     57  C   UNL A   1      40.795  31.229  35.400  1.00  0.00     0.074 A 
ATOM     58  C   UNL A   1      42.858  27.453  30.746  1.00  0.00     0.029 A 
ATOM     59  N   UNL A   1      41.699  28.886  31.991  1.00  0.00    -0.354 N 
ATOM     60  N   UNL A   1      41.158  30.490  34.381  1.00  0.00    -0.248 NA
ATOM     61  C   UNL A   1      41.639  31.062  36.592  1.00  0.00     0.031 C 
ATOM     62  C   UNL A   1      43.459  27.529  32.006  1.00  0.00     0.029 A 
ATOM     63  C   UNL A   1      42.754  28.441  32.774  1.00  0.00     0.049 A 
ATOM     64  H   UNL A   1      41.020  29.538  32.277  1.00  0.00     0.167 HD
ATOM     65  C   UNL A   1      42.284  29.793  34.797  1.00  0.00     0.074 A 
ATOM     66  C   UNL A   1      42.562  30.221  36.152  1.00  0.00     0.031 C 
ATOM     67  C   UNL A   1      43.020  28.876  34.121  1.00  0.00     0.037 A 
BRANCH  54  68
ATOM     68  C   UNL A   1      40.948  27.701  28.423  1.00  0.00     0.064 A 
ATOM     69  C   UNL A   1      41.767  28.159  27.380  1.00  0.00     0.173 A 
ATOM     70  C   UNL A   1      40.336  26.447  28.271  1.00  0.00     0.173 A 
ATOM     71  F   UNL A   1      42.369  29.356  27.470  1.00  0.00    -0.203 F 
ATOM     72  C   UNL A   1      41.953  27.403  26.226  1.00  0.00     0.198 A 
ATOM     73  C   UNL A   1      40.548  25.679  27.129  1.00  0.00     0.198 A 
ATOM     74  F   UNL A   1      39.549  25.956  29.239  1.00  0.00    -0.203 F 
ATOM     75  F   UNL A   1      42.709  27.880  25.228  1.00  0.00    -0.200 F 
ATOM     76  C   UNL A   1      41.351  26.159  26.106  1.00  0.00     0.200 A 
ATOM     77  F   UNL A   1      39.979  24.470  27.021  1.00  0.00    -0.200 F 
ATOM     78  F   UNL A   1      41.543  25.425  25.001  1.00  0.00    -0.200 F 
ENDBRANCH  54  68
BRANCH  55  79
ATOM     79  C   UNL A   1      39.433  32.969  36.770  1.00  0.00     0.064 A 
ATOM     80  C   UNL A   1      38.488  32.541  37.713  1.00  0.00     0.173 A 
ATOM     81  C   UNL A   1      40.132  34.155  37.042  1.00  0.00     0.173 A 
ATOM     82  F   UNL A   1      37.779  31.424  37.490  1.00  0.00    -0.203 F 
ATOM     83  C   UNL A   1      38.224  33.286  38.859  1.00  0.00     0.198 A 
ATOM     84  C   UNL A   1      39.892  34.881  38.207  1.00  0.00     0.198 A 
ATOM     85  F   UNL A   1      41.053  34.607  36.177  1.00  0.00    -0.203 F 
ATOM     86  F   UNL A   1      37.269  32.887  39.710  1.00  0.00    -0.200 F 
ATOM     87  C   UNL A   1      38.929  34.455  39.108  1.00  0.00     0.200 A 
ATOM     88  F   UNL A   1      40.588  36.000  38.451  1.00  0.00    -0.200 F 
ATOM     89  F   UNL A   1      38.673  35.173  40.209  1.00  0.00    -0.200 F 
ENDBRANCH  55  79
BRANCH  67  90
ATOM     90  C   UNL A   1      44.213  28.300  34.830  1.00  0.00     0.064 A 
ATOM     91  C   UNL A   1      44.132  27.102  35.557  1.00  0.00     0.173 A 
ATOM     92  C   UNL A   1      45.456  28.948  34.772  1.00  0.00     0.173 A 
ATOM     93  F   UNL A   1      42.965  26.450  35.656  1.00  0.00    -0.203 F 
ATOM     94  C   UNL A   1      45.240  26.599  36.235  1.00  0.00     0.198 A 
ATOM     95  C   UNL A   1      46.571  28.423  35.421  1.00  0.00     0.198 A 
ATOM     96  F   UNL A   1      45.593  30.091  34.084  1.00  0.00    -0.203 F 
ATOM     97  F   UNL A   1      45.121  25.491  36.978  1.00  0.00    -0.200 F 
ATOM     98  C   UNL A   1      46.459  27.257  36.162  1.00  0.00     0.200 A 
ATOM     99  F   UNL A   1      47.752  29.051  35.336  1.00  0.00    -0.200 F 
ATOM    100  F   UNL A   1      47.523  26.771  36.815  1.00  0.00    -0.200 F 
ENDBRANCH  67  90
ENDBRANCH  41  42
ENDBRANCH  33  36
ENDBRANCH  31  32
ENDBRANCH  30  31
ENDBRANCH  29  30
ENDBRANCH   1  29
TORSDOF 15
ENDMDL
MODEL 3
REMARK VINA RESULT:     -13.7      1.293      7.373
REMARK SMILES C[C@@H](NC(=O)[C@H]1CC=CC[C@@H]1C(=O)NCCCCNC(=O)c1ccc(-c2c3nc(c(-c4c(F)c(F)c(F)c(F)c4F)c4ccc([nH]4)c(-c4c(F)c(F)c(F)c(F)c4F)c4nc(c(-c5c(F)c(F)c(F)c(F)c5F)c5ccc2[nH]5)C=C4)C=C3)cc1)c1ccc(-n2ccnc2)cc1
REMARK SMILES IDX 15 1 14 2 12 3 13 4 11 6 6 7 7 8 8 9 10 10 9 11 4 12 3 13
REMARK SMILES IDX 5 15 2 16 1 17 85 18 86 19 95 20 87 21 94 22 88 23 89 24
REMARK SMILES IDX 90 25 93 26 91 27 92 28 16 29 17 30 18 31 19 32 20 33 21 35
REMARK SMILES IDX 22 36 23 37 84 38 24 39 83 40 25 41 26 42 27 43 77 44 28 45
REMARK SMILES IDX 82 46 76 47 78 48 29 49 81 50 75 51 74 52 30 54 62 55 42 56
REMARK SMILES IDX 61 57 43 58 46 59 60 60 79 61 44 62 45 63 59 65 80 66 47 67
REMARK SMILES IDX 31 68 32 69 40 70 33 71 34 72 38 73 41 74 35 75 36 76 39 77
REMARK SMILES IDX 37 78 63 79 64 80 72 81 65 82 66 83 70 84 73 85 67 86 68 87
REMARK SMILES IDX 71 88 69 89 48 90 49 91 57 92 50 93 51 94 55 95 58 96 52 97
REMARK SMILES IDX 53 98 56 99 54 100
REMARK H PARENT 14 5 3 14 19 34 78 53 46 64
REMARK Flexibility Score: inf
ROOT
ATOM      1  C   UNL A   1      32.319  30.342  25.578  1.00  0.00     0.116 C 
ENDROOT
BRANCH   1   2
ATOM      2  N   UNL A   1      31.538  29.786  24.494  1.00  0.00    -0.356 N 
ATOM      3  C   UNL A   1      31.458  28.542  23.949  1.00  0.00     0.224 C 
ATOM      4  O   UNL A   1      30.817  28.496  22.891  1.00  0.00    -0.275 OA
ATOM      5  H   UNL A   1      30.943  30.441  24.063  1.00  0.00     0.163 HD
BRANCH   3   6
ATOM      6  C   UNL A   1      32.194  27.187  24.633  1.00  0.00     0.095 C 
ATOM      7  C   UNL A   1      31.894  26.155  23.001  1.00  0.00     0.095 C 
ATOM      8  C   UNL A   1      30.816  24.607  23.198  1.00  0.00     0.041 C 
ATOM      9  C   UNL A   1      30.450  23.823  24.832  1.00  0.00    -0.030 C 
ATOM     10  C   UNL A   1      31.775  25.976  26.451  1.00  0.00     0.041 C 
ATOM     11  C   UNL A   1      30.818  24.316  26.142  1.00  0.00    -0.030 C 
BRANCH   7  12
ATOM     12  C   UNL A   1      33.293  25.772  22.386  1.00  0.00     0.224 C 
ATOM     13  N   UNL A   1      34.127  24.775  22.851  1.00  0.00    -0.349 N 
ATOM     14  H   UNL A   1      34.844  24.570  22.209  1.00  0.00     0.164 HD
ATOM     15  O   UNL A   1      33.654  26.329  21.341  1.00  0.00    -0.275 OA
BRANCH  13  16
ATOM     16  C   UNL A   1      34.220  23.919  24.082  1.00  0.00     0.109 C 
ATOM     17  C   UNL A   1      35.326  24.409  25.006  1.00  0.00     0.036 C 
BRANCH  16  18
ATOM     18  C   UNL A   1      34.425  22.461  23.734  1.00  0.00    -0.026 A 
ATOM     19  C   UNL A   1      32.993  21.806  23.049  1.00  0.00     0.008 A 
ATOM     20  C   UNL A   1      35.412  21.391  24.663  1.00  0.00     0.008 A 
ATOM     21  C   UNL A   1      32.409  19.993  23.508  1.00  0.00     0.027 A 
ATOM     22  C   UNL A   1      34.979  19.744  25.001  1.00  0.00     0.027 A 
ATOM     23  C   UNL A   1      33.512  19.010  24.466  1.00  0.00     0.046 A 
BRANCH  23  24
ATOM     24  N   UNL A   1      33.293  17.643  24.677  1.00  0.00    -0.306 N 
ATOM     25  C   UNL A   1      32.673  17.069  25.755  1.00  0.00     0.113 A 
ATOM     26  C   UNL A   1      33.911  16.628  23.995  1.00  0.00     0.204 A 
ATOM     27  C   UNL A   1      32.888  15.718  25.629  1.00  0.00     0.131 A 
ATOM     28  N   UNL A   1      33.682  15.454  24.545  1.00  0.00    -0.245 NA
ENDBRANCH  23  24
ENDBRANCH  16  18
ENDBRANCH  13  16
ENDBRANCH   7  12
ENDBRANCH   3   6
ENDBRANCH   1   2
BRANCH   1  29
ATOM     29  C   UNL A   1      31.403  30.867  26.690  1.00  0.00     0.023 C 
BRANCH  29  30
ATOM     30  C   UNL A   1      31.362  32.398  26.828  1.00  0.00     0.023 C 
BRANCH  30  31
ATOM     31  C   UNL A   1      32.702  33.048  27.158  1.00  0.00     0.116 C 
BRANCH  31  32
ATOM     32  N   UNL A   1      32.534  34.413  27.630  1.00  0.00    -0.352 N 
ATOM     33  C   UNL A   1      33.048  35.022  28.747  1.00  0.00     0.251 C 
ATOM     34  H   UNL A   1      31.967  34.985  27.063  1.00  0.00     0.163 HD
ATOM     35  O   UNL A   1      32.558  36.074  29.147  1.00  0.00    -0.269 OA
BRANCH  33  36
ATOM     36  C   UNL A   1      34.184  34.418  29.477  1.00  0.00     0.039 A 
ATOM     37  C   UNL A   1      33.932  33.719  30.659  1.00  0.00     0.014 A 
ATOM     38  C   UNL A   1      35.499  34.586  29.031  1.00  0.00     0.014 A 
ATOM     39  C   UNL A   1      34.992  33.144  31.365  1.00  0.00     0.010 A 
ATOM     40  C   UNL A   1      36.548  33.952  29.697  1.00  0.00     0.010 A 
ATOM     41  C   UNL A   1      36.307  33.227  30.874  1.00  0.00    -0.014 A 
BRANCH  41  42
ATOM     42  C   UNL A   1      37.424  32.546  31.579  1.00  0.00     0.031 A 
ATOM     43  C   UNL A   1      38.142  31.385  30.945  1.00  0.00     0.074 A 
ATOM     44  C   UNL A   1      37.775  32.961  32.813  1.00  0.00     0.049 A 
ATOM     45  N   UNL A   1      39.137  30.673  31.413  1.00  0.00    -0.248 NA
ATOM     46  C   UNL A   1      37.670  30.954  29.621  1.00  0.00     0.031 C 
ATOM     47  C   UNL A   1      37.124  34.041  33.557  1.00  0.00     0.029 A 
ATOM     48  N   UNL A   1      38.763  32.525  33.660  1.00  0.00    -0.354 N 
ATOM     49  C   UNL A   1      39.409  29.715  30.445  1.00  0.00     0.074 A 
ATOM     50  C   UNL A   1      38.438  29.898  29.387  1.00  0.00     0.031 C 
ATOM     51  C   UNL A   1      37.747  34.203  34.733  1.00  0.00     0.029 A 
ATOM     52  C   UNL A   1      38.816  33.216  34.847  1.00  0.00     0.049 A 
ATOM     53  H   UNL A   1      39.376  31.787  33.438  1.00  0.00     0.167 HD
ATOM     54  C   UNL A   1      40.394  28.785  30.426  1.00  0.00     0.037 A 
ATOM     55  C   UNL A   1      39.631  33.067  35.909  1.00  0.00     0.037 A 
ATOM     56  C   UNL A   1      41.366  28.610  31.476  1.00  0.00     0.049 A 
ATOM     57  C   UNL A   1      40.703  32.011  35.866  1.00  0.00     0.074 A 
ATOM     58  C   UNL A   1      42.430  27.726  31.528  1.00  0.00     0.029 A 
ATOM     59  N   UNL A   1      41.388  29.329  32.661  1.00  0.00    -0.354 N 
ATOM     60  N   UNL A   1      40.999  31.166  34.909  1.00  0.00    -0.248 NA
ATOM     61  C   UNL A   1      41.564  31.898  37.052  1.00  0.00     0.031 C 
ATOM     62  C   UNL A   1      43.065  27.874  32.765  1.00  0.00     0.029 A 
ATOM     63  C   UNL A   1      42.433  28.891  33.461  1.00  0.00     0.049 A 
ATOM     64  H   UNL A   1      40.755  30.043  32.900  1.00  0.00     0.167 HD
ATOM     65  C   UNL A   1      42.091  30.440  35.365  1.00  0.00     0.074 A 
ATOM     66  C   UNL A   1      42.426  30.967  36.671  1.00  0.00     0.031 C 
ATOM     67  C   UNL A   1      42.756  29.425  34.759  1.00  0.00     0.037 A 
BRANCH  54  68
ATOM     68  C   UNL A   1      40.484  27.884  29.227  1.00  0.00     0.064 A 
ATOM     69  C   UNL A   1      39.702  26.723  29.121  1.00  0.00     0.173 A 
ATOM     70  C   UNL A   1      41.308  28.218  28.141  1.00  0.00     0.173 A 
ATOM     71  F   UNL A   1      38.902  26.353  30.134  1.00  0.00    -0.203 F 
ATOM     72  C   UNL A   1      39.757  25.921  27.985  1.00  0.00     0.198 A 
ATOM     73  C   UNL A   1      41.338  27.430  26.994  1.00  0.00     0.198 A 
ATOM     74  F   UNL A   1      42.071  29.321  28.185  1.00  0.00    -0.203 F 
ATOM     75  F   UNL A   1      39.030  24.797  27.924  1.00  0.00    -0.200 F 
ATOM     76  C   UNL A   1      40.567  26.280  26.918  1.00  0.00     0.200 A 
ATOM     77  F   UNL A   1      42.110  27.787  25.957  1.00  0.00    -0.200 F 
ATOM     78  F   UNL A   1      40.607  25.515  25.818  1.00  0.00    -0.200 F 
ENDBRANCH  54  68
BRANCH  55  79
ATOM     79  C   UNL A   1      39.479  33.944  37.100  1.00  0.00     0.064 A 
ATOM     80  C   UNL A   1      40.115  35.192  37.166  1.00  0.00     0.173 A 
ATOM     81  C   UNL A   1      38.725  33.540  38.212  1.00  0.00     0.173 A 
ATOM     82  F   UNL A   1      40.864  35.616  36.137  1.00  0.00    -0.203 F 
ATOM     83  C   UNL A   1      40.033  35.985  38.308  1.00  0.00     0.198 A 
ATOM     84  C   UNL A   1      38.614  34.350  39.340  1.00  0.00     0.198 A 
ATOM     85  F   UNL A   1      38.089  32.358  38.200  1.00  0.00    -0.203 F 
ATOM     86  F   UNL A   1      40.704  37.143  38.367  1.00  0.00    -0.200 F 
ATOM     87  C   UNL A   1      39.278  35.565  39.393  1.00  0.00     0.200 A 
ATOM     88  F   UNL A   1      37.870  33.947  40.380  1.00  0.00    -0.200 F 
ATOM     89  F   UNL A   1      39.202  36.325  40.493  1.00  0.00    -0.200 F 
ENDBRANCH  55  79
BRANCH  67  90
ATOM     90  C   UNL A   1      43.930  28.842  35.494  1.00  0.00     0.064 A 
ATOM     91  C   UNL A   1      43.781  27.776  36.396  1.00  0.00     0.173 A 
ATOM     92  C   UNL A   1      45.222  29.349  35.287  1.00  0.00     0.173 A 
ATOM     93  F   UNL A   1      42.565  27.264  36.640  1.00  0.00    -0.203 F 
ATOM     94  C   UNL A   1      44.874  27.269  37.093  1.00  0.00     0.198 A 
ATOM     95  C   UNL A   1      46.319  28.815  35.959  1.00  0.00     0.198 A 
ATOM     96  F   UNL A   1      45.423  30.361  34.431  1.00  0.00    -0.203 F 
ATOM     97  F   UNL A   1      44.697  26.297  37.998  1.00  0.00    -0.200 F 
ATOM     98  C   UNL A   1      46.142  27.785  36.870  1.00  0.00     0.200 A 
ATOM     99  F   UNL A   1      47.545  29.304  35.730  1.00  0.00    -0.200 F 
ATOM    100  F   UNL A   1      47.193  27.295  37.541  1.00  0.00    -0.200 F 
ENDBRANCH  67  90
ENDBRANCH  41  42
ENDBRANCH  33  36
ENDBRANCH  31  32
ENDBRANCH  30  31
ENDBRANCH  29  30
ENDBRANCH   1  29
TORSDOF 15
ENDMDL
