MODEL 1
REMARK VINA RESULT:     -12.6      0.000      0.000
REMARK SMILES COc1ccc(F)c(NC(=O)N2CCCC[C@@H]2C(=O)NCCCCNC(=O)c2ccc(-c3c4nc(c(-c5c(F)c(F)c(F)c(F)c5F)c5ccc([nH]5)c(-c5c(F)c(F)c(F)c(F)c5F)c5nc(c(-c6c(F)c(F)c(F)c(F)c6F)c6ccc3[nH]6)C=C5)C=C4)cc2)c1
REMARK SMILES IDX 22 1 21 2 20 3 18 4 19 5 17 7 12 8 13 9 14 10 16 11 15 12
REMARK SMILES IDX 10 13 9 14 11 16 8 17 3 18 4 19 91 20 5 21 6 22 7 23 2 24
REMARK SMILES IDX 1 25 23 26 24 27 25 28 26 29 27 31 28 32 29 33 90 34 30 35
REMARK SMILES IDX 89 36 31 37 32 38 33 39 83 40 34 41 88 42 82 43 84 44 35 45
REMARK SMILES IDX 87 46 81 47 80 48 36 50 68 51 48 52 67 53 49 54 52 55 66 56
REMARK SMILES IDX 85 57 50 58 51 59 65 61 86 62 53 63 37 64 38 65 46 66 39 67
REMARK SMILES IDX 40 68 44 69 47 70 41 71 42 72 45 73 43 74 69 75 70 76 78 77
REMARK SMILES IDX 71 78 72 79 76 80 79 81 73 82 74 83 77 84 75 85 54 86 55 87
REMARK SMILES IDX 63 88 56 89 57 90 61 91 64 92 58 93 59 94 62 95 60 96
REMARK H PARENT 20 6 9 15 25 30 84 49 52 60
REMARK Flexibility Score: inf
ROOT
ATOM      1  C   UNL A   1      32.113  30.642  26.088  1.00  0.00     0.023 C 
ENDROOT
BRANCH   1   2
ATOM      2  C   UNL A   1      33.322  29.876  26.628  1.00  0.00     0.116 C 
BRANCH   2   3
ATOM      3  N   UNL A   1      33.926  29.088  25.573  1.00  0.00    -0.354 N 
ATOM      4  C   UNL A   1      33.339  28.209  24.711  1.00  0.00     0.242 C 
ATOM      5  O   UNL A   1      34.074  27.398  24.138  1.00  0.00    -0.273 OA
ATOM      6  H   UNL A   1      34.898  29.203  25.462  1.00  0.00     0.163 HD
BRANCH   4   7
ATOM      7  C   UNL A   1      31.803  28.130  24.554  1.00  0.00     0.176 C 
ATOM      8  N   UNL A   1      31.180  26.945  25.209  1.00  0.00    -0.313 N 
ATOM      9  C   UNL A   1      29.858  26.522  24.751  1.00  0.00     0.122 C 
ATOM     10  C   UNL A   1      29.654  26.601  23.248  1.00  0.00     0.022 C 
ATOM     11  C   UNL A   1      31.492  28.246  23.047  1.00  0.00     0.035 C 
ATOM     12  C   UNL A   1      30.031  27.978  22.732  1.00  0.00     0.004 C 
BRANCH   8  13
ATOM     13  C   UNL A   1      31.577  26.395  26.417  1.00  0.00     0.322 C 
ATOM     14  N   UNL A   1      31.943  25.091  26.510  1.00  0.00    -0.305 N 
ATOM     15  H   UNL A   1      31.646  24.642  27.334  1.00  0.00     0.171 HD
ATOM     16  O   UNL A   1      31.517  27.050  27.461  1.00  0.00    -0.248 OA
BRANCH  14  17
ATOM     17  C   UNL A   1      32.675  24.270  25.632  1.00  0.00     0.082 A 
ATOM     18  C   UNL A   1      34.711  23.608  24.531  1.00  0.00     0.121 A 
ATOM     19  C   UNL A   1      34.002  22.784  23.659  1.00  0.00     0.049 A 
ATOM     20  C   UNL A   1      34.066  24.283  25.566  1.00  0.00     0.075 A 
ATOM     21  C   UNL A   1      32.620  22.663  23.806  1.00  0.00     0.045 A 
ATOM     22  C   UNL A   1      31.968  23.409  24.786  1.00  0.00     0.147 A 
ATOM     23  F   UNL A   1      30.632  23.327  24.885  1.00  0.00    -0.205 F 
BRANCH  18  24
ATOM     24  O   UNL A   1      36.058  23.804  24.396  1.00  0.00    -0.497 OA
ATOM     25  C   UNL A   1      36.570  23.003  23.325  1.00  0.00     0.278 C 
ENDBRANCH  18  24
ENDBRANCH  14  17
ENDBRANCH   8  13
ENDBRANCH   4   7
ENDBRANCH   2   3
ENDBRANCH   1   2
BRANCH   1  26
ATOM     26  C   UNL A   1      31.701  31.846  26.938  1.00  0.00     0.023 C 
BRANCH  26  27
ATOM     27  C   UNL A   1      32.861  32.699  27.435  1.00  0.00     0.116 C 
BRANCH  27  28
ATOM     28  N   UNL A   1      32.477  34.084  27.666  1.00  0.00    -0.352 N 
ATOM     29  C   UNL A   1      32.984  34.978  28.579  1.00  0.00     0.251 C 
ATOM     30  H   UNL A   1      31.756  34.428  27.090  1.00  0.00     0.163 HD
ATOM     31  O   UNL A   1      32.451  36.062  28.760  1.00  0.00    -0.269 OA
BRANCH  29  32
ATOM     32  C   UNL A   1      34.170  34.590  29.367  1.00  0.00     0.039 A 
ATOM     33  C   UNL A   1      33.987  34.087  30.657  1.00  0.00     0.014 A 
ATOM     34  C   UNL A   1      35.446  34.667  28.802  1.00  0.00     0.014 A 
ATOM     35  C   UNL A   1      35.083  33.574  31.351  1.00  0.00     0.010 A 
ATOM     36  C   UNL A   1      36.524  34.100  29.470  1.00  0.00     0.010 A 
ATOM     37  C   UNL A   1      36.347  33.531  30.741  1.00  0.00    -0.014 A 
BRANCH  37  38
ATOM     38  C   UNL A   1      37.490  32.846  31.389  1.00  0.00     0.031 A 
ATOM     39  C   UNL A   1      38.124  31.654  30.742  1.00  0.00     0.074 A 
ATOM     40  C   UNL A   1      37.893  33.254  32.609  1.00  0.00     0.049 A 
ATOM     41  N   UNL A   1      39.062  30.867  31.201  1.00  0.00    -0.248 NA
ATOM     42  C   UNL A   1      37.623  31.280  29.410  1.00  0.00     0.031 C 
ATOM     43  C   UNL A   1      37.323  34.377  33.355  1.00  0.00     0.029 A 
ATOM     44  N   UNL A   1      38.865  32.760  33.442  1.00  0.00    -0.354 N 
ATOM     45  C   UNL A   1      39.256  29.901  30.224  1.00  0.00     0.074 A 
ATOM     46  C   UNL A   1      38.309  30.173  29.164  1.00  0.00     0.031 C 
ATOM     47  C   UNL A   1      37.968  34.501  34.524  1.00  0.00     0.029 A 
ATOM     48  C   UNL A   1      38.966  33.441  34.631  1.00  0.00     0.049 A 
ATOM     49  H   UNL A   1      39.435  31.993  33.211  1.00  0.00     0.167 HD
ATOM     50  C   UNL A   1      40.159  28.894  30.209  1.00  0.00     0.037 A 
ATOM     51  C   UNL A   1      39.764  33.227  35.694  1.00  0.00     0.037 A 
ATOM     52  C   UNL A   1      41.116  28.649  31.254  1.00  0.00     0.049 A 
ATOM     53  C   UNL A   1      40.732  32.078  35.668  1.00  0.00     0.074 A 
ATOM     54  C   UNL A   1      42.132  27.710  31.287  1.00  0.00     0.029 A 
ATOM     55  N   UNL A   1      41.172  29.343  32.452  1.00  0.00    -0.354 N 
ATOM     56  N   UNL A   1      40.953  31.210  34.711  1.00  0.00    -0.248 NA
ATOM     57  C   UNL A   1      41.553  31.870  36.869  1.00  0.00     0.031 C 
ATOM     58  C   UNL A   1      42.771  27.802  32.526  1.00  0.00     0.029 A 
ATOM     59  C   UNL A   1      42.181  28.827  33.249  1.00  0.00     0.049 A 
ATOM     60  H   UNL A   1      40.582  30.091  32.701  1.00  0.00     0.167 HD
ATOM     61  C   UNL A   1      41.940  30.360  35.186  1.00  0.00     0.074 A 
ATOM     62  C   UNL A   1      42.289  30.824  36.514  1.00  0.00     0.031 C 
ATOM     63  C   UNL A   1      42.505  29.292  34.575  1.00  0.00     0.037 A 
BRANCH  50  64
ATOM     64  C   UNL A   1      40.167  27.982  29.018  1.00  0.00     0.064 A 
ATOM     65  C   UNL A   1      39.492  26.754  29.059  1.00  0.00     0.173 A 
ATOM     66  C   UNL A   1      40.896  28.295  27.861  1.00  0.00     0.173 A 
ATOM     67  F   UNL A   1      38.785  26.405  30.145  1.00  0.00    -0.203 F 
ATOM     68  C   UNL A   1      39.554  25.868  27.987  1.00  0.00     0.198 A 
ATOM     69  C   UNL A   1      40.934  27.418  26.781  1.00  0.00     0.198 A 
ATOM     70  F   UNL A   1      41.551  29.462  27.771  1.00  0.00    -0.203 F 
ATOM     71  F   UNL A   1      38.921  24.688  28.057  1.00  0.00    -0.200 F 
ATOM     72  C   UNL A   1      40.271  26.202  26.848  1.00  0.00     0.200 A 
ATOM     73  F   UNL A   1      41.610  27.752  25.673  1.00  0.00    -0.200 F 
ATOM     74  F   UNL A   1      40.320  25.353  25.812  1.00  0.00    -0.200 F 
ENDBRANCH  50  64
BRANCH  51  75
ATOM     75  C   UNL A   1      39.684  34.140  36.862  1.00  0.00     0.064 A 
ATOM     76  C   UNL A   1      40.442  35.317  36.925  1.00  0.00     0.173 A 
ATOM     77  C   UNL A   1      38.880  33.818  37.964  1.00  0.00     0.173 A 
ATOM     78  F   UNL A   1      41.229  35.665  35.897  1.00  0.00    -0.203 F 
ATOM     79  C   UNL A   1      40.418  36.128  38.059  1.00  0.00     0.198 A 
ATOM     80  C   UNL A   1      38.840  34.641  39.088  1.00  0.00     0.198 A 
ATOM     81  F   UNL A   1      38.123  32.711  37.940  1.00  0.00    -0.203 F 
ATOM     82  F   UNL A   1      41.180  37.229  38.109  1.00  0.00    -0.200 F 
ATOM     83  C   UNL A   1      39.616  35.789  39.139  1.00  0.00     0.200 A 
ATOM     84  F   UNL A   1      38.051  34.320  40.123  1.00  0.00    -0.200 F 
ATOM     85  F   UNL A   1      39.592  36.569  40.228  1.00  0.00    -0.200 F 
ENDBRANCH  51  75
BRANCH  63  86
ATOM     86  C   UNL A   1      43.555  28.533  35.330  1.00  0.00     0.064 A 
ATOM     87  C   UNL A   1      43.192  27.556  36.269  1.00  0.00     0.173 A 
ATOM     88  C   UNL A   1      44.914  28.844  35.192  1.00  0.00     0.173 A 
ATOM     89  F   UNL A   1      41.901  27.229  36.440  1.00  0.00    -0.203 F 
ATOM     90  C   UNL A   1      44.153  26.933  37.059  1.00  0.00     0.198 A 
ATOM     91  C   UNL A   1      45.874  28.203  35.969  1.00  0.00     0.198 A 
ATOM     92  F   UNL A   1      45.309  29.761  34.296  1.00  0.00    -0.203 F 
ATOM     93  F   UNL A   1      43.781  26.031  37.978  1.00  0.00    -0.200 F 
ATOM     94  C   UNL A   1      45.493  27.258  36.909  1.00  0.00     0.200 A 
ATOM     95  F   UNL A   1      47.172  28.502  35.808  1.00  0.00    -0.200 F 
ATOM     96  F   UNL A   1      46.417  26.659  37.672  1.00  0.00    -0.200 F 
ENDBRANCH  63  86
ENDBRANCH  37  38
ENDBRANCH  29  32
ENDBRANCH  27  28
ENDBRANCH  26  27
ENDBRANCH   1  26
TORSDOF 14
ENDMDL
MODEL 2
REMARK VINA RESULT:     -12.6      0.926      7.389
REMARK SMILES COc1ccc(F)c(NC(=O)N2CCCC[C@@H]2C(=O)NCCCCNC(=O)c2ccc(-c3c4nc(c(-c5c(F)c(F)c(F)c(F)c5F)c5ccc([nH]5)c(-c5c(F)c(F)c(F)c(F)c5F)c5nc(c(-c6c(F)c(F)c(F)c(F)c6F)c6ccc3[nH]6)C=C5)C=C4)cc2)c1
REMARK SMILES IDX 22 1 21 2 20 3 18 4 19 5 17 7 12 8 13 9 14 10 16 11 15 12
REMARK SMILES IDX 10 13 9 14 11 16 8 17 3 18 4 19 91 20 5 21 6 22 7 23 2 24
REMARK SMILES IDX 1 25 23 26 24 27 25 28 26 29 27 31 28 32 29 33 90 34 30 35
REMARK SMILES IDX 89 36 31 37 32 38 33 39 83 40 34 41 88 42 82 43 84 44 35 45
REMARK SMILES IDX 87 46 81 47 80 48 36 50 68 51 48 52 67 53 49 54 52 55 66 56
REMARK SMILES IDX 85 57 50 58 51 59 65 61 86 62 53 63 37 64 38 65 46 66 39 67
REMARK SMILES IDX 40 68 44 69 47 70 41 71 42 72 45 73 43 74 69 75 70 76 78 77
REMARK SMILES IDX 71 78 72 79 76 80 79 81 73 82 74 83 77 84 75 85 54 86 55 87
REMARK SMILES IDX 63 88 56 89 57 90 61 91 64 92 58 93 59 94 62 95 60 96
REMARK H PARENT 20 6 9 15 25 30 84 49 52 60
REMARK Flexibility Score: inf
ROOT
ATOM      1  C   UNL A   1      31.747  30.637  26.539  1.00  0.00     0.023 C 
ENDROOT
BRANCH   1   2
ATOM      2  C   UNL A   1      33.158  30.151  26.877  1.00  0.00     0.116 C 
BRANCH   2   3
ATOM      3  N   UNL A   1      33.797  29.609  25.694  1.00  0.00    -0.354 N 
ATOM      4  C   UNL A   1      33.273  28.803  24.727  1.00  0.00     0.242 C 
ATOM      5  O   UNL A   1      34.068  28.182  24.013  1.00  0.00    -0.273 OA
ATOM      6  H   UNL A   1      34.742  29.857  25.572  1.00  0.00     0.163 HD
BRANCH   4   7
ATOM      7  C   UNL A   1      31.751  28.560  24.608  1.00  0.00     0.176 C 
ATOM      8  N   UNL A   1      31.298  27.240  25.130  1.00  0.00    -0.313 N 
ATOM      9  C   UNL A   1      30.015  26.719  24.665  1.00  0.00     0.122 C 
ATOM     10  C   UNL A   1      29.736  26.951  23.190  1.00  0.00     0.022 C 
ATOM     11  C   UNL A   1      31.362  28.816  23.137  1.00  0.00     0.035 C 
ATOM     12  C   UNL A   1      29.929  28.415  22.836  1.00  0.00     0.004 C 
BRANCH   8  13
ATOM     13  C   UNL A   1      31.810  26.602  26.249  1.00  0.00     0.322 C 
ATOM     14  N   UNL A   1      32.386  25.376  26.158  1.00  0.00    -0.305 N 
ATOM     15  H   UNL A   1      32.187  24.775  26.911  1.00  0.00     0.171 HD
ATOM     16  O   UNL A   1      31.669  27.087  27.375  1.00  0.00    -0.248 OA
BRANCH  14  17
ATOM     17  C   UNL A   1      33.220  24.816  25.173  1.00  0.00     0.082 A 
ATOM     18  C   UNL A   1      33.782  24.320  22.885  1.00  0.00     0.121 A 
ATOM     19  C   UNL A   1      34.777  23.434  23.295  1.00  0.00     0.049 A 
ATOM     20  C   UNL A   1      33.064  25.071  23.813  1.00  0.00     0.075 A 
ATOM     21  C   UNL A   1      35.030  23.275  24.657  1.00  0.00     0.045 A 
ATOM     22  C   UNL A   1      34.249  23.962  25.584  1.00  0.00     0.147 A 
ATOM     23  F   UNL A   1      34.465  23.760  26.893  1.00  0.00    -0.205 F 
BRANCH  18  24
ATOM     24  O   UNL A   1      33.457  24.472  21.565  1.00  0.00    -0.497 OA
ATOM     25  C   UNL A   1      32.787  25.721  21.362  1.00  0.00     0.278 C 
ENDBRANCH  18  24
ENDBRANCH  14  17
ENDBRANCH   8  13
ENDBRANCH   4   7
ENDBRANCH   2   3
ENDBRANCH   1   2
BRANCH   1  26
ATOM     26  C   UNL A   1      31.533  32.137  26.746  1.00  0.00     0.023 C 
BRANCH  26  27
ATOM     27  C   UNL A   1      32.714  32.867  27.373  1.00  0.00     0.116 C 
BRANCH  27  28
ATOM     28  N   UNL A   1      32.421  34.264  27.658  1.00  0.00    -0.352 N 
ATOM     29  C   UNL A   1      32.977  35.085  28.610  1.00  0.00     0.251 C 
ATOM     30  H   UNL A   1      31.731  34.678  27.090  1.00  0.00     0.163 HD
ATOM     31  O   UNL A   1      32.515  36.194  28.831  1.00  0.00    -0.269 OA
BRANCH  29  32
ATOM     32  C   UNL A   1      34.126  34.587  29.391  1.00  0.00     0.039 A 
ATOM     33  C   UNL A   1      33.894  34.024  30.648  1.00  0.00     0.014 A 
ATOM     34  C   UNL A   1      35.413  34.622  28.849  1.00  0.00     0.014 A 
ATOM     35  C   UNL A   1      34.947  33.412  31.327  1.00  0.00     0.010 A 
ATOM     36  C   UNL A   1      36.447  33.958  29.498  1.00  0.00     0.010 A 
ATOM     37  C   UNL A   1      36.217  33.331  30.733  1.00  0.00    -0.014 A 
BRANCH  37  38
ATOM     38  C   UNL A   1      37.309  32.548  31.357  1.00  0.00     0.031 A 
ATOM     39  C   UNL A   1      37.835  32.924  32.708  1.00  0.00     0.074 A 
ATOM     40  C   UNL A   1      37.883  31.551  30.656  1.00  0.00     0.049 A 
ATOM     41  N   UNL A   1      38.846  32.423  33.368  1.00  0.00    -0.248 NA
ATOM     42  C   UNL A   1      37.147  34.024  33.402  1.00  0.00     0.031 C 
ATOM     43  C   UNL A   1      37.483  31.122  29.315  1.00  0.00     0.029 A 
ATOM     44  N   UNL A   1      38.936  30.727  30.968  1.00  0.00    -0.354 N 
ATOM     45  C   UNL A   1      38.925  33.152  34.547  1.00  0.00     0.074 A 
ATOM     46  C   UNL A   1      37.886  34.158  34.494  1.00  0.00     0.031 C 
ATOM     47  C   UNL A   1      38.264  30.103  28.927  1.00  0.00     0.029 A 
ATOM     48  C   UNL A   1      39.248  29.834  29.972  1.00  0.00     0.049 A 
ATOM     49  H   UNL A   1      39.421  30.772  31.823  1.00  0.00     0.167 HD
ATOM     50  C   UNL A   1      39.776  32.978  35.584  1.00  0.00     0.037 A 
ATOM     51  C   UNL A   1      40.227  28.911  29.902  1.00  0.00     0.037 A 
ATOM     52  C   UNL A   1      40.786  31.956  35.640  1.00  0.00     0.049 A 
ATOM     53  C   UNL A   1      41.182  28.764  31.053  1.00  0.00     0.074 A 
ATOM     54  C   UNL A   1      41.635  31.642  36.687  1.00  0.00     0.029 A 
ATOM     55  N   UNL A   1      41.089  31.088  34.604  1.00  0.00    -0.354 N 
ATOM     56  N   UNL A   1      41.206  29.415  32.191  1.00  0.00    -0.248 NA
ATOM     57  C   UNL A   1      42.251  27.766  30.908  1.00  0.00     0.031 C 
ATOM     58  C   UNL A   1      42.485  30.616  36.266  1.00  0.00     0.029 A 
ATOM     59  C   UNL A   1      42.139  30.261  34.972  1.00  0.00     0.049 A 
ATOM     60  H   UNL A   1      40.627  31.062  33.734  1.00  0.00     0.167 HD
ATOM     61  C   UNL A   1      42.281  28.902  32.901  1.00  0.00     0.074 A 
ATOM     62  C   UNL A   1      42.880  27.875  32.072  1.00  0.00     0.031 C 
ATOM     63  C   UNL A   1      42.731  29.253  34.129  1.00  0.00     0.037 A 
BRANCH  50  64
ATOM     64  C   UNL A   1      39.646  33.906  36.756  1.00  0.00     0.064 A 
ATOM     65  C   UNL A   1      40.369  35.107  36.795  1.00  0.00     0.173 A 
ATOM     66  C   UNL A   1      38.857  33.575  37.867  1.00  0.00     0.173 A 
ATOM     67  F   UNL A   1      41.143  35.465  35.758  1.00  0.00    -0.203 F 
ATOM     68  C   UNL A   1      40.312  35.939  37.908  1.00  0.00     0.198 A 
ATOM     69  C   UNL A   1      38.782  34.423  38.968  1.00  0.00     0.198 A 
ATOM     70  F   UNL A   1      38.140  32.442  37.873  1.00  0.00    -0.203 F 
ATOM     71  F   UNL A   1      41.031  37.070  37.935  1.00  0.00    -0.200 F 
ATOM     72  C   UNL A   1      39.517  35.599  38.992  1.00  0.00     0.200 A 
ATOM     73  F   UNL A   1      37.996  34.103  40.006  1.00  0.00    -0.200 F 
ATOM     74  F   UNL A   1      39.455  36.407  40.059  1.00  0.00    -0.200 F 
ENDBRANCH  50  64
BRANCH  51  75
ATOM     75  C   UNL A   1      40.330  28.048  28.699  1.00  0.00     0.064 A 
ATOM     76  C   UNL A   1      39.724  26.785  28.650  1.00  0.00     0.173 A 
ATOM     77  C   UNL A   1      41.087  28.455  27.593  1.00  0.00     0.173 A 
ATOM     78  F   UNL A   1      38.993  26.349  29.686  1.00  0.00    -0.203 F 
ATOM     79  C   UNL A   1      39.891  25.950  27.547  1.00  0.00     0.198 A 
ATOM     80  C   UNL A   1      41.236  27.628  26.482  1.00  0.00     0.198 A 
ATOM     81  F   UNL A   1      41.670  29.663  27.588  1.00  0.00    -0.203 F 
ATOM     82  F   UNL A   1      39.332  24.732  27.539  1.00  0.00    -0.200 F 
ATOM     83  C   UNL A   1      40.646  26.373  26.463  1.00  0.00     0.200 A 
ATOM     84  F   UNL A   1      41.951  28.047  25.428  1.00  0.00    -0.200 F 
ATOM     85  F   UNL A   1      40.806  25.571  25.402  1.00  0.00    -0.200 F 
ENDBRANCH  51  75
BRANCH  63  86
ATOM     86  C   UNL A   1      43.935  28.537  34.660  1.00  0.00     0.064 A 
ATOM     87  C   UNL A   1      43.793  27.348  35.392  1.00  0.00     0.173 A 
ATOM     88  C   UNL A   1      45.220  29.080  34.527  1.00  0.00     0.173 A 
ATOM     89  F   UNL A   1      42.582  26.793  35.552  1.00  0.00    -0.203 F 
ATOM     90  C   UNL A   1      44.893  26.742  35.991  1.00  0.00     0.198 A 
ATOM     91  C   UNL A   1      46.321  28.460  35.108  1.00  0.00     0.198 A 
ATOM     92  F   UNL A   1      45.406  30.208  33.823  1.00  0.00    -0.203 F 
ATOM     93  F   UNL A   1      44.731  25.628  36.718  1.00  0.00    -0.200 F 
ATOM     94  C   UNL A   1      46.156  27.298  35.849  1.00  0.00     0.200 A 
ATOM     95  F   UNL A   1      47.544  28.986  34.953  1.00  0.00    -0.200 F 
ATOM     96  F   UNL A   1      47.214  26.715  36.426  1.00  0.00    -0.200 F 
ENDBRANCH  63  86
ENDBRANCH  37  38
ENDBRANCH  29  32
ENDBRANCH  27  28
ENDBRANCH  26  27
ENDBRANCH   1  26
TORSDOF 14
ENDMDL
MODEL 3
REMARK VINA RESULT:     -12.6      0.690      7.337
REMARK SMILES COc1ccc(F)c(NC(=O)N2CCCC[C@@H]2C(=O)NCCCCNC(=O)c2ccc(-c3c4nc(c(-c5c(F)c(F)c(F)c(F)c5F)c5ccc([nH]5)c(-c5c(F)c(F)c(F)c(F)c5F)c5nc(c(-c6c(F)c(F)c(F)c(F)c6F)c6ccc3[nH]6)C=C5)C=C4)cc2)c1
REMARK SMILES IDX 22 1 21 2 20 3 18 4 19 5 17 7 12 8 13 9 14 10 16 11 15 12
REMARK SMILES IDX 10 13 9 14 11 16 8 17 3 18 4 19 91 20 5 21 6 22 7 23 2 24
REMARK SMILES IDX 1 25 23 26 24 27 25 28 26 29 27 31 28 32 29 33 90 34 30 35
REMARK SMILES IDX 89 36 31 37 32 38 33 39 83 40 34 41 88 42 82 43 84 44 35 45
REMARK SMILES IDX 87 46 81 47 80 48 36 50 68 51 48 52 67 53 49 54 52 55 66 56
REMARK SMILES IDX 85 57 50 58 51 59 65 61 86 62 53 63 37 64 38 65 46 66 39 67
REMARK SMILES IDX 40 68 44 69 47 70 41 71 42 72 45 73 43 74 69 75 70 76 78 77
REMARK SMILES IDX 71 78 72 79 76 80 79 81 73 82 74 83 77 84 75 85 54 86 55 87
REMARK SMILES IDX 63 88 56 89 57 90 61 91 64 92 58 93 59 94 62 95 60 96
REMARK H PARENT 20 6 9 15 25 30 84 49 52 60
REMARK Flexibility Score: inf
ROOT
ATOM      1  C   UNL A   1      31.823  30.688  26.249  1.00  0.00     0.023 C 
ENDROOT
BRANCH   1   2
ATOM      2  C   UNL A   1      33.121  30.091  26.795  1.00  0.00     0.116 C 
BRANCH   2   3
ATOM      3  N   UNL A   1      33.795  29.331  25.761  1.00  0.00    -0.354 N 
ATOM      4  C   UNL A   1      33.271  28.456  24.855  1.00  0.00     0.242 C 
ATOM      5  O   UNL A   1      34.050  27.668  24.310  1.00  0.00    -0.273 OA
ATOM      6  H   UNL A   1      34.769  29.464  25.705  1.00  0.00     0.163 HD
BRANCH   4   7
ATOM      7  C   UNL A   1      31.747  28.353  24.615  1.00  0.00     0.176 C 
ATOM      8  N   UNL A   1      31.104  27.169  25.252  1.00  0.00    -0.313 N 
ATOM      9  C   UNL A   1      29.816  26.720  24.728  1.00  0.00     0.122 C 
ATOM     10  C   UNL A   1      29.695  26.775  23.215  1.00  0.00     0.022 C 
ATOM     11  C   UNL A   1      31.519  28.443  23.091  1.00  0.00     0.035 C 
ATOM     12  C   UNL A   1      30.082  28.150  22.699  1.00  0.00     0.004 C 
BRANCH   8  13
ATOM     13  C   UNL A   1      31.441  26.642  26.488  1.00  0.00     0.322 C 
ATOM     14  N   UNL A   1      31.815  25.344  26.622  1.00  0.00    -0.305 N 
ATOM     15  H   UNL A   1      31.478  24.905  27.435  1.00  0.00     0.171 HD
ATOM     16  O   UNL A   1      31.318  27.312  27.517  1.00  0.00    -0.248 OA
BRANCH  14  17
ATOM     17  C   UNL A   1      32.601  24.517  25.798  1.00  0.00     0.082 A 
ATOM     18  C   UNL A   1      34.700  23.861  24.818  1.00  0.00     0.121 A 
ATOM     19  C   UNL A   1      34.047  23.015  23.924  1.00  0.00     0.049 A 
ATOM     20  C   UNL A   1      33.993  24.545  25.806  1.00  0.00     0.075 A 
ATOM     21  C   UNL A   1      32.661  22.880  24.000  1.00  0.00     0.045 A 
ATOM     22  C   UNL A   1      31.950  23.634  24.930  1.00  0.00     0.147 A 
ATOM     23  F   UNL A   1      30.611  23.538  24.959  1.00  0.00    -0.205 F 
BRANCH  18  24
ATOM     24  O   UNL A   1      36.050  24.071  24.752  1.00  0.00    -0.497 OA
ATOM     25  C   UNL A   1      36.689  23.561  25.927  1.00  0.00     0.278 C 
ENDBRANCH  18  24
ENDBRANCH  14  17
ENDBRANCH   8  13
ENDBRANCH   4   7
ENDBRANCH   2   3
ENDBRANCH   1   2
BRANCH   1  26
ATOM     26  C   UNL A   1      31.517  32.098  26.758  1.00  0.00     0.023 C 
BRANCH  26  27
ATOM     27  C   UNL A   1      32.701  32.814  27.394  1.00  0.00     0.116 C 
BRANCH  27  28
ATOM     28  N   UNL A   1      32.425  34.216  27.669  1.00  0.00    -0.352 N 
ATOM     29  C   UNL A   1      32.995  35.039  28.611  1.00  0.00     0.251 C 
ATOM     30  H   UNL A   1      31.734  34.633  27.103  1.00  0.00     0.163 HD
ATOM     31  O   UNL A   1      32.547  36.155  28.825  1.00  0.00    -0.269 OA
BRANCH  29  32
ATOM     32  C   UNL A   1      34.145  34.536  29.387  1.00  0.00     0.039 A 
ATOM     33  C   UNL A   1      33.911  33.944  30.631  1.00  0.00     0.014 A 
ATOM     34  C   UNL A   1      35.435  34.595  28.853  1.00  0.00     0.014 A 
ATOM     35  C   UNL A   1      34.967  33.328  31.302  1.00  0.00     0.010 A 
ATOM     36  C   UNL A   1      36.472  33.928  29.494  1.00  0.00     0.010 A 
ATOM     37  C   UNL A   1      36.241  33.272  30.714  1.00  0.00    -0.014 A 
BRANCH  37  38
ATOM     38  C   UNL A   1      37.337  32.486  31.327  1.00  0.00     0.031 A 
ATOM     39  C   UNL A   1      37.865  32.850  32.681  1.00  0.00     0.074 A 
ATOM     40  C   UNL A   1      37.913  31.499  30.615  1.00  0.00     0.049 A 
ATOM     41  N   UNL A   1      38.879  32.347  33.334  1.00  0.00    -0.248 NA
ATOM     42  C   UNL A   1      37.174  33.940  33.389  1.00  0.00     0.031 C 
ATOM     43  C   UNL A   1      37.512  31.083  29.270  1.00  0.00     0.029 A 
ATOM     44  N   UNL A   1      38.970  30.676  30.916  1.00  0.00    -0.354 N 
ATOM     45  C   UNL A   1      38.958  33.063  34.520  1.00  0.00     0.074 A 
ATOM     46  C   UNL A   1      37.915  34.066  34.480  1.00  0.00     0.031 C 
ATOM     47  C   UNL A   1      38.296  30.070  28.870  1.00  0.00     0.029 A 
ATOM     48  C   UNL A   1      39.283  29.794  29.910  1.00  0.00     0.049 A 
ATOM     49  H   UNL A   1      39.457  30.713  31.770  1.00  0.00     0.167 HD
ATOM     50  C   UNL A   1      39.812  32.881  35.553  1.00  0.00     0.037 A 
ATOM     51  C   UNL A   1      40.265  28.876  29.829  1.00  0.00     0.037 A 
ATOM     52  C   UNL A   1      40.826  31.863  35.597  1.00  0.00     0.049 A 
ATOM     53  C   UNL A   1      41.223  28.720  30.975  1.00  0.00     0.074 A 
ATOM     54  C   UNL A   1      41.679  31.541  36.638  1.00  0.00     0.029 A 
ATOM     55  N   UNL A   1      41.130  31.006  34.550  1.00  0.00    -0.354 N 
ATOM     56  N   UNL A   1      41.247  29.359  32.120  1.00  0.00    -0.248 NA
ATOM     57  C   UNL A   1      42.296  27.728  30.817  1.00  0.00     0.031 C 
ATOM     58  C   UNL A   1      42.531  30.522  36.205  1.00  0.00     0.029 A 
ATOM     59  C   UNL A   1      42.183  30.180  34.907  1.00  0.00     0.049 A 
ATOM     60  H   UNL A   1      40.666  30.988  33.682  1.00  0.00     0.167 HD
ATOM     61  C   UNL A   1      42.326  28.843  32.822  1.00  0.00     0.074 A 
ATOM     62  C   UNL A   1      42.926  27.827  31.981  1.00  0.00     0.031 C 
ATOM     63  C   UNL A   1      42.778  29.183  34.053  1.00  0.00     0.037 A 
BRANCH  50  64
ATOM     64  C   UNL A   1      39.682  33.796  36.735  1.00  0.00     0.064 A 
ATOM     65  C   UNL A   1      38.871  33.442  37.823  1.00  0.00     0.173 A 
ATOM     66  C   UNL A   1      40.309  35.051  36.761  1.00  0.00     0.173 A 
ATOM     67  F   UNL A   1      38.246  32.255  37.842  1.00  0.00    -0.203 F 
ATOM     68  C   UNL A   1      38.686  34.316  38.890  1.00  0.00     0.198 A 
ATOM     69  C   UNL A   1      40.142  35.911  37.843  1.00  0.00     0.198 A 
ATOM     70  F   UNL A   1      41.101  35.431  35.748  1.00  0.00    -0.203 F 
ATOM     71  F   UNL A   1      37.886  33.967  39.908  1.00  0.00    -0.200 F 
ATOM     72  C   UNL A   1      39.323  35.547  38.902  1.00  0.00     0.200 A 
ATOM     73  F   UNL A   1      40.776  37.092  37.862  1.00  0.00    -0.200 F 
ATOM     74  F   UNL A   1      39.153  36.382  39.935  1.00  0.00    -0.200 F 
ENDBRANCH  50  64
BRANCH  51  75
ATOM     75  C   UNL A   1      40.369  28.025  28.616  1.00  0.00     0.064 A 
ATOM     76  C   UNL A   1      39.776  26.756  28.559  1.00  0.00     0.173 A 
ATOM     77  C   UNL A   1      41.113  28.452  27.508  1.00  0.00     0.173 A 
ATOM     78  F   UNL A   1      39.058  26.302  29.597  1.00  0.00    -0.203 F 
ATOM     79  C   UNL A   1      39.944  25.934  27.446  1.00  0.00     0.198 A 
ATOM     80  C   UNL A   1      41.262  27.638  26.388  1.00  0.00     0.198 A 
ATOM     81  F   UNL A   1      41.681  29.667  27.511  1.00  0.00    -0.203 F 
ATOM     82  F   UNL A   1      39.399  24.710  27.431  1.00  0.00    -0.200 F 
ATOM     83  C   UNL A   1      40.686  26.376  26.361  1.00  0.00     0.200 A 
ATOM     84  F   UNL A   1      41.964  28.075  25.333  1.00  0.00    -0.200 F 
ATOM     85  F   UNL A   1      40.847  25.586  25.291  1.00  0.00    -0.200 F 
ENDBRANCH  51  75
BRANCH  63  86
ATOM     86  C   UNL A   1      43.985  28.465  34.574  1.00  0.00     0.064 A 
ATOM     87  C   UNL A   1      45.273  28.971  34.338  1.00  0.00     0.173 A 
ATOM     88  C   UNL A   1      43.871  27.228  35.221  1.00  0.00     0.173 A 
ATOM     89  F   UNL A   1      45.433  30.150  33.716  1.00  0.00    -0.203 F 
ATOM     90  C   UNL A   1      46.403  28.251  34.713  1.00  0.00     0.198 A 
ATOM     91  C   UNL A   1      45.003  26.521  35.614  1.00  0.00     0.198 A 
ATOM     92  F   UNL A   1      42.660  26.712  35.481  1.00  0.00    -0.203 F 
ATOM     93  F   UNL A   1      47.624  28.734  34.443  1.00  0.00    -0.200 F 
ATOM     94  C   UNL A   1      46.267  27.026  35.349  1.00  0.00     0.200 A 
ATOM     95  F   UNL A   1      44.871  25.347  36.249  1.00  0.00    -0.200 F 
ATOM     96  F   UNL A   1      47.356  26.333  35.708  1.00  0.00    -0.200 F 
ENDBRANCH  63  86
ENDBRANCH  37  38
ENDBRANCH  29  32
ENDBRANCH  27  28
ENDBRANCH  26  27
ENDBRANCH   1  26
TORSDOF 14
ENDMDL
