MODEL 1
REMARK VINA RESULT:     -12.1      0.000      0.000
REMARK SMILES CCn1ncc(CNc2ccccc2C(=O)NCCCCNC(=O)c2ccc(-c3c4nc(c(-c5c(F)c(F)c(F)c(F)c5F)c5ccc([nH]5)c(-c5c(F)c(F)c(F)c(F)c5F)c5nc(c(-c6c(F)c(F)c(F)c(F)c6F)c6ccc3[nH]6)C=C5)C=C4)cc2)c1C
REMARK SMILES IDX 18 1 17 2 15 3 16 4 14 6 9 7 10 8 11 9 13 10 12 11 8 12 7 14
REMARK SMILES IDX 6 15 3 16 4 17 88 18 5 19 89 20 2 21 1 22 19 23 20 24 21 25
REMARK SMILES IDX 22 26 23 27 24 29 25 30 26 31 87 32 27 33 86 34 28 35 29 36
REMARK SMILES IDX 30 37 80 38 31 39 85 40 79 41 81 42 32 43 84 44 78 45 77 46
REMARK SMILES IDX 33 48 65 49 45 50 64 51 46 52 49 53 63 54 82 55 47 56 48 57
REMARK SMILES IDX 62 59 83 60 50 61 34 62 35 63 43 64 36 65 37 66 41 67 44 68
REMARK SMILES IDX 38 69 39 70 42 71 40 72 66 73 67 74 75 75 68 76 69 77 73 78
REMARK SMILES IDX 76 79 70 80 71 81 74 82 72 83 51 84 52 85 60 86 53 87 54 88
REMARK SMILES IDX 58 89 61 90 55 91 56 92 59 93 57 94
REMARK H PARENT 17 5 8 13 22 28 81 47 49 58
REMARK Flexibility Score: inf
ROOT
ATOM      1  C   UNL A   1      36.215  21.272  25.267  1.00  0.00     0.116 C 
ENDROOT
BRANCH   1   2
ATOM      2  N   UNL A   1      35.596  21.746  26.495  1.00  0.00    -0.352 N 
ATOM      3  C   UNL A   1      34.609  22.705  26.653  1.00  0.00     0.253 C 
ATOM      4  O   UNL A   1      34.175  22.918  27.786  1.00  0.00    -0.269 OA
ATOM      5  H   UNL A   1      35.923  21.330  27.325  1.00  0.00     0.163 HD
BRANCH   3   6
ATOM      6  C   UNL A   1      34.101  23.537  25.519  1.00  0.00     0.062 A 
ATOM      7  C   UNL A   1      33.112  23.132  24.606  1.00  0.00     0.047 A 
ATOM      8  C   UNL A   1      32.845  23.957  23.496  1.00  0.00     0.026 A 
ATOM      9  C   UNL A   1      33.468  25.191  23.332  1.00  0.00     0.002 A 
ATOM     10  C   UNL A   1      34.685  24.811  25.377  1.00  0.00     0.016 A 
ATOM     11  C   UNL A   1      34.366  25.636  24.294  1.00  0.00     0.001 A 
BRANCH   7  12
ATOM     12  N   UNL A   1      32.280  22.036  24.767  1.00  0.00    -0.380 N 
ATOM     13  H   UNL A   1      31.700  21.974  25.560  1.00  0.00     0.160 HD
BRANCH  12  14
ATOM     14  C   UNL A   1      32.261  20.975  23.771  1.00  0.00     0.152 C 
BRANCH  14  15
ATOM     15  C   UNL A   1      32.510  19.658  24.417  1.00  0.00     0.012 A 
ATOM     16  N   UNL A   1      32.968  17.539  24.799  1.00  0.00    -0.270 N 
ATOM     17  N   UNL A   1      33.105  18.132  25.995  1.00  0.00    -0.181 NA
ATOM     18  C   UNL A   1      32.623  18.421  23.802  1.00  0.00     0.040 A 
ATOM     19  C   UNL A   1      32.901  19.417  25.739  1.00  0.00     0.141 A 
ATOM     20  C   UNL A   1      32.531  18.083  22.361  1.00  0.00     0.067 C 
BRANCH  16  21
ATOM     21  C   UNL A   1      33.289  16.130  24.656  1.00  0.00     0.141 C 
ATOM     22  C   UNL A   1      34.638  15.722  25.232  1.00  0.00     0.029 C 
ENDBRANCH  16  21
ENDBRANCH  14  15
ENDBRANCH  12  14
ENDBRANCH   7  12
ENDBRANCH   3   6
ENDBRANCH   1   2
BRANCH   1  23
ATOM     23  C   UNL A   1      37.724  21.517  25.124  1.00  0.00     0.023 C 
BRANCH  23  24
ATOM     24  C   UNL A   1      38.352  22.669  25.920  1.00  0.00     0.023 C 
BRANCH  24  25
ATOM     25  C   UNL A   1      39.538  22.284  26.778  1.00  0.00     0.116 C 
BRANCH  25  26
ATOM     26  N   UNL A   1      40.839  22.198  26.127  1.00  0.00    -0.352 N 
ATOM     27  C   UNL A   1      41.776  23.212  25.928  1.00  0.00     0.251 C 
ATOM     28  H   UNL A   1      41.090  21.310  25.784  1.00  0.00     0.163 HD
ATOM     29  O   UNL A   1      42.737  23.025  25.202  1.00  0.00    -0.269 OA
BRANCH  27  30
ATOM     30  C   UNL A   1      41.615  24.524  26.617  1.00  0.00     0.039 A 
ATOM     31  C   UNL A   1      40.865  25.574  26.069  1.00  0.00     0.014 A 
ATOM     32  C   UNL A   1      42.289  24.739  27.811  1.00  0.00     0.014 A 
ATOM     33  C   UNL A   1      40.808  26.804  26.738  1.00  0.00     0.010 A 
ATOM     34  C   UNL A   1      42.155  25.883  28.527  1.00  0.00     0.010 A 
ATOM     35  C   UNL A   1      41.483  26.942  27.953  1.00  0.00    -0.014 A 
BRANCH  35  36
ATOM     36  C   UNL A   1      41.514  28.139  28.763  1.00  0.00     0.031 A 
ATOM     37  C   UNL A   1      42.534  29.137  28.357  1.00  0.00     0.074 A 
ATOM     38  C   UNL A   1      40.422  28.490  29.478  1.00  0.00     0.049 A 
ATOM     39  N   UNL A   1      43.512  29.583  29.068  1.00  0.00    -0.248 NA
ATOM     40  C   UNL A   1      42.546  29.620  26.964  1.00  0.00     0.031 C 
ATOM     41  C   UNL A   1      39.138  27.783  29.607  1.00  0.00     0.029 A 
ATOM     42  N   UNL A   1      40.180  29.663  30.113  1.00  0.00    -0.354 N 
ATOM     43  C   UNL A   1      44.173  30.517  28.278  1.00  0.00     0.074 A 
ATOM     44  C   UNL A   1      43.653  30.365  26.945  1.00  0.00     0.031 C 
ATOM     45  C   UNL A   1      38.205  28.636  30.087  1.00  0.00     0.029 A 
ATOM     46  C   UNL A   1      38.849  29.892  30.425  1.00  0.00     0.049 A 
ATOM     47  H   UNL A   1      40.895  30.303  30.334  1.00  0.00     0.167 HD
ATOM     48  C   UNL A   1      44.946  31.491  28.834  1.00  0.00     0.037 A 
ATOM     49  C   UNL A   1      38.333  31.065  30.868  1.00  0.00     0.037 A 
ATOM     50  C   UNL A   1      45.147  31.253  30.242  1.00  0.00     0.049 A 
ATOM     51  C   UNL A   1      39.476  31.869  31.390  1.00  0.00     0.074 A 
ATOM     52  C   UNL A   1      45.715  30.224  30.968  1.00  0.00     0.029 A 
ATOM     53  N   UNL A   1      44.348  31.939  31.126  1.00  0.00    -0.354 N 
ATOM     54  N   UNL A   1      40.179  31.531  32.438  1.00  0.00    -0.248 NA
ATOM     55  C   UNL A   1      40.143  32.775  30.465  1.00  0.00     0.031 C 
ATOM     56  C   UNL A   1      44.847  30.045  32.086  1.00  0.00     0.029 A 
ATOM     57  C   UNL A   1      43.850  31.020  32.017  1.00  0.00     0.049 A 
ATOM     58  H   UNL A   1      44.166  32.907  31.122  1.00  0.00     0.167 HD
ATOM     59  C   UNL A   1      41.494  31.822  32.097  1.00  0.00     0.074 A 
ATOM     60  C   UNL A   1      41.400  32.665  30.906  1.00  0.00     0.031 C 
ATOM     61  C   UNL A   1      42.538  31.108  32.617  1.00  0.00     0.037 A 
BRANCH  48  62
ATOM     62  C   UNL A   1      45.251  32.822  28.210  1.00  0.00     0.064 A 
ATOM     63  C   UNL A   1      46.594  33.180  27.985  1.00  0.00     0.173 A 
ATOM     64  C   UNL A   1      44.308  33.862  28.085  1.00  0.00     0.173 A 
ATOM     65  F   UNL A   1      47.570  32.266  28.095  1.00  0.00    -0.203 F 
ATOM     66  C   UNL A   1      46.970  34.498  27.722  1.00  0.00     0.198 A 
ATOM     67  C   UNL A   1      44.681  35.166  27.764  1.00  0.00     0.198 A 
ATOM     68  F   UNL A   1      43.013  33.686  28.377  1.00  0.00    -0.203 F 
ATOM     69  F   UNL A   1      48.269  34.814  27.637  1.00  0.00    -0.200 F 
ATOM     70  C   UNL A   1      46.014  35.491  27.616  1.00  0.00     0.200 A 
ATOM     71  F   UNL A   1      43.742  36.119  27.680  1.00  0.00    -0.200 F 
ATOM     72  F   UNL A   1      46.376  36.766  27.422  1.00  0.00    -0.200 F 
ENDBRANCH  48  62
BRANCH  49  73
ATOM     73  C   UNL A   1      36.993  31.637  30.581  1.00  0.00     0.064 A 
ATOM     74  C   UNL A   1      36.037  31.800  31.597  1.00  0.00     0.173 A 
ATOM     75  C   UNL A   1      36.704  32.271  29.353  1.00  0.00     0.173 A 
ATOM     76  F   UNL A   1      36.249  31.269  32.811  1.00  0.00    -0.203 F 
ATOM     77  C   UNL A   1      34.879  32.564  31.405  1.00  0.00     0.198 A 
ATOM     78  C   UNL A   1      35.544  33.022  29.159  1.00  0.00     0.198 A 
ATOM     79  F   UNL A   1      37.583  32.251  28.342  1.00  0.00    -0.203 F 
ATOM     80  F   UNL A   1      34.021  32.744  32.419  1.00  0.00    -0.200 F 
ATOM     81  C   UNL A   1      34.638  33.182  30.190  1.00  0.00     0.200 A 
ATOM     82  F   UNL A   1      35.341  33.639  27.986  1.00  0.00    -0.200 F 
ATOM     83  F   UNL A   1      33.559  33.958  30.022  1.00  0.00    -0.200 F 
ENDBRANCH  49  73
BRANCH  61  84
ATOM     84  C   UNL A   1      42.252  30.144  33.739  1.00  0.00     0.064 A 
ATOM     85  C   UNL A   1      41.866  28.806  33.543  1.00  0.00     0.173 A 
ATOM     86  C   UNL A   1      42.558  30.531  35.049  1.00  0.00     0.173 A 
ATOM     87  F   UNL A   1      41.659  28.319  32.317  1.00  0.00    -0.203 F 
ATOM     88  C   UNL A   1      41.754  27.913  34.606  1.00  0.00     0.198 A 
ATOM     89  C   UNL A   1      42.481  29.629  36.107  1.00  0.00     0.198 A 
ATOM     90  F   UNL A   1      42.993  31.777  35.296  1.00  0.00    -0.203 F 
ATOM     91  F   UNL A   1      41.380  26.644  34.383  1.00  0.00    -0.200 F 
ATOM     92  C   UNL A   1      42.071  28.324  35.888  1.00  0.00     0.200 A 
ATOM     93  F   UNL A   1      42.838  30.017  37.339  1.00  0.00    -0.200 F 
ATOM     94  F   UNL A   1      42.009  27.454  36.907  1.00  0.00    -0.200 F 
ENDBRANCH  61  84
ENDBRANCH  35  36
ENDBRANCH  27  30
ENDBRANCH  25  26
ENDBRANCH  24  25
ENDBRANCH  23  24
ENDBRANCH   1  23
TORSDOF 15
ENDMDL
MODEL 2
REMARK VINA RESULT:     -12.0      4.180      9.337
REMARK SMILES CCn1ncc(CNc2ccccc2C(=O)NCCCCNC(=O)c2ccc(-c3c4nc(c(-c5c(F)c(F)c(F)c(F)c5F)c5ccc([nH]5)c(-c5c(F)c(F)c(F)c(F)c5F)c5nc(c(-c6c(F)c(F)c(F)c(F)c6F)c6ccc3[nH]6)C=C5)C=C4)cc2)c1C
REMARK SMILES IDX 18 1 17 2 15 3 16 4 14 6 9 7 10 8 11 9 13 10 12 11 8 12 7 14
REMARK SMILES IDX 6 15 3 16 4 17 88 18 5 19 89 20 2 21 1 22 19 23 20 24 21 25
REMARK SMILES IDX 22 26 23 27 24 29 25 30 26 31 87 32 27 33 86 34 28 35 29 36
REMARK SMILES IDX 30 37 80 38 31 39 85 40 79 41 81 42 32 43 84 44 78 45 77 46
REMARK SMILES IDX 33 48 65 49 45 50 64 51 46 52 49 53 63 54 82 55 47 56 48 57
REMARK SMILES IDX 62 59 83 60 50 61 34 62 35 63 43 64 36 65 37 66 41 67 44 68
REMARK SMILES IDX 38 69 39 70 42 71 40 72 66 73 67 74 75 75 68 76 69 77 73 78
REMARK SMILES IDX 76 79 70 80 71 81 74 82 72 83 51 84 52 85 60 86 53 87 54 88
REMARK SMILES IDX 58 89 61 90 55 91 56 92 59 93 57 94
REMARK H PARENT 17 5 8 13 22 28 81 47 49 58
REMARK Flexibility Score: inf
ROOT
ATOM      1  C   UNL A   1      32.336  29.984  25.993  1.00  0.00     0.116 C 
ENDROOT
BRANCH   1   2
ATOM      2  N   UNL A   1      33.044  29.703  24.753  1.00  0.00    -0.352 N 
ATOM      3  C   UNL A   1      33.287  28.478  24.154  1.00  0.00     0.253 C 
ATOM      4  O   UNL A   1      33.857  28.464  23.062  1.00  0.00    -0.269 OA
ATOM      5  H   UNL A   1      33.397  30.489  24.277  1.00  0.00     0.163 HD
BRANCH   3   6
ATOM      6  C   UNL A   1      32.949  27.177  24.807  1.00  0.00     0.062 A 
ATOM      7  C   UNL A   1      31.655  26.782  25.190  1.00  0.00     0.047 A 
ATOM      8  C   UNL A   1      31.507  25.597  25.936  1.00  0.00     0.026 A 
ATOM      9  C   UNL A   1      32.591  24.773  26.225  1.00  0.00     0.002 A 
ATOM     10  C   UNL A   1      34.031  26.309  25.054  1.00  0.00     0.016 A 
ATOM     11  C   UNL A   1      33.852  25.111  25.751  1.00  0.00     0.001 A 
BRANCH   7  12
ATOM     12  N   UNL A   1      30.482  27.402  24.789  1.00  0.00    -0.380 N 
ATOM     13  H   UNL A   1      30.056  28.068  25.375  1.00  0.00     0.160 HD
BRANCH  12  14
ATOM     14  C   UNL A   1      29.875  27.070  23.508  1.00  0.00     0.152 C 
BRANCH  14  15
ATOM     15  C   UNL A   1      29.559  28.311  22.751  1.00  0.00     0.012 A 
ATOM     16  N   UNL A   1      28.585  30.121  21.963  1.00  0.00    -0.270 N 
ATOM     17  N   UNL A   1      29.869  30.243  21.592  1.00  0.00    -0.181 NA
ATOM     18  C   UNL A   1      28.344  28.974  22.682  1.00  0.00     0.040 A 
ATOM     19  C   UNL A   1      30.460  29.188  22.135  1.00  0.00     0.141 A 
ATOM     20  C   UNL A   1      27.057  28.634  23.335  1.00  0.00     0.067 C 
BRANCH  16  21
ATOM     21  C   UNL A   1      27.653  31.199  21.686  1.00  0.00     0.141 C 
ATOM     22  C   UNL A   1      28.028  32.077  20.500  1.00  0.00     0.029 C 
ENDBRANCH  16  21
ENDBRANCH  14  15
ENDBRANCH  12  14
ENDBRANCH   7  12
ENDBRANCH   3   6
ENDBRANCH   1   2
BRANCH   1  23
ATOM     23  C   UNL A   1      33.083  29.659  27.295  1.00  0.00     0.023 C 
BRANCH  23  24
ATOM     24  C   UNL A   1      34.536  30.131  27.437  1.00  0.00     0.023 C 
BRANCH  24  25
ATOM     25  C   UNL A   1      34.711  31.624  27.618  1.00  0.00     0.116 C 
BRANCH  25  26
ATOM     26  N   UNL A   1      34.477  32.171  28.948  1.00  0.00    -0.352 N 
ATOM     27  C   UNL A   1      35.152  31.883  30.134  1.00  0.00     0.251 C 
ATOM     28  H   UNL A   1      33.749  32.830  29.020  1.00  0.00     0.163 HD
ATOM     29  O   UNL A   1      34.719  32.283  31.200  1.00  0.00    -0.269 OA
BRANCH  27  30
ATOM     30  C   UNL A   1      36.419  31.098  30.100  1.00  0.00     0.039 A 
ATOM     31  C   UNL A   1      36.447  29.707  30.278  1.00  0.00     0.014 A 
ATOM     32  C   UNL A   1      37.622  31.776  29.959  1.00  0.00     0.014 A 
ATOM     33  C   UNL A   1      37.678  29.039  30.300  1.00  0.00     0.010 A 
ATOM     34  C   UNL A   1      38.814  31.134  29.866  1.00  0.00     0.010 A 
ATOM     35  C   UNL A   1      38.850  29.778  30.117  1.00  0.00    -0.014 A 
BRANCH  35  36
ATOM     36  C   UNL A   1      40.190  29.236  30.107  1.00  0.00     0.031 A 
ATOM     37  C   UNL A   1      40.763  28.972  31.450  1.00  0.00     0.074 A 
ATOM     38  C   UNL A   1      40.645  28.603  29.003  1.00  0.00     0.049 A 
ATOM     39  N   UNL A   1      41.828  29.491  31.957  1.00  0.00    -0.248 NA
ATOM     40  C   UNL A   1      40.015  28.118  32.391  1.00  0.00     0.031 C 
ATOM     41  C   UNL A   1      39.970  28.399  27.712  1.00  0.00     0.029 A 
ATOM     42  N   UNL A   1      41.766  27.851  28.873  1.00  0.00    -0.354 N 
ATOM     43  C   UNL A   1      41.979  28.920  33.215  1.00  0.00     0.074 A 
ATOM     44  C   UNL A   1      40.748  28.231  33.500  1.00  0.00     0.031 C 
ATOM     45  C   UNL A   1      40.596  27.413  27.030  1.00  0.00     0.029 A 
ATOM     46  C   UNL A   1      41.782  27.016  27.767  1.00  0.00     0.049 A 
ATOM     47  H   UNL A   1      42.511  27.895  29.516  1.00  0.00     0.167 HD
ATOM     48  C   UNL A   1      43.192  28.882  33.833  1.00  0.00     0.037 A 
ATOM     49  C   UNL A   1      42.686  26.032  27.534  1.00  0.00     0.037 A 
ATOM     50  C   UNL A   1      44.157  29.691  33.130  1.00  0.00     0.049 A 
ATOM     51  C   UNL A   1      43.870  26.323  28.393  1.00  0.00     0.074 A 
ATOM     52  C   UNL A   1      44.231  31.033  32.809  1.00  0.00     0.029 A 
ATOM     53  N   UNL A   1      45.020  29.052  32.271  1.00  0.00    -0.354 N 
ATOM     54  N   UNL A   1      44.640  27.368  28.236  1.00  0.00    -0.248 NA
ATOM     55  C   UNL A   1      43.904  25.725  29.722  1.00  0.00     0.031 C 
ATOM     56  C   UNL A   1      44.727  31.060  31.472  1.00  0.00     0.029 A 
ATOM     57  C   UNL A   1      44.999  29.747  31.086  1.00  0.00     0.049 A 
ATOM     58  H   UNL A   1      45.554  28.249  32.468  1.00  0.00     0.167 HD
ATOM     59  C   UNL A   1      44.913  27.809  29.525  1.00  0.00     0.074 A 
ATOM     60  C   UNL A   1      44.505  26.709  30.398  1.00  0.00     0.031 C 
ATOM     61  C   UNL A   1      45.150  29.130  29.787  1.00  0.00     0.037 A 
BRANCH  48  62
ATOM     62  C   UNL A   1      43.612  27.876  34.866  1.00  0.00     0.064 A 
ATOM     63  C   UNL A   1      44.082  28.332  36.112  1.00  0.00     0.173 A 
ATOM     64  C   UNL A   1      43.834  26.513  34.585  1.00  0.00     0.173 A 
ATOM     65  F   UNL A   1      43.933  29.617  36.468  1.00  0.00    -0.203 F 
ATOM     66  C   UNL A   1      44.784  27.499  36.983  1.00  0.00     0.198 A 
ATOM     67  C   UNL A   1      44.484  25.669  35.483  1.00  0.00     0.198 A 
ATOM     68  F   UNL A   1      43.537  25.974  33.396  1.00  0.00    -0.203 F 
ATOM     69  F   UNL A   1      45.319  28.005  38.102  1.00  0.00    -0.200 F 
ATOM     70  C   UNL A   1      44.989  26.168  36.666  1.00  0.00     0.200 A 
ATOM     71  F   UNL A   1      44.687  24.385  35.153  1.00  0.00    -0.200 F 
ATOM     72  F   UNL A   1      45.712  25.381  37.473  1.00  0.00    -0.200 F 
ENDBRANCH  48  62
BRANCH  49  73
ATOM     73  C   UNL A   1      42.458  24.725  26.868  1.00  0.00     0.064 A 
ATOM     74  C   UNL A   1      43.086  24.406  25.653  1.00  0.00     0.173 A 
ATOM     75  C   UNL A   1      41.816  23.656  27.532  1.00  0.00     0.173 A 
ATOM     76  F   UNL A   1      43.757  25.350  24.975  1.00  0.00    -0.203 F 
ATOM     77  C   UNL A   1      43.090  23.101  25.145  1.00  0.00     0.198 A 
ATOM     78  C   UNL A   1      41.812  22.358  27.019  1.00  0.00     0.198 A 
ATOM     79  F   UNL A   1      41.257  23.828  28.737  1.00  0.00    -0.203 F 
ATOM     80  F   UNL A   1      43.751  22.827  24.011  1.00  0.00    -0.200 F 
ATOM     81  C   UNL A   1      42.462  22.077  25.833  1.00  0.00     0.200 A 
ATOM     82  F   UNL A   1      41.225  21.373  27.712  1.00  0.00    -0.200 F 
ATOM     83  F   UNL A   1      42.513  20.819  25.376  1.00  0.00    -0.200 F 
ENDBRANCH  49  73
BRANCH  61  84
ATOM     84  C   UNL A   1      45.330  30.067  28.622  1.00  0.00     0.064 A 
ATOM     85  C   UNL A   1      44.289  30.824  28.058  1.00  0.00     0.173 A 
ATOM     86  C   UNL A   1      46.630  30.347  28.184  1.00  0.00     0.173 A 
ATOM     87  F   UNL A   1      43.033  30.702  28.490  1.00  0.00    -0.203 F 
ATOM     88  C   UNL A   1      44.531  31.784  27.077  1.00  0.00     0.198 A 
ATOM     89  C   UNL A   1      46.876  31.331  27.230  1.00  0.00     0.198 A 
ATOM     90  F   UNL A   1      47.675  29.703  28.727  1.00  0.00    -0.203 F 
ATOM     91  F   UNL A   1      43.512  32.486  26.557  1.00  0.00    -0.200 F 
ATOM     92  C   UNL A   1      45.826  32.043  26.670  1.00  0.00     0.200 A 
ATOM     93  F   UNL A   1      48.136  31.616  26.876  1.00  0.00    -0.200 F 
ATOM     94  F   UNL A   1      46.066  32.999  25.761  1.00  0.00    -0.200 F 
ENDBRANCH  61  84
ENDBRANCH  35  36
ENDBRANCH  27  30
ENDBRANCH  25  26
ENDBRANCH  24  25
ENDBRANCH  23  24
ENDBRANCH   1  23
TORSDOF 15
ENDMDL
MODEL 3
REMARK VINA RESULT:     -12.0      3.835      8.852
REMARK SMILES CCn1ncc(CNc2ccccc2C(=O)NCCCCNC(=O)c2ccc(-c3c4nc(c(-c5c(F)c(F)c(F)c(F)c5F)c5ccc([nH]5)c(-c5c(F)c(F)c(F)c(F)c5F)c5nc(c(-c6c(F)c(F)c(F)c(F)c6F)c6ccc3[nH]6)C=C5)C=C4)cc2)c1C
REMARK SMILES IDX 18 1 17 2 15 3 16 4 14 6 9 7 10 8 11 9 13 10 12 11 8 12 7 14
REMARK SMILES IDX 6 15 3 16 4 17 88 18 5 19 89 20 2 21 1 22 19 23 20 24 21 25
REMARK SMILES IDX 22 26 23 27 24 29 25 30 26 31 87 32 27 33 86 34 28 35 29 36
REMARK SMILES IDX 30 37 80 38 31 39 85 40 79 41 81 42 32 43 84 44 78 45 77 46
REMARK SMILES IDX 33 48 65 49 45 50 64 51 46 52 49 53 63 54 82 55 47 56 48 57
REMARK SMILES IDX 62 59 83 60 50 61 34 62 35 63 43 64 36 65 37 66 41 67 44 68
REMARK SMILES IDX 38 69 39 70 42 71 40 72 66 73 67 74 75 75 68 76 69 77 73 78
REMARK SMILES IDX 76 79 70 80 71 81 74 82 72 83 51 84 52 85 60 86 53 87 54 88
REMARK SMILES IDX 58 89 61 90 55 91 56 92 59 93 57 94
REMARK H PARENT 17 5 8 13 22 28 81 47 49 58
REMARK Flexibility Score: inf
ROOT
ATOM      1  C   UNL A   1      31.714  30.187  25.807  1.00  0.00     0.116 C 
ENDROOT
BRANCH   1   2
ATOM      2  N   UNL A   1      32.271  29.698  24.554  1.00  0.00    -0.352 N 
ATOM      3  C   UNL A   1      31.604  29.209  23.443  1.00  0.00     0.253 C 
ATOM      4  O   UNL A   1      32.268  28.901  22.452  1.00  0.00    -0.269 OA
ATOM      5  H   UNL A   1      33.253  29.717  24.489  1.00  0.00     0.163 HD
BRANCH   3   6
ATOM      6  C   UNL A   1      30.128  28.976  23.423  1.00  0.00     0.062 A 
ATOM      7  C   UNL A   1      29.511  27.719  23.544  1.00  0.00     0.047 A 
ATOM      8  C   UNL A   1      28.119  27.633  23.349  1.00  0.00     0.026 A 
ATOM      9  C   UNL A   1      27.337  28.763  23.130  1.00  0.00     0.002 A 
ATOM     10  C   UNL A   1      29.323  30.122  23.257  1.00  0.00     0.016 A 
ATOM     11  C   UNL A   1      27.937  30.016  23.119  1.00  0.00     0.001 A 
BRANCH   7  12
ATOM     12  N   UNL A   1      30.143  26.559  23.961  1.00  0.00    -0.380 N 
ATOM     13  H   UNL A   1      30.646  26.015  23.312  1.00  0.00     0.160 HD
BRANCH  12  14
ATOM     14  C   UNL A   1      30.064  26.138  25.353  1.00  0.00     0.152 C 
BRANCH  14  15
ATOM     15  C   UNL A   1      30.976  24.988  25.595  1.00  0.00     0.012 A 
ATOM     16  N   UNL A   1      32.715  23.731  26.085  1.00  0.00    -0.270 N 
ATOM     17  N   UNL A   1      31.670  22.889  26.127  1.00  0.00    -0.181 NA
ATOM     18  C   UNL A   1      32.348  25.021  25.782  1.00  0.00     0.040 A 
ATOM     19  C   UNL A   1      30.622  23.670  25.905  1.00  0.00     0.141 A 
ATOM     20  C   UNL A   1      33.261  26.189  25.794  1.00  0.00     0.067 C 
BRANCH  16  21
ATOM     21  C   UNL A   1      34.036  23.253  26.453  1.00  0.00     0.141 C 
ATOM     22  C   UNL A   1      34.100  22.522  27.787  1.00  0.00     0.029 C 
ENDBRANCH  16  21
ENDBRANCH  14  15
ENDBRANCH  12  14
ENDBRANCH   7  12
ENDBRANCH   3   6
ENDBRANCH   1   2
BRANCH   1  23
ATOM     23  C   UNL A   1      32.280  29.568  27.094  1.00  0.00     0.023 C 
BRANCH  23  24
ATOM     24  C   UNL A   1      33.800  29.582  27.299  1.00  0.00     0.023 C 
BRANCH  24  25
ATOM     25  C   UNL A   1      34.442  30.953  27.254  1.00  0.00     0.116 C 
BRANCH  25  26
ATOM     26  N   UNL A   1      34.307  31.797  28.434  1.00  0.00    -0.352 N 
ATOM     27  C   UNL A   1      35.075  31.785  29.599  1.00  0.00     0.251 C 
ATOM     28  H   UNL A   1      33.581  32.461  28.407  1.00  0.00     0.163 HD
ATOM     29  O   UNL A   1      34.721  32.427  30.573  1.00  0.00    -0.269 OA
BRANCH  27  30
ATOM     30  C   UNL A   1      36.342  31.002  29.651  1.00  0.00     0.039 A 
ATOM     31  C   UNL A   1      36.365  29.627  29.923  1.00  0.00     0.014 A 
ATOM     32  C   UNL A   1      37.548  31.670  29.494  1.00  0.00     0.014 A 
ATOM     33  C   UNL A   1      37.595  28.963  30.022  1.00  0.00     0.010 A 
ATOM     34  C   UNL A   1      38.741  31.025  29.475  1.00  0.00     0.010 A 
ATOM     35  C   UNL A   1      38.771  29.690  29.819  1.00  0.00    -0.014 A 
BRANCH  35  36
ATOM     36  C   UNL A   1      40.110  29.150  29.879  1.00  0.00     0.031 A 
ATOM     37  C   UNL A   1      40.621  28.909  31.252  1.00  0.00     0.074 A 
ATOM     38  C   UNL A   1      40.617  28.499  28.809  1.00  0.00     0.049 A 
ATOM     39  N   UNL A   1      41.661  29.439  31.798  1.00  0.00    -0.248 NA
ATOM     40  C   UNL A   1      39.831  28.071  32.172  1.00  0.00     0.031 C 
ATOM     41  C   UNL A   1      40.002  28.273  27.492  1.00  0.00     0.029 A 
ATOM     42  N   UNL A   1      41.743  27.748  28.743  1.00  0.00    -0.354 N 
ATOM     43  C   UNL A   1      41.755  28.890  33.072  1.00  0.00     0.074 A 
ATOM     44  C   UNL A   1      40.513  28.203  33.311  1.00  0.00     0.031 C 
ATOM     45  C   UNL A   1      40.659  27.276  26.856  1.00  0.00     0.029 A 
ATOM     46  C   UNL A   1      41.811  26.894  27.653  1.00  0.00     0.049 A 
ATOM     47  H   UNL A   1      42.458  27.804  29.419  1.00  0.00     0.167 HD
ATOM     48  C   UNL A   1      42.938  28.864  33.745  1.00  0.00     0.037 A 
ATOM     49  C   UNL A   1      42.726  25.908  27.479  1.00  0.00     0.037 A 
ATOM     50  C   UNL A   1      43.933  29.663  33.074  1.00  0.00     0.049 A 
ATOM     51  C   UNL A   1      43.869  26.215  28.387  1.00  0.00     0.074 A 
ATOM     52  C   UNL A   1      44.020  31.000  32.734  1.00  0.00     0.029 A 
ATOM     53  N   UNL A   1      44.836  29.012  32.267  1.00  0.00    -0.354 N 
ATOM     54  N   UNL A   1      44.644  27.259  28.248  1.00  0.00    -0.248 NA
ATOM     55  C   UNL A   1      43.842  25.640  29.725  1.00  0.00     0.031 C 
ATOM     56  C   UNL A   1      44.578  31.006  31.421  1.00  0.00     0.029 A 
ATOM     57  C   UNL A   1      44.868  29.686  31.071  1.00  0.00     0.049 A 
ATOM     58  H   UNL A   1      45.361  28.213  32.501  1.00  0.00     0.167 HD
ATOM     59  C   UNL A   1      44.856  27.722  29.540  1.00  0.00     0.074 A 
ATOM     60  C   UNL A   1      44.410  26.637  30.412  1.00  0.00     0.031 C 
ATOM     61  C   UNL A   1      45.080  29.048  29.791  1.00  0.00     0.037 A 
BRANCH  48  62
ATOM     62  C   UNL A   1      43.311  27.877  34.813  1.00  0.00     0.064 A 
ATOM     63  C   UNL A   1      43.657  28.352  36.093  1.00  0.00     0.173 A 
ATOM     64  C   UNL A   1      43.610  26.523  34.558  1.00  0.00     0.173 A 
ATOM     65  F   UNL A   1      43.427  29.631  36.430  1.00  0.00    -0.203 F 
ATOM     66  C   UNL A   1      44.318  27.548  37.022  1.00  0.00     0.198 A 
ATOM     67  C   UNL A   1      44.217  25.707  35.510  1.00  0.00     0.198 A 
ATOM     68  F   UNL A   1      43.435  25.973  33.350  1.00  0.00    -0.203 F 
ATOM     69  F   UNL A   1      44.737  28.077  38.180  1.00  0.00    -0.200 F 
ATOM     70  C   UNL A   1      44.602  26.227  36.728  1.00  0.00     0.200 A 
ATOM     71  F   UNL A   1      44.499  24.433  35.202  1.00  0.00    -0.200 F 
ATOM     72  F   UNL A   1      45.287  25.470  37.595  1.00  0.00    -0.200 F 
ENDBRANCH  48  62
BRANCH  49  73
ATOM     73  C   UNL A   1      42.530  24.589  26.826  1.00  0.00     0.064 A 
ATOM     74  C   UNL A   1      43.192  24.262  25.631  1.00  0.00     0.173 A 
ATOM     75  C   UNL A   1      41.885  23.522  27.487  1.00  0.00     0.173 A 
ATOM     76  F   UNL A   1      43.868  25.205  24.958  1.00  0.00    -0.203 F 
ATOM     77  C   UNL A   1      43.225  22.950  25.141  1.00  0.00     0.198 A 
ATOM     78  C   UNL A   1      41.909  22.217  26.992  1.00  0.00     0.198 A 
ATOM     79  F   UNL A   1      41.293  23.703  28.676  1.00  0.00    -0.203 F 
ATOM     80  F   UNL A   1      43.917  22.670  24.028  1.00  0.00    -0.200 F 
ATOM     81  C   UNL A   1      42.592  21.928  25.827  1.00  0.00     0.200 A 
ATOM     82  F   UNL A   1      41.316  21.234  27.684  1.00  0.00    -0.200 F 
ATOM     83  F   UNL A   1      42.669  20.664  25.388  1.00  0.00    -0.200 F 
ENDBRANCH  49  73
BRANCH  61  84
ATOM     84  C   UNL A   1      45.313  29.965  28.619  1.00  0.00     0.064 A 
ATOM     85  C   UNL A   1      44.294  30.693  27.980  1.00  0.00     0.173 A 
ATOM     86  C   UNL A   1      46.631  30.260  28.252  1.00  0.00     0.173 A 
ATOM     87  F   UNL A   1      43.017  30.557  28.341  1.00  0.00    -0.203 F 
ATOM     88  C   UNL A   1      44.577  31.638  26.996  1.00  0.00     0.198 A 
ATOM     89  C   UNL A   1      46.916  31.230  27.294  1.00  0.00     0.198 A 
ATOM     90  F   UNL A   1      47.653  29.645  28.868  1.00  0.00    -0.203 F 
ATOM     91  F   UNL A   1      43.579  32.313  26.404  1.00  0.00    -0.200 F 
ATOM     92  C   UNL A   1      45.890  31.912  26.660  1.00  0.00     0.200 A 
ATOM     93  F   UNL A   1      48.190  31.530  27.008  1.00  0.00    -0.200 F 
ATOM     94  F   UNL A   1      46.167  32.855  25.747  1.00  0.00    -0.200 F 
ENDBRANCH  61  84
ENDBRANCH  35  36
ENDBRANCH  27  30
ENDBRANCH  25  26
ENDBRANCH  24  25
ENDBRANCH  23  24
ENDBRANCH   1  23
TORSDOF 15
ENDMDL
