MODEL 1
REMARK VINA RESULT:     -12.1      0.000      0.000
REMARK SMILES CCCCNC(=O)c1c(Cl)c(Cl)c(Cl)c(Cl)c1C(=O)NCCCCNC(=O)c1ccc(-c2c3nc(c(-c4c(F)c(F)c(F)c(F)c4F)c4ccc([nH]4)c(-c4c(F)c(F)c(F)c(F)c4F)c4nc(c(-c5c(F)c(F)c(F)c(F)c5F)c5ccc2[nH]5)C=C4)C=C3)cc1
REMARK SMILES IDX 21 1 20 2 18 3 19 4 17 6 8 7 9 8 10 9 11 10 15 11 12 12
REMARK SMILES IDX 13 13 16 14 14 15 6 16 5 17 7 19 4 20 3 21 2 22 1 23 22 24
REMARK SMILES IDX 23 25 24 26 25 27 26 28 27 30 28 31 29 32 90 33 30 34 89 35
REMARK SMILES IDX 31 36 32 37 33 38 83 39 34 40 88 41 82 42 84 43 35 44 87 45
REMARK SMILES IDX 81 46 80 47 36 49 68 50 48 51 67 52 49 53 52 54 66 55 85 56
REMARK SMILES IDX 50 57 51 58 65 60 86 61 53 62 37 63 38 64 46 65 39 66 40 67
REMARK SMILES IDX 44 68 47 69 41 70 42 71 45 72 43 73 69 74 70 75 78 76 71 77
REMARK SMILES IDX 72 78 76 79 79 80 73 81 74 82 77 83 75 84 54 85 55 86 63 87
REMARK SMILES IDX 56 88 57 89 61 90 64 91 58 92 59 93 62 94 60 95
REMARK H PARENT 20 5 5 18 25 29 84 48 52 59
REMARK Flexibility Score: inf
ROOT
ATOM      1  C   UNL A   1      31.901  29.669  25.642  1.00  0.00     0.116 C 
ENDROOT
BRANCH   1   2
ATOM      2  N   UNL A   1      31.899  28.256  25.972  1.00  0.00    -0.352 N 
ATOM      3  C   UNL A   1      32.929  27.476  25.512  1.00  0.00     0.253 C 
ATOM      4  O   UNL A   1      34.074  27.583  25.927  1.00  0.00    -0.269 OA
ATOM      5  H   UNL A   1      31.176  27.866  26.513  1.00  0.00     0.163 HD
BRANCH   3   6
ATOM      6  C   UNL A   1      32.575  26.377  24.593  1.00  0.00     0.074 A 
ATOM      7  C   UNL A   1      32.660  26.535  23.202  1.00  0.00     0.074 A 
ATOM      8  C   UNL A   1      32.673  25.409  22.363  1.00  0.00     0.074 A 
ATOM      9  Cl  UNL A   1      32.923  25.608  20.651  1.00  0.00    -0.082 Cl
ATOM     10  C   UNL A   1      32.501  24.128  22.915  1.00  0.00     0.080 A 
ATOM     11  C   UNL A   1      32.333  25.107  25.141  1.00  0.00     0.074 A 
ATOM     12  Cl  UNL A   1      32.529  22.728  21.880  1.00  0.00    -0.081 Cl
ATOM     13  C   UNL A   1      32.292  23.980  24.300  1.00  0.00     0.080 A 
ATOM     14  Cl  UNL A   1      32.008  24.945  26.845  1.00  0.00    -0.082 Cl
ATOM     15  Cl  UNL A   1      31.996  22.401  24.973  1.00  0.00    -0.081 Cl
BRANCH   7  16
ATOM     16  C   UNL A   1      32.770  27.874  22.608  1.00  0.00     0.253 C 
ATOM     17  N   UNL A   1      31.625  28.584  22.323  1.00  0.00    -0.352 N 
ATOM     18  H   UNL A   1      31.761  29.530  22.088  1.00  0.00     0.163 HD
ATOM     19  O   UNL A   1      33.882  28.330  22.378  1.00  0.00    -0.269 OA
BRANCH  17  20
ATOM     20  C   UNL A   1      30.240  28.131  22.322  1.00  0.00     0.116 C 
BRANCH  20  21
ATOM     21  C   UNL A   1      29.339  28.862  23.316  1.00  0.00     0.021 C 
BRANCH  21  22
ATOM     22  C   UNL A   1      29.130  30.361  23.084  1.00  0.00    -0.002 C 
ATOM     23  C   UNL A   1      27.735  30.865  23.407  1.00  0.00     0.004 C 
ENDBRANCH  21  22
ENDBRANCH  20  21
ENDBRANCH  17  20
ENDBRANCH   7  16
ENDBRANCH   3   6
ENDBRANCH   1   2
BRANCH   1  24
ATOM     24  C   UNL A   1      31.778  30.510  26.903  1.00  0.00     0.023 C 
BRANCH  24  25
ATOM     25  C   UNL A   1      31.713  32.005  26.632  1.00  0.00     0.023 C 
BRANCH  25  26
ATOM     26  C   UNL A   1      32.777  32.828  27.340  1.00  0.00     0.116 C 
BRANCH  26  27
ATOM     27  N   UNL A   1      32.371  34.193  27.645  1.00  0.00    -0.352 N 
ATOM     28  C   UNL A   1      32.938  35.053  28.557  1.00  0.00     0.251 C 
ATOM     29  H   UNL A   1      31.601  34.541  27.139  1.00  0.00     0.163 HD
ATOM     30  O   UNL A   1      32.459  36.160  28.776  1.00  0.00    -0.269 OA
BRANCH  28  31
ATOM     31  C   UNL A   1      34.115  34.583  29.315  1.00  0.00     0.039 A 
ATOM     32  C   UNL A   1      33.921  33.966  30.552  1.00  0.00     0.014 A 
ATOM     33  C   UNL A   1      35.384  34.636  28.732  1.00  0.00     0.014 A 
ATOM     34  C   UNL A   1      34.993  33.315  31.165  1.00  0.00     0.010 A 
ATOM     35  C   UNL A   1      36.425  33.912  29.301  1.00  0.00     0.010 A 
ATOM     36  C   UNL A   1      36.238  33.239  30.518  1.00  0.00    -0.014 A 
BRANCH  36  37
ATOM     37  C   UNL A   1      37.366  32.466  31.099  1.00  0.00     0.031 A 
ATOM     38  C   UNL A   1      37.877  32.816  32.468  1.00  0.00     0.074 A 
ATOM     39  C   UNL A   1      37.972  31.508  30.371  1.00  0.00     0.049 A 
ATOM     40  N   UNL A   1      38.907  32.334  33.116  1.00  0.00    -0.248 NA
ATOM     41  C   UNL A   1      37.152  33.872  33.193  1.00  0.00     0.031 C 
ATOM     42  C   UNL A   1      37.604  31.112  29.010  1.00  0.00     0.029 A 
ATOM     43  N   UNL A   1      39.037  30.696  30.673  1.00  0.00    -0.354 N 
ATOM     44  C   UNL A   1      38.959  33.037  34.312  1.00  0.00     0.074 A 
ATOM     45  C   UNL A   1      37.902  34.023  34.274  1.00  0.00     0.031 C 
ATOM     46  C   UNL A   1      38.407  30.113  28.609  1.00  0.00     0.029 A 
ATOM     47  C   UNL A   1      39.370  29.822  29.666  1.00  0.00     0.049 A 
ATOM     48  H   UNL A   1      39.517  30.735  31.532  1.00  0.00     0.167 HD
ATOM     49  C   UNL A   1      39.793  32.856  35.363  1.00  0.00     0.037 A 
ATOM     50  C   UNL A   1      40.343  28.892  29.608  1.00  0.00     0.037 A 
ATOM     51  C   UNL A   1      40.822  31.853  35.414  1.00  0.00     0.049 A 
ATOM     52  C   UNL A   1      41.256  28.712  30.793  1.00  0.00     0.074 A 
ATOM     53  C   UNL A   1      41.698  31.567  36.445  1.00  0.00     0.029 A 
ATOM     54  N   UNL A   1      41.105  30.965  34.388  1.00  0.00    -0.354 N 
ATOM     55  N   UNL A   1      41.261  29.348  31.939  1.00  0.00    -0.248 NA
ATOM     56  C   UNL A   1      42.293  27.677  30.677  1.00  0.00     0.031 C 
ATOM     57  C   UNL A   1      42.530  30.521  36.033  1.00  0.00     0.029 A 
ATOM     58  C   UNL A   1      42.145  30.130  34.761  1.00  0.00     0.049 A 
ATOM     59  H   UNL A   1      40.636  30.933  33.522  1.00  0.00     0.167 HD
ATOM     60  C   UNL A   1      42.271  28.767  32.693  1.00  0.00     0.074 A 
ATOM     61  C   UNL A   1      42.852  27.720  31.878  1.00  0.00     0.031 C 
ATOM     62  C   UNL A   1      42.685  29.074  33.946  1.00  0.00     0.037 A 
BRANCH  49  63
ATOM     63  C   UNL A   1      39.602  33.747  36.555  1.00  0.00     0.064 A 
ATOM     64  C   UNL A   1      40.182  35.024  36.610  1.00  0.00     0.173 A 
ATOM     65  C   UNL A   1      38.811  33.338  37.637  1.00  0.00     0.173 A 
ATOM     66  F   UNL A   1      40.960  35.456  35.606  1.00  0.00    -0.203 F 
ATOM     67  C   UNL A   1      40.000  35.846  37.719  1.00  0.00     0.198 A 
ATOM     68  C   UNL A   1      38.607  34.175  38.731  1.00  0.00     0.198 A 
ATOM     69  F   UNL A   1      38.231  32.128  37.633  1.00  0.00    -0.203 F 
ATOM     70  F   UNL A   1      40.606  37.041  37.770  1.00  0.00    -0.200 F 
ATOM     71  C   UNL A   1      39.207  35.425  38.774  1.00  0.00     0.200 A 
ATOM     72  F   UNL A   1      37.830  33.771  39.747  1.00  0.00    -0.200 F 
ATOM     73  F   UNL A   1      39.027  36.220  39.838  1.00  0.00    -0.200 F 
ENDBRANCH  49  63
BRANCH  50  74
ATOM     74  C   UNL A   1      40.492  28.031  28.405  1.00  0.00     0.064 A 
ATOM     75  C   UNL A   1      39.881  26.769  28.349  1.00  0.00     0.173 A 
ATOM     76  C   UNL A   1      41.269  28.427  27.308  1.00  0.00     0.173 A 
ATOM     77  F   UNL A   1      39.144  26.337  29.384  1.00  0.00    -0.203 F 
ATOM     78  C   UNL A   1      40.068  25.926  27.257  1.00  0.00     0.198 A 
ATOM     79  C   UNL A   1      41.433  27.593  26.203  1.00  0.00     0.198 A 
ATOM     80  F   UNL A   1      41.871  29.626  27.308  1.00  0.00    -0.203 F 
ATOM     81  F   UNL A   1      39.519  24.703  27.256  1.00  0.00    -0.200 F 
ATOM     82  C   UNL A   1      40.842  26.339  26.184  1.00  0.00     0.200 A 
ATOM     83  F   UNL A   1      42.171  28.000  25.162  1.00  0.00    -0.200 F 
ATOM     84  F   UNL A   1      41.027  25.524  25.136  1.00  0.00    -0.200 F 
ENDBRANCH  50  74
BRANCH  62  85
ATOM     85  C   UNL A   1      43.776  28.230  34.536  1.00  0.00     0.064 A 
ATOM     86  C   UNL A   1      45.125  28.603  34.449  1.00  0.00     0.173 A 
ATOM     87  C   UNL A   1      43.459  27.055  35.235  1.00  0.00     0.173 A 
ATOM     88  F   UNL A   1      45.477  29.710  33.778  1.00  0.00    -0.203 F 
ATOM     89  C   UNL A   1      46.121  27.816  35.020  1.00  0.00     0.198 A 
ATOM     90  C   UNL A   1      44.455  26.285  35.828  1.00  0.00     0.198 A 
ATOM     91  F   UNL A   1      42.183  26.661  35.352  1.00  0.00    -0.203 F 
ATOM     92  F   UNL A   1      47.407  28.165  34.886  1.00  0.00    -0.200 F 
ATOM     93  C   UNL A   1      45.785  26.663  35.715  1.00  0.00     0.200 A 
ATOM     94  F   UNL A   1      44.129  25.179  36.510  1.00  0.00    -0.200 F 
ATOM     95  F   UNL A   1      46.745  25.910  36.269  1.00  0.00    -0.200 F 
ENDBRANCH  62  85
ENDBRANCH  36  37
ENDBRANCH  28  31
ENDBRANCH  26  27
ENDBRANCH  25  26
ENDBRANCH  24  25
ENDBRANCH   1  24
TORSDOF 15
ENDMDL
MODEL 2
REMARK VINA RESULT:     -11.9      5.656     11.162
REMARK SMILES CCCCNC(=O)c1c(Cl)c(Cl)c(Cl)c(Cl)c1C(=O)NCCCCNC(=O)c1ccc(-c2c3nc(c(-c4c(F)c(F)c(F)c(F)c4F)c4ccc([nH]4)c(-c4c(F)c(F)c(F)c(F)c4F)c4nc(c(-c5c(F)c(F)c(F)c(F)c5F)c5ccc2[nH]5)C=C4)C=C3)cc1
REMARK SMILES IDX 21 1 20 2 18 3 19 4 17 6 8 7 9 8 10 9 11 10 15 11 12 12
REMARK SMILES IDX 13 13 16 14 14 15 6 16 5 17 7 19 4 20 3 21 2 22 1 23 22 24
REMARK SMILES IDX 23 25 24 26 25 27 26 28 27 30 28 31 29 32 90 33 30 34 89 35
REMARK SMILES IDX 31 36 32 37 33 38 83 39 34 40 88 41 82 42 84 43 35 44 87 45
REMARK SMILES IDX 81 46 80 47 36 49 68 50 48 51 67 52 49 53 52 54 66 55 85 56
REMARK SMILES IDX 50 57 51 58 65 60 86 61 53 62 37 63 38 64 46 65 39 66 40 67
REMARK SMILES IDX 44 68 47 69 41 70 42 71 45 72 43 73 69 74 70 75 78 76 71 77
REMARK SMILES IDX 72 78 76 79 79 80 73 81 74 82 77 83 75 84 54 85 55 86 63 87
REMARK SMILES IDX 56 88 57 89 61 90 64 91 58 92 59 93 62 94 60 95
REMARK H PARENT 20 5 5 18 25 29 84 48 52 59
REMARK Flexibility Score: inf
ROOT
ATOM      1  C   UNL A   1      35.891  21.320  24.636  1.00  0.00     0.116 C 
ENDROOT
BRANCH   1   2
ATOM      2  N   UNL A   1      35.320  22.564  24.153  1.00  0.00    -0.352 N 
ATOM      3  C   UNL A   1      34.873  23.477  25.072  1.00  0.00     0.253 C 
ATOM      4  O   UNL A   1      35.629  24.097  25.808  1.00  0.00    -0.269 OA
ATOM      5  H   UNL A   1      35.254  22.747  23.188  1.00  0.00     0.163 HD
BRANCH   3   6
ATOM      6  C   UNL A   1      33.436  23.809  25.039  1.00  0.00     0.074 A 
ATOM      7  C   UNL A   1      32.520  23.165  25.883  1.00  0.00     0.074 A 
ATOM      8  C   UNL A   1      31.250  23.720  26.103  1.00  0.00     0.074 A 
ATOM      9  Cl  UNL A   1      30.173  22.991  27.261  1.00  0.00    -0.082 Cl
ATOM     10  C   UNL A   1      30.862  24.872  25.397  1.00  0.00     0.080 A 
ATOM     11  C   UNL A   1      33.029  24.919  24.281  1.00  0.00     0.074 A 
ATOM     12  Cl  UNL A   1      29.293  25.573  25.676  1.00  0.00    -0.081 Cl
ATOM     13  C   UNL A   1      31.738  25.450  24.457  1.00  0.00     0.080 A 
ATOM     14  Cl  UNL A   1      34.095  25.582  23.073  1.00  0.00    -0.082 Cl
ATOM     15  Cl  UNL A   1      31.228  26.828  23.523  1.00  0.00    -0.081 Cl
BRANCH   7  16
ATOM     16  C   UNL A   1      32.888  21.921  26.572  1.00  0.00     0.253 C 
ATOM     17  N   UNL A   1      32.787  20.721  25.904  1.00  0.00    -0.352 N 
ATOM     18  H   UNL A   1      33.202  19.950  26.353  1.00  0.00     0.163 HD
ATOM     19  O   UNL A   1      33.277  21.979  27.732  1.00  0.00    -0.269 OA
BRANCH  17  20
ATOM     20  C   UNL A   1      32.152  20.434  24.625  1.00  0.00     0.116 C 
BRANCH  20  21
ATOM     21  C   UNL A   1      32.755  19.247  23.876  1.00  0.00     0.021 C 
BRANCH  21  22
ATOM     22  C   UNL A   1      33.628  18.289  24.691  1.00  0.00    -0.002 C 
ATOM     23  C   UNL A   1      34.402  17.276  23.865  1.00  0.00     0.004 C 
ENDBRANCH  21  22
ENDBRANCH  20  21
ENDBRANCH  17  20
ENDBRANCH   7  16
ENDBRANCH   3   6
ENDBRANCH   1   2
BRANCH   1  24
ATOM     24  C   UNL A   1      37.410  21.371  24.567  1.00  0.00     0.023 C 
BRANCH  24  25
ATOM     25  C   UNL A   1      38.082  20.094  25.046  1.00  0.00     0.023 C 
BRANCH  25  26
ATOM     26  C   UNL A   1      39.324  20.307  25.896  1.00  0.00     0.116 C 
BRANCH  26  27
ATOM     27  N   UNL A   1      40.234  19.170  25.920  1.00  0.00    -0.352 N 
ATOM     28  C   UNL A   1      41.594  19.190  26.128  1.00  0.00     0.251 C 
ATOM     29  H   UNL A   1      39.829  18.286  25.770  1.00  0.00     0.163 HD
ATOM     30  O   UNL A   1      42.266  18.167  26.054  1.00  0.00    -0.269 OA
BRANCH  28  31
ATOM     31  C   UNL A   1      42.239  20.492  26.388  1.00  0.00     0.039 A 
ATOM     32  C   UNL A   1      42.594  21.299  25.306  1.00  0.00     0.014 A 
ATOM     33  C   UNL A   1      42.360  20.958  27.700  1.00  0.00     0.014 A 
ATOM     34  C   UNL A   1      42.986  22.619  25.539  1.00  0.00     0.010 A 
ATOM     35  C   UNL A   1      42.664  22.295  27.921  1.00  0.00     0.010 A 
ATOM     36  C   UNL A   1      42.973  23.141  26.844  1.00  0.00    -0.014 A 
BRANCH  36  37
ATOM     37  C   UNL A   1      43.286  24.568  27.110  1.00  0.00     0.031 A 
ATOM     38  C   UNL A   1      44.667  25.090  26.827  1.00  0.00     0.074 A 
ATOM     39  C   UNL A   1      42.359  25.369  27.669  1.00  0.00     0.049 A 
ATOM     40  N   UNL A   1      45.174  26.270  27.075  1.00  0.00    -0.248 NA
ATOM     41  C   UNL A   1      45.615  24.146  26.212  1.00  0.00     0.031 C 
ATOM     42  C   UNL A   1      40.999  24.968  28.039  1.00  0.00     0.029 A 
ATOM     43  N   UNL A   1      42.422  26.691  28.033  1.00  0.00    -0.354 N 
ATOM     44  C   UNL A   1      46.498  26.204  26.661  1.00  0.00     0.074 A 
ATOM     45  C   UNL A   1      46.736  24.852  26.209  1.00  0.00     0.031 C 
ATOM     46  C   UNL A   1      40.350  26.028  28.547  1.00  0.00     0.029 A 
ATOM     47  C   UNL A   1      41.254  27.173  28.573  1.00  0.00     0.049 A 
ATOM     48  H   UNL A   1      43.229  27.243  27.917  1.00  0.00     0.167 HD
ATOM     49  C   UNL A   1      47.424  27.191  26.629  1.00  0.00     0.037 A 
ATOM     50  C   UNL A   1      40.952  28.402  29.037  1.00  0.00     0.037 A 
ATOM     51  C   UNL A   1      47.176  28.544  27.049  1.00  0.00     0.049 A 
ATOM     52  C   UNL A   1      42.002  29.481  28.988  1.00  0.00     0.074 A 
ATOM     53  C   UNL A   1      48.037  29.626  27.026  1.00  0.00     0.029 A 
ATOM     54  N   UNL A   1      45.970  29.001  27.557  1.00  0.00    -0.354 N 
ATOM     55  N   UNL A   1      43.234  29.420  28.546  1.00  0.00    -0.248 NA
ATOM     56  C   UNL A   1      41.614  30.804  29.498  1.00  0.00     0.031 C 
ATOM     57  C   UNL A   1      47.360  30.734  27.546  1.00  0.00     0.029 A 
ATOM     58  C   UNL A   1      46.065  30.350  27.855  1.00  0.00     0.049 A 
ATOM     59  H   UNL A   1      45.165  28.448  27.688  1.00  0.00     0.167 HD
ATOM     60  C   UNL A   1      43.755  30.698  28.686  1.00  0.00     0.074 A 
ATOM     61  C   UNL A   1      42.702  31.519  29.247  1.00  0.00     0.031 C 
ATOM     62  C   UNL A   1      44.994  31.154  28.383  1.00  0.00     0.037 A 
BRANCH  49  63
ATOM     63  C   UNL A   1      48.782  26.843  26.096  1.00  0.00     0.064 A 
ATOM     64  C   UNL A   1      49.106  27.038  24.744  1.00  0.00     0.173 A 
ATOM     65  C   UNL A   1      49.778  26.340  26.945  1.00  0.00     0.173 A 
ATOM     66  F   UNL A   1      48.182  27.503  23.889  1.00  0.00    -0.203 F 
ATOM     67  C   UNL A   1      50.369  26.714  24.257  1.00  0.00     0.198 A 
ATOM     68  C   UNL A   1      51.050  26.046  26.459  1.00  0.00     0.198 A 
ATOM     69  F   UNL A   1      49.521  26.139  28.246  1.00  0.00    -0.203 F 
ATOM     70  F   UNL A   1      50.638  26.862  22.952  1.00  0.00    -0.200 F 
ATOM     71  C   UNL A   1      51.341  26.226  25.115  1.00  0.00     0.200 A 
ATOM     72  F   UNL A   1      51.993  25.584  27.292  1.00  0.00    -0.200 F 
ATOM     73  F   UNL A   1      52.559  25.921  24.645  1.00  0.00    -0.200 F 
ENDBRANCH  49  63
BRANCH  50  74
ATOM     74  C   UNL A   1      39.591  28.699  29.554  1.00  0.00     0.064 A 
ATOM     75  C   UNL A   1      38.609  29.247  28.714  1.00  0.00     0.173 A 
ATOM     76  C   UNL A   1      39.250  28.479  30.896  1.00  0.00     0.173 A 
ATOM     77  F   UNL A   1      38.895  29.495  27.426  1.00  0.00    -0.203 F 
ATOM     78  C   UNL A   1      37.352  29.592  29.203  1.00  0.00     0.198 A 
ATOM     79  C   UNL A   1      37.981  28.799  31.377  1.00  0.00     0.198 A 
ATOM     80  F   UNL A   1      40.148  27.953  31.740  1.00  0.00    -0.203 F 
ATOM     81  F   UNL A   1      36.454  30.166  28.390  1.00  0.00    -0.200 F 
ATOM     82  C   UNL A   1      37.037  29.366  30.534  1.00  0.00     0.200 A 
ATOM     83  F   UNL A   1      37.676  28.568  32.661  1.00  0.00    -0.200 F 
ATOM     84  F   UNL A   1      35.830  29.703  31.005  1.00  0.00    -0.200 F 
ENDBRANCH  50  74
BRANCH  62  85
ATOM     85  C   UNL A   1      45.261  32.615  28.592  1.00  0.00     0.064 A 
ATOM     86  C   UNL A   1      44.957  33.568  27.610  1.00  0.00     0.173 A 
ATOM     87  C   UNL A   1      45.789  33.068  29.811  1.00  0.00     0.173 A 
ATOM     88  F   UNL A   1      44.464  33.181  26.424  1.00  0.00    -0.203 F 
ATOM     89  C   UNL A   1      45.194  34.921  27.831  1.00  0.00     0.198 A 
ATOM     90  C   UNL A   1      45.998  34.425  30.039  1.00  0.00     0.198 A 
ATOM     91  F   UNL A   1      46.089  32.196  30.784  1.00  0.00    -0.203 F 
ATOM     92  F   UNL A   1      44.938  35.811  26.863  1.00  0.00    -0.200 F 
ATOM     93  C   UNL A   1      45.707  35.349  29.047  1.00  0.00     0.200 A 
ATOM     94  F   UNL A   1      46.482  34.838  31.218  1.00  0.00    -0.200 F 
ATOM     95  F   UNL A   1      45.929  36.654  29.260  1.00  0.00    -0.200 F 
ENDBRANCH  62  85
ENDBRANCH  36  37
ENDBRANCH  28  31
ENDBRANCH  26  27
ENDBRANCH  25  26
ENDBRANCH  24  25
ENDBRANCH   1  24
TORSDOF 15
ENDMDL
MODEL 3
REMARK VINA RESULT:     -11.9      5.690     11.152
REMARK SMILES CCCCNC(=O)c1c(Cl)c(Cl)c(Cl)c(Cl)c1C(=O)NCCCCNC(=O)c1ccc(-c2c3nc(c(-c4c(F)c(F)c(F)c(F)c4F)c4ccc([nH]4)c(-c4c(F)c(F)c(F)c(F)c4F)c4nc(c(-c5c(F)c(F)c(F)c(F)c5F)c5ccc2[nH]5)C=C4)C=C3)cc1
REMARK SMILES IDX 21 1 20 2 18 3 19 4 17 6 8 7 9 8 10 9 11 10 15 11 12 12
REMARK SMILES IDX 13 13 16 14 14 15 6 16 5 17 7 19 4 20 3 21 2 22 1 23 22 24
REMARK SMILES IDX 23 25 24 26 25 27 26 28 27 30 28 31 29 32 90 33 30 34 89 35
REMARK SMILES IDX 31 36 32 37 33 38 83 39 34 40 88 41 82 42 84 43 35 44 87 45
REMARK SMILES IDX 81 46 80 47 36 49 68 50 48 51 67 52 49 53 52 54 66 55 85 56
REMARK SMILES IDX 50 57 51 58 65 60 86 61 53 62 37 63 38 64 46 65 39 66 40 67
REMARK SMILES IDX 44 68 47 69 41 70 42 71 45 72 43 73 69 74 70 75 78 76 71 77
REMARK SMILES IDX 72 78 76 79 79 80 73 81 74 82 77 83 75 84 54 85 55 86 63 87
REMARK SMILES IDX 56 88 57 89 61 90 64 91 58 92 59 93 62 94 60 95
REMARK H PARENT 20 5 5 18 25 29 84 48 52 59
REMARK Flexibility Score: inf
ROOT
ATOM      1  C   UNL A   1      35.957  21.443  24.657  1.00  0.00     0.116 C 
ENDROOT
BRANCH   1   2
ATOM      2  N   UNL A   1      35.368  22.671  24.157  1.00  0.00    -0.352 N 
ATOM      3  C   UNL A   1      34.882  23.578  25.062  1.00  0.00     0.253 C 
ATOM      4  O   UNL A   1      35.607  24.218  25.811  1.00  0.00    -0.269 OA
ATOM      5  H   UNL A   1      35.318  22.849  23.190  1.00  0.00     0.163 HD
BRANCH   3   6
ATOM      6  C   UNL A   1      33.438  23.877  24.997  1.00  0.00     0.074 A 
ATOM      7  C   UNL A   1      32.526  23.258  25.863  1.00  0.00     0.074 A 
ATOM      8  C   UNL A   1      31.242  23.797  26.041  1.00  0.00     0.074 A 
ATOM      9  Cl  UNL A   1      30.168  23.104  27.224  1.00  0.00    -0.082 Cl
ATOM     10  C   UNL A   1      30.839  24.903  25.273  1.00  0.00     0.080 A 
ATOM     11  C   UNL A   1      33.017  24.938  24.179  1.00  0.00     0.074 A 
ATOM     12  Cl  UNL A   1      29.252  25.583  25.500  1.00  0.00    -0.081 Cl
ATOM     13  C   UNL A   1      31.714  25.450  24.314  1.00  0.00     0.080 A 
ATOM     14  Cl  UNL A   1      34.083  25.561  22.950  1.00  0.00    -0.082 Cl
ATOM     15  Cl  UNL A   1      31.186  26.768  23.305  1.00  0.00    -0.081 Cl
BRANCH   7  16
ATOM     16  C   UNL A   1      32.912  22.059  26.619  1.00  0.00     0.253 C 
ATOM     17  N   UNL A   1      32.795  20.820  26.029  1.00  0.00    -0.352 N 
ATOM     18  H   UNL A   1      33.222  20.078  26.514  1.00  0.00     0.163 HD
ATOM     19  O   UNL A   1      33.329  22.188  27.763  1.00  0.00    -0.269 OA
BRANCH  17  20
ATOM     20  C   UNL A   1      32.130  20.454  24.786  1.00  0.00     0.116 C 
BRANCH  20  21
ATOM     21  C   UNL A   1      32.950  19.539  23.878  1.00  0.00     0.021 C 
BRANCH  21  22
ATOM     22  C   UNL A   1      32.483  18.085  23.762  1.00  0.00    -0.002 C 
ATOM     23  C   UNL A   1      33.557  17.107  23.319  1.00  0.00     0.004 C 
ENDBRANCH  21  22
ENDBRANCH  20  21
ENDBRANCH  17  20
ENDBRANCH   7  16
ENDBRANCH   3   6
ENDBRANCH   1   2
BRANCH   1  24
ATOM     24  C   UNL A   1      37.475  21.541  24.653  1.00  0.00     0.023 C 
BRANCH  24  25
ATOM     25  C   UNL A   1      38.168  20.231  24.993  1.00  0.00     0.023 C 
BRANCH  25  26
ATOM     26  C   UNL A   1      39.373  20.367  25.910  1.00  0.00     0.116 C 
BRANCH  26  27
ATOM     27  N   UNL A   1      40.276  19.224  25.883  1.00  0.00    -0.352 N 
ATOM     28  C   UNL A   1      41.638  19.228  26.076  1.00  0.00     0.251 C 
ATOM     29  H   UNL A   1      39.864  18.348  25.706  1.00  0.00     0.163 HD
ATOM     30  O   UNL A   1      42.303  18.204  25.957  1.00  0.00    -0.269 OA
BRANCH  28  31
ATOM     31  C   UNL A   1      42.295  20.516  26.374  1.00  0.00     0.039 A 
ATOM     32  C   UNL A   1      42.737  21.311  25.316  1.00  0.00     0.014 A 
ATOM     33  C   UNL A   1      42.342  20.983  27.690  1.00  0.00     0.014 A 
ATOM     34  C   UNL A   1      43.143  22.622  25.572  1.00  0.00     0.010 A 
ATOM     35  C   UNL A   1      42.661  22.314  27.929  1.00  0.00     0.010 A 
ATOM     36  C   UNL A   1      43.057  23.149  26.872  1.00  0.00    -0.014 A 
BRANCH  36  37
ATOM     37  C   UNL A   1      43.386  24.569  27.154  1.00  0.00     0.031 A 
ATOM     38  C   UNL A   1      44.778  25.075  26.898  1.00  0.00     0.074 A 
ATOM     39  C   UNL A   1      42.460  25.378  27.706  1.00  0.00     0.049 A 
ATOM     40  N   UNL A   1      45.296  26.247  27.164  1.00  0.00    -0.248 NA
ATOM     41  C   UNL A   1      45.722  24.124  26.290  1.00  0.00     0.031 C 
ATOM     42  C   UNL A   1      41.090  24.993  28.052  1.00  0.00     0.029 A 
ATOM     43  N   UNL A   1      42.535  26.696  28.083  1.00  0.00    -0.354 N 
ATOM     44  C   UNL A   1      46.625  26.166  26.770  1.00  0.00     0.074 A 
ATOM     45  C   UNL A   1      46.853  24.815  26.310  1.00  0.00     0.031 C 
ATOM     46  C   UNL A   1      40.446  26.057  28.558  1.00  0.00     0.029 A 
ATOM     47  C   UNL A   1      41.365  27.189  28.608  1.00  0.00     0.049 A 
ATOM     48  H   UNL A   1      43.351  27.238  27.983  1.00  0.00     0.167 HD
ATOM     49  C   UNL A   1      47.564  27.141  26.762  1.00  0.00     0.037 A 
ATOM     50  C   UNL A   1      41.072  28.418  29.077  1.00  0.00     0.037 A 
ATOM     51  C   UNL A   1      47.328  28.494  27.189  1.00  0.00     0.049 A 
ATOM     52  C   UNL A   1      42.137  29.484  29.055  1.00  0.00     0.074 A 
ATOM     53  C   UNL A   1      48.204  29.564  27.189  1.00  0.00     0.029 A 
ATOM     54  N   UNL A   1      46.121  28.962  27.682  1.00  0.00    -0.354 N 
ATOM     55  N   UNL A   1      43.375  29.409  28.631  1.00  0.00    -0.248 NA
ATOM     56  C   UNL A   1      41.759  30.807  29.569  1.00  0.00     0.031 C 
ATOM     57  C   UNL A   1      47.533  30.676  27.708  1.00  0.00     0.029 A 
ATOM     58  C   UNL A   1      46.228  30.308  27.993  1.00  0.00     0.049 A 
ATOM     59  H   UNL A   1      45.307  28.419  27.796  1.00  0.00     0.167 HD
ATOM     60  C   UNL A   1      43.910  30.680  28.791  1.00  0.00     0.074 A 
ATOM     61  C   UNL A   1      42.859  31.510  29.342  1.00  0.00     0.031 C 
ATOM     62  C   UNL A   1      45.160  31.121  28.510  1.00  0.00     0.037 A 
BRANCH  49  63
ATOM     63  C   UNL A   1      48.926  26.780  26.247  1.00  0.00     0.064 A 
ATOM     64  C   UNL A   1      49.880  26.167  27.076  1.00  0.00     0.173 A 
ATOM     65  C   UNL A   1      49.274  27.019  24.910  1.00  0.00     0.173 A 
ATOM     66  F   UNL A   1      49.600  25.931  28.367  1.00  0.00    -0.203 F 
ATOM     67  C   UNL A   1      51.141  25.834  26.591  1.00  0.00     0.198 A 
ATOM     68  C   UNL A   1      50.527  26.657  24.422  1.00  0.00     0.198 A 
ATOM     69  F   UNL A   1      48.399  27.599  24.076  1.00  0.00    -0.203 F 
ATOM     70  F   UNL A   1      52.052  25.296  27.415  1.00  0.00    -0.200 F 
ATOM     71  C   UNL A   1      51.462  26.073  25.264  1.00  0.00     0.200 A 
ATOM     72  F   UNL A   1      50.832  26.878  23.135  1.00  0.00    -0.200 F 
ATOM     73  F   UNL A   1      52.674  25.745  24.797  1.00  0.00    -0.200 F 
ENDBRANCH  49  63
BRANCH  50  74
ATOM     74  C   UNL A   1      39.707  28.729  29.576  1.00  0.00     0.064 A 
ATOM     75  C   UNL A   1      39.356  28.468  30.910  1.00  0.00     0.173 A 
ATOM     76  C   UNL A   1      38.718  29.255  28.734  1.00  0.00     0.173 A 
ATOM     77  F   UNL A   1      40.263  27.946  31.750  1.00  0.00    -0.203 F 
ATOM     78  C   UNL A   1      38.061  28.692  31.372  1.00  0.00     0.198 A 
ATOM     79  C   UNL A   1      37.430  29.505  29.205  1.00  0.00     0.198 A 
ATOM     80  F   UNL A   1      39.001  29.527  27.452  1.00  0.00    -0.203 F 
ATOM     81  F   UNL A   1      37.741  28.380  32.636  1.00  0.00    -0.200 F 
ATOM     82  C   UNL A   1      37.099  29.212  30.521  1.00  0.00     0.200 A 
ATOM     83  F   UNL A   1      36.505  30.019  28.383  1.00  0.00    -0.200 F 
ATOM     84  F   UNL A   1      35.853  29.421  30.964  1.00  0.00    -0.200 F 
ENDBRANCH  50  74
BRANCH  62  85
ATOM     85  C   UNL A   1      45.443  32.577  28.736  1.00  0.00     0.064 A 
ATOM     86  C   UNL A   1      45.984  33.044  29.942  1.00  0.00     0.173 A 
ATOM     87  C   UNL A   1      45.206  33.508  27.713  1.00  0.00     0.173 A 
ATOM     88  F   UNL A   1      46.213  32.193  30.953  1.00  0.00    -0.203 F 
ATOM     89  C   UNL A   1      46.257  34.396  30.125  1.00  0.00     0.198 A 
ATOM     90  C   UNL A   1      45.507  34.855  27.890  1.00  0.00     0.198 A 
ATOM     91  F   UNL A   1      44.696  33.109  26.539  1.00  0.00    -0.203 F 
ATOM     92  F   UNL A   1      46.731  34.829  31.301  1.00  0.00    -0.200 F 
ATOM     93  C   UNL A   1      46.025  35.300  29.097  1.00  0.00     0.200 A 
ATOM     94  F   UNL A   1      45.294  35.724  26.892  1.00  0.00    -0.200 F 
ATOM     95  F   UNL A   1      46.295  36.600  29.274  1.00  0.00    -0.200 F 
ENDBRANCH  62  85
ENDBRANCH  36  37
ENDBRANCH  28  31
ENDBRANCH  26  27
ENDBRANCH  25  26
ENDBRANCH  24  25
ENDBRANCH   1  24
TORSDOF 15
ENDMDL
