MODEL 1
REMARK VINA RESULT:     -13.3      0.000      0.000
REMARK SMILES CS(=O)(=O)N1C[C@@H]2CN(C(=O)C3CCOCC3)C[C@]2(C(=O)NCCCCNC(=O)c2ccc(-c3c4nc(c(-c5c(F)c(F)c(F)c(F)c5F)c5ccc([nH]5)c(-c5c(F)c(F)c(F)c(F)c5F)c5nc(c(-c6c(F)c(F)c(F)c(F)c6F)c6ccc3[nH]6)C=C5)C=C4)cc2)C1
REMARK SMILES IDX 24 1 23 2 22 3 20 4 21 5 19 7 5 8 6 9 93 10 7 11 8 12 18 13
REMARK SMILES IDX 9 14 2 15 1 16 3 17 4 18 10 19 11 20 12 21 13 22 17 23 14 24
REMARK SMILES IDX 16 25 15 26 25 27 26 28 27 29 28 30 29 32 30 33 31 34 92 35
REMARK SMILES IDX 32 36 91 37 33 38 34 39 35 40 85 41 36 42 90 43 84 44 86 45
REMARK SMILES IDX 37 46 89 47 83 48 82 49 38 51 70 52 50 53 69 54 51 55 54 56
REMARK SMILES IDX 68 57 87 58 52 59 53 60 67 62 88 63 55 64 39 65 40 66 48 67
REMARK SMILES IDX 41 68 42 69 46 70 49 71 43 72 44 73 47 74 45 75 71 76 72 77
REMARK SMILES IDX 80 78 73 79 74 80 78 81 81 82 75 83 76 84 79 85 77 86 56 87
REMARK SMILES IDX 57 88 65 89 58 90 59 91 63 92 66 93 60 94 61 95 64 96 62 97
REMARK H PARENT 22 6 27 31 86 50 54 61
REMARK Flexibility Score: inf
ROOT
ATOM      1  C   UNL A   1      32.479  29.899  27.105  1.00  0.00     0.023 C 
ENDROOT
BRANCH   1   2
ATOM      2  C   UNL A   1      33.473  29.208  26.170  1.00  0.00     0.116 C 
BRANCH   2   3
ATOM      3  N   UNL A   1      33.298  29.771  24.851  1.00  0.00    -0.356 N 
ATOM      4  C   UNL A   1      33.022  29.009  23.737  1.00  0.00     0.229 C 
ATOM      5  O   UNL A   1      33.590  29.281  22.681  1.00  0.00    -0.274 OA
ATOM      6  H   UNL A   1      33.382  30.746  24.743  1.00  0.00     0.163 HD
BRANCH   4   7
ATOM      7  C   UNL A   1      31.941  27.891  23.933  1.00  0.00     0.086 C 
ATOM      8  N   UNL A   1      29.562  28.656  23.626  1.00  0.00    -0.201 NA
ATOM      9  C   UNL A   1      29.536  27.209  23.544  1.00  0.00     0.108 C 
ATOM     10  C   UNL A   1      30.979  29.045  23.343  1.00  0.00     0.121 C 
ATOM     11  C   UNL A   1      30.976  26.853  23.228  1.00  0.00     0.042 C 
ATOM     12  C   UNL A   1      31.304  25.477  23.777  1.00  0.00     0.125 C 
ATOM     13  C   UNL A   1      33.150  26.877  23.573  1.00  0.00     0.138 C 
ATOM     14  N   UNL A   1      32.723  25.533  23.946  1.00  0.00    -0.341 N 
BRANCH   8  15
ATOM     15  S   UNL A   1      28.433  29.606  22.794  1.00  0.00     0.211 S 
ATOM     16  C   UNL A   1      28.611  31.227  23.507  1.00  0.00     0.176 C 
ATOM     17  O   UNL A   1      27.111  29.123  23.147  1.00  0.00    -0.213 OA
ATOM     18  O   UNL A   1      28.864  29.655  21.417  1.00  0.00    -0.213 OA
ENDBRANCH   8  15
BRANCH  14  19
ATOM     19  C   UNL A   1      33.385  24.417  24.410  1.00  0.00     0.225 C 
ATOM     20  O   UNL A   1      32.733  23.551  25.015  1.00  0.00    -0.275 OA
BRANCH  19  21
ATOM     21  C   UNL A   1      34.908  24.210  24.341  1.00  0.00     0.083 C 
ATOM     22  C   UNL A   1      35.244  23.179  23.251  1.00  0.00     0.042 C 
ATOM     23  C   UNL A   1      35.679  24.050  25.652  1.00  0.00     0.042 C 
ATOM     24  C   UNL A   1      36.701  22.734  23.275  1.00  0.00     0.161 C 
ATOM     25  C   UNL A   1      37.111  23.587  25.427  1.00  0.00     0.161 C 
ATOM     26  O   UNL A   1      37.127  22.427  24.599  1.00  0.00    -0.381 OA
ENDBRANCH  19  21
ENDBRANCH  14  19
ENDBRANCH   4   7
ENDBRANCH   2   3
ENDBRANCH   1   2
BRANCH   1  27
ATOM     27  C   UNL A   1      32.199  31.353  26.823  1.00  0.00     0.023 C 
BRANCH  27  28
ATOM     28  C   UNL A   1      33.099  32.316  27.563  1.00  0.00     0.116 C 
BRANCH  28  29
ATOM     29  N   UNL A   1      32.597  33.684  27.663  1.00  0.00    -0.352 N 
ATOM     30  C   UNL A   1      33.026  34.714  28.474  1.00  0.00     0.251 C 
ATOM     31  H   UNL A   1      31.844  33.902  27.066  1.00  0.00     0.163 HD
ATOM     32  O   UNL A   1      32.434  35.789  28.489  1.00  0.00    -0.269 OA
BRANCH  30  33
ATOM     33  C   UNL A   1      34.176  34.480  29.373  1.00  0.00     0.039 A 
ATOM     34  C   UNL A   1      33.956  34.006  30.666  1.00  0.00     0.014 A 
ATOM     35  C   UNL A   1      35.471  34.586  28.875  1.00  0.00     0.014 A 
ATOM     36  C   UNL A   1      35.036  33.514  31.405  1.00  0.00     0.010 A 
ATOM     37  C   UNL A   1      36.499  33.930  29.530  1.00  0.00     0.010 A 
ATOM     38  C   UNL A   1      36.305  33.397  30.812  1.00  0.00    -0.014 A 
BRANCH  38  39
ATOM     39  C   UNL A   1      37.450  32.740  31.498  1.00  0.00     0.031 A 
ATOM     40  C   UNL A   1      38.143  31.573  30.841  1.00  0.00     0.074 A 
ATOM     41  C   UNL A   1      37.800  33.115  32.745  1.00  0.00     0.049 A 
ATOM     42  N   UNL A   1      39.071  30.781  31.317  1.00  0.00    -0.248 NA
ATOM     43  C   UNL A   1      37.693  31.209  29.485  1.00  0.00     0.031 C 
ATOM     44  C   UNL A   1      37.158  34.169  33.532  1.00  0.00     0.029 A 
ATOM     45  N   UNL A   1      38.785  32.640  33.579  1.00  0.00    -0.354 N 
ATOM     46  C   UNL A   1      39.280  29.817  30.338  1.00  0.00     0.074 A 
ATOM     47  C   UNL A   1      38.325  30.065  29.284  1.00  0.00     0.031 C 
ATOM     48  C   UNL A   1      37.792  34.292  34.710  1.00  0.00     0.029 A 
ATOM     49  C   UNL A   1      38.852  33.294  34.786  1.00  0.00     0.049 A 
ATOM     50  H   UNL A   1      39.386  31.900  33.333  1.00  0.00     0.167 HD
ATOM     51  C   UNL A   1      40.213  28.837  30.298  1.00  0.00     0.037 A 
ATOM     52  C   UNL A   1      39.674  33.107  35.836  1.00  0.00     0.037 A 
ATOM     53  C   UNL A   1      41.198  28.627  31.324  1.00  0.00     0.049 A 
ATOM     54  C   UNL A   1      40.722  32.029  35.757  1.00  0.00     0.074 A 
ATOM     55  C   UNL A   1      42.243  27.721  31.344  1.00  0.00     0.029 A 
ATOM     56  N   UNL A   1      41.261  29.339  32.512  1.00  0.00    -0.354 N 
ATOM     57  N   UNL A   1      40.968  31.179  34.789  1.00  0.00    -0.248 NA
ATOM     58  C   UNL A   1      41.614  31.890  36.916  1.00  0.00     0.031 C 
ATOM     59  C   UNL A   1      42.905  27.848  32.569  1.00  0.00     0.029 A 
ATOM     60  C   UNL A   1      42.312  28.875  33.286  1.00  0.00     0.049 A 
ATOM     61  H   UNL A   1      40.649  30.066  32.769  1.00  0.00     0.167 HD
ATOM     62  C   UNL A   1      42.053  30.423  35.209  1.00  0.00     0.074 A 
ATOM     63  C   UNL A   1      42.436  30.933  36.509  1.00  0.00     0.031 C 
ATOM     64  C   UNL A   1      42.677  29.396  34.579  1.00  0.00     0.037 A 
BRANCH  51  65
ATOM     65  C   UNL A   1      40.220  27.931  29.099  1.00  0.00     0.064 A 
ATOM     66  C   UNL A   1      40.936  28.251  27.933  1.00  0.00     0.173 A 
ATOM     67  C   UNL A   1      39.519  26.716  29.119  1.00  0.00     0.173 A 
ATOM     68  F   UNL A   1      41.613  29.407  27.852  1.00  0.00    -0.203 F 
ATOM     69  C   UNL A   1      40.917  27.411  26.824  1.00  0.00     0.198 A 
ATOM     70  C   UNL A   1      39.533  25.859  28.022  1.00  0.00     0.198 A 
ATOM     71  F   UNL A   1      38.819  26.357  30.207  1.00  0.00    -0.203 F 
ATOM     72  F   UNL A   1      41.554  27.771  25.701  1.00  0.00    -0.200 F 
ATOM     73  C   UNL A   1      40.223  26.211  26.872  1.00  0.00     0.200 A 
ATOM     74  F   UNL A   1      38.874  24.694  28.075  1.00  0.00    -0.200 F 
ATOM     75  F   UNL A   1      40.212  25.399  25.806  1.00  0.00    -0.200 F 
ENDBRANCH  51  65
BRANCH  52  76
ATOM     76  C   UNL A   1      39.564  33.977  37.038  1.00  0.00     0.064 A 
ATOM     77  C   UNL A   1      40.213  35.220  37.089  1.00  0.00     0.173 A 
ATOM     78  C   UNL A   1      38.821  33.586  38.161  1.00  0.00     0.173 A 
ATOM     79  F   UNL A   1      40.953  35.630  36.049  1.00  0.00    -0.203 F 
ATOM     80  C   UNL A   1      40.143  36.026  38.224  1.00  0.00     0.198 A 
ATOM     81  C   UNL A   1      38.724  34.408  39.284  1.00  0.00     0.198 A 
ATOM     82  F   UNL A   1      38.176  32.411  38.165  1.00  0.00    -0.203 F 
ATOM     83  F   UNL A   1      40.816  37.183  38.264  1.00  0.00    -0.200 F 
ATOM     84  C   UNL A   1      39.394  35.621  39.318  1.00  0.00     0.200 A 
ATOM     85  F   UNL A   1      37.986  34.021  40.333  1.00  0.00    -0.200 F 
ATOM     86  F   UNL A   1      39.323  36.398  40.408  1.00  0.00    -0.200 F 
ENDBRANCH  52  76
BRANCH  64  87
ATOM     87  C   UNL A   1      43.856  28.779  35.275  1.00  0.00     0.064 A 
ATOM     88  C   UNL A   1      43.703  27.735  36.199  1.00  0.00     0.173 A 
ATOM     89  C   UNL A   1      45.157  29.221  34.992  1.00  0.00     0.173 A 
ATOM     90  F   UNL A   1      42.479  27.284  36.513  1.00  0.00    -0.203 F 
ATOM     91  C   UNL A   1      44.807  27.182  36.842  1.00  0.00     0.198 A 
ATOM     92  C   UNL A   1      46.262  28.640  35.610  1.00  0.00     0.198 A 
ATOM     93  F   UNL A   1      45.361  30.209  34.109  1.00  0.00    -0.203 F 
ATOM     94  F   UNL A   1      44.632  26.228  37.768  1.00  0.00    -0.200 F 
ATOM     95  C   UNL A   1      46.085  27.630  36.543  1.00  0.00     0.200 A 
ATOM     96  F   UNL A   1      47.496  29.062  35.305  1.00  0.00    -0.200 F 
ATOM     97  F   UNL A   1      47.146  27.094  37.160  1.00  0.00    -0.200 F 
ENDBRANCH  64  87
ENDBRANCH  38  39
ENDBRANCH  30  33
ENDBRANCH  28  29
ENDBRANCH  27  28
ENDBRANCH   1  27
TORSDOF 14
ENDMDL
MODEL 2
REMARK VINA RESULT:     -13.3      0.628      7.350
REMARK SMILES CS(=O)(=O)N1C[C@@H]2CN(C(=O)C3CCOCC3)C[C@]2(C(=O)NCCCCNC(=O)c2ccc(-c3c4nc(c(-c5c(F)c(F)c(F)c(F)c5F)c5ccc([nH]5)c(-c5c(F)c(F)c(F)c(F)c5F)c5nc(c(-c6c(F)c(F)c(F)c(F)c6F)c6ccc3[nH]6)C=C5)C=C4)cc2)C1
REMARK SMILES IDX 24 1 23 2 22 3 20 4 21 5 19 7 5 8 6 9 93 10 7 11 8 12 18 13
REMARK SMILES IDX 9 14 2 15 1 16 3 17 4 18 10 19 11 20 12 21 13 22 17 23 14 24
REMARK SMILES IDX 16 25 15 26 25 27 26 28 27 29 28 30 29 32 30 33 31 34 92 35
REMARK SMILES IDX 32 36 91 37 33 38 34 39 35 40 85 41 36 42 90 43 84 44 86 45
REMARK SMILES IDX 37 46 89 47 83 48 82 49 38 51 70 52 50 53 69 54 51 55 54 56
REMARK SMILES IDX 68 57 87 58 52 59 53 60 67 62 88 63 55 64 39 65 40 66 48 67
REMARK SMILES IDX 41 68 42 69 46 70 49 71 43 72 44 73 47 74 45 75 71 76 72 77
REMARK SMILES IDX 80 78 73 79 74 80 78 81 81 82 75 83 76 84 79 85 77 86 56 87
REMARK SMILES IDX 57 88 65 89 58 90 59 91 63 92 66 93 60 94 61 95 64 96 62 97
REMARK H PARENT 22 6 27 31 86 50 54 61
REMARK Flexibility Score: inf
ROOT
ATOM      1  C   UNL A   1      32.044  30.258  26.940  1.00  0.00     0.023 C 
ENDROOT
BRANCH   1   2
ATOM      2  C   UNL A   1      33.234  29.537  26.306  1.00  0.00     0.116 C 
BRANCH   2   3
ATOM      3  N   UNL A   1      33.260  29.884  24.904  1.00  0.00    -0.356 N 
ATOM      4  C   UNL A   1      33.170  28.950  23.895  1.00  0.00     0.229 C 
ATOM      5  O   UNL A   1      33.891  29.078  22.907  1.00  0.00    -0.274 OA
ATOM      6  H   UNL A   1      33.347  30.834  24.657  1.00  0.00     0.163 HD
BRANCH   4   7
ATOM      7  C   UNL A   1      32.085  27.837  24.097  1.00  0.00     0.086 C 
ATOM      8  N   UNL A   1      29.719  28.572  23.649  1.00  0.00    -0.201 NA
ATOM      9  C   UNL A   1      29.703  27.122  23.638  1.00  0.00     0.108 C 
ATOM     10  C   UNL A   1      31.146  28.955  23.410  1.00  0.00     0.121 C 
ATOM     11  C   UNL A   1      31.156  26.760  23.403  1.00  0.00     0.042 C 
ATOM     12  C   UNL A   1      31.465  25.414  24.033  1.00  0.00     0.125 C 
ATOM     13  C   UNL A   1      33.313  26.814  23.841  1.00  0.00     0.138 C 
ATOM     14  N   UNL A   1      32.875  25.487  24.260  1.00  0.00    -0.341 N 
BRANCH   8  15
ATOM     15  S   UNL A   1      28.624  29.473  22.723  1.00  0.00     0.211 S 
ATOM     16  C   UNL A   1      28.559  31.056  23.536  1.00  0.00     0.176 C 
ATOM     17  O   UNL A   1      27.318  28.858  22.870  1.00  0.00    -0.213 OA
ATOM     18  O   UNL A   1      29.223  29.645  21.421  1.00  0.00    -0.213 OA
ENDBRANCH   8  15
BRANCH  14  19
ATOM     19  C   UNL A   1      33.521  24.400  24.807  1.00  0.00     0.225 C 
ATOM     20  O   UNL A   1      32.876  23.638  25.546  1.00  0.00    -0.275 OA
BRANCH  19  21
ATOM     21  C   UNL A   1      35.025  24.112  24.669  1.00  0.00     0.083 C 
ATOM     22  C   UNL A   1      35.291  23.345  23.363  1.00  0.00     0.042 C 
ATOM     23  C   UNL A   1      35.783  23.600  25.894  1.00  0.00     0.042 C 
ATOM     24  C   UNL A   1      36.715  22.810  23.261  1.00  0.00     0.161 C 
ATOM     25  C   UNL A   1      37.180  23.107  25.546  1.00  0.00     0.161 C 
ATOM     26  O   UNL A   1      37.117  22.175  24.471  1.00  0.00    -0.381 OA
ENDBRANCH  19  21
ENDBRANCH  14  19
ENDBRANCH   4   7
ENDBRANCH   2   3
ENDBRANCH   1   2
BRANCH   1  27
ATOM     27  C   UNL A   1      31.946  31.740  26.680  1.00  0.00     0.023 C 
BRANCH  27  28
ATOM     28  C   UNL A   1      32.926  32.578  27.470  1.00  0.00     0.116 C 
BRANCH  28  29
ATOM     29  N   UNL A   1      32.516  33.960  27.701  1.00  0.00    -0.352 N 
ATOM     30  C   UNL A   1      33.033  34.889  28.580  1.00  0.00     0.251 C 
ATOM     31  H   UNL A   1      31.762  34.275  27.149  1.00  0.00     0.163 HD
ATOM     32  O   UNL A   1      32.513  35.992  28.704  1.00  0.00    -0.269 OA
BRANCH  30  33
ATOM     33  C   UNL A   1      34.190  34.507  29.418  1.00  0.00     0.039 A 
ATOM     34  C   UNL A   1      33.977  33.873  30.642  1.00  0.00     0.014 A 
ATOM     35  C   UNL A   1      35.479  34.642  28.912  1.00  0.00     0.014 A 
ATOM     36  C   UNL A   1      35.053  33.259  31.288  1.00  0.00     0.010 A 
ATOM     37  C   UNL A   1      36.498  33.878  29.455  1.00  0.00     0.010 A 
ATOM     38  C   UNL A   1      36.309  33.187  30.660  1.00  0.00    -0.014 A 
BRANCH  38  39
ATOM     39  C   UNL A   1      37.445  32.415  31.232  1.00  0.00     0.031 A 
ATOM     40  C   UNL A   1      37.966  32.761  32.604  1.00  0.00     0.074 A 
ATOM     41  C   UNL A   1      38.074  31.481  30.489  1.00  0.00     0.049 A 
ATOM     42  N   UNL A   1      39.019  32.304  33.234  1.00  0.00    -0.248 NA
ATOM     43  C   UNL A   1      37.239  33.805  33.349  1.00  0.00     0.031 C 
ATOM     44  C   UNL A   1      37.730  31.108  29.116  1.00  0.00     0.029 A 
ATOM     45  N   UNL A   1      39.148  30.677  30.786  1.00  0.00    -0.354 N 
ATOM     46  C   UNL A   1      39.094  33.028  34.417  1.00  0.00     0.074 A 
ATOM     47  C   UNL A   1      38.039  34.013  34.380  1.00  0.00     0.031 C 
ATOM     48  C   UNL A   1      38.543  30.120  28.708  1.00  0.00     0.029 A 
ATOM     49  C   UNL A   1      39.499  29.823  29.768  1.00  0.00     0.049 A 
ATOM     50  H   UNL A   1      39.623  30.710  31.648  1.00  0.00     0.167 HD
ATOM     51  C   UNL A   1      39.937  32.861  35.463  1.00  0.00     0.037 A 
ATOM     52  C   UNL A   1      40.484  28.907  29.696  1.00  0.00     0.037 A 
ATOM     53  C   UNL A   1      40.950  31.842  35.519  1.00  0.00     0.049 A 
ATOM     54  C   UNL A   1      41.391  28.720  30.882  1.00  0.00     0.074 A 
ATOM     55  C   UNL A   1      41.800  31.529  36.565  1.00  0.00     0.029 A 
ATOM     56  N   UNL A   1      41.246  30.968  34.484  1.00  0.00    -0.354 N 
ATOM     57  N   UNL A   1      41.397  29.352  32.031  1.00  0.00    -0.248 NA
ATOM     58  C   UNL A   1      42.427  27.684  30.764  1.00  0.00     0.031 C 
ATOM     59  C   UNL A   1      42.648  30.500  36.142  1.00  0.00     0.029 A 
ATOM     60  C   UNL A   1      42.284  30.131  34.856  1.00  0.00     0.049 A 
ATOM     61  H   UNL A   1      40.787  30.946  33.614  1.00  0.00     0.167 HD
ATOM     62  C   UNL A   1      42.414  28.777  32.780  1.00  0.00     0.074 A 
ATOM     63  C   UNL A   1      42.987  27.726  31.965  1.00  0.00     0.031 C 
ATOM     64  C   UNL A   1      42.841  29.090  34.029  1.00  0.00     0.037 A 
BRANCH  51  65
ATOM     65  C   UNL A   1      39.785  33.790  36.634  1.00  0.00     0.064 A 
ATOM     66  C   UNL A   1      38.979  33.465  37.738  1.00  0.00     0.173 A 
ATOM     67  C   UNL A   1      40.470  35.014  36.666  1.00  0.00     0.173 A 
ATOM     68  F   UNL A   1      38.290  32.314  37.756  1.00  0.00    -0.203 F 
ATOM     69  C   UNL A   1      38.834  34.345  38.807  1.00  0.00     0.198 A 
ATOM     70  C   UNL A   1      40.354  35.876  37.754  1.00  0.00     0.198 A 
ATOM     71  F   UNL A   1      41.257  35.377  35.640  1.00  0.00    -0.203 F 
ATOM     72  F   UNL A   1      38.007  34.040  39.817  1.00  0.00    -0.200 F 
ATOM     73  C   UNL A   1      39.529  35.546  38.818  1.00  0.00     0.200 A 
ATOM     74  F   UNL A   1      41.036  37.028  37.770  1.00  0.00    -0.200 F 
ATOM     75  F   UNL A   1      39.394  36.389  39.851  1.00  0.00    -0.200 F 
ENDBRANCH  51  65
BRANCH  52  76
ATOM     76  C   UNL A   1      40.644  28.074  28.474  1.00  0.00     0.064 A 
ATOM     77  C   UNL A   1      40.003  26.831  28.360  1.00  0.00     0.173 A 
ATOM     78  C   UNL A   1      41.445  28.492  27.401  1.00  0.00     0.173 A 
ATOM     79  F   UNL A   1      39.243  26.377  29.367  1.00  0.00    -0.203 F 
ATOM     80  C   UNL A   1      40.175  26.030  27.233  1.00  0.00     0.198 A 
ATOM     81  C   UNL A   1      41.591  27.704  26.260  1.00  0.00     0.198 A 
ATOM     82  F   UNL A   1      42.077  29.673  27.454  1.00  0.00    -0.203 F 
ATOM     83  F   UNL A   1      39.593  24.824  27.175  1.00  0.00    -0.200 F 
ATOM     84  C   UNL A   1      40.965  26.469  26.181  1.00  0.00     0.200 A 
ATOM     85  F   UNL A   1      42.341  28.139  25.239  1.00  0.00    -0.200 F 
ATOM     86  F   UNL A   1      41.127  25.700  25.096  1.00  0.00    -0.200 F 
ENDBRANCH  52  76
BRANCH  64  87
ATOM     87  C   UNL A   1      43.960  28.267  34.599  1.00  0.00     0.064 A 
ATOM     88  C   UNL A   1      45.302  28.655  34.468  1.00  0.00     0.173 A 
ATOM     89  C   UNL A   1      43.683  27.088  35.307  1.00  0.00     0.173 A 
ATOM     90  F   UNL A   1      45.621  29.768  33.789  1.00  0.00    -0.203 F 
ATOM     91  C   UNL A   1      46.327  27.874  34.994  1.00  0.00     0.198 A 
ATOM     92  C   UNL A   1      44.709  26.329  35.864  1.00  0.00     0.198 A 
ATOM     93  F   UNL A   1      42.418  26.677  35.471  1.00  0.00    -0.203 F 
ATOM     94  F   UNL A   1      47.605  28.232  34.803  1.00  0.00    -0.200 F 
ATOM     95  C   UNL A   1      46.030  26.716  35.696  1.00  0.00     0.200 A 
ATOM     96  F   UNL A   1      44.419  25.220  36.559  1.00  0.00    -0.200 F 
ATOM     97  F   UNL A   1      47.018  25.967  36.205  1.00  0.00    -0.200 F 
ENDBRANCH  64  87
ENDBRANCH  38  39
ENDBRANCH  30  33
ENDBRANCH  28  29
ENDBRANCH  27  28
ENDBRANCH   1  27
TORSDOF 14
ENDMDL
MODEL 3
REMARK VINA RESULT:     -13.3      5.637     10.216
REMARK SMILES CS(=O)(=O)N1C[C@@H]2CN(C(=O)C3CCOCC3)C[C@]2(C(=O)NCCCCNC(=O)c2ccc(-c3c4nc(c(-c5c(F)c(F)c(F)c(F)c5F)c5ccc([nH]5)c(-c5c(F)c(F)c(F)c(F)c5F)c5nc(c(-c6c(F)c(F)c(F)c(F)c6F)c6ccc3[nH]6)C=C5)C=C4)cc2)C1
REMARK SMILES IDX 24 1 23 2 22 3 20 4 21 5 19 7 5 8 6 9 93 10 7 11 8 12 18 13
REMARK SMILES IDX 9 14 2 15 1 16 3 17 4 18 10 19 11 20 12 21 13 22 17 23 14 24
REMARK SMILES IDX 16 25 15 26 25 27 26 28 27 29 28 30 29 32 30 33 31 34 92 35
REMARK SMILES IDX 32 36 91 37 33 38 34 39 35 40 85 41 36 42 90 43 84 44 86 45
REMARK SMILES IDX 37 46 89 47 83 48 82 49 38 51 70 52 50 53 69 54 51 55 54 56
REMARK SMILES IDX 68 57 87 58 52 59 53 60 67 62 88 63 55 64 39 65 40 66 48 67
REMARK SMILES IDX 41 68 42 69 46 70 49 71 43 72 44 73 47 74 45 75 71 76 72 77
REMARK SMILES IDX 80 78 73 79 74 80 78 81 81 82 75 83 76 84 79 85 77 86 56 87
REMARK SMILES IDX 57 88 65 89 58 90 59 91 63 92 66 93 60 94 61 95 64 96 62 97
REMARK H PARENT 22 6 27 31 86 50 54 61
REMARK Flexibility Score: inf
ROOT
ATOM      1  C   UNL A   1      37.373  21.562  24.526  1.00  0.00     0.023 C 
ENDROOT
BRANCH   1   2
ATOM      2  C   UNL A   1      36.610  22.411  25.545  1.00  0.00     0.116 C 
BRANCH   2   3
ATOM      3  N   UNL A   1      35.859  21.511  26.389  1.00  0.00    -0.356 N 
ATOM      4  C   UNL A   1      34.496  21.608  26.569  1.00  0.00     0.229 C 
ATOM      5  O   UNL A   1      34.037  21.443  27.697  1.00  0.00    -0.274 OA
ATOM      6  H   UNL A   1      36.344  20.795  26.860  1.00  0.00     0.163 HD
BRANCH   4   7
ATOM      7  C   UNL A   1      33.659  21.864  25.269  1.00  0.00     0.086 C 
ATOM      8  N   UNL A   1      33.243  19.820  23.860  1.00  0.00    -0.201 NA
ATOM      9  C   UNL A   1      32.290  20.818  23.417  1.00  0.00     0.108 C 
ATOM     10  C   UNL A   1      33.662  20.251  25.230  1.00  0.00     0.121 C 
ATOM     11  C   UNL A   1      32.235  21.788  24.582  1.00  0.00     0.042 C 
ATOM     12  C   UNL A   1      31.890  23.180  24.085  1.00  0.00     0.125 C 
ATOM     13  C   UNL A   1      33.106  23.159  26.068  1.00  0.00     0.138 C 
ATOM     14  N   UNL A   1      32.442  24.024  25.099  1.00  0.00    -0.341 N 
BRANCH   8  15
ATOM     15  S   UNL A   1      32.896  18.165  23.760  1.00  0.00     0.211 S 
ATOM     16  C   UNL A   1      34.446  17.367  24.119  1.00  0.00     0.176 C 
ATOM     17  O   UNL A   1      32.568  17.869  22.378  1.00  0.00    -0.213 OA
ATOM     18  O   UNL A   1      31.965  17.870  24.824  1.00  0.00    -0.213 OA
ENDBRANCH   8  15
BRANCH  14  19
ATOM     19  C   UNL A   1      32.286  25.388  24.990  1.00  0.00     0.225 C 
ATOM     20  O   UNL A   1      31.928  25.858  23.898  1.00  0.00    -0.275 OA
BRANCH  19  21
ATOM     21  C   UNL A   1      32.636  26.402  26.093  1.00  0.00     0.083 C 
ATOM     22  C   UNL A   1      31.347  26.984  26.694  1.00  0.00     0.042 C 
ATOM     23  C   UNL A   1      33.747  27.417  25.820  1.00  0.00     0.042 C 
ATOM     24  C   UNL A   1      31.598  28.166  27.622  1.00  0.00     0.161 C 
ATOM     25  C   UNL A   1      33.799  28.514  26.874  1.00  0.00     0.161 C 
ATOM     26  O   UNL A   1      32.509  29.094  27.042  1.00  0.00    -0.381 OA
ENDBRANCH  19  21
ENDBRANCH  14  19
ENDBRANCH   4   7
ENDBRANCH   2   3
ENDBRANCH   1   2
BRANCH   1  27
ATOM     27  C   UNL A   1      38.001  20.295  25.051  1.00  0.00     0.023 C 
BRANCH  27  28
ATOM     28  C   UNL A   1      39.302  20.504  25.792  1.00  0.00     0.116 C 
BRANCH  28  29
ATOM     29  N   UNL A   1      40.163  19.328  25.878  1.00  0.00    -0.352 N 
ATOM     30  C   UNL A   1      41.516  19.253  26.139  1.00  0.00     0.251 C 
ATOM     31  H   UNL A   1      39.713  18.464  25.729  1.00  0.00     0.163 HD
ATOM     32  O   UNL A   1      42.105  18.178  26.095  1.00  0.00    -0.269 OA
BRANCH  30  33
ATOM     33  C   UNL A   1      42.257  20.503  26.411  1.00  0.00     0.039 A 
ATOM     34  C   UNL A   1      42.753  21.257  25.348  1.00  0.00     0.014 A 
ATOM     35  C   UNL A   1      42.321  20.995  27.711  1.00  0.00     0.014 A 
ATOM     36  C   UNL A   1      43.190  22.563  25.584  1.00  0.00     0.010 A 
ATOM     37  C   UNL A   1      42.575  22.342  27.908  1.00  0.00     0.010 A 
ATOM     38  C   UNL A   1      43.030  23.145  26.854  1.00  0.00    -0.014 A 
BRANCH  38  39
ATOM     39  C   UNL A   1      43.334  24.577  27.120  1.00  0.00     0.031 A 
ATOM     40  C   UNL A   1      44.724  25.105  26.860  1.00  0.00     0.074 A 
ATOM     41  C   UNL A   1      42.408  25.375  27.689  1.00  0.00     0.049 A 
ATOM     42  N   UNL A   1      45.234  26.278  27.140  1.00  0.00    -0.248 NA
ATOM     43  C   UNL A   1      45.688  24.170  26.255  1.00  0.00     0.031 C 
ATOM     44  C   UNL A   1      41.054  24.972  28.073  1.00  0.00     0.029 A 
ATOM     45  N   UNL A   1      42.469  26.699  28.053  1.00  0.00    -0.354 N 
ATOM     46  C   UNL A   1      46.574  26.201  26.781  1.00  0.00     0.074 A 
ATOM     47  C   UNL A   1      46.821  24.845  26.348  1.00  0.00     0.031 C 
ATOM     48  C   UNL A   1      40.400  26.032  28.574  1.00  0.00     0.029 A 
ATOM     49  C   UNL A   1      41.300  27.179  28.594  1.00  0.00     0.049 A 
ATOM     50  H   UNL A   1      43.275  27.252  27.936  1.00  0.00     0.167 HD
ATOM     51  C   UNL A   1      47.507  27.181  26.770  1.00  0.00     0.037 A 
ATOM     52  C   UNL A   1      40.992  28.405  29.059  1.00  0.00     0.037 A 
ATOM     53  C   UNL A   1      47.243  28.542  27.148  1.00  0.00     0.049 A 
ATOM     54  C   UNL A   1      42.039  29.486  29.011  1.00  0.00     0.074 A 
ATOM     55  C   UNL A   1      48.092  29.633  27.092  1.00  0.00     0.029 A 
ATOM     56  N   UNL A   1      46.034  28.998  27.652  1.00  0.00    -0.354 N 
ATOM     57  N   UNL A   1      43.278  29.424  28.587  1.00  0.00    -0.248 NA
ATOM     58  C   UNL A   1      41.639  30.813  29.499  1.00  0.00     0.031 C 
ATOM     59  C   UNL A   1      47.413  30.739  27.613  1.00  0.00     0.029 A 
ATOM     60  C   UNL A   1      46.121  30.351  27.935  1.00  0.00     0.049 A 
ATOM     61  H   UNL A   1      45.232  28.444  27.788  1.00  0.00     0.167 HD
ATOM     62  C   UNL A   1      43.798  30.702  28.733  1.00  0.00     0.074 A 
ATOM     63  C   UNL A   1      42.731  31.526  29.260  1.00  0.00     0.031 C 
ATOM     64  C   UNL A   1      45.047  31.155  28.460  1.00  0.00     0.037 A 
BRANCH  51  65
ATOM     65  C   UNL A   1      48.893  26.816  26.317  1.00  0.00     0.064 A 
ATOM     66  C   UNL A   1      49.834  26.252  27.195  1.00  0.00     0.173 A 
ATOM     67  C   UNL A   1      49.282  27.012  24.984  1.00  0.00     0.173 A 
ATOM     68  F   UNL A   1      49.522  26.055  28.485  1.00  0.00    -0.203 F 
ATOM     69  C   UNL A   1      51.120  25.936  26.765  1.00  0.00     0.198 A 
ATOM     70  C   UNL A   1      50.557  26.660  24.547  1.00  0.00     0.198 A 
ATOM     71  F   UNL A   1      48.424  27.545  24.100  1.00  0.00    -0.203 F 
ATOM     72  F   UNL A   1      52.020  25.461  27.638  1.00  0.00    -0.200 F 
ATOM     73  C   UNL A   1      51.478  26.133  25.439  1.00  0.00     0.200 A 
ATOM     74  F   UNL A   1      50.896  26.837  23.264  1.00  0.00    -0.200 F 
ATOM     75  F   UNL A   1      52.713  25.822  25.025  1.00  0.00    -0.200 F 
ENDBRANCH  51  65
BRANCH  52  76
ATOM     76  C   UNL A   1      39.627  28.687  29.580  1.00  0.00     0.064 A 
ATOM     77  C   UNL A   1      38.622  29.180  28.736  1.00  0.00     0.173 A 
ATOM     78  C   UNL A   1      39.299  28.481  30.928  1.00  0.00     0.173 A 
ATOM     79  F   UNL A   1      38.891  29.413  27.442  1.00  0.00    -0.203 F 
ATOM     80  C   UNL A   1      37.351  29.479  29.222  1.00  0.00     0.198 A 
ATOM     81  C   UNL A   1      38.017  28.750  31.408  1.00  0.00     0.198 A 
ATOM     82  F   UNL A   1      40.219  28.006  31.779  1.00  0.00    -0.203 F 
ATOM     83  F   UNL A   1      36.427  29.999  28.403  1.00  0.00    -0.200 F 
ATOM     84  C   UNL A   1      37.048  29.259  30.557  1.00  0.00     0.200 A 
ATOM     85  F   UNL A   1      37.724  28.520  32.694  1.00  0.00    -0.200 F 
ATOM     86  F   UNL A   1      35.825  29.542  31.024  1.00  0.00    -0.200 F 
ENDBRANCH  52  76
BRANCH  64  87
ATOM     87  C   UNL A   1      45.315  32.614  28.697  1.00  0.00     0.064 A 
ATOM     88  C   UNL A   1      45.850  33.077  29.908  1.00  0.00     0.173 A 
ATOM     89  C   UNL A   1      45.057  33.555  27.690  1.00  0.00     0.173 A 
ATOM     90  F   UNL A   1      46.103  32.219  30.908  1.00  0.00    -0.203 F 
ATOM     91  C   UNL A   1      46.082  34.434  30.114  1.00  0.00     0.198 A 
ATOM     92  C   UNL A   1      45.326  34.907  27.886  1.00  0.00     0.198 A 
ATOM     93  F   UNL A   1      44.556  33.164  26.509  1.00  0.00    -0.203 F 
ATOM     94  F   UNL A   1      46.535  34.861  31.302  1.00  0.00    -0.200 F 
ATOM     95  C   UNL A   1      45.827  35.346  29.102  1.00  0.00     0.200 A 
ATOM     96  F   UNL A   1      45.096  35.784  26.899  1.00  0.00    -0.200 F 
ATOM     97  F   UNL A   1      46.055  36.651  29.301  1.00  0.00    -0.200 F 
ENDBRANCH  64  87
ENDBRANCH  38  39
ENDBRANCH  30  33
ENDBRANCH  28  29
ENDBRANCH  27  28
ENDBRANCH   1  27
TORSDOF 14
ENDMDL
