MODEL 1
REMARK VINA RESULT:     -12.3      0.000      0.000
REMARK SMILES CC[C@](C)(NC(=O)N[C@@H]1C=CS(=O)(=O)C1)C(=O)NCCCCNC(=O)c1ccc(-c2c3nc(c(-c4c(F)c(F)c(F)c(F)c4F)c4ccc([nH]4)c(-c4c(F)c(F)c(F)c(F)c4F)c4nc(c(-c5c(F)c(F)c(F)c(F)c5F)c5ccc2[nH]5)C=C4)C=C3)cc1
REMARK SMILES IDX 20 1 19 2 18 3 16 4 17 5 3 7 4 8 2 9 1 10 5 11 6 12 7 14
REMARK SMILES IDX 8 15 9 17 10 18 15 19 11 20 12 21 13 22 14 23 21 24 22 25
REMARK SMILES IDX 23 26 24 27 25 29 26 30 27 31 88 32 28 33 87 34 29 35 30 36
REMARK SMILES IDX 31 37 81 38 32 39 86 40 80 41 82 42 33 43 85 44 79 45 78 46
REMARK SMILES IDX 34 48 66 49 46 50 65 51 47 52 50 53 64 54 83 55 48 56 49 57
REMARK SMILES IDX 63 59 84 60 51 61 35 62 36 63 44 64 37 65 38 66 42 67 45 68
REMARK SMILES IDX 39 69 40 70 43 71 41 72 67 73 68 74 76 75 69 76 70 77 74 78
REMARK SMILES IDX 77 79 71 80 72 81 75 82 73 83 52 84 53 85 61 86 54 87 55 88
REMARK SMILES IDX 59 89 62 90 56 91 57 92 60 93 58 94
REMARK H PARENT 18 6 5 13 8 16 23 28 82 47 50 58
REMARK Flexibility Score: inf
ROOT
ATOM      1  C   UNL A   1      31.414  30.877  26.090  1.00  0.00     0.023 C 
ENDROOT
BRANCH   1   2
ATOM      2  C   UNL A   1      32.528  29.998  26.687  1.00  0.00     0.116 C 
BRANCH   2   3
ATOM      3  N   UNL A   1      33.430  29.532  25.645  1.00  0.00    -0.354 N 
ATOM      4  C   UNL A   1      33.119  28.833  24.493  1.00  0.00     0.245 C 
ATOM      5  O   UNL A   1      33.202  29.361  23.388  1.00  0.00    -0.272 OA
ATOM      6  H   UNL A   1      34.383  29.740  25.778  1.00  0.00     0.163 HD
BRANCH   4   7
ATOM      7  C   UNL A   1      32.715  27.345  24.709  1.00  0.00     0.117 C 
ATOM      8  C   UNL A   1      31.473  27.018  25.544  1.00  0.00     0.045 C 
BRANCH   7   9
ATOM      9  C   UNL A   1      33.955  26.735  25.451  1.00  0.00     0.035 C 
ATOM     10  C   UNL A   1      34.067  25.206  25.340  1.00  0.00     0.007 C 
ENDBRANCH   7   9
BRANCH   7  11
ATOM     11  N   UNL A   1      32.519  26.746  23.364  1.00  0.00    -0.324 N 
ATOM     12  C   UNL A   1      31.553  26.804  22.431  1.00  0.00     0.316 C 
ATOM     13  H   UNL A   1      33.272  26.172  23.093  1.00  0.00     0.166 HD
ATOM     14  O   UNL A   1      31.695  26.094  21.435  1.00  0.00    -0.249 OA
ATOM     15  N   UNL A   1      30.532  27.685  22.412  1.00  0.00    -0.331 N 
ATOM     16  H   UNL A   1      30.189  27.795  21.496  1.00  0.00     0.166 HD
BRANCH  15  17
ATOM     17  C   UNL A   1      29.773  28.532  23.354  1.00  0.00     0.123 C 
ATOM     18  C   UNL A   1      28.388  27.942  23.431  1.00  0.00     0.011 C 
ATOM     19  C   UNL A   1      29.587  30.013  22.977  1.00  0.00     0.170 C 
ATOM     20  C   UNL A   1      27.376  28.690  22.971  1.00  0.00     0.104 C 
ATOM     21  S   UNL A   1      27.934  30.204  22.367  1.00  0.00     0.173 S 
ATOM     22  O   UNL A   1      27.298  31.291  23.072  1.00  0.00    -0.224 OA
ATOM     23  O   UNL A   1      27.993  30.156  20.916  1.00  0.00    -0.224 OA
ENDBRANCH  15  17
ENDBRANCH   7  11
ENDBRANCH   4   7
ENDBRANCH   2   3
ENDBRANCH   1   2
BRANCH   1  24
ATOM     24  C   UNL A   1      31.395  32.343  26.549  1.00  0.00     0.023 C 
BRANCH  24  25
ATOM     25  C   UNL A   1      32.682  32.819  27.206  1.00  0.00     0.116 C 
BRANCH  25  26
ATOM     26  N   UNL A   1      32.562  34.199  27.638  1.00  0.00    -0.352 N 
ATOM     27  C   UNL A   1      33.133  34.825  28.713  1.00  0.00     0.251 C 
ATOM     28  H   UNL A   1      31.986  34.767  27.077  1.00  0.00     0.163 HD
ATOM     29  O   UNL A   1      32.700  35.913  29.081  1.00  0.00    -0.269 OA
BRANCH  27  30
ATOM     30  C   UNL A   1      34.263  34.200  29.431  1.00  0.00     0.039 A 
ATOM     31  C   UNL A   1      35.560  34.436  28.968  1.00  0.00     0.014 A 
ATOM     32  C   UNL A   1      34.052  33.339  30.513  1.00  0.00     0.014 A 
ATOM     33  C   UNL A   1      36.645  33.832  29.604  1.00  0.00     0.010 A 
ATOM     34  C   UNL A   1      35.140  32.790  31.190  1.00  0.00     0.010 A 
ATOM     35  C   UNL A   1      36.446  33.019  30.732  1.00  0.00    -0.014 A 
BRANCH  35  36
ATOM     36  C   UNL A   1      37.598  32.397  31.433  1.00  0.00     0.031 A 
ATOM     37  C   UNL A   1      38.334  31.244  30.811  1.00  0.00     0.074 A 
ATOM     38  C   UNL A   1      37.957  32.852  32.648  1.00  0.00     0.049 A 
ATOM     39  N   UNL A   1      39.339  30.549  31.284  1.00  0.00    -0.248 NA
ATOM     40  C   UNL A   1      37.870  30.798  29.489  1.00  0.00     0.031 C 
ATOM     41  C   UNL A   1      37.295  33.938  33.371  1.00  0.00     0.029 A 
ATOM     42  N   UNL A   1      38.961  32.451  33.494  1.00  0.00    -0.354 N 
ATOM     43  C   UNL A   1      39.619  29.585  30.326  1.00  0.00     0.074 A 
ATOM     44  C   UNL A   1      38.646  29.747  29.267  1.00  0.00     0.031 C 
ATOM     45  C   UNL A   1      37.921  34.131  34.543  1.00  0.00     0.029 A 
ATOM     46  C   UNL A   1      38.999  33.155  34.673  1.00  0.00     0.049 A 
ATOM     47  H   UNL A   1      39.593  31.729  33.277  1.00  0.00     0.167 HD
ATOM     48  C   UNL A   1      40.613  28.665  30.318  1.00  0.00     0.037 A 
ATOM     49  C   UNL A   1      39.802  33.018  35.745  1.00  0.00     0.037 A 
ATOM     50  C   UNL A   1      41.582  28.511  31.372  1.00  0.00     0.049 A 
ATOM     51  C   UNL A   1      40.878  31.966  35.724  1.00  0.00     0.074 A 
ATOM     52  C   UNL A   1      42.653  27.636  31.441  1.00  0.00     0.029 A 
ATOM     53  N   UNL A   1      41.590  29.244  32.551  1.00  0.00    -0.354 N 
ATOM     54  N   UNL A   1      41.179  31.105  34.783  1.00  0.00    -0.248 NA
ATOM     55  C   UNL A   1      41.734  31.873  36.916  1.00  0.00     0.031 C 
ATOM     56  C   UNL A   1      43.274  27.800  32.683  1.00  0.00     0.029 A 
ATOM     57  C   UNL A   1      42.632  28.823  33.363  1.00  0.00     0.049 A 
ATOM     58  H   UNL A   1      40.951  29.958  32.777  1.00  0.00     0.167 HD
ATOM     59  C   UNL A   1      42.271  30.389  35.252  1.00  0.00     0.074 A 
ATOM     60  C   UNL A   1      42.594  30.931  36.556  1.00  0.00     0.031 C 
ATOM     61  C   UNL A   1      42.946  29.375  34.657  1.00  0.00     0.037 A 
BRANCH  48  62
ATOM     62  C   UNL A   1      40.702  27.746  29.132  1.00  0.00     0.064 A 
ATOM     63  C   UNL A   1      39.859  26.632  28.997  1.00  0.00     0.173 A 
ATOM     64  C   UNL A   1      41.613  28.003  28.095  1.00  0.00     0.173 A 
ATOM     65  F   UNL A   1      38.974  26.335  29.962  1.00  0.00    -0.203 F 
ATOM     66  C   UNL A   1      39.945  25.794  27.888  1.00  0.00     0.198 A 
ATOM     67  C   UNL A   1      41.674  27.183  26.971  1.00  0.00     0.198 A 
ATOM     68  F   UNL A   1      42.438  29.058  28.164  1.00  0.00    -0.203 F 
ATOM     69  F   UNL A   1      39.164  24.708  27.808  1.00  0.00    -0.200 F 
ATOM     70  C   UNL A   1      40.847  26.075  26.873  1.00  0.00     0.200 A 
ATOM     71  F   UNL A   1      42.533  27.465  25.982  1.00  0.00    -0.200 F 
ATOM     72  F   UNL A   1      40.922  25.273  25.801  1.00  0.00    -0.200 F 
ENDBRANCH  48  62
BRANCH  49  73
ATOM     73  C   UNL A   1      39.623  33.906  36.924  1.00  0.00     0.064 A 
ATOM     74  C   UNL A   1      38.846  33.505  38.021  1.00  0.00     0.173 A 
ATOM     75  C   UNL A   1      40.217  35.175  36.976  1.00  0.00     0.173 A 
ATOM     76  F   UNL A   1      38.241  32.309  38.011  1.00  0.00    -0.203 F 
ATOM     77  C   UNL A   1      38.650  34.350  39.111  1.00  0.00     0.198 A 
ATOM     78  C   UNL A   1      40.048  36.006  38.081  1.00  0.00     0.198 A 
ATOM     79  F   UNL A   1      40.972  35.607  35.955  1.00  0.00    -0.203 F 
ATOM     80  F   UNL A   1      37.859  33.963  40.121  1.00  0.00    -0.200 F 
ATOM     81  C   UNL A   1      39.256  35.597  39.144  1.00  0.00     0.200 A 
ATOM     82  F   UNL A   1      40.649  37.203  38.116  1.00  0.00    -0.200 F 
ATOM     83  F   UNL A   1      39.070  36.407  40.194  1.00  0.00    -0.200 F 
ENDBRANCH  49  73
BRANCH  61  84
ATOM     84  C   UNL A   1      44.130  28.809  35.391  1.00  0.00     0.064 A 
ATOM     85  C   UNL A   1      45.425  29.314  35.208  1.00  0.00     0.173 A 
ATOM     86  C   UNL A   1      43.957  27.769  36.318  1.00  0.00     0.173 A 
ATOM     87  F   UNL A   1      45.648  30.297  34.323  1.00  0.00    -0.203 F 
ATOM     88  C   UNL A   1      46.507  28.779  35.903  1.00  0.00     0.198 A 
ATOM     89  C   UNL A   1      45.035  27.261  37.037  1.00  0.00     0.198 A 
ATOM     90  F   UNL A   1      42.738  27.253  36.538  1.00  0.00    -0.203 F 
ATOM     91  F   UNL A   1      47.744  29.241  35.671  1.00  0.00    -0.200 F 
ATOM     92  C   UNL A   1      46.310  27.760  36.822  1.00  0.00     0.200 A 
ATOM     93  F   UNL A   1      44.839  26.288  37.937  1.00  0.00    -0.200 F 
ATOM     94  F   UNL A   1      47.352  27.253  37.496  1.00  0.00    -0.200 F 
ENDBRANCH  61  84
ENDBRANCH  35  36
ENDBRANCH  27  30
ENDBRANCH  25  26
ENDBRANCH  24  25
ENDBRANCH   1  24
TORSDOF 14
ENDMDL
MODEL 2
REMARK VINA RESULT:     -12.2      0.726      7.569
REMARK SMILES CC[C@](C)(NC(=O)N[C@@H]1C=CS(=O)(=O)C1)C(=O)NCCCCNC(=O)c1ccc(-c2c3nc(c(-c4c(F)c(F)c(F)c(F)c4F)c4ccc([nH]4)c(-c4c(F)c(F)c(F)c(F)c4F)c4nc(c(-c5c(F)c(F)c(F)c(F)c5F)c5ccc2[nH]5)C=C4)C=C3)cc1
REMARK SMILES IDX 20 1 19 2 18 3 16 4 17 5 3 7 4 8 2 9 1 10 5 11 6 12 7 14
REMARK SMILES IDX 8 15 9 17 10 18 15 19 11 20 12 21 13 22 14 23 21 24 22 25
REMARK SMILES IDX 23 26 24 27 25 29 26 30 27 31 88 32 28 33 87 34 29 35 30 36
REMARK SMILES IDX 31 37 81 38 32 39 86 40 80 41 82 42 33 43 85 44 79 45 78 46
REMARK SMILES IDX 34 48 66 49 46 50 65 51 47 52 50 53 64 54 83 55 48 56 49 57
REMARK SMILES IDX 63 59 84 60 51 61 35 62 36 63 44 64 37 65 38 66 42 67 45 68
REMARK SMILES IDX 39 69 40 70 43 71 41 72 67 73 68 74 76 75 69 76 70 77 74 78
REMARK SMILES IDX 77 79 71 80 72 81 75 82 73 83 52 84 53 85 61 86 54 87 55 88
REMARK SMILES IDX 59 89 62 90 56 91 57 92 60 93 58 94
REMARK H PARENT 18 6 5 13 8 16 23 28 82 47 50 58
REMARK Flexibility Score: inf
ROOT
ATOM      1  C   UNL A   1      31.499  30.834  26.199  1.00  0.00     0.023 C 
ENDROOT
BRANCH   1   2
ATOM      2  C   UNL A   1      32.518  29.844  26.796  1.00  0.00     0.116 C 
BRANCH   2   3
ATOM      3  N   UNL A   1      33.454  29.394  25.778  1.00  0.00    -0.354 N 
ATOM      4  C   UNL A   1      33.182  28.717  24.602  1.00  0.00     0.245 C 
ATOM      5  O   UNL A   1      33.306  29.265  23.511  1.00  0.00    -0.272 OA
ATOM      6  H   UNL A   1      34.403  29.597  25.947  1.00  0.00     0.163 HD
BRANCH   4   7
ATOM      7  C   UNL A   1      32.767  27.227  24.777  1.00  0.00     0.117 C 
ATOM      8  C   UNL A   1      31.513  26.887  25.588  1.00  0.00     0.045 C 
BRANCH   7   9
ATOM      9  C   UNL A   1      33.994  26.592  25.518  1.00  0.00     0.035 C 
ATOM     10  C   UNL A   1      34.399  25.204  24.993  1.00  0.00     0.007 C 
ENDBRANCH   7   9
BRANCH   7  11
ATOM     11  N   UNL A   1      32.584  26.663  23.416  1.00  0.00    -0.324 N 
ATOM     12  C   UNL A   1      31.628  26.746  22.474  1.00  0.00     0.316 C 
ATOM     13  H   UNL A   1      33.339  26.095  23.138  1.00  0.00     0.166 HD
ATOM     14  O   UNL A   1      31.778  26.060  21.462  1.00  0.00    -0.249 OA
ATOM     15  N   UNL A   1      30.608  27.628  22.467  1.00  0.00    -0.331 N 
ATOM     16  H   UNL A   1      30.274  27.762  21.550  1.00  0.00     0.166 HD
BRANCH  15  17
ATOM     17  C   UNL A   1      29.841  28.452  23.423  1.00  0.00     0.123 C 
ATOM     18  C   UNL A   1      28.464  27.841  23.497  1.00  0.00     0.011 C 
ATOM     19  C   UNL A   1      29.632  29.934  23.065  1.00  0.00     0.170 C 
ATOM     20  C   UNL A   1      27.440  28.581  23.050  1.00  0.00     0.104 C 
ATOM     21  S   UNL A   1      27.974  30.110  22.464  1.00  0.00     0.173 S 
ATOM     22  O   UNL A   1      27.325  31.179  23.185  1.00  0.00    -0.224 OA
ATOM     23  O   UNL A   1      28.028  30.082  21.012  1.00  0.00    -0.224 OA
ENDBRANCH  15  17
ENDBRANCH   7  11
ENDBRANCH   4   7
ENDBRANCH   2   3
ENDBRANCH   1   2
BRANCH   1  24
ATOM     24  C   UNL A   1      31.404  32.201  26.893  1.00  0.00     0.023 C 
BRANCH  24  25
ATOM     25  C   UNL A   1      32.712  32.976  26.948  1.00  0.00     0.116 C 
BRANCH  25  26
ATOM     26  N   UNL A   1      32.531  34.248  27.625  1.00  0.00    -0.352 N 
ATOM     27  C   UNL A   1      33.086  34.696  28.792  1.00  0.00     0.251 C 
ATOM     28  H   UNL A   1      31.919  34.877  27.180  1.00  0.00     0.163 HD
ATOM     29  O   UNL A   1      32.606  35.676  29.355  1.00  0.00    -0.269 OA
BRANCH  27  30
ATOM     30  C   UNL A   1      34.257  34.010  29.378  1.00  0.00     0.039 A 
ATOM     31  C   UNL A   1      34.038  33.007  30.325  1.00  0.00     0.014 A 
ATOM     32  C   UNL A   1      35.563  34.390  29.049  1.00  0.00     0.014 A 
ATOM     33  C   UNL A   1      35.125  32.366  30.922  1.00  0.00     0.010 A 
ATOM     34  C   UNL A   1      36.646  33.703  29.594  1.00  0.00     0.010 A 
ATOM     35  C   UNL A   1      36.438  32.695  30.547  1.00  0.00    -0.014 A 
BRANCH  35  36
ATOM     36  C   UNL A   1      37.599  31.997  31.155  1.00  0.00     0.031 A 
ATOM     37  C   UNL A   1      38.074  32.368  32.532  1.00  0.00     0.074 A 
ATOM     38  C   UNL A   1      38.246  31.051  30.448  1.00  0.00     0.049 A 
ATOM     39  N   UNL A   1      39.089  31.896  33.214  1.00  0.00    -0.248 NA
ATOM     40  C   UNL A   1      37.322  33.421  33.230  1.00  0.00     0.031 C 
ATOM     41  C   UNL A   1      37.903  30.632  29.089  1.00  0.00     0.029 A 
ATOM     42  N   UNL A   1      39.333  30.278  30.772  1.00  0.00    -0.354 N 
ATOM     43  C   UNL A   1      39.099  32.597  34.411  1.00  0.00     0.074 A 
ATOM     44  C   UNL A   1      38.025  33.565  34.344  1.00  0.00     0.031 C 
ATOM     45  C   UNL A   1      38.750  29.666  28.700  1.00  0.00     0.029 A 
ATOM     46  C   UNL A   1      39.720  29.428  29.765  1.00  0.00     0.049 A 
ATOM     47  H   UNL A   1      39.791  30.327  31.641  1.00  0.00     0.167 HD
ATOM     48  C   UNL A   1      39.916  32.433  35.480  1.00  0.00     0.037 A 
ATOM     49  C   UNL A   1      40.752  28.564  29.701  1.00  0.00     0.037 A 
ATOM     50  C   UNL A   1      40.981  31.466  35.543  1.00  0.00     0.049 A 
ATOM     51  C   UNL A   1      41.664  28.424  30.890  1.00  0.00     0.074 A 
ATOM     52  C   UNL A   1      41.839  31.193  36.595  1.00  0.00     0.029 A 
ATOM     53  N   UNL A   1      41.343  30.620  34.504  1.00  0.00    -0.354 N 
ATOM     54  N   UNL A   1      41.623  29.042  32.045  1.00  0.00    -0.248 NA
ATOM     55  C   UNL A   1      42.763  27.456  30.769  1.00  0.00     0.031 C 
ATOM     56  C   UNL A   1      42.754  30.223  36.173  1.00  0.00     0.029 A 
ATOM     57  C   UNL A   1      42.427  29.843  34.882  1.00  0.00     0.049 A 
ATOM     58  H   UNL A   1      40.895  30.578  33.628  1.00  0.00     0.167 HD
ATOM     59  C   UNL A   1      42.667  28.522  32.796  1.00  0.00     0.074 A 
ATOM     60  C   UNL A   1      43.313  27.520  31.974  1.00  0.00     0.031 C 
ATOM     61  C   UNL A   1      43.057  28.844  34.054  1.00  0.00     0.037 A 
BRANCH  48  62
ATOM     62  C   UNL A   1      39.693  33.323  36.671  1.00  0.00     0.064 A 
ATOM     63  C   UNL A   1      40.352  34.555  36.804  1.00  0.00     0.173 A 
ATOM     64  C   UNL A   1      38.778  32.961  37.672  1.00  0.00     0.173 A 
ATOM     65  F   UNL A   1      41.242  34.948  35.879  1.00  0.00    -0.203 F 
ATOM     66  C   UNL A   1      40.129  35.375  37.907  1.00  0.00     0.198 A 
ATOM     67  C   UNL A   1      38.532  33.799  38.758  1.00  0.00     0.198 A 
ATOM     68  F   UNL A   1      38.112  31.800  37.594  1.00  0.00    -0.203 F 
ATOM     69  F   UNL A   1      40.809  36.523  38.036  1.00  0.00    -0.200 F 
ATOM     70  C   UNL A   1      39.214  35.000  38.878  1.00  0.00     0.200 A 
ATOM     71  F   UNL A   1      37.634  33.443  39.687  1.00  0.00    -0.200 F 
ATOM     72  F   UNL A   1      38.992  35.795  39.935  1.00  0.00    -0.200 F 
ENDBRANCH  48  62
BRANCH  49  73
ATOM     73  C   UNL A   1      40.971  27.760  28.470  1.00  0.00     0.064 A 
ATOM     74  C   UNL A   1      41.788  28.233  27.433  1.00  0.00     0.173 A 
ATOM     75  C   UNL A   1      40.362  26.508  28.300  1.00  0.00     0.173 A 
ATOM     76  F   UNL A   1      42.377  29.433  27.538  1.00  0.00    -0.203 F 
ATOM     77  C   UNL A   1      41.968  27.495  26.264  1.00  0.00     0.198 A 
ATOM     78  C   UNL A   1      40.569  25.757  27.146  1.00  0.00     0.198 A 
ATOM     79  F   UNL A   1      39.573  26.008  29.262  1.00  0.00    -0.203 F 
ATOM     80  F   UNL A   1      42.710  27.995  25.267  1.00  0.00    -0.200 F 
ATOM     81  C   UNL A   1      41.363  26.256  26.124  1.00  0.00     0.200 A 
ATOM     82  F   UNL A   1      39.996  24.552  27.021  1.00  0.00    -0.200 F 
ATOM     83  F   UNL A   1      41.538  25.546  25.001  1.00  0.00    -0.200 F 
ENDBRANCH  49  73
BRANCH  61  84
ATOM     84  C   UNL A   1      44.211  28.078  34.637  1.00  0.00     0.064 A 
ATOM     85  C   UNL A   1      44.028  26.858  35.304  1.00  0.00     0.173 A 
ATOM     86  C   UNL A   1      45.523  28.557  34.494  1.00  0.00     0.173 A 
ATOM     87  F   UNL A   1      42.794  26.364  35.482  1.00  0.00    -0.203 F 
ATOM     88  C   UNL A   1      45.112  26.161  35.832  1.00  0.00     0.198 A 
ATOM     89  C   UNL A   1      46.607  27.839  34.992  1.00  0.00     0.198 A 
ATOM     90  F   UNL A   1      45.756  29.715  33.859  1.00  0.00    -0.203 F 
ATOM     91  F   UNL A   1      44.908  25.025  36.514  1.00  0.00    -0.200 F 
ATOM     92  C   UNL A   1      46.400  26.647  35.668  1.00  0.00     0.200 A 
ATOM     93  F   UNL A   1      47.852  28.303  34.816  1.00  0.00    -0.200 F 
ATOM     94  F   UNL A   1      47.442  25.970  36.169  1.00  0.00    -0.200 F 
ENDBRANCH  61  84
ENDBRANCH  35  36
ENDBRANCH  27  30
ENDBRANCH  25  26
ENDBRANCH  24  25
ENDBRANCH   1  24
TORSDOF 14
ENDMDL
MODEL 3
REMARK VINA RESULT:     -12.0      0.687      2.131
REMARK SMILES CC[C@](C)(NC(=O)N[C@@H]1C=CS(=O)(=O)C1)C(=O)NCCCCNC(=O)c1ccc(-c2c3nc(c(-c4c(F)c(F)c(F)c(F)c4F)c4ccc([nH]4)c(-c4c(F)c(F)c(F)c(F)c4F)c4nc(c(-c5c(F)c(F)c(F)c(F)c5F)c5ccc2[nH]5)C=C4)C=C3)cc1
REMARK SMILES IDX 20 1 19 2 18 3 16 4 17 5 3 7 4 8 2 9 1 10 5 11 6 12 7 14
REMARK SMILES IDX 8 15 9 17 10 18 15 19 11 20 12 21 13 22 14 23 21 24 22 25
REMARK SMILES IDX 23 26 24 27 25 29 26 30 27 31 88 32 28 33 87 34 29 35 30 36
REMARK SMILES IDX 31 37 81 38 32 39 86 40 80 41 82 42 33 43 85 44 79 45 78 46
REMARK SMILES IDX 34 48 66 49 46 50 65 51 47 52 50 53 64 54 83 55 48 56 49 57
REMARK SMILES IDX 63 59 84 60 51 61 35 62 36 63 44 64 37 65 38 66 42 67 45 68
REMARK SMILES IDX 39 69 40 70 43 71 41 72 67 73 68 74 76 75 69 76 70 77 74 78
REMARK SMILES IDX 77 79 71 80 72 81 75 82 73 83 52 84 53 85 61 86 54 87 55 88
REMARK SMILES IDX 59 89 62 90 56 91 57 92 60 93 58 94
REMARK H PARENT 18 6 5 13 8 16 23 28 82 47 50 58
REMARK Flexibility Score: inf
ROOT
ATOM      1  C   UNL A   1      31.368  30.877  25.925  1.00  0.00     0.023 C 
ENDROOT
BRANCH   1   2
ATOM      2  C   UNL A   1      32.425  29.955  26.563  1.00  0.00     0.116 C 
BRANCH   2   3
ATOM      3  N   UNL A   1      33.383  29.504  25.566  1.00  0.00    -0.354 N 
ATOM      4  C   UNL A   1      33.141  28.793  24.405  1.00  0.00     0.245 C 
ATOM      5  O   UNL A   1      33.263  29.316  23.302  1.00  0.00    -0.272 OA
ATOM      6  H   UNL A   1      34.325  29.735  25.741  1.00  0.00     0.163 HD
BRANCH   4   7
ATOM      7  C   UNL A   1      32.761  27.297  24.612  1.00  0.00     0.117 C 
ATOM      8  C   UNL A   1      31.544  26.944  25.473  1.00  0.00     0.045 C 
BRANCH   7   9
ATOM      9  C   UNL A   1      34.026  26.693  25.315  1.00  0.00     0.035 C 
ATOM     10  C   UNL A   1      33.956  25.174  25.544  1.00  0.00     0.007 C 
ENDBRANCH   7   9
BRANCH   7  11
ATOM     11  N   UNL A   1      32.539  26.713  23.265  1.00  0.00    -0.324 N 
ATOM     12  C   UNL A   1      31.559  26.787  22.348  1.00  0.00     0.316 C 
ATOM     13  H   UNL A   1      33.283  26.136  22.976  1.00  0.00     0.166 HD
ATOM     14  O   UNL A   1      31.679  26.086  21.342  1.00  0.00    -0.249 OA
ATOM     15  N   UNL A   1      30.544  27.676  22.353  1.00  0.00    -0.331 N 
ATOM     16  H   UNL A   1      30.187  27.798  21.444  1.00  0.00     0.166 HD
BRANCH  15  17
ATOM     17  C   UNL A   1      29.807  28.519  23.316  1.00  0.00     0.123 C 
ATOM     18  C   UNL A   1      28.425  27.928  23.424  1.00  0.00     0.011 C 
ATOM     19  C   UNL A   1      29.612  30.001  22.948  1.00  0.00     0.170 C 
ATOM     20  C   UNL A   1      27.402  28.677  22.989  1.00  0.00     0.104 C 
ATOM     21  S   UNL A   1      27.945  30.193  22.378  1.00  0.00     0.173 S 
ATOM     22  O   UNL A   1      27.325  31.277  23.101  1.00  0.00    -0.224 OA
ATOM     23  O   UNL A   1      27.969  30.150  20.925  1.00  0.00    -0.224 OA
ENDBRANCH  15  17
ENDBRANCH   7  11
ENDBRANCH   4   7
ENDBRANCH   2   3
ENDBRANCH   1   2
BRANCH   1  24
ATOM     24  C   UNL A   1      31.378  32.339  26.396  1.00  0.00     0.023 C 
BRANCH  24  25
ATOM     25  C   UNL A   1      32.410  32.652  27.469  1.00  0.00     0.116 C 
BRANCH  25  26
ATOM     26  N   UNL A   1      32.520  34.084  27.676  1.00  0.00    -0.352 N 
ATOM     27  C   UNL A   1      33.332  34.777  28.534  1.00  0.00     0.251 C 
ATOM     28  H   UNL A   1      31.924  34.637  27.122  1.00  0.00     0.163 HD
ATOM     29  O   UNL A   1      33.093  35.957  28.774  1.00  0.00    -0.269 OA
BRANCH  27  30
ATOM     30  C   UNL A   1      34.491  34.115  29.168  1.00  0.00     0.039 A 
ATOM     31  C   UNL A   1      34.253  33.117  30.116  1.00  0.00     0.014 A 
ATOM     32  C   UNL A   1      35.802  34.512  28.884  1.00  0.00     0.014 A 
ATOM     33  C   UNL A   1      35.327  32.499  30.758  1.00  0.00     0.010 A 
ATOM     34  C   UNL A   1      36.875  33.848  29.474  1.00  0.00     0.010 A 
ATOM     35  C   UNL A   1      36.648  32.846  30.428  1.00  0.00    -0.014 A 
BRANCH  35  36
ATOM     36  C   UNL A   1      37.796  32.171  31.085  1.00  0.00     0.031 A 
ATOM     37  C   UNL A   1      38.557  31.092  30.366  1.00  0.00     0.074 A 
ATOM     38  C   UNL A   1      38.128  32.507  32.346  1.00  0.00     0.049 A 
ATOM     39  N   UNL A   1      39.563  30.366  30.788  1.00  0.00    -0.248 NA
ATOM     40  C   UNL A   1      38.121  30.774  28.999  1.00  0.00     0.031 C 
ATOM     41  C   UNL A   1      37.440  33.510  33.160  1.00  0.00     0.029 A 
ATOM     42  N   UNL A   1      39.122  32.036  33.167  1.00  0.00    -0.354 N 
ATOM     43  C   UNL A   1      39.872  29.504  29.744  1.00  0.00     0.074 A 
ATOM     44  C   UNL A   1      38.914  29.759  28.689  1.00  0.00     0.031 C 
ATOM     45  C   UNL A   1      38.042  33.593  34.356  1.00  0.00     0.029 A 
ATOM     46  C   UNL A   1      39.130  32.621  34.409  1.00  0.00     0.049 A 
ATOM     47  H   UNL A   1      39.767  31.346  32.891  1.00  0.00     0.167 HD
ATOM     48  C   UNL A   1      40.878  28.600  29.664  1.00  0.00     0.037 A 
ATOM     49  C   UNL A   1      39.917  32.387  35.478  1.00  0.00     0.037 A 
ATOM     50  C   UNL A   1      41.830  28.354  30.716  1.00  0.00     0.049 A 
ATOM     51  C   UNL A   1      41.007  31.355  35.373  1.00  0.00     0.074 A 
ATOM     52  C   UNL A   1      42.910  27.489  30.718  1.00  0.00     0.029 A 
ATOM     53  N   UNL A   1      41.808  28.967  31.961  1.00  0.00    -0.354 N 
ATOM     54  N   UNL A   1      41.335  30.595  34.357  1.00  0.00    -0.248 NA
ATOM     55  C   UNL A   1      41.843  31.154  36.565  1.00  0.00     0.031 C 
ATOM     56  C   UNL A   1      43.508  27.537  31.982  1.00  0.00     0.029 A 
ATOM     57  C   UNL A   1      42.841  28.480  32.747  1.00  0.00     0.049 A 
ATOM     58  H   UNL A   1      41.156  29.648  32.244  1.00  0.00     0.167 HD
ATOM     59  C   UNL A   1      42.428  29.848  34.774  1.00  0.00     0.074 A 
ATOM     60  C   UNL A   1      42.721  30.262  36.130  1.00  0.00     0.031 C 
ATOM     61  C   UNL A   1      43.126  28.905  34.095  1.00  0.00     0.037 A 
BRANCH  48  62
ATOM     62  C   UNL A   1      40.999  27.804  28.395  1.00  0.00     0.064 A 
ATOM     63  C   UNL A   1      41.806  28.234  27.330  1.00  0.00     0.173 A 
ATOM     64  C   UNL A   1      40.334  26.576  28.256  1.00  0.00     0.173 A 
ATOM     65  F   UNL A   1      42.459  29.404  27.407  1.00  0.00    -0.203 F 
ATOM     66  C   UNL A   1      41.917  27.482  26.163  1.00  0.00     0.198 A 
ATOM     67  C   UNL A   1      40.474  25.809  27.101  1.00  0.00     0.198 A 
ATOM     68  F   UNL A   1      39.556  26.110  29.244  1.00  0.00    -0.203 F 
ATOM     69  F   UNL A   1      42.654  27.939  25.141  1.00  0.00    -0.200 F 
ATOM     70  C   UNL A   1      41.258  26.267  26.053  1.00  0.00     0.200 A 
ATOM     71  F   UNL A   1      39.851  24.627  27.003  1.00  0.00    -0.200 F 
ATOM     72  F   UNL A   1      41.375  25.539  24.933  1.00  0.00    -0.200 F 
ENDBRANCH  48  62
BRANCH  49  73
ATOM     73  C   UNL A   1      39.706  33.153  36.735  1.00  0.00     0.064 A 
ATOM     74  C   UNL A   1      40.446  34.313  37.008  1.00  0.00     0.173 A 
ATOM     75  C   UNL A   1      38.768  32.738  37.691  1.00  0.00     0.173 A 
ATOM     76  F   UNL A   1      41.369  34.739  36.134  1.00  0.00    -0.203 F 
ATOM     77  C   UNL A   1      40.273  35.012  38.201  1.00  0.00     0.198 A 
ATOM     78  C   UNL A   1      38.573  33.457  38.869  1.00  0.00     0.198 A 
ATOM     79  F   UNL A   1      38.032  31.638  37.479  1.00  0.00    -0.203 F 
ATOM     80  F   UNL A   1      41.032  36.086  38.460  1.00  0.00    -0.200 F 
ATOM     81  C   UNL A   1      39.333  34.588  39.127  1.00  0.00     0.200 A 
ATOM     82  F   UNL A   1      37.651  33.053  39.753  1.00  0.00    -0.200 F 
ATOM     83  F   UNL A   1      39.166  35.262  40.272  1.00  0.00    -0.200 F 
ENDBRANCH  49  73
BRANCH  61  84
ATOM     84  C   UNL A   1      44.304  28.283  34.791  1.00  0.00     0.064 A 
ATOM     85  C   UNL A   1      44.180  27.108  35.548  1.00  0.00     0.173 A 
ATOM     86  C   UNL A   1      45.581  28.852  34.668  1.00  0.00     0.173 A 
ATOM     87  F   UNL A   1      42.979  26.532  35.710  1.00  0.00    -0.203 F 
ATOM     88  C   UNL A   1      45.286  26.544  36.180  1.00  0.00     0.198 A 
ATOM     89  C   UNL A   1      46.689  28.264  35.272  1.00  0.00     0.198 A 
ATOM     90  F   UNL A   1      45.757  29.971  33.950  1.00  0.00    -0.203 F 
ATOM     91  F   UNL A   1      45.133  25.453  36.943  1.00  0.00    -0.200 F 
ATOM     92  C   UNL A   1      46.540  27.117  36.034  1.00  0.00     0.200 A 
ATOM     93  F   UNL A   1      47.903  28.811  35.115  1.00  0.00    -0.200 F 
ATOM     94  F   UNL A   1      47.603  26.567  36.636  1.00  0.00    -0.200 F 
ENDBRANCH  61  84
ENDBRANCH  35  36
ENDBRANCH  27  30
ENDBRANCH  25  26
ENDBRANCH  24  25
ENDBRANCH   1  24
TORSDOF 14
ENDMDL
