MODEL 1
REMARK VINA RESULT:     -14.3      0.000      0.000
REMARK SMILES Cc1cc(C(=O)NCCCCNC(=O)c2ccc(-c3c4nc(c(-c5c(F)c(F)c(F)c(F)c5F)c5ccc([nH]5)c(-c5c(F)c(F)c(F)c(F)c5F)c5nc(c(-c6c(F)c(F)c(F)c(F)c6F)c6ccc3[nH]6)C=C5)C=C4)cc2)cc(S(=O)(=O)NNC(=O)c2c[nH]c3ccccc23)c1C
REMARK SMILES IDX 8 1 7 2 5 3 6 4 4 6 1 7 2 8 3 9 96 10 79 11 97 12 78 13
REMARK SMILES IDX 80 14 81 15 82 16 83 17 84 19 85 20 86 22 87 23 88 24 95 25
REMARK SMILES IDX 89 26 90 27 94 28 91 30 93 31 92 32 9 33 10 34 11 35 12 36
REMARK SMILES IDX 13 37 14 39 15 40 16 41 77 42 17 43 76 44 18 45 19 46 20 47
REMARK SMILES IDX 70 48 21 49 75 50 69 51 71 52 22 53 74 54 68 55 67 56 23 58
REMARK SMILES IDX 55 59 35 60 54 61 36 62 39 63 53 64 72 65 37 66 38 67 52 69
REMARK SMILES IDX 73 70 40 71 24 72 25 73 33 74 26 75 27 76 31 77 34 78 28 79
REMARK SMILES IDX 29 80 32 81 30 82 56 83 57 84 65 85 58 86 59 87 63 88 66 89
REMARK SMILES IDX 60 90 61 91 64 92 62 93 41 94 42 95 50 96 43 97 44 98 48 99
REMARK SMILES IDX 51 100 45 101 46 102 49 103 47 104
REMARK H PARENT 7 5 83 18 84 21 89 29 12 38 71 57 39 68
REMARK Flexibility Score: inf
ROOT
ATOM      1  C   UNL A   1      33.196  29.911  26.800  1.00  0.00     0.116 C 
ENDROOT
BRANCH   1   2
ATOM      2  N   UNL A   1      33.655  29.809  25.425  1.00  0.00    -0.352 N 
ATOM      3  C   UNL A   1      33.133  29.236  24.293  1.00  0.00     0.251 C 
ATOM      4  O   UNL A   1      33.791  29.352  23.256  1.00  0.00    -0.269 OA
ATOM      5  H   UNL A   1      34.525  30.244  25.274  1.00  0.00     0.163 HD
BRANCH   3   6
ATOM      6  C   UNL A   1      31.828  28.510  24.220  1.00  0.00     0.041 A 
ATOM      7  C   UNL A   1      28.358  28.816  22.693  1.00  0.00     0.044 C 
ATOM      8  C   UNL A   1      29.502  28.244  23.491  1.00  0.00    -0.046 A 
ATOM      9  C   UNL A   1      30.686  28.999  23.585  1.00  0.00     0.017 A 
ATOM     10  C   UNL A   1      29.420  26.999  24.144  1.00  0.00    -0.028 A 
ATOM     11  C   UNL A   1      30.538  26.558  24.899  1.00  0.00     0.088 A 
ATOM     12  C   UNL A   1      28.165  26.162  24.054  1.00  0.00     0.046 C 
ATOM     13  C   UNL A   1      31.737  27.281  24.894  1.00  0.00     0.036 A 
BRANCH  11  14
ATOM     14  S   UNL A   1      30.332  25.168  25.995  1.00  0.00     0.257 S 
ATOM     15  O   UNL A   1      31.518  25.163  26.856  1.00  0.00    -0.205 OA
ATOM     16  O   UNL A   1      29.010  25.239  26.550  1.00  0.00    -0.205 OA
BRANCH  14  17
ATOM     17  N   UNL A   1      30.352  23.733  25.081  1.00  0.00    -0.123 NA
ATOM     18  H   UNL A   1      30.812  23.955  24.198  1.00  0.00     0.167 HD
BRANCH  17  19
ATOM     19  N   UNL A   1      31.005  22.522  25.602  1.00  0.00    -0.273 N 
ATOM     20  C   UNL A   1      32.333  22.258  25.296  1.00  0.00     0.268 C 
ATOM     21  H   UNL A   1      30.498  21.898  26.170  1.00  0.00     0.186 HD
ATOM     22  O   UNL A   1      33.218  22.371  26.138  1.00  0.00    -0.268 OA
BRANCH  20  23
ATOM     23  C   UNL A   1      32.513  21.531  24.040  1.00  0.00     0.066 A 
ATOM     24  C   UNL A   1      32.058  21.934  22.796  1.00  0.00     0.097 A 
ATOM     25  C   UNL A   1      32.991  20.192  23.848  1.00  0.00     0.012 A 
ATOM     26  N   UNL A   1      31.761  20.796  22.096  1.00  0.00    -0.360 N 
ATOM     27  C   UNL A   1      32.315  19.710  22.725  1.00  0.00     0.046 A 
ATOM     28  C   UNL A   1      33.802  19.291  24.570  1.00  0.00     0.011 A 
ATOM     29  H   UNL A   1      31.229  20.762  21.269  1.00  0.00     0.166 HD
ATOM     30  C   UNL A   1      32.248  18.353  22.399  1.00  0.00     0.027 A 
ATOM     31  C   UNL A   1      33.857  17.948  24.170  1.00  0.00     0.001 A 
ATOM     32  C   UNL A   1      33.044  17.479  23.139  1.00  0.00     0.002 A 
ENDBRANCH  20  23
ENDBRANCH  17  19
ENDBRANCH  14  17
ENDBRANCH  11  14
ENDBRANCH   3   6
ENDBRANCH   1   2
BRANCH   1  33
ATOM     33  C   UNL A   1      31.785  30.504  26.871  1.00  0.00     0.023 C 
BRANCH  33  34
ATOM     34  C   UNL A   1      31.723  32.015  26.622  1.00  0.00     0.023 C 
BRANCH  34  35
ATOM     35  C   UNL A   1      32.856  32.821  27.254  1.00  0.00     0.116 C 
BRANCH  35  36
ATOM     36  N   UNL A   1      32.465  34.169  27.637  1.00  0.00    -0.352 N 
ATOM     37  C   UNL A   1      33.003  34.972  28.615  1.00  0.00     0.251 C 
ATOM     38  H   UNL A   1      31.717  34.558  27.129  1.00  0.00     0.163 HD
ATOM     39  O   UNL A   1      32.494  36.056  28.877  1.00  0.00    -0.269 OA
BRANCH  37  40
ATOM     40  C   UNL A   1      34.175  34.500  29.384  1.00  0.00     0.039 A 
ATOM     41  C   UNL A   1      33.962  33.893  30.626  1.00  0.00     0.014 A 
ATOM     42  C   UNL A   1      35.469  34.631  28.877  1.00  0.00     0.014 A 
ATOM     43  C   UNL A   1      35.044  33.349  31.323  1.00  0.00     0.010 A 
ATOM     44  C   UNL A   1      36.535  34.031  29.541  1.00  0.00     0.010 A 
ATOM     45  C   UNL A   1      36.332  33.380  30.767  1.00  0.00    -0.014 A 
BRANCH  45  46
ATOM     46  C   UNL A   1      37.479  32.723  31.443  1.00  0.00     0.031 A 
ATOM     47  C   UNL A   1      38.177  31.562  30.793  1.00  0.00     0.074 A 
ATOM     48  C   UNL A   1      37.840  33.122  32.676  1.00  0.00     0.049 A 
ATOM     49  N   UNL A   1      39.145  30.812  31.256  1.00  0.00    -0.248 NA
ATOM     50  C   UNL A   1      37.703  31.174  29.456  1.00  0.00     0.031 C 
ATOM     51  C   UNL A   1      37.203  34.200  33.436  1.00  0.00     0.029 A 
ATOM     52  N   UNL A   1      38.821  32.658  33.517  1.00  0.00    -0.354 N 
ATOM     53  C   UNL A   1      39.384  29.857  30.278  1.00  0.00     0.074 A 
ATOM     54  C   UNL A   1      38.425  30.090  29.218  1.00  0.00     0.031 C 
ATOM     55  C   UNL A   1      37.821  34.326  34.621  1.00  0.00     0.029 A 
ATOM     56  C   UNL A   1      38.873  33.319  34.721  1.00  0.00     0.049 A 
ATOM     57  H   UNL A   1      39.430  31.922  33.280  1.00  0.00     0.167 HD
ATOM     58  C   UNL A   1      40.331  28.890  30.255  1.00  0.00     0.037 A 
ATOM     59  C   UNL A   1      39.675  33.129  35.785  1.00  0.00     0.037 A 
ATOM     60  C   UNL A   1      41.298  28.678  31.300  1.00  0.00     0.049 A 
ATOM     61  C   UNL A   1      40.725  32.053  35.733  1.00  0.00     0.074 A 
ATOM     62  C   UNL A   1      42.342  27.769  31.341  1.00  0.00     0.029 A 
ATOM     63  N   UNL A   1      41.339  29.386  32.493  1.00  0.00    -0.354 N 
ATOM     64  N   UNL A   1      40.991  31.203  34.771  1.00  0.00    -0.248 NA
ATOM     65  C   UNL A   1      41.591  31.917  36.911  1.00  0.00     0.031 C 
ATOM     66  C   UNL A   1      42.986  27.898  32.576  1.00  0.00     0.029 A 
ATOM     67  C   UNL A   1      42.375  28.920  33.285  1.00  0.00     0.049 A 
ATOM     68  H   UNL A   1      40.722  30.112  32.739  1.00  0.00     0.167 HD
ATOM     69  C   UNL A   1      42.068  30.449  35.215  1.00  0.00     0.074 A 
ATOM     70  C   UNL A   1      42.416  30.951  36.529  1.00  0.00     0.031 C 
ATOM     71  C   UNL A   1      42.711  29.433  34.590  1.00  0.00     0.037 A 
BRANCH  58  72
ATOM     72  C   UNL A   1      40.365  27.986  29.057  1.00  0.00     0.064 A 
ATOM     73  C   UNL A   1      41.132  28.297  27.923  1.00  0.00     0.173 A 
ATOM     74  C   UNL A   1      39.638  26.787  29.046  1.00  0.00     0.173 A 
ATOM     75  F   UNL A   1      41.837  29.437  27.878  1.00  0.00    -0.203 F 
ATOM     76  C   UNL A   1      41.142  27.459  26.811  1.00  0.00     0.198 A 
ATOM     77  C   UNL A   1      39.674  25.935  27.944  1.00  0.00     0.198 A 
ATOM     78  F   UNL A   1      38.893  26.438  30.106  1.00  0.00    -0.203 F 
ATOM     79  F   UNL A   1      41.837  27.805  25.719  1.00  0.00    -0.200 F 
ATOM     80  C   UNL A   1      40.417  26.277  26.825  1.00  0.00     0.200 A 
ATOM     81  F   UNL A   1      38.982  24.787  27.963  1.00  0.00    -0.200 F 
ATOM     82  F   UNL A   1      40.427  25.471  25.754  1.00  0.00    -0.200 F 
ENDBRANCH  58  72
BRANCH  59  83
ATOM     83  C   UNL A   1      39.535  34.002  36.979  1.00  0.00     0.064 A 
ATOM     84  C   UNL A   1      38.783  33.588  38.086  1.00  0.00     0.173 A 
ATOM     85  C   UNL A   1      40.158  35.256  37.043  1.00  0.00     0.173 A 
ATOM     86  F   UNL A   1      38.152  32.404  38.062  1.00  0.00    -0.203 F 
ATOM     87  C   UNL A   1      38.646  34.401  39.209  1.00  0.00     0.198 A 
ATOM     88  C   UNL A   1      40.042  36.059  38.176  1.00  0.00     0.198 A 
ATOM     89  F   UNL A   1      40.893  35.696  36.012  1.00  0.00    -0.203 F 
ATOM     90  F   UNL A   1      37.891  33.997  40.238  1.00  0.00    -0.200 F 
ATOM     91  C   UNL A   1      39.282  35.634  39.256  1.00  0.00     0.200 A 
ATOM     92  F   UNL A   1      40.668  37.242  38.224  1.00  0.00    -0.200 F 
ATOM     93  F   UNL A   1      39.157  36.412  40.339  1.00  0.00    -0.200 F 
ENDBRANCH  59  83
BRANCH  71  94
ATOM     94  C   UNL A   1      43.876  28.813  35.305  1.00  0.00     0.064 A 
ATOM     95  C   UNL A   1      43.705  27.760  36.214  1.00  0.00     0.173 A 
ATOM     96  C   UNL A   1      45.183  29.252  35.045  1.00  0.00     0.173 A 
ATOM     97  F   UNL A   1      42.473  27.316  36.509  1.00  0.00    -0.203 F 
ATOM     98  C   UNL A   1      44.798  27.183  36.854  1.00  0.00     0.198 A 
ATOM     99  C   UNL A   1      46.276  28.654  35.665  1.00  0.00     0.198 A 
ATOM    100  F   UNL A   1      45.400  30.253  34.178  1.00  0.00    -0.203 F 
ATOM    101  F   UNL A   1      44.608  26.207  37.753  1.00  0.00    -0.200 F 
ATOM    102  C   UNL A   1      46.082  27.625  36.573  1.00  0.00     0.200 A 
ATOM    103  F   UNL A   1      47.517  29.074  35.383  1.00  0.00    -0.200 F 
ATOM    104  F   UNL A   1      47.134  27.062  37.185  1.00  0.00    -0.200 F 
ENDBRANCH  71  94
ENDBRANCH  45  46
ENDBRANCH  37  40
ENDBRANCH  35  36
ENDBRANCH  34  35
ENDBRANCH  33  34
ENDBRANCH   1  33
TORSDOF 15
ENDMDL
MODEL 2
REMARK VINA RESULT:     -14.3      0.124      1.872
REMARK SMILES Cc1cc(C(=O)NCCCCNC(=O)c2ccc(-c3c4nc(c(-c5c(F)c(F)c(F)c(F)c5F)c5ccc([nH]5)c(-c5c(F)c(F)c(F)c(F)c5F)c5nc(c(-c6c(F)c(F)c(F)c(F)c6F)c6ccc3[nH]6)C=C5)C=C4)cc2)cc(S(=O)(=O)NNC(=O)c2c[nH]c3ccccc23)c1C
REMARK SMILES IDX 8 1 7 2 5 3 6 4 4 6 1 7 2 8 3 9 96 10 79 11 97 12 78 13
REMARK SMILES IDX 80 14 81 15 82 16 83 17 84 19 85 20 86 22 87 23 88 24 95 25
REMARK SMILES IDX 89 26 90 27 94 28 91 30 93 31 92 32 9 33 10 34 11 35 12 36
REMARK SMILES IDX 13 37 14 39 15 40 16 41 77 42 17 43 76 44 18 45 19 46 20 47
REMARK SMILES IDX 70 48 21 49 75 50 69 51 71 52 22 53 74 54 68 55 67 56 23 58
REMARK SMILES IDX 55 59 35 60 54 61 36 62 39 63 53 64 72 65 37 66 38 67 52 69
REMARK SMILES IDX 73 70 40 71 24 72 25 73 33 74 26 75 27 76 31 77 34 78 28 79
REMARK SMILES IDX 29 80 32 81 30 82 56 83 57 84 65 85 58 86 59 87 63 88 66 89
REMARK SMILES IDX 60 90 61 91 64 92 62 93 41 94 42 95 50 96 43 97 44 98 48 99
REMARK SMILES IDX 51 100 45 101 46 102 49 103 47 104
REMARK H PARENT 7 5 83 18 84 21 89 29 12 38 71 57 39 68
REMARK Flexibility Score: inf
ROOT
ATOM      1  C   UNL A   1      33.219  29.951  26.899  1.00  0.00     0.116 C 
ENDROOT
BRANCH   1   2
ATOM      2  N   UNL A   1      33.758  29.766  25.564  1.00  0.00    -0.352 N 
ATOM      3  C   UNL A   1      33.296  29.139  24.434  1.00  0.00     0.251 C 
ATOM      4  O   UNL A   1      34.018  29.186  23.435  1.00  0.00    -0.269 OA
ATOM      5  H   UNL A   1      34.645  30.177  25.444  1.00  0.00     0.163 HD
BRANCH   3   6
ATOM      6  C   UNL A   1      31.983  28.433  24.319  1.00  0.00     0.041 A 
ATOM      7  C   UNL A   1      28.558  28.805  22.708  1.00  0.00     0.044 C 
ATOM      8  C   UNL A   1      29.673  28.209  23.528  1.00  0.00    -0.046 A 
ATOM      9  C   UNL A   1      30.864  28.945  23.661  1.00  0.00     0.017 A 
ATOM     10  C   UNL A   1      29.557  26.957  24.164  1.00  0.00    -0.028 A 
ATOM     11  C   UNL A   1      30.648  26.492  24.942  1.00  0.00     0.088 A 
ATOM     12  C   UNL A   1      28.293  26.140  24.033  1.00  0.00     0.046 C 
ATOM     13  C   UNL A   1      31.857  27.198  24.976  1.00  0.00     0.036 A 
BRANCH  11  14
ATOM     14  S   UNL A   1      30.394  25.093  26.018  1.00  0.00     0.257 S 
ATOM     15  O   UNL A   1      31.570  25.046  26.891  1.00  0.00    -0.205 OA
ATOM     16  O   UNL A   1      29.068  25.190  26.558  1.00  0.00    -0.205 OA
BRANCH  14  17
ATOM     17  N   UNL A   1      30.389  23.671  25.083  1.00  0.00    -0.123 NA
ATOM     18  H   UNL A   1      30.893  23.884  24.223  1.00  0.00     0.167 HD
BRANCH  17  19
ATOM     19  N   UNL A   1      30.967  22.426  25.613  1.00  0.00    -0.273 N 
ATOM     20  C   UNL A   1      32.295  22.111  25.362  1.00  0.00     0.268 C 
ATOM     21  H   UNL A   1      30.409  21.814  26.146  1.00  0.00     0.186 HD
ATOM     22  O   UNL A   1      33.146  22.174  26.245  1.00  0.00    -0.268 OA
BRANCH  20  23
ATOM     23  C   UNL A   1      32.502  21.396  24.102  1.00  0.00     0.066 A 
ATOM     24  C   UNL A   1      32.050  21.797  22.857  1.00  0.00     0.097 A 
ATOM     25  C   UNL A   1      33.010  20.069  23.906  1.00  0.00     0.012 A 
ATOM     26  N   UNL A   1      31.783  20.659  22.147  1.00  0.00    -0.360 N 
ATOM     27  C   UNL A   1      32.354  19.581  22.774  1.00  0.00     0.046 A 
ATOM     28  C   UNL A   1      33.833  19.180  24.629  1.00  0.00     0.011 A 
ATOM     29  H   UNL A   1      31.260  20.619  21.314  1.00  0.00     0.166 HD
ATOM     30  C   UNL A   1      32.319  18.225  22.438  1.00  0.00     0.027 A 
ATOM     31  C   UNL A   1      33.920  17.841  24.221  1.00  0.00     0.001 A 
ATOM     32  C   UNL A   1      33.127  17.362  23.180  1.00  0.00     0.002 A 
ENDBRANCH  20  23
ENDBRANCH  17  19
ENDBRANCH  14  17
ENDBRANCH  11  14
ENDBRANCH   3   6
ENDBRANCH   1   2
BRANCH   1  33
ATOM     33  C   UNL A   1      31.784  30.487  26.848  1.00  0.00     0.023 C 
BRANCH  33  34
ATOM     34  C   UNL A   1      31.685  32.006  26.663  1.00  0.00     0.023 C 
BRANCH  34  35
ATOM     35  C   UNL A   1      32.837  32.807  27.266  1.00  0.00     0.116 C 
BRANCH  35  36
ATOM     36  N   UNL A   1      32.470  34.166  27.632  1.00  0.00    -0.352 N 
ATOM     37  C   UNL A   1      33.024  34.973  28.597  1.00  0.00     0.251 C 
ATOM     38  H   UNL A   1      31.727  34.561  27.121  1.00  0.00     0.163 HD
ATOM     39  O   UNL A   1      32.534  36.069  28.846  1.00  0.00    -0.269 OA
BRANCH  37  40
ATOM     40  C   UNL A   1      34.190  34.492  29.369  1.00  0.00     0.039 A 
ATOM     41  C   UNL A   1      33.965  33.779  30.551  1.00  0.00     0.014 A 
ATOM     42  C   UNL A   1      35.493  34.718  28.921  1.00  0.00     0.014 A 
ATOM     43  C   UNL A   1      35.046  33.228  31.243  1.00  0.00     0.010 A 
ATOM     44  C   UNL A   1      36.563  34.113  29.575  1.00  0.00     0.010 A 
ATOM     45  C   UNL A   1      36.349  33.358  30.738  1.00  0.00    -0.014 A 
BRANCH  45  46
ATOM     46  C   UNL A   1      37.502  32.699  31.402  1.00  0.00     0.031 A 
ATOM     47  C   UNL A   1      38.202  31.548  30.738  1.00  0.00     0.074 A 
ATOM     48  C   UNL A   1      37.867  33.088  32.638  1.00  0.00     0.049 A 
ATOM     49  N   UNL A   1      39.175  30.798  31.189  1.00  0.00    -0.248 NA
ATOM     50  C   UNL A   1      37.724  31.172  29.398  1.00  0.00     0.031 C 
ATOM     51  C   UNL A   1      37.230  34.155  33.411  1.00  0.00     0.029 A 
ATOM     52  N   UNL A   1      38.854  32.620  33.470  1.00  0.00    -0.354 N 
ATOM     53  C   UNL A   1      39.413  29.854  30.200  1.00  0.00     0.074 A 
ATOM     54  C   UNL A   1      38.449  30.093  29.147  1.00  0.00     0.031 C 
ATOM     55  C   UNL A   1      37.852  34.272  34.595  1.00  0.00     0.029 A 
ATOM     56  C   UNL A   1      38.909  33.268  34.679  1.00  0.00     0.049 A 
ATOM     57  H   UNL A   1      39.464  31.889  33.222  1.00  0.00     0.167 HD
ATOM     58  C   UNL A   1      40.364  28.890  30.163  1.00  0.00     0.037 A 
ATOM     59  C   UNL A   1      39.716  33.071  35.738  1.00  0.00     0.037 A 
ATOM     60  C   UNL A   1      41.337  28.672  31.201  1.00  0.00     0.049 A 
ATOM     61  C   UNL A   1      40.770  32.000  35.670  1.00  0.00     0.074 A 
ATOM     62  C   UNL A   1      42.384  27.767  31.228  1.00  0.00     0.029 A 
ATOM     63  N   UNL A   1      41.380  29.368  32.401  1.00  0.00    -0.354 N 
ATOM     64  N   UNL A   1      41.036  31.161  34.698  1.00  0.00    -0.248 NA
ATOM     65  C   UNL A   1      41.643  31.855  36.843  1.00  0.00     0.031 C 
ATOM     66  C   UNL A   1      43.034  27.887  32.461  1.00  0.00     0.029 A 
ATOM     67  C   UNL A   1      42.422  28.898  33.184  1.00  0.00     0.049 A 
ATOM     68  H   UNL A   1      40.762  30.090  32.657  1.00  0.00     0.167 HD
ATOM     69  C   UNL A   1      42.118  30.407  35.130  1.00  0.00     0.074 A 
ATOM     70  C   UNL A   1      42.470  30.897  36.447  1.00  0.00     0.031 C 
ATOM     71  C   UNL A   1      42.762  29.400  34.492  1.00  0.00     0.037 A 
BRANCH  58  72
ATOM     72  C   UNL A   1      40.396  27.999  28.955  1.00  0.00     0.064 A 
ATOM     73  C   UNL A   1      39.680  26.793  28.912  1.00  0.00     0.173 A 
ATOM     74  C   UNL A   1      41.137  28.362  27.820  1.00  0.00     0.173 A 
ATOM     75  F   UNL A   1      38.965  26.394  29.974  1.00  0.00    -0.203 F 
ATOM     76  C   UNL A   1      39.733  25.967  27.791  1.00  0.00     0.198 A 
ATOM     77  C   UNL A   1      41.163  27.549  26.690  1.00  0.00     0.198 A 
ATOM     78  F   UNL A   1      41.835  29.508  27.806  1.00  0.00    -0.203 F 
ATOM     79  F   UNL A   1      39.086  24.793  27.796  1.00  0.00    -0.200 F 
ATOM     80  C   UNL A   1      40.470  26.348  26.681  1.00  0.00     0.200 A 
ATOM     81  F   UNL A   1      41.866  27.924  25.612  1.00  0.00    -0.200 F 
ATOM     82  F   UNL A   1      40.519  25.552  25.603  1.00  0.00    -0.200 F 
ENDBRANCH  58  72
BRANCH  59  83
ATOM     83  C   UNL A   1      39.578  33.932  36.941  1.00  0.00     0.064 A 
ATOM     84  C   UNL A   1      40.208  35.182  37.004  1.00  0.00     0.173 A 
ATOM     85  C   UNL A   1      38.806  33.532  38.041  1.00  0.00     0.173 A 
ATOM     86  F   UNL A   1      40.973  35.598  35.983  1.00  0.00    -0.203 F 
ATOM     87  C   UNL A   1      40.084  35.995  38.129  1.00  0.00     0.198 A 
ATOM     88  C   UNL A   1      38.662  34.356  39.155  1.00  0.00     0.198 A 
ATOM     89  F   UNL A   1      38.178  32.347  38.027  1.00  0.00    -0.203 F 
ATOM     90  F   UNL A   1      40.727  37.169  38.178  1.00  0.00    -0.200 F 
ATOM     91  C   UNL A   1      39.305  35.584  39.201  1.00  0.00     0.200 A 
ATOM     92  F   UNL A   1      37.898  33.963  40.182  1.00  0.00    -0.200 F 
ATOM     93  F   UNL A   1      39.179  36.370  40.279  1.00  0.00    -0.200 F 
ENDBRANCH  59  83
BRANCH  71  94
ATOM     94  C   UNL A   1      43.933  28.778  35.195  1.00  0.00     0.064 A 
ATOM     95  C   UNL A   1      45.239  29.253  35.009  1.00  0.00     0.173 A 
ATOM     96  C   UNL A   1      43.740  27.720  36.096  1.00  0.00     0.173 A 
ATOM     97  F   UNL A   1      45.477  30.252  34.145  1.00  0.00    -0.203 F 
ATOM     98  C   UNL A   1      46.312  28.678  35.684  1.00  0.00     0.198 A 
ATOM     99  C   UNL A   1      44.811  27.165  36.790  1.00  0.00     0.198 A 
ATOM    100  F   UNL A   1      42.509  27.232  36.313  1.00  0.00    -0.203 F 
ATOM    101  F   UNL A   1      47.557  29.119  35.459  1.00  0.00    -0.200 F 
ATOM    102  C   UNL A   1      46.096  27.640  36.579  1.00  0.00     0.200 A 
ATOM    103  F   UNL A   1      44.599  26.171  37.664  1.00  0.00    -0.200 F 
ATOM    104  F   UNL A   1      47.130  27.093  37.234  1.00  0.00    -0.200 F 
ENDBRANCH  71  94
ENDBRANCH  45  46
ENDBRANCH  37  40
ENDBRANCH  35  36
ENDBRANCH  34  35
ENDBRANCH  33  34
ENDBRANCH   1  33
TORSDOF 15
ENDMDL
MODEL 3
REMARK VINA RESULT:     -14.3      1.091      2.266
REMARK SMILES Cc1cc(C(=O)NCCCCNC(=O)c2ccc(-c3c4nc(c(-c5c(F)c(F)c(F)c(F)c5F)c5ccc([nH]5)c(-c5c(F)c(F)c(F)c(F)c5F)c5nc(c(-c6c(F)c(F)c(F)c(F)c6F)c6ccc3[nH]6)C=C5)C=C4)cc2)cc(S(=O)(=O)NNC(=O)c2c[nH]c3ccccc23)c1C
REMARK SMILES IDX 8 1 7 2 5 3 6 4 4 6 1 7 2 8 3 9 96 10 79 11 97 12 78 13
REMARK SMILES IDX 80 14 81 15 82 16 83 17 84 19 85 20 86 22 87 23 88 24 95 25
REMARK SMILES IDX 89 26 90 27 94 28 91 30 93 31 92 32 9 33 10 34 11 35 12 36
REMARK SMILES IDX 13 37 14 39 15 40 16 41 77 42 17 43 76 44 18 45 19 46 20 47
REMARK SMILES IDX 70 48 21 49 75 50 69 51 71 52 22 53 74 54 68 55 67 56 23 58
REMARK SMILES IDX 55 59 35 60 54 61 36 62 39 63 53 64 72 65 37 66 38 67 52 69
REMARK SMILES IDX 73 70 40 71 24 72 25 73 33 74 26 75 27 76 31 77 34 78 28 79
REMARK SMILES IDX 29 80 32 81 30 82 56 83 57 84 65 85 58 86 59 87 63 88 66 89
REMARK SMILES IDX 60 90 61 91 64 92 62 93 41 94 42 95 50 96 43 97 44 98 48 99
REMARK SMILES IDX 51 100 45 101 46 102 49 103 47 104
REMARK H PARENT 7 5 83 18 84 21 89 29 12 38 71 57 39 68
REMARK Flexibility Score: inf
ROOT
ATOM      1  C   UNL A   1      33.244  30.023  27.023  1.00  0.00     0.116 C 
ENDROOT
BRANCH   1   2
ATOM      2  N   UNL A   1      33.865  29.752  25.739  1.00  0.00    -0.352 N 
ATOM      3  C   UNL A   1      33.463  29.071  24.617  1.00  0.00     0.251 C 
ATOM      4  O   UNL A   1      34.250  29.047  23.667  1.00  0.00    -0.269 OA
ATOM      5  H   UNL A   1      34.767  30.137  25.655  1.00  0.00     0.163 HD
BRANCH   3   6
ATOM      6  C   UNL A   1      32.144  28.386  24.454  1.00  0.00     0.041 A 
ATOM      7  C   UNL A   1      28.757  28.853  22.790  1.00  0.00     0.044 C 
ATOM      8  C   UNL A   1      29.848  28.216  23.612  1.00  0.00    -0.046 A 
ATOM      9  C   UNL A   1      31.045  28.932  23.792  1.00  0.00     0.017 A 
ATOM     10  C   UNL A   1      29.704  26.947  24.205  1.00  0.00    -0.028 A 
ATOM     11  C   UNL A   1      30.775  26.443  24.989  1.00  0.00     0.088 A 
ATOM     12  C   UNL A   1      28.433  26.150  24.023  1.00  0.00     0.046 C 
ATOM     13  C   UNL A   1      31.990  27.132  25.069  1.00  0.00     0.036 A 
BRANCH  11  14
ATOM     14  S   UNL A   1      30.483  25.013  26.013  1.00  0.00     0.257 S 
ATOM     15  O   UNL A   1      31.667  24.890  26.867  1.00  0.00    -0.205 OA
ATOM     16  O   UNL A   1      29.168  25.138  26.575  1.00  0.00    -0.205 OA
BRANCH  14  17
ATOM     17  N   UNL A   1      30.413  23.629  25.025  1.00  0.00    -0.123 NA
ATOM     18  H   UNL A   1      29.565  23.712  24.465  1.00  0.00     0.167 HD
BRANCH  17  19
ATOM     19  N   UNL A   1      31.506  23.321  24.090  1.00  0.00    -0.273 N 
ATOM     20  C   UNL A   1      32.159  22.098  24.158  1.00  0.00     0.268 C 
ATOM     21  H   UNL A   1      31.775  23.986  23.415  1.00  0.00     0.186 HD
ATOM     22  O   UNL A   1      31.990  21.234  23.302  1.00  0.00    -0.268 OA
BRANCH  20  23
ATOM     23  C   UNL A   1      33.276  22.079  25.103  1.00  0.00     0.066 A 
ATOM     24  C   UNL A   1      33.175  21.941  26.477  1.00  0.00     0.097 A 
ATOM     25  C   UNL A   1      34.652  22.399  24.859  1.00  0.00     0.012 A 
ATOM     26  N   UNL A   1      34.205  22.657  27.023  1.00  0.00    -0.360 N 
ATOM     27  C   UNL A   1      35.123  22.959  26.049  1.00  0.00     0.046 A 
ATOM     28  C   UNL A   1      35.507  22.414  23.737  1.00  0.00     0.011 A 
ATOM     29  H   UNL A   1      34.275  22.917  27.969  1.00  0.00     0.166 HD
ATOM     30  C   UNL A   1      36.307  23.695  26.130  1.00  0.00     0.027 A 
ATOM     31  C   UNL A   1      36.763  23.029  23.841  1.00  0.00     0.001 A 
ATOM     32  C   UNL A   1      37.127  23.711  25.002  1.00  0.00     0.002 A 
ENDBRANCH  20  23
ENDBRANCH  17  19
ENDBRANCH  14  17
ENDBRANCH  11  14
ENDBRANCH   3   6
ENDBRANCH   1   2
BRANCH   1  33
ATOM     33  C   UNL A   1      31.792  30.483  26.850  1.00  0.00     0.023 C 
BRANCH  33  34
ATOM     34  C   UNL A   1      31.621  32.004  26.749  1.00  0.00     0.023 C 
BRANCH  34  35
ATOM     35  C   UNL A   1      32.795  32.823  27.281  1.00  0.00     0.116 C 
BRANCH  35  36
ATOM     36  N   UNL A   1      32.433  34.183  27.650  1.00  0.00    -0.352 N 
ATOM     37  C   UNL A   1      32.999  34.990  28.608  1.00  0.00     0.251 C 
ATOM     38  H   UNL A   1      31.685  34.578  27.148  1.00  0.00     0.163 HD
ATOM     39  O   UNL A   1      32.513  36.086  28.862  1.00  0.00    -0.269 OA
BRANCH  37  40
ATOM     40  C   UNL A   1      34.174  34.508  29.367  1.00  0.00     0.039 A 
ATOM     41  C   UNL A   1      33.970  33.930  30.624  1.00  0.00     0.014 A 
ATOM     42  C   UNL A   1      35.462  34.602  28.836  1.00  0.00     0.014 A 
ATOM     43  C   UNL A   1      35.051  33.377  31.314  1.00  0.00     0.010 A 
ATOM     44  C   UNL A   1      36.526  33.993  29.494  1.00  0.00     0.010 A 
ATOM     45  C   UNL A   1      36.330  33.370  30.736  1.00  0.00    -0.014 A 
BRANCH  45  46
ATOM     46  C   UNL A   1      37.474  32.702  31.406  1.00  0.00     0.031 A 
ATOM     47  C   UNL A   1      38.153  31.530  30.756  1.00  0.00     0.074 A 
ATOM     48  C   UNL A   1      37.851  33.103  32.634  1.00  0.00     0.049 A 
ATOM     49  N   UNL A   1      39.116  30.770  31.215  1.00  0.00    -0.248 NA
ATOM     50  C   UNL A   1      37.664  31.141  29.425  1.00  0.00     0.031 C 
ATOM     51  C   UNL A   1      37.233  34.192  33.394  1.00  0.00     0.029 A 
ATOM     52  N   UNL A   1      38.832  32.631  33.470  1.00  0.00    -0.354 N 
ATOM     53  C   UNL A   1      39.335  29.808  30.240  1.00  0.00     0.074 A 
ATOM     54  C   UNL A   1      38.371  30.047  29.187  1.00  0.00     0.031 C 
ATOM     55  C   UNL A   1      37.862  34.316  34.574  1.00  0.00     0.029 A 
ATOM     56  C   UNL A   1      38.902  33.297  34.669  1.00  0.00     0.049 A 
ATOM     57  H   UNL A   1      39.430  31.886  33.231  1.00  0.00     0.167 HD
ATOM     58  C   UNL A   1      40.269  28.829  30.214  1.00  0.00     0.037 A 
ATOM     59  C   UNL A   1      39.710  33.102  35.728  1.00  0.00     0.037 A 
ATOM     60  C   UNL A   1      41.243  28.610  31.252  1.00  0.00     0.049 A 
ATOM     61  C   UNL A   1      40.747  32.013  35.673  1.00  0.00     0.074 A 
ATOM     62  C   UNL A   1      42.275  27.688  31.289  1.00  0.00     0.029 A 
ATOM     63  N   UNL A   1      41.302  29.323  32.441  1.00  0.00    -0.354 N 
ATOM     64  N   UNL A   1      40.995  31.155  34.713  1.00  0.00    -0.248 NA
ATOM     65  C   UNL A   1      41.621  31.871  36.845  1.00  0.00     0.031 C 
ATOM     66  C   UNL A   1      42.931  27.816  32.518  1.00  0.00     0.029 A 
ATOM     67  C   UNL A   1      42.339  28.848  33.227  1.00  0.00     0.049 A 
ATOM     68  H   UNL A   1      40.696  30.058  32.689  1.00  0.00     0.167 HD
ATOM     69  C   UNL A   1      42.066  30.390  35.152  1.00  0.00     0.074 A 
ATOM     70  C   UNL A   1      42.430  30.894  36.460  1.00  0.00     0.031 C 
ATOM     71  C   UNL A   1      42.691  29.363  34.527  1.00  0.00     0.037 A 
BRANCH  58  72
ATOM     72  C   UNL A   1      40.283  27.919  29.020  1.00  0.00     0.064 A 
ATOM     73  C   UNL A   1      39.562  26.715  29.004  1.00  0.00     0.173 A 
ATOM     74  C   UNL A   1      41.010  28.262  27.870  1.00  0.00     0.173 A 
ATOM     75  F   UNL A   1      38.860  26.335  30.082  1.00  0.00    -0.203 F 
ATOM     76  C   UNL A   1      39.598  25.872  27.896  1.00  0.00     0.198 A 
ATOM     77  C   UNL A   1      41.018  27.432  26.752  1.00  0.00     0.198 A 
ATOM     78  F   UNL A   1      41.712  29.405  27.829  1.00  0.00    -0.203 F 
ATOM     79  F   UNL A   1      38.947  24.700  27.927  1.00  0.00    -0.200 F 
ATOM     80  C   UNL A   1      40.321  26.233  26.770  1.00  0.00     0.200 A 
ATOM     81  F   UNL A   1      41.708  27.788  25.659  1.00  0.00    -0.200 F 
ATOM     82  F   UNL A   1      40.353  25.421  25.704  1.00  0.00    -0.200 F 
ENDBRANCH  58  72
BRANCH  59  83
ATOM     83  C   UNL A   1      39.591  33.983  36.919  1.00  0.00     0.064 A 
ATOM     84  C   UNL A   1      38.820  33.595  38.023  1.00  0.00     0.173 A 
ATOM     85  C   UNL A   1      40.252  35.217  36.984  1.00  0.00     0.173 A 
ATOM     86  F   UNL A   1      38.154  32.431  37.998  1.00  0.00    -0.203 F 
ATOM     87  C   UNL A   1      38.702  34.415  39.143  1.00  0.00     0.198 A 
ATOM     88  C   UNL A   1      40.154  36.026  38.113  1.00  0.00     0.198 A 
ATOM     89  F   UNL A   1      41.006  35.631  35.955  1.00  0.00    -0.203 F 
ATOM     90  F   UNL A   1      37.930  34.037  40.169  1.00  0.00    -0.200 F 
ATOM     91  C   UNL A   1      39.376  35.628  39.190  1.00  0.00     0.200 A 
ATOM     92  F   UNL A   1      40.817  37.189  38.161  1.00  0.00    -0.200 F 
ATOM     93  F   UNL A   1      39.269  36.413  40.270  1.00  0.00    -0.200 F 
ENDBRANCH  59  83
BRANCH  71  94
ATOM     94  C   UNL A   1      43.854  28.733  35.235  1.00  0.00     0.064 A 
ATOM     95  C   UNL A   1      45.159  29.226  35.090  1.00  0.00     0.173 A 
ATOM     96  C   UNL A   1      43.654  27.647  36.101  1.00  0.00     0.173 A 
ATOM     97  F   UNL A   1      45.404  30.253  34.260  1.00  0.00    -0.203 F 
ATOM     98  C   UNL A   1      46.224  28.642  35.769  1.00  0.00     0.198 A 
ATOM     99  C   UNL A   1      44.718  27.083  36.800  1.00  0.00     0.198 A 
ATOM    100  F   UNL A   1      42.425  27.141  36.278  1.00  0.00    -0.203 F 
ATOM    101  F   UNL A   1      47.469  29.102  35.582  1.00  0.00    -0.200 F 
ATOM    102  C   UNL A   1      46.002  27.577  36.629  1.00  0.00     0.200 A 
ATOM    103  F   UNL A   1      44.499  26.062  37.640  1.00  0.00    -0.200 F 
ATOM    104  F   UNL A   1      47.028  27.021  37.288  1.00  0.00    -0.200 F 
ENDBRANCH  71  94
ENDBRANCH  45  46
ENDBRANCH  37  40
ENDBRANCH  35  36
ENDBRANCH  34  35
ENDBRANCH  33  34
ENDBRANCH   1  33
TORSDOF 15
ENDMDL
