MODEL 1
REMARK VINA RESULT:     -11.9      0.000      0.000
REMARK SMILES CN(c1ccc(C(=O)NCCCCNC(=O)c2ccc(-c3c4nc(c(-c5c(F)c(F)c(F)c(F)c5F)c5ccc([nH]5)c(-c5c(F)c(F)c(F)c(F)c5F)c5nc(c(-c6c(F)c(F)c(F)c(F)c6F)c6ccc3[nH]6)C=C5)C=C4)cc2)cc1)S(C)(=O)=O
REMARK SMILES IDX 11 1 10 2 9 3 7 4 8 5 6 7 3 8 4 9 81 10 5 11 80 12 2 13 1 14
REMARK SMILES IDX 82 15 83 16 84 17 85 18 12 19 13 20 14 21 15 22 16 24 17 25
REMARK SMILES IDX 18 26 79 27 19 28 78 29 20 30 21 31 22 32 72 33 23 34 77 35
REMARK SMILES IDX 71 36 73 37 24 38 76 39 70 40 69 41 25 43 57 44 37 45 56 46
REMARK SMILES IDX 38 47 41 48 55 49 74 50 39 51 40 52 54 54 75 55 42 56 26 57
REMARK SMILES IDX 27 58 35 59 28 60 29 61 33 62 36 63 30 64 31 65 34 66 32 67
REMARK SMILES IDX 58 68 59 69 67 70 60 71 61 72 65 73 68 74 62 75 63 76 66 77
REMARK SMILES IDX 64 78 43 79 44 80 52 81 45 82 46 83 50 84 53 85 47 86 48 87
REMARK SMILES IDX 51 88 49 89
REMARK H PARENT 9 6 14 23 73 42 41 53
REMARK Flexibility Score: inf
ROOT
ATOM      1  C   UNL A   1      32.273  27.065  26.442  1.00  0.00     0.023 C 
ENDROOT
BRANCH   1   2
ATOM      2  C   UNL A   1      31.093  26.089  26.426  1.00  0.00     0.116 C 
BRANCH   2   3
ATOM      3  N   UNL A   1      31.161  25.245  25.253  1.00  0.00    -0.352 N 
ATOM      4  C   UNL A   1      30.680  25.405  23.981  1.00  0.00     0.251 C 
ATOM      5  O   UNL A   1      30.895  24.499  23.176  1.00  0.00    -0.269 OA
ATOM      6  H   UNL A   1      31.643  24.398  25.396  1.00  0.00     0.163 HD
BRANCH   4   7
ATOM      7  C   UNL A   1      29.977  26.639  23.520  1.00  0.00     0.039 A 
ATOM      8  C   UNL A   1      28.863  29.080  22.658  1.00  0.00     0.051 A 
ATOM      9  C   UNL A   1      30.191  28.771  22.368  1.00  0.00     0.028 A 
ATOM     10  C   UNL A   1      28.074  28.146  23.327  1.00  0.00     0.028 A 
ATOM     11  C   UNL A   1      30.745  27.562  22.796  1.00  0.00     0.016 A 
ATOM     12  C   UNL A   1      28.624  26.923  23.734  1.00  0.00     0.016 A 
BRANCH   8  13
ATOM     13  N   UNL A   1      28.338  30.354  22.277  1.00  0.00    -0.274 N 
ATOM     14  C   UNL A   1      28.228  30.690  20.852  1.00  0.00     0.163 C 
BRANCH  13  15
ATOM     15  S   UNL A   1      28.281  31.605  23.414  1.00  0.00     0.231 S 
ATOM     16  C   UNL A   1      28.467  33.044  22.384  1.00  0.00     0.183 C 
ATOM     17  O   UNL A   1      26.936  31.646  23.955  1.00  0.00    -0.207 OA
ATOM     18  O   UNL A   1      29.430  31.540  24.289  1.00  0.00    -0.207 OA
ENDBRANCH  13  15
ENDBRANCH   8  13
ENDBRANCH   4   7
ENDBRANCH   2   3
ENDBRANCH   1   2
BRANCH   1  19
ATOM     19  C   UNL A   1      31.873  28.524  26.215  1.00  0.00     0.023 C 
BRANCH  19  20
ATOM     20  C   UNL A   1      33.043  29.477  26.024  1.00  0.00     0.116 C 
BRANCH  20  21
ATOM     21  N   UNL A   1      32.718  30.854  26.360  1.00  0.00    -0.352 N 
ATOM     22  C   UNL A   1      33.362  31.690  27.239  1.00  0.00     0.251 C 
ATOM     23  H   UNL A   1      31.938  31.237  25.898  1.00  0.00     0.163 HD
ATOM     24  O   UNL A   1      32.891  32.787  27.515  1.00  0.00    -0.269 OA
BRANCH  22  25
ATOM     25  C   UNL A   1      34.614  31.232  27.873  1.00  0.00     0.039 A 
ATOM     26  C   UNL A   1      35.675  32.131  27.997  1.00  0.00     0.014 A 
ATOM     27  C   UNL A   1      34.722  29.932  28.371  1.00  0.00     0.014 A 
ATOM     28  C   UNL A   1      36.835  31.731  28.662  1.00  0.00     0.010 A 
ATOM     29  C   UNL A   1      35.839  29.569  29.112  1.00  0.00     0.010 A 
ATOM     30  C   UNL A   1      36.917  30.456  29.246  1.00  0.00    -0.014 A 
BRANCH  30  31
ATOM     31  C   UNL A   1      38.140  30.017  29.960  1.00  0.00     0.031 A 
ATOM     32  C   UNL A   1      38.405  30.505  31.357  1.00  0.00     0.074 A 
ATOM     33  C   UNL A   1      39.029  29.217  29.339  1.00  0.00     0.049 A 
ATOM     34  N   UNL A   1      39.429  30.268  32.139  1.00  0.00    -0.248 NA
ATOM     35  C   UNL A   1      37.403  31.408  31.944  1.00  0.00     0.031 C 
ATOM     36  C   UNL A   1      38.907  28.720  27.968  1.00  0.00     0.029 A 
ATOM     37  N   UNL A   1      40.214  28.686  29.782  1.00  0.00    -0.354 N 
ATOM     38  C   UNL A   1      39.196  31.000  33.296  1.00  0.00     0.074 A 
ATOM     39  C   UNL A   1      37.975  31.746  33.088  1.00  0.00     0.031 C 
ATOM     40  C   UNL A   1      39.958  27.930  27.693  1.00  0.00     0.029 A 
ATOM     41  C   UNL A   1      40.844  27.897  28.852  1.00  0.00     0.049 A 
ATOM     42  H   UNL A   1      40.577  28.854  30.681  1.00  0.00     0.167 HD
ATOM     43  C   UNL A   1      39.918  31.024  34.441  1.00  0.00     0.037 A 
ATOM     44  C   UNL A   1      42.009  27.225  28.928  1.00  0.00     0.037 A 
ATOM     45  C   UNL A   1      41.122  30.264  34.648  1.00  0.00     0.049 A 
ATOM     46  C   UNL A   1      42.797  27.273  30.210  1.00  0.00     0.074 A 
ATOM     47  C   UNL A   1      41.904  30.176  35.787  1.00  0.00     0.029 A 
ATOM     48  N   UNL A   1      41.723  29.461  33.688  1.00  0.00    -0.354 N 
ATOM     49  N   UNL A   1      42.532  27.910  31.325  1.00  0.00    -0.248 NA
ATOM     50  C   UNL A   1      44.043  26.495  30.248  1.00  0.00     0.031 C 
ATOM     51  C   UNL A   1      43.008  29.368  35.496  1.00  0.00     0.029 A 
ATOM     52  C   UNL A   1      42.877  28.893  34.202  1.00  0.00     0.049 A 
ATOM     53  H   UNL A   1      41.379  29.317  32.776  1.00  0.00     0.167 HD
ATOM     54  C   UNL A   1      43.551  27.578  32.208  1.00  0.00     0.074 A 
ATOM     55  C   UNL A   1      44.434  26.673  31.502  1.00  0.00     0.031 C 
ATOM     56  C   UNL A   1      43.738  27.982  33.489  1.00  0.00     0.037 A 
BRANCH  43  57
ATOM     57  C   UNL A   1      39.422  31.903  35.555  1.00  0.00     0.064 A 
ATOM     58  C   UNL A   1      39.849  33.234  35.693  1.00  0.00     0.173 A 
ATOM     59  C   UNL A   1      38.494  31.415  36.487  1.00  0.00     0.173 A 
ATOM     60  F   UNL A   1      40.746  33.748  34.838  1.00  0.00    -0.203 F 
ATOM     61  C   UNL A   1      39.396  34.029  36.743  1.00  0.00     0.198 A 
ATOM     62  C   UNL A   1      38.014  32.226  37.513  1.00  0.00     0.198 A 
ATOM     63  F   UNL A   1      38.048  30.153  36.401  1.00  0.00    -0.203 F 
ATOM     64  F   UNL A   1      39.868  35.274  36.890  1.00  0.00    -0.200 F 
ATOM     65  C   UNL A   1      38.473  33.526  37.647  1.00  0.00     0.200 A 
ATOM     66  F   UNL A   1      37.109  31.743  38.377  1.00  0.00    -0.200 F 
ATOM     67  F   UNL A   1      38.032  34.294  38.654  1.00  0.00    -0.200 F 
ENDBRANCH  43  57
BRANCH  44  68
ATOM     68  C   UNL A   1      42.483  26.422  27.769  1.00  0.00     0.064 A 
ATOM     69  C   UNL A   1      43.417  26.945  26.863  1.00  0.00     0.173 A 
ATOM     70  C   UNL A   1      42.006  25.124  27.536  1.00  0.00     0.173 A 
ATOM     71  F   UNL A   1      43.891  28.188  27.032  1.00  0.00    -0.203 F 
ATOM     72  C   UNL A   1      43.833  26.212  25.753  1.00  0.00     0.198 A 
ATOM     73  C   UNL A   1      42.447  24.379  26.444  1.00  0.00     0.198 A 
ATOM     74  F   UNL A   1      41.118  24.574  28.377  1.00  0.00    -0.203 F 
ATOM     75  F   UNL A   1      44.684  26.757  24.874  1.00  0.00    -0.200 F 
ATOM     76  C   UNL A   1      43.352  24.927  25.548  1.00  0.00     0.200 A 
ATOM     77  F   UNL A   1      41.994  23.132  26.259  1.00  0.00    -0.200 F 
ATOM     78  F   UNL A   1      43.754  24.222  24.483  1.00  0.00    -0.200 F 
ENDBRANCH  44  68
BRANCH  56  79
ATOM     79  C   UNL A   1      44.908  27.400  34.233  1.00  0.00     0.064 A 
ATOM     80  C   UNL A   1      46.158  28.036  34.269  1.00  0.00     0.173 A 
ATOM     81  C   UNL A   1      44.763  26.199  34.945  1.00  0.00     0.173 A 
ATOM     82  F   UNL A   1      46.355  29.180  33.598  1.00  0.00    -0.203 F 
ATOM     83  C   UNL A   1      47.229  27.468  34.956  1.00  0.00     0.198 A 
ATOM     84  C   UNL A   1      45.824  25.656  35.663  1.00  0.00     0.198 A 
ATOM     85  F   UNL A   1      43.585  25.555  34.953  1.00  0.00    -0.203 F 
ATOM     86  F   UNL A   1      48.431  28.060  34.924  1.00  0.00    -0.200 F 
ATOM     87  C   UNL A   1      47.059  26.285  35.659  1.00  0.00     0.200 A 
ATOM     88  F   UNL A   1      45.651  24.522  36.356  1.00  0.00    -0.200 F 
ATOM     89  F   UNL A   1      48.089  25.744  36.324  1.00  0.00    -0.200 F 
ENDBRANCH  56  79
ENDBRANCH  30  31
ENDBRANCH  22  25
ENDBRANCH  20  21
ENDBRANCH  19  20
ENDBRANCH   1  19
TORSDOF 13
ENDMDL
MODEL 2
REMARK VINA RESULT:     -11.7      0.437      1.785
REMARK SMILES CN(c1ccc(C(=O)NCCCCNC(=O)c2ccc(-c3c4nc(c(-c5c(F)c(F)c(F)c(F)c5F)c5ccc([nH]5)c(-c5c(F)c(F)c(F)c(F)c5F)c5nc(c(-c6c(F)c(F)c(F)c(F)c6F)c6ccc3[nH]6)C=C5)C=C4)cc2)cc1)S(C)(=O)=O
REMARK SMILES IDX 11 1 10 2 9 3 7 4 8 5 6 7 3 8 4 9 81 10 5 11 80 12 2 13 1 14
REMARK SMILES IDX 82 15 83 16 84 17 85 18 12 19 13 20 14 21 15 22 16 24 17 25
REMARK SMILES IDX 18 26 79 27 19 28 78 29 20 30 21 31 22 32 72 33 23 34 77 35
REMARK SMILES IDX 71 36 73 37 24 38 76 39 70 40 69 41 25 43 57 44 37 45 56 46
REMARK SMILES IDX 38 47 41 48 55 49 74 50 39 51 40 52 54 54 75 55 42 56 26 57
REMARK SMILES IDX 27 58 35 59 28 60 29 61 33 62 36 63 30 64 31 65 34 66 32 67
REMARK SMILES IDX 58 68 59 69 67 70 60 71 61 72 65 73 68 74 62 75 63 76 66 77
REMARK SMILES IDX 64 78 43 79 44 80 52 81 45 82 46 83 50 84 53 85 47 86 48 87
REMARK SMILES IDX 51 88 49 89
REMARK H PARENT 9 6 14 23 73 42 41 53
REMARK Flexibility Score: inf
ROOT
ATOM      1  C   UNL A   1      32.460  27.224  26.126  1.00  0.00     0.023 C 
ENDROOT
BRANCH   1   2
ATOM      2  C   UNL A   1      31.286  26.242  26.151  1.00  0.00     0.116 C 
BRANCH   2   3
ATOM      3  N   UNL A   1      31.272  25.453  24.938  1.00  0.00    -0.352 N 
ATOM      4  C   UNL A   1      30.812  25.723  23.676  1.00  0.00     0.251 C 
ATOM      5  O   UNL A   1      30.936  24.840  22.828  1.00  0.00    -0.269 OA
ATOM      6  H   UNL A   1      31.665  24.556  25.039  1.00  0.00     0.163 HD
BRANCH   4   7
ATOM      7  C   UNL A   1      30.239  27.042  23.277  1.00  0.00     0.039 A 
ATOM      8  C   UNL A   1      28.946  29.423  22.503  1.00  0.00     0.051 A 
ATOM      9  C   UNL A   1      28.243  28.430  23.184  1.00  0.00     0.028 A 
ATOM     10  C   UNL A   1      30.308  29.254  22.261  1.00  0.00     0.028 A 
ATOM     11  C   UNL A   1      28.884  27.248  23.566  1.00  0.00     0.016 A 
ATOM     12  C   UNL A   1      30.954  28.079  22.667  1.00  0.00     0.016 A 
BRANCH   8  13
ATOM     13  N   UNL A   1      28.254  30.591  22.055  1.00  0.00    -0.274 N 
ATOM     14  C   UNL A   1      28.159  30.864  20.615  1.00  0.00     0.163 C 
BRANCH  13  15
ATOM     15  S   UNL A   1      27.961  31.854  23.142  1.00  0.00     0.231 S 
ATOM     16  C   UNL A   1      29.407  31.789  24.177  1.00  0.00     0.183 C 
ATOM     17  O   UNL A   1      28.031  33.098  22.400  1.00  0.00    -0.207 OA
ATOM     18  O   UNL A   1      26.814  31.548  23.968  1.00  0.00    -0.207 OA
ENDBRANCH  13  15
ENDBRANCH   8  13
ENDBRANCH   4   7
ENDBRANCH   2   3
ENDBRANCH   1   2
BRANCH   1  19
ATOM     19  C   UNL A   1      32.058  28.677  26.387  1.00  0.00     0.023 C 
BRANCH  19  20
ATOM     20  C   UNL A   1      33.065  29.708  25.899  1.00  0.00     0.116 C 
BRANCH  20  21
ATOM     21  N   UNL A   1      32.726  31.067  26.291  1.00  0.00    -0.352 N 
ATOM     22  C   UNL A   1      33.351  31.867  27.215  1.00  0.00     0.251 C 
ATOM     23  H   UNL A   1      31.949  31.464  25.835  1.00  0.00     0.163 HD
ATOM     24  O   UNL A   1      32.869  32.948  27.534  1.00  0.00    -0.269 OA
BRANCH  22  25
ATOM     25  C   UNL A   1      34.597  31.390  27.846  1.00  0.00     0.039 A 
ATOM     26  C   UNL A   1      35.672  32.272  27.970  1.00  0.00     0.014 A 
ATOM     27  C   UNL A   1      34.687  30.087  28.341  1.00  0.00     0.014 A 
ATOM     28  C   UNL A   1      36.827  31.854  28.631  1.00  0.00     0.010 A 
ATOM     29  C   UNL A   1      35.800  29.706  29.079  1.00  0.00     0.010 A 
ATOM     30  C   UNL A   1      36.891  30.577  29.212  1.00  0.00    -0.014 A 
BRANCH  30  31
ATOM     31  C   UNL A   1      38.110  30.118  29.923  1.00  0.00     0.031 A 
ATOM     32  C   UNL A   1      38.374  30.582  31.329  1.00  0.00     0.074 A 
ATOM     33  C   UNL A   1      38.996  29.323  29.292  1.00  0.00     0.049 A 
ATOM     34  N   UNL A   1      39.393  30.326  32.109  1.00  0.00    -0.248 NA
ATOM     35  C   UNL A   1      37.375  31.482  31.927  1.00  0.00     0.031 C 
ATOM     36  C   UNL A   1      38.875  28.850  27.913  1.00  0.00     0.029 A 
ATOM     37  N   UNL A   1      40.176  28.777  29.730  1.00  0.00    -0.354 N 
ATOM     38  C   UNL A   1      39.161  31.040  33.278  1.00  0.00     0.074 A 
ATOM     39  C   UNL A   1      37.946  31.797  33.078  1.00  0.00     0.031 C 
ATOM     40  C   UNL A   1      39.921  28.057  27.628  1.00  0.00     0.029 A 
ATOM     41  C   UNL A   1      40.804  28.000  28.789  1.00  0.00     0.049 A 
ATOM     42  H   UNL A   1      40.537  28.929  30.633  1.00  0.00     0.167 HD
ATOM     43  C   UNL A   1      39.880  31.041  34.426  1.00  0.00     0.037 A 
ATOM     44  C   UNL A   1      41.964  27.319  28.858  1.00  0.00     0.037 A 
ATOM     45  C   UNL A   1      41.078  30.270  34.624  1.00  0.00     0.049 A 
ATOM     46  C   UNL A   1      42.748  27.341  30.143  1.00  0.00     0.074 A 
ATOM     47  C   UNL A   1      41.856  30.159  35.763  1.00  0.00     0.029 A 
ATOM     48  N   UNL A   1      41.677  29.479  33.652  1.00  0.00    -0.354 N 
ATOM     49  N   UNL A   1      42.484  27.961  31.267  1.00  0.00    -0.248 NA
ATOM     50  C   UNL A   1      43.989  26.554  30.172  1.00  0.00     0.031 C 
ATOM     51  C   UNL A   1      42.955  29.349  35.463  1.00  0.00     0.029 A 
ATOM     52  C   UNL A   1      42.826  28.896  34.161  1.00  0.00     0.049 A 
ATOM     53  H   UNL A   1      41.335  29.353  32.738  1.00  0.00     0.167 HD
ATOM     54  C   UNL A   1      43.498  27.609  32.148  1.00  0.00     0.074 A 
ATOM     55  C   UNL A   1      44.377  26.709  31.430  1.00  0.00     0.031 C 
ATOM     56  C   UNL A   1      43.683  27.991  33.436  1.00  0.00     0.037 A 
BRANCH  43  57
ATOM     57  C   UNL A   1      39.386  31.905  35.552  1.00  0.00     0.064 A 
ATOM     58  C   UNL A   1      38.480  31.424  36.512  1.00  0.00     0.173 A 
ATOM     59  C   UNL A   1      39.837  33.227  35.686  1.00  0.00     0.173 A 
ATOM     60  F   UNL A   1      38.004  30.172  36.424  1.00  0.00    -0.203 F 
ATOM     61  C   UNL A   1      38.015  32.244  37.537  1.00  0.00     0.198 A 
ATOM     62  C   UNL A   1      39.400  34.032  36.735  1.00  0.00     0.198 A 
ATOM     63  F   UNL A   1      40.706  33.738  34.801  1.00  0.00    -0.203 F 
ATOM     64  F   UNL A   1      37.102  31.781  38.401  1.00  0.00    -0.200 F 
ATOM     65  C   UNL A   1      38.483  33.544  37.652  1.00  0.00     0.200 A 
ATOM     66  F   UNL A   1      39.865  35.283  36.855  1.00  0.00    -0.200 F 
ATOM     67  F   UNL A   1      38.040  34.331  38.643  1.00  0.00    -0.200 F 
ENDBRANCH  43  57
BRANCH  44  68
ATOM     68  C   UNL A   1      42.436  26.532  27.688  1.00  0.00     0.064 A 
ATOM     69  C   UNL A   1      41.953  25.237  27.447  1.00  0.00     0.173 A 
ATOM     70  C   UNL A   1      43.386  27.049  26.794  1.00  0.00     0.173 A 
ATOM     71  F   UNL A   1      41.057  24.690  28.282  1.00  0.00    -0.203 F 
ATOM     72  C   UNL A   1      42.422  24.480  26.375  1.00  0.00     0.198 A 
ATOM     73  C   UNL A   1      43.831  26.303  25.705  1.00  0.00     0.198 A 
ATOM     74  F   UNL A   1      43.874  28.284  26.975  1.00  0.00    -0.203 F 
ATOM     75  F   UNL A   1      41.984  23.226  26.201  1.00  0.00    -0.200 F 
ATOM     76  C   UNL A   1      43.357  25.016  25.502  1.00  0.00     0.200 A 
ATOM     77  F   UNL A   1      44.720  26.831  24.853  1.00  0.00    -0.200 F 
ATOM     78  F   UNL A   1      43.806  24.290  24.470  1.00  0.00    -0.200 F 
ENDBRANCH  44  68
BRANCH  56  79
ATOM     79  C   UNL A   1      44.847  27.389  34.174  1.00  0.00     0.064 A 
ATOM     80  C   UNL A   1      46.102  28.016  34.223  1.00  0.00     0.173 A 
ATOM     81  C   UNL A   1      44.691  26.178  34.867  1.00  0.00     0.173 A 
ATOM     82  F   UNL A   1      46.308  29.168  33.570  1.00  0.00    -0.203 F 
ATOM     83  C   UNL A   1      47.166  27.430  34.905  1.00  0.00     0.198 A 
ATOM     84  C   UNL A   1      45.746  25.617  35.579  1.00  0.00     0.198 A 
ATOM     85  F   UNL A   1      43.509  25.543  34.862  1.00  0.00    -0.203 F 
ATOM     86  F   UNL A   1      48.373  28.014  34.884  1.00  0.00    -0.200 F 
ATOM     87  C   UNL A   1      46.986  26.237  35.588  1.00  0.00     0.200 A 
ATOM     88  F   UNL A   1      45.564  24.474  36.255  1.00  0.00    -0.200 F 
ATOM     89  F   UNL A   1      48.010  25.680  36.248  1.00  0.00    -0.200 F 
ENDBRANCH  56  79
ENDBRANCH  30  31
ENDBRANCH  22  25
ENDBRANCH  20  21
ENDBRANCH  19  20
ENDBRANCH   1  19
TORSDOF 13
ENDMDL
MODEL 3
REMARK VINA RESULT:     -11.6      4.073      7.023
REMARK SMILES CN(c1ccc(C(=O)NCCCCNC(=O)c2ccc(-c3c4nc(c(-c5c(F)c(F)c(F)c(F)c5F)c5ccc([nH]5)c(-c5c(F)c(F)c(F)c(F)c5F)c5nc(c(-c6c(F)c(F)c(F)c(F)c6F)c6ccc3[nH]6)C=C5)C=C4)cc2)cc1)S(C)(=O)=O
REMARK SMILES IDX 11 1 10 2 9 3 7 4 8 5 6 7 3 8 4 9 81 10 5 11 80 12 2 13 1 14
REMARK SMILES IDX 82 15 83 16 84 17 85 18 12 19 13 20 14 21 15 22 16 24 17 25
REMARK SMILES IDX 18 26 79 27 19 28 78 29 20 30 21 31 22 32 72 33 23 34 77 35
REMARK SMILES IDX 71 36 73 37 24 38 76 39 70 40 69 41 25 43 57 44 37 45 56 46
REMARK SMILES IDX 38 47 41 48 55 49 74 50 39 51 40 52 54 54 75 55 42 56 26 57
REMARK SMILES IDX 27 58 35 59 28 60 29 61 33 62 36 63 30 64 31 65 34 66 32 67
REMARK SMILES IDX 58 68 59 69 67 70 60 71 61 72 65 73 68 74 62 75 63 76 66 77
REMARK SMILES IDX 64 78 43 79 44 80 52 81 45 82 46 83 50 84 53 85 47 86 48 87
REMARK SMILES IDX 51 88 49 89
REMARK H PARENT 9 6 14 23 73 42 41 53
REMARK Flexibility Score: inf
ROOT
ATOM      1  C   UNL A   1      33.136  34.562  29.153  1.00  0.00     0.023 C 
ENDROOT
BRANCH   1   2
ATOM      2  C   UNL A   1      33.417  36.026  29.498  1.00  0.00     0.116 C 
BRANCH   2   3
ATOM      3  N   UNL A   1      32.574  36.450  30.595  1.00  0.00    -0.352 N 
ATOM      4  C   UNL A   1      32.570  36.124  31.925  1.00  0.00     0.251 C 
ATOM      5  O   UNL A   1      31.715  36.653  32.635  1.00  0.00    -0.269 OA
ATOM      6  H   UNL A   1      31.874  37.092  30.337  1.00  0.00     0.163 HD
BRANCH   4   7
ATOM      7  C   UNL A   1      33.582  35.223  32.551  1.00  0.00     0.039 A 
ATOM      8  C   UNL A   1      35.661  33.672  33.653  1.00  0.00     0.051 A 
ATOM      9  C   UNL A   1      35.812  35.051  33.509  1.00  0.00     0.028 A 
ATOM     10  C   UNL A   1      34.451  33.075  33.303  1.00  0.00     0.028 A 
ATOM     11  C   UNL A   1      34.782  35.819  32.961  1.00  0.00     0.016 A 
ATOM     12  C   UNL A   1      33.410  33.852  32.776  1.00  0.00     0.016 A 
BRANCH   8  13
ATOM     13  N   UNL A   1      36.754  32.893  34.145  1.00  0.00    -0.274 N 
ATOM     14  C   UNL A   1      37.049  31.593  33.528  1.00  0.00     0.163 C 
BRANCH  13  15
ATOM     15  S   UNL A   1      37.393  33.229  35.676  1.00  0.00     0.231 S 
ATOM     16  C   UNL A   1      38.169  31.684  36.096  1.00  0.00     0.183 C 
ATOM     17  O   UNL A   1      38.457  34.201  35.504  1.00  0.00    -0.207 OA
ATOM     18  O   UNL A   1      36.327  33.458  36.625  1.00  0.00    -0.207 OA
ENDBRANCH  13  15
ENDBRANCH   8  13
ENDBRANCH   4   7
ENDBRANCH   2   3
ENDBRANCH   1   2
BRANCH   1  19
ATOM     19  C   UNL A   1      34.354  33.647  29.292  1.00  0.00     0.023 C 
BRANCH  19  20
ATOM     20  C   UNL A   1      34.801  32.989  27.994  1.00  0.00     0.116 C 
BRANCH  20  21
ATOM     21  N   UNL A   1      34.010  31.819  27.646  1.00  0.00    -0.352 N 
ATOM     22  C   UNL A   1      34.397  30.502  27.637  1.00  0.00     0.251 C 
ATOM     23  H   UNL A   1      33.077  31.994  27.384  1.00  0.00     0.163 HD
ATOM     24  O   UNL A   1      33.652  29.635  27.194  1.00  0.00    -0.269 OA
BRANCH  22  25
ATOM     25  C   UNL A   1      35.739  30.149  28.139  1.00  0.00     0.039 A 
ATOM     26  C   UNL A   1      35.876  29.731  29.465  1.00  0.00     0.014 A 
ATOM     27  C   UNL A   1      36.849  30.200  27.293  1.00  0.00     0.014 A 
ATOM     28  C   UNL A   1      37.127  29.324  29.928  1.00  0.00     0.010 A 
ATOM     29  C   UNL A   1      38.071  29.706  27.729  1.00  0.00     0.010 A 
ATOM     30  C   UNL A   1      38.229  29.284  29.057  1.00  0.00    -0.014 A 
BRANCH  30  31
ATOM     31  C   UNL A   1      39.565  28.849  29.531  1.00  0.00     0.031 A 
ATOM     32  C   UNL A   1      40.305  29.677  30.545  1.00  0.00     0.074 A 
ATOM     33  C   UNL A   1      40.129  27.737  29.021  1.00  0.00     0.049 A 
ATOM     34  N   UNL A   1      41.494  29.491  31.061  1.00  0.00    -0.248 NA
ATOM     35  C   UNL A   1      39.633  30.898  31.018  1.00  0.00     0.031 C 
ATOM     36  C   UNL A   1      39.532  26.880  27.996  1.00  0.00     0.029 A 
ATOM     37  N   UNL A   1      41.334  27.141  29.294  1.00  0.00    -0.354 N 
ATOM     38  C   UNL A   1      41.712  30.573  31.905  1.00  0.00     0.074 A 
ATOM     39  C   UNL A   1      40.568  31.448  31.777  1.00  0.00     0.031 C 
ATOM     40  C   UNL A   1      40.358  25.850  27.750  1.00  0.00     0.029 A 
ATOM     41  C   UNL A   1      41.557  25.996  28.570  1.00  0.00     0.049 A 
ATOM     42  H   UNL A   1      41.977  27.500  29.947  1.00  0.00     0.167 HD
ATOM     43  C   UNL A   1      42.757  30.801  32.735  1.00  0.00     0.037 A 
ATOM     44  C   UNL A   1      42.614  25.160  28.568  1.00  0.00     0.037 A 
ATOM     45  C   UNL A   1      43.883  29.916  32.872  1.00  0.00     0.049 A 
ATOM     46  C   UNL A   1      43.766  25.439  29.495  1.00  0.00     0.074 A 
ATOM     47  C   UNL A   1      44.971  30.026  33.719  1.00  0.00     0.029 A 
ATOM     48  N   UNL A   1      44.067  28.754  32.133  1.00  0.00    -0.354 N 
ATOM     49  N   UNL A   1      43.931  26.426  30.343  1.00  0.00    -0.248 NA
ATOM     50  C   UNL A   1      44.877  24.477  29.475  1.00  0.00     0.031 C 
ATOM     51  C   UNL A   1      45.840  28.964  33.452  1.00  0.00     0.029 A 
ATOM     52  C   UNL A   1      45.262  28.152  32.491  1.00  0.00     0.049 A 
ATOM     53  H   UNL A   1      43.440  28.411  31.455  1.00  0.00     0.167 HD
ATOM     54  C   UNL A   1      45.139  26.184  30.984  1.00  0.00     0.074 A 
ATOM     55  C   UNL A   1      45.659  24.948  30.436  1.00  0.00     0.031 C 
ATOM     56  C   UNL A   1      45.759  26.914  31.944  1.00  0.00     0.037 A 
BRANCH  43  57
ATOM     57  C   UNL A   1      42.727  32.059  33.557  1.00  0.00     0.064 A 
ATOM     58  C   UNL A   1      42.109  32.105  34.818  1.00  0.00     0.173 A 
ATOM     59  C   UNL A   1      43.340  33.230  33.088  1.00  0.00     0.173 A 
ATOM     60  F   UNL A   1      41.494  31.018  35.309  1.00  0.00    -0.203 F 
ATOM     61  C   UNL A   1      42.071  33.285  35.557  1.00  0.00     0.198 A 
ATOM     62  C   UNL A   1      43.335  34.397  33.848  1.00  0.00     0.198 A 
ATOM     63  F   UNL A   1      43.950  33.243  31.893  1.00  0.00    -0.203 F 
ATOM     64  F   UNL A   1      41.420  33.319  36.727  1.00  0.00    -0.200 F 
ATOM     65  C   UNL A   1      42.692  34.427  35.075  1.00  0.00     0.200 A 
ATOM     66  F   UNL A   1      43.949  35.497  33.388  1.00  0.00    -0.200 F 
ATOM     67  F   UNL A   1      42.661  35.560  35.791  1.00  0.00    -0.200 F 
ENDBRANCH  43  57
BRANCH  44  68
ATOM     68  C   UNL A   1      42.616  23.964  27.685  1.00  0.00     0.064 A 
ATOM     69  C   UNL A   1      42.236  22.705  28.175  1.00  0.00     0.173 A 
ATOM     70  C   UNL A   1      43.006  24.048  26.340  1.00  0.00     0.173 A 
ATOM     71  F   UNL A   1      41.871  22.568  29.458  1.00  0.00    -0.203 F 
ATOM     72  C   UNL A   1      42.275  21.574  27.362  1.00  0.00     0.198 A 
ATOM     73  C   UNL A   1      43.014  22.923  25.520  1.00  0.00     0.198 A 
ATOM     74  F   UNL A   1      43.371  25.229  25.821  1.00  0.00    -0.203 F 
ATOM     75  F   UNL A   1      41.960  20.375  27.871  1.00  0.00    -0.200 F 
ATOM     76  C   UNL A   1      42.658  21.685  26.034  1.00  0.00     0.200 A 
ATOM     77  F   UNL A   1      43.367  23.036  24.233  1.00  0.00    -0.200 F 
ATOM     78  F   UNL A   1      42.693  20.597  25.252  1.00  0.00    -0.200 F 
ENDBRANCH  44  68
BRANCH  56  79
ATOM     79  C   UNL A   1      47.040  26.365  32.509  1.00  0.00     0.064 A 
ATOM     80  C   UNL A   1      48.296  26.739  32.008  1.00  0.00     0.173 A 
ATOM     81  C   UNL A   1      47.006  25.471  33.591  1.00  0.00     0.173 A 
ATOM     82  F   UNL A   1      48.385  27.582  30.968  1.00  0.00    -0.203 F 
ATOM     83  C   UNL A   1      49.466  26.207  32.542  1.00  0.00     0.198 A 
ATOM     84  C   UNL A   1      48.180  24.972  34.148  1.00  0.00     0.198 A 
ATOM     85  F   UNL A   1      45.832  25.089  34.117  1.00  0.00    -0.203 F 
ATOM     86  F   UNL A   1      50.652  26.528  32.005  1.00  0.00    -0.200 F 
ATOM     87  C   UNL A   1      49.408  25.331  33.616  1.00  0.00     0.200 A 
ATOM     88  F   UNL A   1      48.121  24.142  35.198  1.00  0.00    -0.200 F 
ATOM     89  F   UNL A   1      50.537  24.825  34.133  1.00  0.00    -0.200 F 
ENDBRANCH  56  79
ENDBRANCH  30  31
ENDBRANCH  22  25
ENDBRANCH  20  21
ENDBRANCH  19  20
ENDBRANCH   1  19
TORSDOF 13
ENDMDL
