MODEL 1
REMARK VINA RESULT:     -12.6      0.000      0.000
REMARK SMILES O=C(NCCCCNC(=O)c1ccc(Cl)cc1-c1ccc(C(F)(F)F)cc1)c1ccc(-c2c3nc(c(-c4c(F)c(F)c(F)c(F)c4F)c4ccc([nH]4)c(-c4c(F)c(F)c(F)c(F)c4F)c4nc(c(-c5c(F)c(F)c(F)c(F)c5F)c5ccc2[nH]5)C=C4)C=C3)cc1
REMARK SMILES IDX 5 1 4 2 3 3 1 4 2 5 28 7 29 8 90 9 30 10 89 11 31 12 32 13
REMARK SMILES IDX 33 14 83 15 34 16 88 17 82 18 84 19 35 20 87 21 81 22 80 23
REMARK SMILES IDX 36 25 68 26 48 27 67 28 49 29 52 30 66 31 85 32 50 33 51 34
REMARK SMILES IDX 65 36 86 37 53 38 37 39 38 40 46 41 39 42 40 43 44 44 47 45
REMARK SMILES IDX 41 46 42 47 45 48 43 49 69 50 70 51 78 52 71 53 72 54 76 55
REMARK SMILES IDX 79 56 73 57 74 58 77 59 75 60 54 61 55 62 63 63 56 64 57 65
REMARK SMILES IDX 61 66 64 67 58 68 59 69 62 70 60 71 6 72 7 73 8 74 9 75
REMARK SMILES IDX 10 77 11 78 12 79 17 80 13 81 16 82 14 83 15 84 18 85 19 86
REMARK SMILES IDX 27 87 20 88 26 89 21 90 22 91 23 92 24 93 25 94
REMARK H PARENT 3 6 84 24 52 35 8 76
REMARK Flexibility Score: inf
ROOT
ATOM      1  C   UNL A   1      38.112  19.877  24.760  1.00  0.00     0.023 C 
ENDROOT
BRANCH   1   2
ATOM      2  C   UNL A   1      39.095  20.087  25.904  1.00  0.00     0.116 C 
BRANCH   2   3
ATOM      3  N   UNL A   1      40.191  19.131  25.904  1.00  0.00    -0.352 N 
ATOM      4  O   UNL A   1      42.330  18.416  25.959  1.00  0.00    -0.269 OA
ATOM      5  C   UNL A   1      41.533  19.337  26.119  1.00  0.00     0.251 C 
ATOM      6  H   UNL A   1      39.934  18.197  25.724  1.00  0.00     0.163 HD
BRANCH   5   7
ATOM      7  C   UNL A   1      42.026  20.676  26.509  1.00  0.00     0.039 A 
ATOM      8  C   UNL A   1      42.116  21.043  27.853  1.00  0.00     0.014 A 
ATOM      9  C   UNL A   1      42.411  21.575  25.511  1.00  0.00     0.014 A 
ATOM     10  C   UNL A   1      42.439  22.352  28.192  1.00  0.00     0.010 A 
ATOM     11  C   UNL A   1      42.821  22.867  25.857  1.00  0.00     0.010 A 
ATOM     12  C   UNL A   1      42.806  23.277  27.199  1.00  0.00    -0.014 A 
BRANCH  12  13
ATOM     13  C   UNL A   1      43.226  24.644  27.599  1.00  0.00     0.031 A 
ATOM     14  C   UNL A   1      44.673  25.047  27.598  1.00  0.00     0.074 A 
ATOM     15  C   UNL A   1      42.275  25.535  27.939  1.00  0.00     0.049 A 
ATOM     16  N   UNL A   1      45.206  26.206  27.899  1.00  0.00    -0.248 NA
ATOM     17  C   UNL A   1      45.654  24.020  27.218  1.00  0.00     0.031 C 
ATOM     18  C   UNL A   1      40.839  25.252  27.989  1.00  0.00     0.029 A 
ATOM     19  N   UNL A   1      42.366  26.858  28.288  1.00  0.00    -0.354 N 
ATOM     20  C   UNL A   1      46.578  26.044  27.762  1.00  0.00     0.074 A 
ATOM     21  C   UNL A   1      46.801  24.667  27.374  1.00  0.00     0.031 C 
ATOM     22  C   UNL A   1      40.181  26.376  28.305  1.00  0.00     0.029 A 
ATOM     23  C   UNL A   1      41.148  27.442  28.536  1.00  0.00     0.049 A 
ATOM     24  H   UNL A   1      43.220  27.341  28.355  1.00  0.00     0.167 HD
ATOM     25  C   UNL A   1      47.558  26.963  27.936  1.00  0.00     0.037 A 
ATOM     26  C   UNL A   1      40.844  28.694  28.923  1.00  0.00     0.037 A 
ATOM     27  C   UNL A   1      47.328  28.338  28.306  1.00  0.00     0.049 A 
ATOM     28  C   UNL A   1      41.952  29.686  29.124  1.00  0.00     0.074 A 
ATOM     29  C   UNL A   1      48.253  29.354  28.467  1.00  0.00     0.029 A 
ATOM     30  N   UNL A   1      46.082  28.886  28.575  1.00  0.00    -0.354 N 
ATOM     31  N   UNL A   1      43.242  29.528  28.956  1.00  0.00    -0.248 NA
ATOM     32  C   UNL A   1      41.562  31.029  29.571  1.00  0.00     0.031 C 
ATOM     33  C   UNL A   1      47.572  30.507  28.877  1.00  0.00     0.029 A 
ATOM     34  C   UNL A   1      46.217  30.221  28.924  1.00  0.00     0.049 A 
ATOM     35  H   UNL A   1      45.227  28.399  28.525  1.00  0.00     0.167 HD
ATOM     36  C   UNL A   1      43.818  30.751  29.263  1.00  0.00     0.074 A 
ATOM     37  C   UNL A   1      42.733  31.649  29.606  1.00  0.00     0.031 C 
ATOM     38  C   UNL A   1      45.128  31.100  29.265  1.00  0.00     0.037 A 
BRANCH  25  39
ATOM     39  C   UNL A   1      48.978  26.516  27.744  1.00  0.00     0.064 A 
ATOM     40  C   UNL A   1      49.548  26.399  26.469  1.00  0.00     0.173 A 
ATOM     41  C   UNL A   1      49.797  26.258  28.855  1.00  0.00     0.173 A 
ATOM     42  F   UNL A   1      48.806  26.625  25.374  1.00  0.00    -0.203 F 
ATOM     43  C   UNL A   1      50.879  26.020  26.311  1.00  0.00     0.198 A 
ATOM     44  C   UNL A   1      51.134  25.904  28.694  1.00  0.00     0.198 A 
ATOM     45  F   UNL A   1      49.304  26.363  30.098  1.00  0.00    -0.203 F 
ATOM     46  F   UNL A   1      51.393  25.878  25.081  1.00  0.00    -0.200 F 
ATOM     47  C   UNL A   1      51.673  25.780  27.422  1.00  0.00     0.200 A 
ATOM     48  F   UNL A   1      51.903  25.685  29.770  1.00  0.00    -0.200 F 
ATOM     49  F   UNL A   1      52.956  25.425  27.268  1.00  0.00    -0.200 F 
ENDBRANCH  25  39
BRANCH  26  50
ATOM     50  C   UNL A   1      39.424  29.069  29.141  1.00  0.00     0.064 A 
ATOM     51  C   UNL A   1      38.848  29.000  30.416  1.00  0.00     0.173 A 
ATOM     52  C   UNL A   1      38.623  29.526  28.083  1.00  0.00     0.173 A 
ATOM     53  F   UNL A   1      39.568  28.552  31.454  1.00  0.00    -0.203 F 
ATOM     54  C   UNL A   1      37.518  29.364  30.622  1.00  0.00     0.198 A 
ATOM     55  C   UNL A   1      37.305  29.917  28.297  1.00  0.00     0.198 A 
ATOM     56  F   UNL A   1      39.132  29.615  26.846  1.00  0.00    -0.203 F 
ATOM     57  F   UNL A   1      36.980  29.255  31.844  1.00  0.00    -0.200 F 
ATOM     58  C   UNL A   1      36.751  29.829  29.565  1.00  0.00     0.200 A 
ATOM     59  F   UNL A   1      36.572  30.382  27.276  1.00  0.00    -0.200 F 
ATOM     60  F   UNL A   1      35.477  30.189  29.768  1.00  0.00    -0.200 F 
ENDBRANCH  26  50
BRANCH  38  61
ATOM     61  C   UNL A   1      45.455  32.516  29.630  1.00  0.00     0.064 A 
ATOM     62  C   UNL A   1      45.478  33.535  28.666  1.00  0.00     0.173 A 
ATOM     63  C   UNL A   1      45.724  32.863  30.962  1.00  0.00     0.173 A 
ATOM     64  F   UNL A   1      45.243  33.250  27.377  1.00  0.00    -0.203 F 
ATOM     65  C   UNL A   1      45.784  34.846  29.019  1.00  0.00     0.198 A 
ATOM     66  C   UNL A   1      46.004  34.180  31.316  1.00  0.00     0.198 A 
ATOM     67  F   UNL A   1      45.711  31.926  31.922  1.00  0.00    -0.203 F 
ATOM     68  F   UNL A   1      45.848  35.795  28.075  1.00  0.00    -0.200 F 
ATOM     69  C   UNL A   1      46.041  35.168  30.344  1.00  0.00     0.200 A 
ATOM     70  F   UNL A   1      46.242  34.492  32.597  1.00  0.00    -0.200 F 
ATOM     71  F   UNL A   1      46.334  36.432  30.682  1.00  0.00    -0.200 F 
ENDBRANCH  38  61
ENDBRANCH  12  13
ENDBRANCH   5   7
ENDBRANCH   2   3
ENDBRANCH   1   2
BRANCH   1  72
ATOM     72  C   UNL A   1      36.660  20.234  25.064  1.00  0.00     0.023 C 
BRANCH  72  73
ATOM     73  C   UNL A   1      36.432  21.624  25.648  1.00  0.00     0.116 C 
BRANCH  73  74
ATOM     74  N   UNL A   1      35.493  21.634  26.759  1.00  0.00    -0.352 N 
ATOM     75  C   UNL A   1      34.124  21.501  26.741  1.00  0.00     0.251 C 
ATOM     76  H   UNL A   1      35.894  21.752  27.651  1.00  0.00     0.163 HD
ATOM     77  O   UNL A   1      33.486  21.500  27.788  1.00  0.00    -0.269 OA
BRANCH  75  78
ATOM     78  C   UNL A   1      33.439  21.342  25.440  1.00  0.00     0.047 A 
ATOM     79  C   UNL A   1      33.240  20.032  24.969  1.00  0.00     0.016 A 
ATOM     80  C   UNL A   1      32.990  22.457  24.703  1.00  0.00    -0.004 A 
ATOM     81  C   UNL A   1      32.671  19.818  23.717  1.00  0.00     0.021 A 
ATOM     82  C   UNL A   1      32.422  22.210  23.436  1.00  0.00     0.030 A 
ATOM     83  C   UNL A   1      32.280  20.909  22.949  1.00  0.00     0.041 A 
ATOM     84  Cl  UNL A   1      31.607  20.653  21.386  1.00  0.00    -0.084 Cl
BRANCH  80  85
ATOM     85  C   UNL A   1      33.057  23.845  25.196  1.00  0.00    -0.018 A 
ATOM     86  C   UNL A   1      34.190  24.630  24.920  1.00  0.00     0.009 A 
ATOM     87  C   UNL A   1      32.022  24.421  25.946  1.00  0.00     0.009 A 
ATOM     88  C   UNL A   1      34.285  25.949  25.372  1.00  0.00     0.014 A 
ATOM     89  C   UNL A   1      32.113  25.745  26.397  1.00  0.00     0.014 A 
ATOM     90  C   UNL A   1      33.245  26.523  26.112  1.00  0.00     0.056 A 
BRANCH  90  91
ATOM     91  C   UNL A   1      33.361  27.951  26.587  1.00  0.00     0.416 C 
ATOM     92  F   UNL A   1      32.933  28.844  25.651  1.00  0.00    -0.166 F 
ATOM     93  F   UNL A   1      32.618  28.195  27.701  1.00  0.00    -0.166 F 
ATOM     94  F   UNL A   1      34.634  28.322  26.898  1.00  0.00    -0.166 F 
ENDBRANCH  90  91
ENDBRANCH  80  85
ENDBRANCH  75  78
ENDBRANCH  73  74
ENDBRANCH  72  73
ENDBRANCH   1  72
TORSDOF 13
ENDMDL
MODEL 2
REMARK VINA RESULT:     -12.6      5.574     10.495
REMARK SMILES O=C(NCCCCNC(=O)c1ccc(Cl)cc1-c1ccc(C(F)(F)F)cc1)c1ccc(-c2c3nc(c(-c4c(F)c(F)c(F)c(F)c4F)c4ccc([nH]4)c(-c4c(F)c(F)c(F)c(F)c4F)c4nc(c(-c5c(F)c(F)c(F)c(F)c5F)c5ccc2[nH]5)C=C4)C=C3)cc1
REMARK SMILES IDX 5 1 4 2 3 3 1 4 2 5 28 7 29 8 90 9 30 10 89 11 31 12 32 13
REMARK SMILES IDX 33 14 83 15 34 16 88 17 82 18 84 19 35 20 87 21 81 22 80 23
REMARK SMILES IDX 36 25 68 26 48 27 67 28 49 29 52 30 66 31 85 32 50 33 51 34
REMARK SMILES IDX 65 36 86 37 53 38 37 39 38 40 46 41 39 42 40 43 44 44 47 45
REMARK SMILES IDX 41 46 42 47 45 48 43 49 69 50 70 51 78 52 71 53 72 54 76 55
REMARK SMILES IDX 79 56 73 57 74 58 77 59 75 60 54 61 55 62 63 63 56 64 57 65
REMARK SMILES IDX 61 66 64 67 58 68 59 69 62 70 60 71 6 72 7 73 8 74 9 75
REMARK SMILES IDX 10 77 11 78 12 79 17 80 13 81 16 82 14 83 15 84 18 85 19 86
REMARK SMILES IDX 27 87 20 88 26 89 21 90 22 91 23 92 24 93 25 94
REMARK H PARENT 3 6 84 24 52 35 8 76
REMARK Flexibility Score: inf
ROOT
ATOM      1  C   UNL A   1      31.370  31.934  26.888  1.00  0.00     0.023 C 
ENDROOT
BRANCH   1   2
ATOM      2  C   UNL A   1      32.660  32.711  27.117  1.00  0.00     0.116 C 
BRANCH   2   3
ATOM      3  N   UNL A   1      32.441  34.056  27.625  1.00  0.00    -0.352 N 
ATOM      4  O   UNL A   1      32.676  35.824  29.007  1.00  0.00    -0.269 OA
ATOM      5  C   UNL A   1      33.085  34.726  28.638  1.00  0.00     0.251 C 
ATOM      6  H   UNL A   1      31.723  34.562  27.178  1.00  0.00     0.163 HD
BRANCH   5   7
ATOM      7  C   UNL A   1      34.252  34.113  29.309  1.00  0.00     0.039 A 
ATOM      8  C   UNL A   1      35.554  34.472  28.954  1.00  0.00     0.014 A 
ATOM      9  C   UNL A   1      34.037  33.169  30.317  1.00  0.00     0.014 A 
ATOM     10  C   UNL A   1      36.633  33.779  29.491  1.00  0.00     0.010 A 
ATOM     11  C   UNL A   1      35.127  32.534  30.921  1.00  0.00     0.010 A 
ATOM     12  C   UNL A   1      36.433  32.809  30.488  1.00  0.00    -0.014 A 
BRANCH  12  13
ATOM     13  C   UNL A   1      37.611  32.144  31.101  1.00  0.00     0.031 A 
ATOM     14  C   UNL A   1      38.066  32.489  32.491  1.00  0.00     0.074 A 
ATOM     15  C   UNL A   1      38.255  31.196  30.394  1.00  0.00     0.049 A 
ATOM     16  N   UNL A   1      39.061  31.988  33.180  1.00  0.00    -0.248 NA
ATOM     17  C   UNL A   1      37.315  33.535  33.200  1.00  0.00     0.031 C 
ATOM     18  C   UNL A   1      37.912  30.788  29.030  1.00  0.00     0.029 A 
ATOM     19  N   UNL A   1      39.316  30.393  30.724  1.00  0.00    -0.354 N 
ATOM     20  C   UNL A   1      39.067  32.665  34.392  1.00  0.00     0.074 A 
ATOM     21  C   UNL A   1      37.991  33.632  34.337  1.00  0.00     0.031 C 
ATOM     22  C   UNL A   1      38.717  29.784  28.656  1.00  0.00     0.029 A 
ATOM     23  C   UNL A   1      39.668  29.516  29.728  1.00  0.00     0.049 A 
ATOM     24  H   UNL A   1      39.781  30.442  31.590  1.00  0.00     0.167 HD
ATOM     25  C   UNL A   1      39.890  32.488  35.454  1.00  0.00     0.037 A 
ATOM     26  C   UNL A   1      40.658  28.607  29.676  1.00  0.00     0.037 A 
ATOM     27  C   UNL A   1      40.949  31.511  35.510  1.00  0.00     0.049 A 
ATOM     28  C   UNL A   1      41.564  28.444  30.861  1.00  0.00     0.074 A 
ATOM     29  C   UNL A   1      41.810  31.229  36.556  1.00  0.00     0.029 A 
ATOM     30  N   UNL A   1      41.292  30.658  34.470  1.00  0.00    -0.354 N 
ATOM     31  N   UNL A   1      41.536  29.068  32.014  1.00  0.00    -0.248 NA
ATOM     32  C   UNL A   1      42.642  27.456  30.737  1.00  0.00     0.031 C 
ATOM     33  C   UNL A   1      42.702  30.237  36.135  1.00  0.00     0.029 A 
ATOM     34  C   UNL A   1      42.367  29.866  34.842  1.00  0.00     0.049 A 
ATOM     35  H   UNL A   1      40.838  30.620  33.597  1.00  0.00     0.167 HD
ATOM     36  C   UNL A   1      42.580  28.540  32.757  1.00  0.00     0.074 A 
ATOM     37  C   UNL A   1      43.210  27.528  31.932  1.00  0.00     0.031 C 
ATOM     38  C   UNL A   1      42.984  28.866  34.009  1.00  0.00     0.037 A 
BRANCH  25  39
ATOM     39  C   UNL A   1      39.694  33.378  36.647  1.00  0.00     0.064 A 
ATOM     40  C   UNL A   1      40.331  34.622  36.752  1.00  0.00     0.173 A 
ATOM     41  C   UNL A   1      38.810  33.005  37.673  1.00  0.00     0.173 A 
ATOM     42  F   UNL A   1      41.193  35.021  35.804  1.00  0.00    -0.203 F 
ATOM     43  C   UNL A   1      40.108  35.452  37.848  1.00  0.00     0.198 A 
ATOM     44  C   UNL A   1      38.570  33.849  38.754  1.00  0.00     0.198 A 
ATOM     45  F   UNL A   1      38.168  31.829  37.618  1.00  0.00    -0.203 F 
ATOM     46  F   UNL A   1      40.758  36.620  37.946  1.00  0.00    -0.200 F 
ATOM     47  C   UNL A   1      39.223  35.068  38.844  1.00  0.00     0.200 A 
ATOM     48  F   UNL A   1      37.704  33.481  39.710  1.00  0.00    -0.200 F 
ATOM     49  F   UNL A   1      39.002  35.873  39.894  1.00  0.00    -0.200 F 
ENDBRANCH  25  39
BRANCH  26  50
ATOM     50  C   UNL A   1      40.833  27.784  28.453  1.00  0.00     0.064 A 
ATOM     51  C   UNL A   1      40.200  26.541  28.322  1.00  0.00     0.173 A 
ATOM     52  C   UNL A   1      41.618  28.235  27.381  1.00  0.00     0.173 A 
ATOM     53  F   UNL A   1      39.455  26.060  29.328  1.00  0.00    -0.203 F 
ATOM     54  C   UNL A   1      40.355  25.774  27.169  1.00  0.00     0.198 A 
ATOM     55  C   UNL A   1      41.749  27.481  26.218  1.00  0.00     0.198 A 
ATOM     56  F   UNL A   1      42.239  29.421  27.456  1.00  0.00    -0.203 F 
ATOM     57  F   UNL A   1      39.768  24.573  27.083  1.00  0.00    -0.200 F 
ATOM     58  C   UNL A   1      41.122  26.247  26.116  1.00  0.00     0.200 A 
ATOM     59  F   UNL A   1      42.476  27.950  25.196  1.00  0.00    -0.200 F 
ATOM     60  F   UNL A   1      41.261  25.515  25.003  1.00  0.00    -0.200 F 
ENDBRANCH  26  50
BRANCH  38  61
ATOM     61  C   UNL A   1      44.148  28.105  34.568  1.00  0.00     0.064 A 
ATOM     62  C   UNL A   1      45.463  28.577  34.438  1.00  0.00     0.173 A 
ATOM     63  C   UNL A   1      43.946  26.903  35.262  1.00  0.00     0.173 A 
ATOM     64  F   UNL A   1      45.708  29.713  33.768  1.00  0.00    -0.203 F 
ATOM     65  C   UNL A   1      46.535  27.860  34.961  1.00  0.00     0.198 A 
ATOM     66  C   UNL A   1      45.018  26.201  35.806  1.00  0.00     0.198 A 
ATOM     67  F   UNL A   1      42.707  26.411  35.416  1.00  0.00    -0.203 F 
ATOM     68  F   UNL A   1      47.786  28.305  34.783  1.00  0.00    -0.200 F 
ATOM     69  C   UNL A   1      46.311  26.677  35.649  1.00  0.00     0.200 A 
ATOM     70  F   UNL A   1      44.800  25.064  36.480  1.00  0.00    -0.200 F 
ATOM     71  F   UNL A   1      47.345  25.988  36.153  1.00  0.00    -0.200 F 
ENDBRANCH  38  61
ENDBRANCH  12  13
ENDBRANCH   5   7
ENDBRANCH   2   3
ENDBRANCH   1   2
BRANCH   1  72
ATOM     72  C   UNL A   1      31.428  30.867  25.799  1.00  0.00     0.023 C 
BRANCH  72  73
ATOM     73  C   UNL A   1      32.598  29.893  25.894  1.00  0.00     0.116 C 
BRANCH  73  74
ATOM     74  N   UNL A   1      33.285  29.696  24.626  1.00  0.00    -0.352 N 
ATOM     75  C   UNL A   1      32.884  28.980  23.523  1.00  0.00     0.251 C 
ATOM     76  H   UNL A   1      34.162  30.138  24.547  1.00  0.00     0.163 HD
ATOM     77  O   UNL A   1      33.582  28.947  22.516  1.00  0.00    -0.269 OA
BRANCH  75  78
ATOM     78  C   UNL A   1      31.590  28.265  23.567  1.00  0.00     0.047 A 
ATOM     79  C   UNL A   1      30.440  28.985  23.197  1.00  0.00     0.016 A 
ATOM     80  C   UNL A   1      31.508  26.912  23.954  1.00  0.00    -0.004 A 
ATOM     81  C   UNL A   1      29.183  28.394  23.291  1.00  0.00     0.021 A 
ATOM     82  C   UNL A   1      30.222  26.340  24.044  1.00  0.00     0.030 A 
ATOM     83  C   UNL A   1      29.079  27.078  23.730  1.00  0.00     0.041 A 
ATOM     84  Cl  UNL A   1      27.527  26.352  23.881  1.00  0.00    -0.084 Cl
BRANCH  80  85
ATOM     85  C   UNL A   1      32.684  26.068  24.234  1.00  0.00    -0.018 A 
ATOM     86  C   UNL A   1      33.240  26.052  25.526  1.00  0.00     0.009 A 
ATOM     87  C   UNL A   1      33.286  25.273  23.248  1.00  0.00     0.009 A 
ATOM     88  C   UNL A   1      34.354  25.264  25.825  1.00  0.00     0.014 A 
ATOM     89  C   UNL A   1      34.401  24.479  23.547  1.00  0.00     0.014 A 
ATOM     90  C   UNL A   1      34.945  24.464  24.839  1.00  0.00     0.056 A 
BRANCH  90  91
ATOM     91  C   UNL A   1      36.144  23.614  25.182  1.00  0.00     0.416 C 
ATOM     92  F   UNL A   1      36.937  23.378  24.098  1.00  0.00    -0.166 F 
ATOM     93  F   UNL A   1      36.949  24.194  26.113  1.00  0.00    -0.166 F 
ATOM     94  F   UNL A   1      35.821  22.388  25.680  1.00  0.00    -0.166 F 
ENDBRANCH  90  91
ENDBRANCH  80  85
ENDBRANCH  75  78
ENDBRANCH  73  74
ENDBRANCH  72  73
ENDBRANCH   1  72
TORSDOF 13
ENDMDL
MODEL 3
REMARK VINA RESULT:     -12.6      0.693      1.415
REMARK SMILES O=C(NCCCCNC(=O)c1ccc(Cl)cc1-c1ccc(C(F)(F)F)cc1)c1ccc(-c2c3nc(c(-c4c(F)c(F)c(F)c(F)c4F)c4ccc([nH]4)c(-c4c(F)c(F)c(F)c(F)c4F)c4nc(c(-c5c(F)c(F)c(F)c(F)c5F)c5ccc2[nH]5)C=C4)C=C3)cc1
REMARK SMILES IDX 5 1 4 2 3 3 1 4 2 5 28 7 29 8 90 9 30 10 89 11 31 12 32 13
REMARK SMILES IDX 33 14 83 15 34 16 88 17 82 18 84 19 35 20 87 21 81 22 80 23
REMARK SMILES IDX 36 25 68 26 48 27 67 28 49 29 52 30 66 31 85 32 50 33 51 34
REMARK SMILES IDX 65 36 86 37 53 38 37 39 38 40 46 41 39 42 40 43 44 44 47 45
REMARK SMILES IDX 41 46 42 47 45 48 43 49 69 50 70 51 78 52 71 53 72 54 76 55
REMARK SMILES IDX 79 56 73 57 74 58 77 59 75 60 54 61 55 62 63 63 56 64 57 65
REMARK SMILES IDX 61 66 64 67 58 68 59 69 62 70 60 71 6 72 7 73 8 74 9 75
REMARK SMILES IDX 10 77 11 78 12 79 17 80 13 81 16 82 14 83 15 84 18 85 19 86
REMARK SMILES IDX 27 87 20 88 26 89 21 90 22 91 23 92 24 93 25 94
REMARK H PARENT 3 6 84 24 52 35 8 76
REMARK Flexibility Score: inf
ROOT
ATOM      1  C   UNL A   1      38.171  19.825  24.752  1.00  0.00     0.023 C 
ENDROOT
BRANCH   1   2
ATOM      2  C   UNL A   1      39.126  20.028  25.921  1.00  0.00     0.116 C 
BRANCH   2   3
ATOM      3  N   UNL A   1      40.233  19.085  25.931  1.00  0.00    -0.352 N 
ATOM      4  O   UNL A   1      42.382  18.396  25.960  1.00  0.00    -0.269 OA
ATOM      5  C   UNL A   1      41.578  19.314  26.104  1.00  0.00     0.251 C 
ATOM      6  H   UNL A   1      39.982  18.142  25.793  1.00  0.00     0.163 HD
BRANCH   5   7
ATOM      7  C   UNL A   1      42.064  20.672  26.430  1.00  0.00     0.039 A 
ATOM      8  C   UNL A   1      42.316  21.045  27.751  1.00  0.00     0.014 A 
ATOM      9  C   UNL A   1      42.278  21.583  25.392  1.00  0.00     0.014 A 
ATOM     10  C   UNL A   1      42.629  22.367  28.048  1.00  0.00     0.010 A 
ATOM     11  C   UNL A   1      42.679  22.891  25.684  1.00  0.00     0.010 A 
ATOM     12  C   UNL A   1      42.825  23.303  27.018  1.00  0.00    -0.014 A 
BRANCH  12  13
ATOM     13  C   UNL A   1      43.239  24.686  27.363  1.00  0.00     0.031 A 
ATOM     14  C   UNL A   1      44.638  25.170  27.102  1.00  0.00     0.074 A 
ATOM     15  C   UNL A   1      42.322  25.519  27.893  1.00  0.00     0.049 A 
ATOM     16  N   UNL A   1      45.155  26.353  27.325  1.00  0.00    -0.248 NA
ATOM     17  C   UNL A   1      45.583  24.204  26.524  1.00  0.00     0.031 C 
ATOM     18  C   UNL A   1      40.938  25.156  28.202  1.00  0.00     0.029 A 
ATOM     19  N   UNL A   1      42.407  26.841  28.248  1.00  0.00    -0.354 N 
ATOM     20  C   UNL A   1      46.484  26.270  26.932  1.00  0.00     0.074 A 
ATOM     21  C   UNL A   1      46.703  24.912  26.479  1.00  0.00     0.031 C 
ATOM     22  C   UNL A   1      40.292  26.238  28.660  1.00  0.00     0.029 A 
ATOM     23  C   UNL A   1      41.228  27.353  28.730  1.00  0.00     0.049 A 
ATOM     24  H   UNL A   1      43.232  27.370  28.165  1.00  0.00     0.167 HD
ATOM     25  C   UNL A   1      47.429  27.240  26.941  1.00  0.00     0.037 A 
ATOM     26  C   UNL A   1      40.935  28.582  29.194  1.00  0.00     0.037 A 
ATOM     27  C   UNL A   1      47.201  28.596  27.377  1.00  0.00     0.049 A 
ATOM     28  C   UNL A   1      42.007  29.632  29.208  1.00  0.00     0.074 A 
ATOM     29  C   UNL A   1      48.084  29.661  27.386  1.00  0.00     0.029 A 
ATOM     30  N   UNL A   1      45.999  29.070  27.885  1.00  0.00    -0.354 N 
ATOM     31  N   UNL A   1      43.251  29.548  28.800  1.00  0.00    -0.248 NA
ATOM     32  C   UNL A   1      41.638  30.945  29.749  1.00  0.00     0.031 C 
ATOM     33  C   UNL A   1      47.432  30.768  27.940  1.00  0.00     0.029 A 
ATOM     34  C   UNL A   1      46.126  30.406  28.232  1.00  0.00     0.049 A 
ATOM     35  H   UNL A   1      45.177  28.537  27.983  1.00  0.00     0.167 HD
ATOM     36  C   UNL A   1      43.808  30.798  29.022  1.00  0.00     0.074 A 
ATOM     37  C   UNL A   1      42.760  31.629  29.580  1.00  0.00     0.031 C 
ATOM     38  C   UNL A   1      45.075  31.219  28.788  1.00  0.00     0.037 A 
BRANCH  25  39
ATOM     39  C   UNL A   1      48.810  26.876  26.479  1.00  0.00     0.064 A 
ATOM     40  C   UNL A   1      49.763  26.336  27.354  1.00  0.00     0.173 A 
ATOM     41  C   UNL A   1      49.167  27.017  25.128  1.00  0.00     0.173 A 
ATOM     42  F   UNL A   1      49.476  26.189  28.657  1.00  0.00    -0.203 F 
ATOM     43  C   UNL A   1      51.027  25.967  26.900  1.00  0.00     0.198 A 
ATOM     44  C   UNL A   1      50.423  26.624  24.673  1.00  0.00     0.198 A 
ATOM     45  F   UNL A   1      48.291  27.522  24.246  1.00  0.00    -0.203 F 
ATOM     46  F   UNL A   1      51.934  25.488  27.762  1.00  0.00    -0.200 F 
ATOM     47  C   UNL A   1      51.354  26.106  25.560  1.00  0.00     0.200 A 
ATOM     48  F   UNL A   1      50.732  26.747  23.374  1.00  0.00    -0.200 F 
ATOM     49  F   UNL A   1      52.567  25.742  25.122  1.00  0.00    -0.200 F 
ENDBRANCH  25  39
BRANCH  26  50
ATOM     50  C   UNL A   1      39.564  28.874  29.680  1.00  0.00     0.064 A 
ATOM     51  C   UNL A   1      39.205  28.639  31.014  1.00  0.00     0.173 A 
ATOM     52  C   UNL A   1      38.591  29.417  28.826  1.00  0.00     0.173 A 
ATOM     53  F   UNL A   1      40.095  28.104  31.862  1.00  0.00    -0.203 F 
ATOM     54  C   UNL A   1      37.921  28.925  31.473  1.00  0.00     0.198 A 
ATOM     55  C   UNL A   1      37.318  29.730  29.294  1.00  0.00     0.198 A 
ATOM     56  F   UNL A   1      38.889  29.665  27.543  1.00  0.00    -0.203 F 
ATOM     57  F   UNL A   1      37.592  28.657  32.744  1.00  0.00    -0.200 F 
ATOM     58  C   UNL A   1      36.981  29.476  30.615  1.00  0.00     0.200 A 
ATOM     59  F   UNL A   1      36.419  30.279  28.466  1.00  0.00    -0.200 F 
ATOM     60  F   UNL A   1      35.751  29.762  31.061  1.00  0.00    -0.200 F 
ENDBRANCH  26  50
BRANCH  38  61
ATOM     61  C   UNL A   1      45.389  32.647  29.117  1.00  0.00     0.064 A 
ATOM     62  C   UNL A   1      45.175  33.678  28.190  1.00  0.00     0.173 A 
ATOM     63  C   UNL A   1      45.887  32.992  30.382  1.00  0.00     0.173 A 
ATOM     64  F   UNL A   1      44.716  33.395  26.961  1.00  0.00    -0.203 F 
ATOM     65  C   UNL A   1      45.472  34.999  28.508  1.00  0.00     0.198 A 
ATOM     66  C   UNL A   1      46.158  34.319  30.707  1.00  0.00     0.198 A 
ATOM     67  F   UNL A   1      46.106  32.044  31.306  1.00  0.00    -0.203 F 
ATOM     68  F   UNL A   1      45.305  35.961  27.591  1.00  0.00    -0.200 F 
ATOM     69  C   UNL A   1      45.958  35.319  29.768  1.00  0.00     0.200 A 
ATOM     70  F   UNL A   1      46.617  34.628  31.927  1.00  0.00    -0.200 F 
ATOM     71  F   UNL A   1      46.241  36.593  30.074  1.00  0.00    -0.200 F 
ENDBRANCH  38  61
ENDBRANCH  12  13
ENDBRANCH   5   7
ENDBRANCH   2   3
ENDBRANCH   1   2
BRANCH   1  72
ATOM     72  C   UNL A   1      36.705  20.141  25.036  1.00  0.00     0.023 C 
BRANCH  72  73
ATOM     73  C   UNL A   1      36.423  21.549  25.547  1.00  0.00     0.116 C 
BRANCH  73  74
ATOM     74  N   UNL A   1      35.495  21.578  26.667  1.00  0.00    -0.352 N 
ATOM     75  C   UNL A   1      34.124  21.466  26.663  1.00  0.00     0.251 C 
ATOM     76  H   UNL A   1      35.907  21.693  27.555  1.00  0.00     0.163 HD
ATOM     77  O   UNL A   1      33.497  21.479  27.716  1.00  0.00    -0.269 OA
BRANCH  75  78
ATOM     78  C   UNL A   1      33.424  21.314  25.370  1.00  0.00     0.047 A 
ATOM     79  C   UNL A   1      33.225  20.007  24.891  1.00  0.00     0.016 A 
ATOM     80  C   UNL A   1      32.961  22.432  24.646  1.00  0.00    -0.004 A 
ATOM     81  C   UNL A   1      32.642  19.799  23.645  1.00  0.00     0.021 A 
ATOM     82  C   UNL A   1      32.378  22.192  23.385  1.00  0.00     0.030 A 
ATOM     83  C   UNL A   1      32.236  20.894  22.889  1.00  0.00     0.041 A 
ATOM     84  Cl  UNL A   1      31.545  20.646  21.334  1.00  0.00    -0.084 Cl
BRANCH  80  85
ATOM     85  C   UNL A   1      33.027  23.817  25.149  1.00  0.00    -0.018 A 
ATOM     86  C   UNL A   1      34.202  24.570  24.970  1.00  0.00     0.009 A 
ATOM     87  C   UNL A   1      31.952  24.422  25.814  1.00  0.00     0.009 A 
ATOM     88  C   UNL A   1      34.297  25.884  25.434  1.00  0.00     0.014 A 
ATOM     89  C   UNL A   1      32.044  25.742  26.277  1.00  0.00     0.014 A 
ATOM     90  C   UNL A   1      33.217  26.487  26.089  1.00  0.00     0.056 A 
BRANCH  90  91
ATOM     91  C   UNL A   1      33.335  27.910  26.578  1.00  0.00     0.416 C 
ATOM     92  F   UNL A   1      34.632  28.324  26.655  1.00  0.00    -0.166 F 
ATOM     93  F   UNL A   1      32.709  28.800  25.760  1.00  0.00    -0.166 F 
ATOM     94  F   UNL A   1      32.808  28.108  27.818  1.00  0.00    -0.166 F 
ENDBRANCH  90  91
ENDBRANCH  80  85
ENDBRANCH  75  78
ENDBRANCH  73  74
ENDBRANCH  72  73
ENDBRANCH   1  72
TORSDOF 13
ENDMDL
