MODEL 1
REMARK VINA RESULT:     -12.4      0.000      0.000
REMARK SMILES CC(=O)Nc1cnc(N(C)CCc2cn[nH]c2)c(C(=O)NCCCCNC(=O)c2ccc(-c3c4nc(c(-c5c(F)c(F)c(F)c(F)c5F)c5ccc([nH]5)c(-c5c(F)c(F)c(F)c(F)c5F)c5nc(c(-c6c(F)c(F)c(F)c(F)c6F)c6ccc3[nH]6)C=C5)C=C4)cc2)c1
REMARK SMILES IDX 22 1 21 2 19 3 20 4 18 6 5 7 6 8 92 9 7 10 8 11 4 12 1 13
REMARK SMILES IDX 2 14 3 15 9 17 10 18 11 19 12 20 13 21 14 22 17 23 15 24
REMARK SMILES IDX 16 25 23 27 24 28 25 29 26 30 27 31 28 33 29 34 30 35 91 36
REMARK SMILES IDX 31 37 90 38 32 39 33 40 34 41 84 42 35 43 89 44 83 45 85 46
REMARK SMILES IDX 36 47 88 48 82 49 81 50 37 52 69 53 49 54 68 55 50 56 53 57
REMARK SMILES IDX 67 58 86 59 51 60 52 61 66 63 87 64 54 65 38 66 39 67 47 68
REMARK SMILES IDX 40 69 41 70 45 71 48 72 42 73 43 74 46 75 44 76 70 77 71 78
REMARK SMILES IDX 79 79 72 80 73 81 77 82 80 83 74 84 75 85 78 86 76 87 55 88
REMARK SMILES IDX 56 89 64 90 57 91 58 92 62 93 65 94 59 95 60 96 63 97 61 98
REMARK H PARENT 21 5 4 16 16 26 26 32 85 51 53 62
REMARK Flexibility Score: inf
ROOT
ATOM      1  C   UNL A   1      36.224  21.435  25.141  1.00  0.00     0.116 C 
ENDROOT
BRANCH   1   2
ATOM      2  N   UNL A   1      35.334  21.519  26.280  1.00  0.00    -0.352 N 
ATOM      3  C   UNL A   1      33.990  21.257  26.406  1.00  0.00     0.255 C 
ATOM      4  O   UNL A   1      33.406  21.764  27.364  1.00  0.00    -0.269 OA
ATOM      5  H   UNL A   1      35.768  21.818  27.112  1.00  0.00     0.163 HD
BRANCH   3   6
ATOM      6  C   UNL A   1      33.253  20.395  25.453  1.00  0.00     0.084 A 
ATOM      7  C   UNL A   1      32.559  18.148  24.840  1.00  0.00     0.060 A 
ATOM      8  C   UNL A   1      32.232  18.657  23.606  1.00  0.00     0.139 A 
ATOM      9  C   UNL A   1      33.157  19.018  25.739  1.00  0.00     0.045 A 
ATOM     10  N   UNL A   1      32.319  19.970  23.298  1.00  0.00    -0.236 NA
ATOM     11  C   UNL A   1      32.779  20.873  24.214  1.00  0.00     0.141 A 
BRANCH   7  12
ATOM     12  N   UNL A   1      32.359  16.794  25.135  1.00  0.00    -0.325 N 
ATOM     13  C   UNL A   1      34.748  16.151  24.982  1.00  0.00     0.114 C 
ATOM     14  C   UNL A   1      33.286  15.786  25.071  1.00  0.00     0.221 C 
ATOM     15  O   UNL A   1      32.926  14.615  25.179  1.00  0.00    -0.275 OA
ATOM     16  H   UNL A   1      31.451  16.538  25.419  1.00  0.00     0.169 HD
ENDBRANCH   7  12
BRANCH  11  17
ATOM     17  N   UNL A   1      32.657  22.193  23.821  1.00  0.00    -0.359 N 
ATOM     18  C   UNL A   1      31.436  22.907  24.192  1.00  0.00     0.145 C 
BRANCH  17  19
ATOM     19  C   UNL A   1      33.669  22.985  23.105  1.00  0.00     0.122 C 
BRANCH  19  20
ATOM     20  C   UNL A   1      33.994  24.332  23.765  1.00  0.00     0.060 C 
BRANCH  20  21
ATOM     21  C   UNL A   1      33.594  25.546  22.996  1.00  0.00    -0.008 A 
ATOM     22  C   UNL A   1      33.703  26.896  23.403  1.00  0.00     0.138 A 
ATOM     23  C   UNL A   1      32.992  25.623  21.758  1.00  0.00     0.108 A 
ATOM     24  N   UNL A   1      33.249  27.750  22.482  1.00  0.00    -0.184 NA
ATOM     25  N   UNL A   1      32.777  26.949  21.516  1.00  0.00    -0.285 N 
ATOM     26  H   UNL A   1      32.321  27.285  20.712  1.00  0.00     0.189 HD
ENDBRANCH  20  21
ENDBRANCH  19  20
ENDBRANCH  17  19
ENDBRANCH  11  17
ENDBRANCH   3   6
ENDBRANCH   1   2
BRANCH   1  27
ATOM     27  C   UNL A   1      36.750  20.003  25.028  1.00  0.00     0.023 C 
BRANCH  27  28
ATOM     28  C   UNL A   1      38.231  19.957  24.645  1.00  0.00     0.023 C 
BRANCH  28  29
ATOM     29  C   UNL A   1      39.182  20.194  25.815  1.00  0.00     0.116 C 
BRANCH  29  30
ATOM     30  N   UNL A   1      40.173  19.137  25.951  1.00  0.00    -0.352 N 
ATOM     31  C   UNL A   1      41.526  19.256  26.146  1.00  0.00     0.251 C 
ATOM     32  H   UNL A   1      39.828  18.217  25.899  1.00  0.00     0.163 HD
ATOM     33  O   UNL A   1      42.262  18.278  26.070  1.00  0.00    -0.269 OA
BRANCH  31  34
ATOM     34  C   UNL A   1      42.084  20.590  26.426  1.00  0.00     0.039 A 
ATOM     35  C   UNL A   1      42.373  21.440  25.359  1.00  0.00     0.014 A 
ATOM     36  C   UNL A   1      42.261  21.009  27.747  1.00  0.00     0.014 A 
ATOM     37  C   UNL A   1      42.785  22.746  25.622  1.00  0.00     0.010 A 
ATOM     38  C   UNL A   1      42.594  22.332  28.006  1.00  0.00     0.010 A 
ATOM     39  C   UNL A   1      42.864  23.211  26.945  1.00  0.00    -0.014 A 
BRANCH  39  40
ATOM     40  C   UNL A   1      43.222  24.619  27.238  1.00  0.00     0.031 A 
ATOM     41  C   UNL A   1      44.616  25.112  26.978  1.00  0.00     0.074 A 
ATOM     42  C   UNL A   1      42.307  25.431  27.800  1.00  0.00     0.049 A 
ATOM     43  N   UNL A   1      45.130  26.294  27.200  1.00  0.00    -0.248 NA
ATOM     44  C   UNL A   1      45.568  24.137  26.423  1.00  0.00     0.031 C 
ATOM     45  C   UNL A   1      40.942  25.044  28.162  1.00  0.00     0.029 A 
ATOM     46  N   UNL A   1      42.390  26.748  28.175  1.00  0.00    -0.354 N 
ATOM     47  C   UNL A   1      46.464  26.201  26.827  1.00  0.00     0.074 A 
ATOM     48  C   UNL A   1      46.696  24.831  26.425  1.00  0.00     0.031 C 
ATOM     49  C   UNL A   1      40.308  26.107  28.681  1.00  0.00     0.029 A 
ATOM     50  C   UNL A   1      41.229  27.239  28.719  1.00  0.00     0.049 A 
ATOM     51  H   UNL A   1      43.204  27.291  28.063  1.00  0.00     0.167 HD
ATOM     52  C   UNL A   1      47.403  27.176  26.799  1.00  0.00     0.037 A 
ATOM     53  C   UNL A   1      40.941  28.464  29.197  1.00  0.00     0.037 A 
ATOM     54  C   UNL A   1      47.156  28.543  27.180  1.00  0.00     0.049 A 
ATOM     55  C   UNL A   1      41.996  29.536  29.143  1.00  0.00     0.074 A 
ATOM     56  C   UNL A   1      48.014  29.625  27.114  1.00  0.00     0.029 A 
ATOM     57  N   UNL A   1      45.960  29.010  27.707  1.00  0.00    -0.354 N 
ATOM     58  N   UNL A   1      43.229  29.460  28.704  1.00  0.00    -0.248 NA
ATOM     59  C   UNL A   1      41.616  30.863  29.642  1.00  0.00     0.031 C 
ATOM     60  C   UNL A   1      47.357  30.736  27.653  1.00  0.00     0.029 A 
ATOM     61  C   UNL A   1      46.069  30.360  28.001  1.00  0.00     0.049 A 
ATOM     62  H   UNL A   1      45.154  28.464  27.852  1.00  0.00     0.167 HD
ATOM     63  C   UNL A   1      43.765  30.732  28.852  1.00  0.00     0.074 A 
ATOM     64  C   UNL A   1      42.716  31.564  29.404  1.00  0.00     0.031 C 
ATOM     65  C   UNL A   1      45.015  31.171  28.558  1.00  0.00     0.037 A 
BRANCH  52  66
ATOM     66  C   UNL A   1      48.782  26.794  26.343  1.00  0.00     0.064 A 
ATOM     67  C   UNL A   1      49.716  26.214  27.216  1.00  0.00     0.173 A 
ATOM     68  C   UNL A   1      49.172  26.999  25.011  1.00  0.00     0.173 A 
ATOM     69  F   UNL A   1      49.399  26.007  28.504  1.00  0.00    -0.203 F 
ATOM     70  C   UNL A   1      50.999  25.892  26.783  1.00  0.00     0.198 A 
ATOM     71  C   UNL A   1      50.445  26.643  24.573  1.00  0.00     0.198 A 
ATOM     72  F   UNL A   1      48.319  27.545  24.133  1.00  0.00    -0.203 F 
ATOM     73  F   UNL A   1      51.894  25.399  27.653  1.00  0.00    -0.200 F 
ATOM     74  C   UNL A   1      51.362  26.101  25.462  1.00  0.00     0.200 A 
ATOM     75  F   UNL A   1      50.789  26.834  23.292  1.00  0.00    -0.200 F 
ATOM     76  F   UNL A   1      52.597  25.790  25.046  1.00  0.00    -0.200 F 
ENDBRANCH  52  66
BRANCH  53  77
ATOM     77  C   UNL A   1      39.586  28.745  29.735  1.00  0.00     0.064 A 
ATOM     78  C   UNL A   1      39.279  28.499  31.080  1.00  0.00     0.173 A 
ATOM     79  C   UNL A   1      38.577  29.283  28.923  1.00  0.00     0.173 A 
ATOM     80  F   UNL A   1      40.206  27.968  31.891  1.00  0.00    -0.203 F 
ATOM     81  C   UNL A   1      38.011  28.768  31.590  1.00  0.00     0.198 A 
ATOM     82  C   UNL A   1      37.317  29.578  29.441  1.00  0.00     0.198 A 
ATOM     83  F   UNL A   1      38.822  29.544  27.631  1.00  0.00    -0.203 F 
ATOM     84  F   UNL A   1      37.733  28.489  32.871  1.00  0.00    -0.200 F 
ATOM     85  C   UNL A   1      37.033  29.314  30.772  1.00  0.00     0.200 A 
ATOM     86  F   UNL A   1      36.381  30.122  28.652  1.00  0.00    -0.200 F 
ATOM     87  F   UNL A   1      35.816  29.583  31.265  1.00  0.00    -0.200 F 
ENDBRANCH  53  77
BRANCH  65  88
ATOM     88  C   UNL A   1      45.308  32.622  28.810  1.00  0.00     0.064 A 
ATOM     89  C   UNL A   1      45.038  33.607  27.848  1.00  0.00     0.173 A 
ATOM     90  C   UNL A   1      45.833  33.037  30.044  1.00  0.00     0.173 A 
ATOM     91  F   UNL A   1      44.549  33.261  26.647  1.00  0.00    -0.203 F 
ATOM     92  C   UNL A   1      45.311  34.949  28.100  1.00  0.00     0.198 A 
ATOM     93  C   UNL A   1      46.074  34.383  30.305  1.00  0.00     0.198 A 
ATOM     94  F   UNL A   1      46.102  32.137  31.002  1.00  0.00    -0.203 F 
ATOM     95  F   UNL A   1      45.096  35.865  27.146  1.00  0.00    -0.200 F 
ATOM     96  C   UNL A   1      45.822  35.337  29.329  1.00  0.00     0.200 A 
ATOM     97  F   UNL A   1      46.553  34.758  31.499  1.00  0.00    -0.200 F 
ATOM     98  F   UNL A   1      46.078  36.629  29.573  1.00  0.00    -0.200 F 
ENDBRANCH  65  88
ENDBRANCH  39  40
ENDBRANCH  31  34
ENDBRANCH  29  30
ENDBRANCH  28  29
ENDBRANCH  27  28
ENDBRANCH   1  27
TORSDOF 16
ENDMDL
MODEL 2
REMARK VINA RESULT:     -12.4      5.891     11.309
REMARK SMILES CC(=O)Nc1cnc(N(C)CCc2cn[nH]c2)c(C(=O)NCCCCNC(=O)c2ccc(-c3c4nc(c(-c5c(F)c(F)c(F)c(F)c5F)c5ccc([nH]5)c(-c5c(F)c(F)c(F)c(F)c5F)c5nc(c(-c6c(F)c(F)c(F)c(F)c6F)c6ccc3[nH]6)C=C5)C=C4)cc2)c1
REMARK SMILES IDX 22 1 21 2 19 3 20 4 18 6 5 7 6 8 92 9 7 10 8 11 4 12 1 13
REMARK SMILES IDX 2 14 3 15 9 17 10 18 11 19 12 20 13 21 14 22 17 23 15 24
REMARK SMILES IDX 16 25 23 27 24 28 25 29 26 30 27 31 28 33 29 34 30 35 91 36
REMARK SMILES IDX 31 37 90 38 32 39 33 40 34 41 84 42 35 43 89 44 83 45 85 46
REMARK SMILES IDX 36 47 88 48 82 49 81 50 37 52 69 53 49 54 68 55 50 56 53 57
REMARK SMILES IDX 67 58 86 59 51 60 52 61 66 63 87 64 54 65 38 66 39 67 47 68
REMARK SMILES IDX 40 69 41 70 45 71 48 72 42 73 43 74 46 75 44 76 70 77 71 78
REMARK SMILES IDX 79 79 72 80 73 81 77 82 80 83 74 84 75 85 78 86 76 87 55 88
REMARK SMILES IDX 56 89 64 90 57 91 58 92 62 93 65 94 59 95 60 96 63 97 61 98
REMARK H PARENT 21 5 4 16 16 26 26 32 85 51 53 62
REMARK Flexibility Score: inf
ROOT
ATOM      1  C   UNL A   1      32.687  29.889  26.501  1.00  0.00     0.116 C 
ENDROOT
BRANCH   1   2
ATOM      2  N   UNL A   1      33.516  29.500  25.379  1.00  0.00    -0.352 N 
ATOM      3  C   UNL A   1      33.263  28.687  24.300  1.00  0.00     0.255 C 
ATOM      4  O   UNL A   1      34.236  28.222  23.707  1.00  0.00    -0.269 OA
ATOM      5  H   UNL A   1      34.422  29.885  25.393  1.00  0.00     0.163 HD
BRANCH   3   6
ATOM      6  C   UNL A   1      31.889  28.377  23.839  1.00  0.00     0.084 A 
ATOM      7  C   UNL A   1      29.961  29.075  22.536  1.00  0.00     0.060 A 
ATOM      8  C   UNL A   1      29.246  28.104  23.196  1.00  0.00     0.139 A 
ATOM      9  C   UNL A   1      31.276  29.264  22.932  1.00  0.00     0.045 A 
ATOM     10  N   UNL A   1      29.803  27.244  24.077  1.00  0.00    -0.236 NA
ATOM     11  C   UNL A   1      31.131  27.320  24.385  1.00  0.00     0.141 A 
BRANCH   7  12
ATOM     12  N   UNL A   1      29.354  29.877  21.563  1.00  0.00    -0.325 N 
ATOM     13  C   UNL A   1      28.420  31.534  23.154  1.00  0.00     0.114 C 
ATOM     14  C   UNL A   1      28.504  30.934  21.772  1.00  0.00     0.221 C 
ATOM     15  O   UNL A   1      27.900  31.431  20.822  1.00  0.00    -0.275 OA
ATOM     16  H   UNL A   1      29.559  29.658  20.624  1.00  0.00     0.169 HD
ENDBRANCH   7  12
BRANCH  11  17
ATOM     17  N   UNL A   1      31.594  26.278  25.167  1.00  0.00    -0.359 N 
ATOM     18  C   UNL A   1      31.693  26.498  26.609  1.00  0.00     0.145 C 
BRANCH  17  19
ATOM     19  C   UNL A   1      31.950  24.931  24.699  1.00  0.00     0.122 C 
BRANCH  19  20
ATOM     20  C   UNL A   1      33.282  24.861  23.941  1.00  0.00     0.060 C 
BRANCH  20  21
ATOM     21  C   UNL A   1      33.179  24.714  22.459  1.00  0.00    -0.008 A 
ATOM     22  C   UNL A   1      32.979  25.740  21.506  1.00  0.00     0.138 A 
ATOM     23  C   UNL A   1      33.204  23.561  21.702  1.00  0.00     0.108 A 
ATOM     24  N   UNL A   1      32.927  25.277  20.254  1.00  0.00    -0.184 NA
ATOM     25  N   UNL A   1      33.016  23.948  20.407  1.00  0.00    -0.285 N 
ATOM     26  H   UNL A   1      32.951  23.314  19.657  1.00  0.00     0.189 HD
ENDBRANCH  20  21
ENDBRANCH  19  20
ENDBRANCH  17  19
ENDBRANCH  11  17
ENDBRANCH   3   6
ENDBRANCH   1   2
BRANCH   1  27
ATOM     27  C   UNL A   1      31.615  30.864  26.009  1.00  0.00     0.023 C 
BRANCH  27  28
ATOM     28  C   UNL A   1      31.417  32.041  26.966  1.00  0.00     0.023 C 
BRANCH  28  29
ATOM     29  C   UNL A   1      32.698  32.811  27.275  1.00  0.00     0.116 C 
BRANCH  29  30
ATOM     30  N   UNL A   1      32.443  34.201  27.624  1.00  0.00    -0.352 N 
ATOM     31  C   UNL A   1      33.027  34.954  28.611  1.00  0.00     0.251 C 
ATOM     32  H   UNL A   1      31.764  34.661  27.081  1.00  0.00     0.163 HD
ATOM     33  O   UNL A   1      32.590  36.062  28.901  1.00  0.00    -0.269 OA
BRANCH  31  34
ATOM     34  C   UNL A   1      34.183  34.395  29.334  1.00  0.00     0.039 A 
ATOM     35  C   UNL A   1      33.959  33.624  30.474  1.00  0.00     0.014 A 
ATOM     36  C   UNL A   1      35.476  34.592  28.841  1.00  0.00     0.014 A 
ATOM     37  C   UNL A   1      35.038  32.992  31.090  1.00  0.00     0.010 A 
ATOM     38  C   UNL A   1      36.536  33.898  29.409  1.00  0.00     0.010 A 
ATOM     39  C   UNL A   1      36.328  33.096  30.542  1.00  0.00    -0.014 A 
BRANCH  39  40
ATOM     40  C   UNL A   1      37.470  32.365  31.138  1.00  0.00     0.031 A 
ATOM     41  C   UNL A   1      37.969  32.733  32.506  1.00  0.00     0.074 A 
ATOM     42  C   UNL A   1      38.098  31.416  30.418  1.00  0.00     0.049 A 
ATOM     43  N   UNL A   1      38.974  32.237  33.181  1.00  0.00    -0.248 NA
ATOM     44  C   UNL A   1      37.264  33.826  33.193  1.00  0.00     0.031 C 
ATOM     45  C   UNL A   1      37.746  31.021  29.053  1.00  0.00     0.029 A 
ATOM     46  N   UNL A   1      39.169  30.618  30.731  1.00  0.00    -0.354 N 
ATOM     47  C   UNL A   1      39.030  32.965  34.362  1.00  0.00     0.074 A 
ATOM     48  C   UNL A   1      38.001  33.977  34.284  1.00  0.00     0.031 C 
ATOM     49  C   UNL A   1      38.568  30.038  28.656  1.00  0.00     0.029 A 
ATOM     50  C   UNL A   1      39.524  29.756  29.723  1.00  0.00     0.049 A 
ATOM     51  H   UNL A   1      39.638  30.659  31.595  1.00  0.00     0.167 HD
ATOM     52  C   UNL A   1      39.850  32.787  35.425  1.00  0.00     0.037 A 
ATOM     53  C   UNL A   1      40.511  28.843  29.666  1.00  0.00     0.037 A 
ATOM     54  C   UNL A   1      40.857  31.761  35.502  1.00  0.00     0.049 A 
ATOM     55  C   UNL A   1      41.402  28.654  30.864  1.00  0.00     0.074 A 
ATOM     56  C   UNL A   1      41.687  31.444  36.562  1.00  0.00     0.029 A 
ATOM     57  N   UNL A   1      41.176  30.890  34.469  1.00  0.00    -0.354 N 
ATOM     58  N   UNL A   1      41.388  29.287  32.012  1.00  0.00    -0.248 NA
ATOM     59  C   UNL A   1      42.437  27.618  30.761  1.00  0.00     0.031 C 
ATOM     60  C   UNL A   1      42.546  30.419  36.153  1.00  0.00     0.029 A 
ATOM     61  C   UNL A   1      42.213  30.056  34.857  1.00  0.00     0.049 A 
ATOM     62  H   UNL A   1      40.732  30.869  33.591  1.00  0.00     0.167 HD
ATOM     63  C   UNL A   1      42.395  28.713  32.776  1.00  0.00     0.074 A 
ATOM     64  C   UNL A   1      42.987  27.667  31.967  1.00  0.00     0.031 C 
ATOM     65  C   UNL A   1      42.794  29.024  34.035  1.00  0.00     0.037 A 
BRANCH  52  66
ATOM     66  C   UNL A   1      39.690  33.727  36.585  1.00  0.00     0.064 A 
ATOM     67  C   UNL A   1      38.890  33.406  37.693  1.00  0.00     0.173 A 
ATOM     68  C   UNL A   1      40.356  34.962  36.597  1.00  0.00     0.173 A 
ATOM     69  F   UNL A   1      38.220  32.243  37.728  1.00  0.00    -0.203 F 
ATOM     70  C   UNL A   1      38.730  34.301  38.747  1.00  0.00     0.198 A 
ATOM     71  C   UNL A   1      40.222  35.840  37.669  1.00  0.00     0.198 A 
ATOM     72  F   UNL A   1      41.138  35.318  35.567  1.00  0.00    -0.203 F 
ATOM     73  F   UNL A   1      37.908  33.998  39.763  1.00  0.00    -0.200 F 
ATOM     74  C   UNL A   1      39.401  35.514  38.738  1.00  0.00     0.200 A 
ATOM     75  F   UNL A   1      40.882  37.007  37.665  1.00  0.00    -0.200 F 
ATOM     76  F   UNL A   1      39.247  36.375  39.753  1.00  0.00    -0.200 F 
ENDBRANCH  52  66
BRANCH  53  77
ATOM     77  C   UNL A   1      40.683  28.019  28.442  1.00  0.00     0.064 A 
ATOM     78  C   UNL A   1      40.060  26.769  28.321  1.00  0.00     0.173 A 
ATOM     79  C   UNL A   1      41.454  28.472  27.361  1.00  0.00     0.173 A 
ATOM     80  F   UNL A   1      39.327  26.287  29.335  1.00  0.00    -0.203 F 
ATOM     81  C   UNL A   1      40.213  25.997  27.171  1.00  0.00     0.198 A 
ATOM     82  C   UNL A   1      41.583  27.711  26.201  1.00  0.00     0.198 A 
ATOM     83  F   UNL A   1      42.064  29.664  27.424  1.00  0.00    -0.203 F 
ATOM     84  F   UNL A   1      39.637  24.790  27.096  1.00  0.00    -0.200 F 
ATOM     85  C   UNL A   1      40.968  26.471  26.110  1.00  0.00     0.200 A 
ATOM     86  F   UNL A   1      42.300  28.181  25.171  1.00  0.00    -0.200 F 
ATOM     87  F   UNL A   1      41.106  25.734  25.000  1.00  0.00    -0.200 F 
ENDBRANCH  53  77
BRANCH  65  88
ATOM     88  C   UNL A   1      43.912  28.210  34.620  1.00  0.00     0.064 A 
ATOM     89  C   UNL A   1      45.248  28.631  34.544  1.00  0.00     0.173 A 
ATOM     90  C   UNL A   1      43.640  27.010  35.295  1.00  0.00     0.173 A 
ATOM     91  F   UNL A   1      45.564  29.764  33.896  1.00  0.00    -0.203 F 
ATOM     92  C   UNL A   1      46.273  27.866  35.096  1.00  0.00     0.198 A 
ATOM     93  C   UNL A   1      44.663  26.265  35.874  1.00  0.00     0.198 A 
ATOM     94  F   UNL A   1      42.379  26.566  35.403  1.00  0.00    -0.203 F 
ATOM     95  F   UNL A   1      47.546  28.262  34.964  1.00  0.00    -0.200 F 
ATOM     96  C   UNL A   1      45.979  26.689  35.766  1.00  0.00     0.200 A 
ATOM     97  F   UNL A   1      44.375  25.135  36.536  1.00  0.00    -0.200 F 
ATOM     98  F   UNL A   1      46.965  25.958  36.303  1.00  0.00    -0.200 F 
ENDBRANCH  65  88
ENDBRANCH  39  40
ENDBRANCH  31  34
ENDBRANCH  29  30
ENDBRANCH  28  29
ENDBRANCH  27  28
ENDBRANCH   1  27
TORSDOF 16
ENDMDL
MODEL 3
REMARK VINA RESULT:     -12.3      5.605     10.988
REMARK SMILES CC(=O)Nc1cnc(N(C)CCc2cn[nH]c2)c(C(=O)NCCCCNC(=O)c2ccc(-c3c4nc(c(-c5c(F)c(F)c(F)c(F)c5F)c5ccc([nH]5)c(-c5c(F)c(F)c(F)c(F)c5F)c5nc(c(-c6c(F)c(F)c(F)c(F)c6F)c6ccc3[nH]6)C=C5)C=C4)cc2)c1
REMARK SMILES IDX 22 1 21 2 19 3 20 4 18 6 5 7 6 8 92 9 7 10 8 11 4 12 1 13
REMARK SMILES IDX 2 14 3 15 9 17 10 18 11 19 12 20 13 21 14 22 17 23 15 24
REMARK SMILES IDX 16 25 23 27 24 28 25 29 26 30 27 31 28 33 29 34 30 35 91 36
REMARK SMILES IDX 31 37 90 38 32 39 33 40 34 41 84 42 35 43 89 44 83 45 85 46
REMARK SMILES IDX 36 47 88 48 82 49 81 50 37 52 69 53 49 54 68 55 50 56 53 57
REMARK SMILES IDX 67 58 86 59 51 60 52 61 66 63 87 64 54 65 38 66 39 67 47 68
REMARK SMILES IDX 40 69 41 70 45 71 48 72 42 73 43 74 46 75 44 76 70 77 71 78
REMARK SMILES IDX 79 79 72 80 73 81 77 82 80 83 74 84 75 85 78 86 76 87 55 88
REMARK SMILES IDX 56 89 64 90 57 91 58 92 62 93 65 94 59 95 60 96 63 97 61 98
REMARK H PARENT 21 5 4 16 16 26 26 32 85 51 53 62
REMARK Flexibility Score: inf
ROOT
ATOM      1  C   UNL A   1      32.509  29.950  26.038  1.00  0.00     0.116 C 
ENDROOT
BRANCH   1   2
ATOM      2  N   UNL A   1      31.892  28.931  26.863  1.00  0.00    -0.352 N 
ATOM      3  C   UNL A   1      31.554  27.626  26.595  1.00  0.00     0.255 C 
ATOM      4  O   UNL A   1      30.712  27.104  27.325  1.00  0.00    -0.269 OA
ATOM      5  H   UNL A   1      31.676  29.227  27.776  1.00  0.00     0.163 HD
BRANCH   3   6
ATOM      6  C   UNL A   1      32.171  26.852  25.493  1.00  0.00     0.084 A 
ATOM      7  C   UNL A   1      34.032  25.481  24.745  1.00  0.00     0.060 A 
ATOM      8  C   UNL A   1      33.582  25.686  23.462  1.00  0.00     0.139 A 
ATOM      9  C   UNL A   1      33.362  26.148  25.759  1.00  0.00     0.045 A 
ATOM     10  N   UNL A   1      32.449  26.362  23.174  1.00  0.00    -0.236 NA
ATOM     11  C   UNL A   1      31.692  26.916  24.167  1.00  0.00     0.141 A 
BRANCH   7  12
ATOM     12  N   UNL A   1      35.162  24.692  24.993  1.00  0.00    -0.325 N 
ATOM     13  C   UNL A   1      33.967  22.945  26.284  1.00  0.00     0.114 C 
ATOM     14  C   UNL A   1      35.244  23.597  25.816  1.00  0.00     0.221 C 
ATOM     15  O   UNL A   1      36.343  23.113  26.081  1.00  0.00    -0.275 OA
ATOM     16  H   UNL A   1      35.988  24.952  24.525  1.00  0.00     0.169 HD
ENDBRANCH   7  12
BRANCH  11  17
ATOM     17  N   UNL A   1      30.481  27.429  23.741  1.00  0.00    -0.359 N 
ATOM     18  C   UNL A   1      29.295  26.585  23.876  1.00  0.00     0.145 C 
BRANCH  17  19
ATOM     19  C   UNL A   1      30.248  28.780  23.210  1.00  0.00     0.122 C 
BRANCH  19  20
ATOM     20  C   UNL A   1      28.769  29.112  22.966  1.00  0.00     0.060 C 
BRANCH  20  21
ATOM     21  C   UNL A   1      28.482  30.506  22.518  1.00  0.00    -0.008 A 
ATOM     22  C   UNL A   1      28.289  31.648  23.331  1.00  0.00     0.138 A 
ATOM     23  C   UNL A   1      28.293  30.979  21.236  1.00  0.00     0.108 A 
ATOM     24  N   UNL A   1      28.044  32.751  22.620  1.00  0.00    -0.184 NA
ATOM     25  N   UNL A   1      28.002  32.307  21.356  1.00  0.00    -0.285 N 
ATOM     26  H   UNL A   1      27.783  32.884  20.589  1.00  0.00     0.189 HD
ENDBRANCH  20  21
ENDBRANCH  19  20
ENDBRANCH  17  19
ENDBRANCH  11  17
ENDBRANCH   3   6
ENDBRANCH   1   2
BRANCH   1  27
ATOM     27  C   UNL A   1      31.497  31.071  25.795  1.00  0.00     0.023 C 
BRANCH  27  28
ATOM     28  C   UNL A   1      31.399  32.032  26.982  1.00  0.00     0.023 C 
BRANCH  28  29
ATOM     29  C   UNL A   1      32.681  32.812  27.256  1.00  0.00     0.116 C 
BRANCH  29  30
ATOM     30  N   UNL A   1      32.424  34.197  27.621  1.00  0.00    -0.352 N 
ATOM     31  C   UNL A   1      33.004  34.937  28.620  1.00  0.00     0.251 C 
ATOM     32  H   UNL A   1      31.747  34.664  27.080  1.00  0.00     0.163 HD
ATOM     33  O   UNL A   1      32.564  36.041  28.922  1.00  0.00    -0.269 OA
BRANCH  31  34
ATOM     34  C   UNL A   1      34.155  34.370  29.342  1.00  0.00     0.039 A 
ATOM     35  C   UNL A   1      33.932  33.661  30.522  1.00  0.00     0.014 A 
ATOM     36  C   UNL A   1      35.442  34.495  28.811  1.00  0.00     0.014 A 
ATOM     37  C   UNL A   1      35.002  33.018  31.142  1.00  0.00     0.010 A 
ATOM     38  C   UNL A   1      36.490  33.789  29.387  1.00  0.00     0.010 A 
ATOM     39  C   UNL A   1      36.280  33.048  30.560  1.00  0.00    -0.014 A 
BRANCH  39  40
ATOM     40  C   UNL A   1      37.410  32.303  31.164  1.00  0.00     0.031 A 
ATOM     41  C   UNL A   1      37.893  32.654  32.542  1.00  0.00     0.074 A 
ATOM     42  C   UNL A   1      38.040  31.357  30.442  1.00  0.00     0.049 A 
ATOM     43  N   UNL A   1      38.885  32.144  33.225  1.00  0.00    -0.248 NA
ATOM     44  C   UNL A   1      37.187  33.744  33.231  1.00  0.00     0.031 C 
ATOM     45  C   UNL A   1      37.704  30.979  29.069  1.00  0.00     0.029 A 
ATOM     46  N   UNL A   1      39.102  30.549  30.761  1.00  0.00    -0.354 N 
ATOM     47  C   UNL A   1      38.931  32.859  34.414  1.00  0.00     0.074 A 
ATOM     48  C   UNL A   1      37.910  33.879  34.333  1.00  0.00     0.031 C 
ATOM     49  C   UNL A   1      38.525  29.994  28.672  1.00  0.00     0.029 A 
ATOM     50  C   UNL A   1      39.464  29.695  29.749  1.00  0.00     0.049 A 
ATOM     51  H   UNL A   1      39.560  30.577  31.632  1.00  0.00     0.167 HD
ATOM     52  C   UNL A   1      39.735  32.665  35.486  1.00  0.00     0.037 A 
ATOM     53  C   UNL A   1      40.446  28.775  29.696  1.00  0.00     0.037 A 
ATOM     54  C   UNL A   1      40.735  31.631  35.566  1.00  0.00     0.049 A 
ATOM     55  C   UNL A   1      41.319  28.568  30.903  1.00  0.00     0.074 A 
ATOM     56  C   UNL A   1      41.547  31.297  36.633  1.00  0.00     0.029 A 
ATOM     57  N   UNL A   1      41.061  30.768  34.528  1.00  0.00    -0.354 N 
ATOM     58  N   UNL A   1      41.295  29.189  32.057  1.00  0.00    -0.248 NA
ATOM     59  C   UNL A   1      42.348  27.525  30.804  1.00  0.00     0.031 C 
ATOM     60  C   UNL A   1      42.405  30.270  36.225  1.00  0.00     0.029 A 
ATOM     61  C   UNL A   1      42.086  29.923  34.921  1.00  0.00     0.049 A 
ATOM     62  H   UNL A   1      40.628  30.759  33.644  1.00  0.00     0.167 HD
ATOM     63  C   UNL A   1      42.287  28.600  32.829  1.00  0.00     0.074 A 
ATOM     64  C   UNL A   1      42.883  27.558  32.017  1.00  0.00     0.031 C 
ATOM     65  C   UNL A   1      42.672  28.896  34.096  1.00  0.00     0.037 A 
BRANCH  52  66
ATOM     66  C   UNL A   1      39.566  33.593  36.654  1.00  0.00     0.064 A 
ATOM     67  C   UNL A   1      38.768  33.257  37.758  1.00  0.00     0.173 A 
ATOM     68  C   UNL A   1      40.223  34.834  36.676  1.00  0.00     0.173 A 
ATOM     69  F   UNL A   1      38.107  32.088  37.782  1.00  0.00    -0.203 F 
ATOM     70  C   UNL A   1      38.599  34.142  38.819  1.00  0.00     0.198 A 
ATOM     71  C   UNL A   1      40.080  35.701  37.756  1.00  0.00     0.198 A 
ATOM     72  F   UNL A   1      41.003  35.205  35.650  1.00  0.00    -0.203 F 
ATOM     73  F   UNL A   1      37.779  33.824  39.831  1.00  0.00    -0.200 F 
ATOM     74  C   UNL A   1      39.260  35.361  38.821  1.00  0.00     0.200 A 
ATOM     75  F   UNL A   1      40.731  36.874  37.762  1.00  0.00    -0.200 F 
ATOM     76  F   UNL A   1      39.099  36.211  39.843  1.00  0.00    -0.200 F 
ENDBRANCH  52  66
BRANCH  53  77
ATOM     77  C   UNL A   1      40.628  27.963  28.466  1.00  0.00     0.064 A 
ATOM     78  C   UNL A   1      40.034  26.700  28.341  1.00  0.00     0.173 A 
ATOM     79  C   UNL A   1      41.381  28.439  27.382  1.00  0.00     0.173 A 
ATOM     80  F   UNL A   1      39.319  26.194  29.358  1.00  0.00    -0.203 F 
ATOM     81  C   UNL A   1      40.196  25.938  27.186  1.00  0.00     0.198 A 
ATOM     82  C   UNL A   1      41.520  27.689  26.217  1.00  0.00     0.198 A 
ATOM     83  F   UNL A   1      41.964  29.645  27.449  1.00  0.00    -0.203 F 
ATOM     84  F   UNL A   1      39.648  24.718  27.107  1.00  0.00    -0.200 F 
ATOM     85  C   UNL A   1      40.933  26.436  26.122  1.00  0.00     0.200 A 
ATOM     86  F   UNL A   1      42.218  28.181  25.185  1.00  0.00    -0.200 F 
ATOM     87  F   UNL A   1      41.080  25.708  25.007  1.00  0.00    -0.200 F 
ENDBRANCH  53  77
BRANCH  65  88
ATOM     88  C   UNL A   1      43.776  28.068  34.687  1.00  0.00     0.064 A 
ATOM     89  C   UNL A   1      45.116  28.480  34.634  1.00  0.00     0.173 A 
ATOM     90  C   UNL A   1      43.487  26.862  35.345  1.00  0.00     0.173 A 
ATOM     91  F   UNL A   1      45.448  29.618  34.003  1.00  0.00    -0.203 F 
ATOM     92  C   UNL A   1      46.128  27.703  35.191  1.00  0.00     0.198 A 
ATOM     93  C   UNL A   1      44.497  26.104  35.931  1.00  0.00     0.198 A 
ATOM     94  F   UNL A   1      42.222  26.426  35.432  1.00  0.00    -0.203 F 
ATOM     95  F   UNL A   1      47.405  28.091  35.081  1.00  0.00    -0.200 F 
ATOM     96  C   UNL A   1      45.818  26.520  35.845  1.00  0.00     0.200 A 
ATOM     97  F   UNL A   1      44.193  24.970  36.576  1.00  0.00    -0.200 F 
ATOM     98  F   UNL A   1      46.791  25.777  36.387  1.00  0.00    -0.200 F 
ENDBRANCH  65  88
ENDBRANCH  39  40
ENDBRANCH  31  34
ENDBRANCH  29  30
ENDBRANCH  28  29
ENDBRANCH  27  28
ENDBRANCH   1  27
TORSDOF 16
ENDMDL
