MODEL 1
REMARK VINA RESULT:     -12.3      0.000      0.000
REMARK SMILES Cn1c(SCC(=O)NCCCCNC(=O)c2ccc(-c3c4nc(c(-c5c(F)c(F)c(F)c(F)c5F)c5ccc([nH]5)c(-c5c(F)c(F)c(F)c(F)c5F)c5nc(c(-c6c(F)c(F)c(F)c(F)c6F)c6ccc3[nH]6)C=C5)C=C4)cc2)nnc1-c1ccccc1Br
REMARK SMILES IDX 10 1 9 2 8 3 6 4 7 5 5 7 4 8 3 9 1 10 2 11 81 12 79 13 80 14
REMARK SMILES IDX 82 15 83 16 87 17 84 18 86 19 88 20 85 21 11 22 12 23 13 24
REMARK SMILES IDX 14 25 15 27 16 28 17 29 78 30 18 31 77 32 19 33 20 34 21 35
REMARK SMILES IDX 71 36 22 37 76 38 70 39 72 40 23 41 75 42 69 43 68 44 24 46
REMARK SMILES IDX 56 47 36 48 55 49 37 50 40 51 54 52 73 53 38 54 39 55 53 57
REMARK SMILES IDX 74 58 41 59 25 60 26 61 34 62 27 63 28 64 32 65 35 66 29 67
REMARK SMILES IDX 30 68 33 69 31 70 57 71 58 72 66 73 59 74 60 75 64 76 67 77
REMARK SMILES IDX 61 78 62 79 65 80 63 81 42 82 43 83 51 84 44 85 45 86 49 87
REMARK SMILES IDX 52 88 46 89 47 90 50 91 48 92
REMARK H PARENT 8 6 13 26 72 45 40 56
REMARK Flexibility Score: inf
ROOT
ATOM      1  C   UNL A   1      31.779  30.517  26.874  1.00  0.00     0.023 C 
ENDROOT
BRANCH   1   2
ATOM      2  C   UNL A   1      32.145  29.912  25.520  1.00  0.00     0.116 C 
BRANCH   2   3
ATOM      3  N   UNL A   1      31.065  30.047  24.563  1.00  0.00    -0.355 N 
ATOM      4  C   UNL A   1      30.580  29.149  23.668  1.00  0.00     0.230 C 
ATOM      5  O   UNL A   1      29.603  29.488  22.996  1.00  0.00    -0.274 OA
ATOM      6  H   UNL A   1      30.615  30.923  24.561  1.00  0.00     0.163 HD
BRANCH   4   7
ATOM      7  C   UNL A   1      31.131  27.746  23.563  1.00  0.00     0.178 C 
BRANCH   7   8
ATOM      8  S   UNL A   1      32.683  27.542  22.701  1.00  0.00    -0.076 SA
BRANCH   8   9
ATOM      9  C   UNL A   1      33.218  25.902  22.699  1.00  0.00     0.191 A 
ATOM     10  C   UNL A   1      34.285  25.533  24.982  1.00  0.00     0.154 C 
ATOM     11  N   UNL A   1      33.883  25.176  23.649  1.00  0.00    -0.305 N 
ATOM     12  C   UNL A   1      34.171  23.956  23.058  1.00  0.00     0.165 A 
ATOM     13  N   UNL A   1      33.134  25.184  21.597  1.00  0.00    -0.123 NA
ATOM     14  N   UNL A   1      33.739  23.975  21.815  1.00  0.00    -0.129 NA
BRANCH  12  15
ATOM     15  C   UNL A   1      34.898  22.859  23.688  1.00  0.00     0.034 A 
ATOM     16  C   UNL A   1      36.300  22.852  23.600  1.00  0.00     0.013 A 
ATOM     17  C   UNL A   1      34.260  21.828  24.396  1.00  0.00     0.029 A 
ATOM     18  C   UNL A   1      37.051  21.865  24.240  1.00  0.00     0.001 A 
ATOM     19  C   UNL A   1      35.015  20.841  25.040  1.00  0.00     0.016 A 
ATOM     20  Br  UNL A   1      32.366  21.692  24.509  1.00  0.00    -0.050 Br
ATOM     21  C   UNL A   1      36.408  20.866  24.969  1.00  0.00     0.001 A 
ENDBRANCH  12  15
ENDBRANCH   8   9
ENDBRANCH   7   8
ENDBRANCH   4   7
ENDBRANCH   2   3
ENDBRANCH   1   2
BRANCH   1  22
ATOM     22  C   UNL A   1      31.488  32.023  26.857  1.00  0.00     0.023 C 
BRANCH  22  23
ATOM     23  C   UNL A   1      32.705  32.939  26.950  1.00  0.00     0.116 C 
BRANCH  23  24
ATOM     24  N   UNL A   1      32.418  34.208  27.598  1.00  0.00    -0.352 N 
ATOM     25  C   UNL A   1      33.031  34.809  28.666  1.00  0.00     0.251 C 
ATOM     26  H   UNL A   1      31.669  34.714  27.209  1.00  0.00     0.163 HD
ATOM     27  O   UNL A   1      32.558  35.849  29.129  1.00  0.00    -0.269 OA
BRANCH  25  28
ATOM     28  C   UNL A   1      34.231  34.214  29.296  1.00  0.00     0.039 A 
ATOM     29  C   UNL A   1      34.048  33.275  30.316  1.00  0.00     0.014 A 
ATOM     30  C   UNL A   1      35.524  34.587  28.920  1.00  0.00     0.014 A 
ATOM     31  C   UNL A   1      35.156  32.674  30.918  1.00  0.00     0.010 A 
ATOM     32  C   UNL A   1      36.628  33.934  29.471  1.00  0.00     0.010 A 
ATOM     33  C   UNL A   1      36.456  32.974  30.480  1.00  0.00    -0.014 A 
BRANCH  33  34
ATOM     34  C   UNL A   1      37.631  32.280  31.069  1.00  0.00     0.031 A 
ATOM     35  C   UNL A   1      38.124  32.637  32.445  1.00  0.00     0.074 A 
ATOM     36  C   UNL A   1      38.275  31.343  30.347  1.00  0.00     0.049 A 
ATOM     37  N   UNL A   1      39.126  32.132  33.121  1.00  0.00    -0.248 NA
ATOM     38  C   UNL A   1      37.415  33.719  33.144  1.00  0.00     0.031 C 
ATOM     39  C   UNL A   1      37.932  30.946  28.981  1.00  0.00     0.029 A 
ATOM     40  N   UNL A   1      39.354  30.553  30.660  1.00  0.00    -0.354 N 
ATOM     41  C   UNL A   1      39.170  32.837  34.318  1.00  0.00     0.074 A 
ATOM     42  C   UNL A   1      38.132  33.843  34.251  1.00  0.00     0.031 C 
ATOM     43  C   UNL A   1      38.759  29.965  28.586  1.00  0.00     0.029 A 
ATOM     44  C   UNL A   1      39.711  29.686  29.658  1.00  0.00     0.049 A 
ATOM     45  H   UNL A   1      39.826  30.604  31.523  1.00  0.00     0.167 HD
ATOM     46  C   UNL A   1      39.982  32.644  35.385  1.00  0.00     0.037 A 
ATOM     47  C   UNL A   1      40.693  28.765  29.607  1.00  0.00     0.037 A 
ATOM     48  C   UNL A   1      41.004  31.631  35.456  1.00  0.00     0.049 A 
ATOM     49  C   UNL A   1      41.577  28.570  30.808  1.00  0.00     0.074 A 
ATOM     50  C   UNL A   1      41.843  31.323  36.513  1.00  0.00     0.029 A 
ATOM     51  N   UNL A   1      41.329  30.763  34.424  1.00  0.00    -0.354 N 
ATOM     52  N   UNL A   1      41.558  29.190  31.962  1.00  0.00    -0.248 NA
ATOM     53  C   UNL A   1      42.615  27.534  30.702  1.00  0.00     0.031 C 
ATOM     54  C   UNL A   1      42.708  30.302  36.104  1.00  0.00     0.029 A 
ATOM     55  C   UNL A   1      42.370  29.933  34.812  1.00  0.00     0.049 A 
ATOM     56  H   UNL A   1      40.885  30.739  33.545  1.00  0.00     0.167 HD
ATOM     57  C   UNL A   1      42.557  28.603  32.729  1.00  0.00     0.074 A 
ATOM     58  C   UNL A   1      43.148  27.562  31.914  1.00  0.00     0.031 C 
ATOM     59  C   UNL A   1      42.949  28.899  33.992  1.00  0.00     0.037 A 
BRANCH  46  60
ATOM     60  C   UNL A   1      39.796  33.550  36.570  1.00  0.00     0.064 A 
ATOM     61  C   UNL A   1      40.483  34.768  36.680  1.00  0.00     0.173 A 
ATOM     62  C   UNL A   1      38.893  33.215  37.590  1.00  0.00     0.173 A 
ATOM     63  F   UNL A   1      41.367  35.133  35.738  1.00  0.00    -0.203 F 
ATOM     64  C   UNL A   1      40.296  35.602  37.779  1.00  0.00     0.198 A 
ATOM     65  C   UNL A   1      38.683  34.066  38.672  1.00  0.00     0.198 A 
ATOM     66  F   UNL A   1      38.203  32.065  37.533  1.00  0.00    -0.203 F 
ATOM     67  F   UNL A   1      41.002  36.737  37.888  1.00  0.00    -0.200 F 
ATOM     68  C   UNL A   1      39.391  35.254  38.771  1.00  0.00     0.200 A 
ATOM     69  F   UNL A   1      37.798  33.735  39.622  1.00  0.00    -0.200 F 
ATOM     70  F   UNL A   1      39.206  36.061  39.825  1.00  0.00    -0.200 F 
ENDBRANCH  46  60
BRANCH  47  71
ATOM     71  C   UNL A   1      40.867  27.931  28.389  1.00  0.00     0.064 A 
ATOM     72  C   UNL A   1      40.240  26.682  28.276  1.00  0.00     0.173 A 
ATOM     73  C   UNL A   1      41.670  28.357  27.322  1.00  0.00     0.173 A 
ATOM     74  F   UNL A   1      39.479  26.221  29.280  1.00  0.00    -0.203 F 
ATOM     75  C   UNL A   1      40.428  25.882  27.151  1.00  0.00     0.198 A 
ATOM     76  C   UNL A   1      41.832  27.569  26.184  1.00  0.00     0.198 A 
ATOM     77  F   UNL A   1      42.289  29.545  27.379  1.00  0.00    -0.203 F 
ATOM     78  F   UNL A   1      39.857  24.670  27.091  1.00  0.00    -0.200 F 
ATOM     79  C   UNL A   1      41.219  26.328  26.104  1.00  0.00     0.200 A 
ATOM     80  F   UNL A   1      42.587  28.010  25.169  1.00  0.00    -0.200 F 
ATOM     81  F   UNL A   1      41.398  25.558  25.022  1.00  0.00    -0.200 F 
ENDBRANCH  47  71
BRANCH  59  82
ATOM     82  C   UNL A   1      44.049  28.063  34.582  1.00  0.00     0.064 A 
ATOM     83  C   UNL A   1      43.783  26.868  35.267  1.00  0.00     0.173 A 
ATOM     84  C   UNL A   1      45.389  28.458  34.450  1.00  0.00     0.173 A 
ATOM     85  F   UNL A   1      42.518  26.453  35.434  1.00  0.00    -0.203 F 
ATOM     86  C   UNL A   1      44.814  26.121  35.831  1.00  0.00     0.198 A 
ATOM     87  C   UNL A   1      46.419  27.691  34.985  1.00  0.00     0.198 A 
ATOM     88  F   UNL A   1      45.700  29.588  33.797  1.00  0.00    -0.203 F 
ATOM     89  F   UNL A   1      44.530  25.016  36.535  1.00  0.00    -0.200 F 
ATOM     90  C   UNL A   1      46.131  26.529  35.685  1.00  0.00     0.200 A 
ATOM     91  F   UNL A   1      47.692  28.080  34.830  1.00  0.00    -0.200 F 
ATOM     92  F   UNL A   1      47.122  25.809  36.229  1.00  0.00    -0.200 F 
ENDBRANCH  59  82
ENDBRANCH  33  34
ENDBRANCH  25  28
ENDBRANCH  23  24
ENDBRANCH  22  23
ENDBRANCH   1  22
TORSDOF 14
ENDMDL
MODEL 2
REMARK VINA RESULT:     -12.3      0.090      1.604
REMARK SMILES Cn1c(SCC(=O)NCCCCNC(=O)c2ccc(-c3c4nc(c(-c5c(F)c(F)c(F)c(F)c5F)c5ccc([nH]5)c(-c5c(F)c(F)c(F)c(F)c5F)c5nc(c(-c6c(F)c(F)c(F)c(F)c6F)c6ccc3[nH]6)C=C5)C=C4)cc2)nnc1-c1ccccc1Br
REMARK SMILES IDX 10 1 9 2 8 3 6 4 7 5 5 7 4 8 3 9 1 10 2 11 81 12 79 13 80 14
REMARK SMILES IDX 82 15 83 16 87 17 84 18 86 19 88 20 85 21 11 22 12 23 13 24
REMARK SMILES IDX 14 25 15 27 16 28 17 29 78 30 18 31 77 32 19 33 20 34 21 35
REMARK SMILES IDX 71 36 22 37 76 38 70 39 72 40 23 41 75 42 69 43 68 44 24 46
REMARK SMILES IDX 56 47 36 48 55 49 37 50 40 51 54 52 73 53 38 54 39 55 53 57
REMARK SMILES IDX 74 58 41 59 25 60 26 61 34 62 27 63 28 64 32 65 35 66 29 67
REMARK SMILES IDX 30 68 33 69 31 70 57 71 58 72 66 73 59 74 60 75 64 76 67 77
REMARK SMILES IDX 61 78 62 79 65 80 63 81 42 82 43 83 51 84 44 85 45 86 49 87
REMARK SMILES IDX 52 88 46 89 47 90 50 91 48 92
REMARK H PARENT 8 6 13 26 72 45 40 56
REMARK Flexibility Score: inf
ROOT
ATOM      1  C   UNL A   1      31.778  30.506  26.931  1.00  0.00     0.023 C 
ENDROOT
BRANCH   1   2
ATOM      2  C   UNL A   1      32.060  29.786  25.613  1.00  0.00     0.116 C 
BRANCH   2   3
ATOM      3  N   UNL A   1      31.033  30.052  24.626  1.00  0.00    -0.355 N 
ATOM      4  C   UNL A   1      30.554  29.257  23.636  1.00  0.00     0.230 C 
ATOM      5  O   UNL A   1      29.624  29.697  22.954  1.00  0.00    -0.274 OA
ATOM      6  H   UNL A   1      30.621  30.945  24.681  1.00  0.00     0.163 HD
BRANCH   4   7
ATOM      7  C   UNL A   1      31.048  27.844  23.432  1.00  0.00     0.178 C 
BRANCH   7   8
ATOM      8  S   UNL A   1      32.639  27.644  22.641  1.00  0.00    -0.076 SA
BRANCH   8   9
ATOM      9  C   UNL A   1      33.167  26.002  22.644  1.00  0.00     0.191 A 
ATOM     10  C   UNL A   1      34.189  25.620  24.946  1.00  0.00     0.154 C 
ATOM     11  N   UNL A   1      33.810  25.270  23.604  1.00  0.00    -0.305 N 
ATOM     12  C   UNL A   1      34.104  24.050  23.014  1.00  0.00     0.165 A 
ATOM     13  N   UNL A   1      33.101  25.288  21.538  1.00  0.00    -0.123 NA
ATOM     14  N   UNL A   1      33.696  24.076  21.763  1.00  0.00    -0.129 NA
BRANCH  12  15
ATOM     15  C   UNL A   1      34.815  22.948  23.655  1.00  0.00     0.034 A 
ATOM     16  C   UNL A   1      36.215  22.914  23.559  1.00  0.00     0.013 A 
ATOM     17  C   UNL A   1      34.161  21.938  24.378  1.00  0.00     0.029 A 
ATOM     18  C   UNL A   1      36.952  21.921  24.208  1.00  0.00     0.001 A 
ATOM     19  C   UNL A   1      34.901  20.945  25.030  1.00  0.00     0.016 A 
ATOM     20  Br  UNL A   1      32.266  21.838  24.503  1.00  0.00    -0.050 Br
ATOM     21  C   UNL A   1      36.295  20.943  24.952  1.00  0.00     0.001 A 
ENDBRANCH  12  15
ENDBRANCH   8   9
ENDBRANCH   7   8
ENDBRANCH   4   7
ENDBRANCH   2   3
ENDBRANCH   1   2
BRANCH   1  22
ATOM     22  C   UNL A   1      31.504  32.009  26.806  1.00  0.00     0.023 C 
BRANCH  22  23
ATOM     23  C   UNL A   1      32.719  32.923  26.938  1.00  0.00     0.116 C 
BRANCH  23  24
ATOM     24  N   UNL A   1      32.418  34.186  27.589  1.00  0.00    -0.352 N 
ATOM     25  C   UNL A   1      33.022  34.789  28.662  1.00  0.00     0.251 C 
ATOM     26  H   UNL A   1      31.666  34.687  27.200  1.00  0.00     0.163 HD
ATOM     27  O   UNL A   1      32.537  35.823  29.127  1.00  0.00    -0.269 OA
BRANCH  25  28
ATOM     28  C   UNL A   1      34.225  34.204  29.294  1.00  0.00     0.039 A 
ATOM     29  C   UNL A   1      34.048  33.294  30.341  1.00  0.00     0.014 A 
ATOM     30  C   UNL A   1      35.516  34.557  28.893  1.00  0.00     0.014 A 
ATOM     31  C   UNL A   1      35.159  32.702  30.946  1.00  0.00     0.010 A 
ATOM     32  C   UNL A   1      36.622  33.912  29.448  1.00  0.00     0.010 A 
ATOM     33  C   UNL A   1      36.455  32.981  30.485  1.00  0.00    -0.014 A 
BRANCH  33  34
ATOM     34  C   UNL A   1      37.633  32.296  31.079  1.00  0.00     0.031 A 
ATOM     35  C   UNL A   1      38.130  32.669  32.449  1.00  0.00     0.074 A 
ATOM     36  C   UNL A   1      38.277  31.351  30.366  1.00  0.00     0.049 A 
ATOM     37  N   UNL A   1      39.134  32.173  33.129  1.00  0.00    -0.248 NA
ATOM     38  C   UNL A   1      37.420  33.757  33.138  1.00  0.00     0.031 C 
ATOM     39  C   UNL A   1      37.931  30.938  29.005  1.00  0.00     0.029 A 
ATOM     40  N   UNL A   1      39.357  30.566  30.686  1.00  0.00    -0.354 N 
ATOM     41  C   UNL A   1      39.179  32.892  34.317  1.00  0.00     0.074 A 
ATOM     42  C   UNL A   1      38.140  33.895  34.241  1.00  0.00     0.031 C 
ATOM     43  C   UNL A   1      38.758  29.954  28.620  1.00  0.00     0.029 A 
ATOM     44  C   UNL A   1      39.713  29.688  29.692  1.00  0.00     0.049 A 
ATOM     45  H   UNL A   1      39.832  30.627  31.547  1.00  0.00     0.167 HD
ATOM     46  C   UNL A   1      39.995  32.712  35.384  1.00  0.00     0.037 A 
ATOM     47  C   UNL A   1      40.696  28.768  29.650  1.00  0.00     0.037 A 
ATOM     48  C   UNL A   1      41.018  31.701  35.465  1.00  0.00     0.049 A 
ATOM     49  C   UNL A   1      41.584  28.588  30.851  1.00  0.00     0.074 A 
ATOM     50  C   UNL A   1      41.860  31.406  36.523  1.00  0.00     0.029 A 
ATOM     51  N   UNL A   1      41.341  30.822  34.442  1.00  0.00    -0.354 N 
ATOM     52  N   UNL A   1      41.567  29.221  31.998  1.00  0.00    -0.248 NA
ATOM     53  C   UNL A   1      42.622  27.552  30.754  1.00  0.00     0.031 C 
ATOM     54  C   UNL A   1      42.725  30.382  36.124  1.00  0.00     0.029 A 
ATOM     55  C   UNL A   1      42.384  29.997  34.837  1.00  0.00     0.049 A 
ATOM     56  H   UNL A   1      40.895  30.787  33.564  1.00  0.00     0.167 HD
ATOM     57  C   UNL A   1      42.568  28.644  32.769  1.00  0.00     0.074 A 
ATOM     58  C   UNL A   1      43.159  27.595  31.964  1.00  0.00     0.031 C 
ATOM     59  C   UNL A   1      42.963  28.955  34.027  1.00  0.00     0.037 A 
BRANCH  46  60
ATOM     60  C   UNL A   1      39.810  33.631  36.560  1.00  0.00     0.064 A 
ATOM     61  C   UNL A   1      40.482  34.860  36.645  1.00  0.00     0.173 A 
ATOM     62  C   UNL A   1      38.923  33.298  37.594  1.00  0.00     0.173 A 
ATOM     63  F   UNL A   1      41.350  35.223  35.689  1.00  0.00    -0.203 F 
ATOM     64  C   UNL A   1      40.296  35.706  37.736  1.00  0.00     0.198 A 
ATOM     65  C   UNL A   1      38.715  34.160  38.667  1.00  0.00     0.198 A 
ATOM     66  F   UNL A   1      38.248  32.138  37.560  1.00  0.00    -0.203 F 
ATOM     67  F   UNL A   1      40.989  36.850  37.821  1.00  0.00    -0.200 F 
ATOM     68  C   UNL A   1      39.408  35.359  38.743  1.00  0.00     0.200 A 
ATOM     69  F   UNL A   1      37.845  33.830  39.632  1.00  0.00    -0.200 F 
ATOM     70  F   UNL A   1      39.224  36.177  39.788  1.00  0.00    -0.200 F 
ENDBRANCH  46  60
BRANCH  47  71
ATOM     71  C   UNL A   1      40.868  27.920  28.441  1.00  0.00     0.064 A 
ATOM     72  C   UNL A   1      41.693  28.330  27.385  1.00  0.00     0.173 A 
ATOM     73  C   UNL A   1      40.205  26.690  28.313  1.00  0.00     0.173 A 
ATOM     74  F   UNL A   1      42.331  29.508  27.452  1.00  0.00    -0.203 F 
ATOM     75  C   UNL A   1      41.830  27.555  26.236  1.00  0.00     0.198 A 
ATOM     76  C   UNL A   1      40.368  25.902  27.176  1.00  0.00     0.198 A 
ATOM     77  F   UNL A   1      39.409  26.250  29.296  1.00  0.00    -0.203 F 
ATOM     78  F   UNL A   1      42.585  27.996  25.219  1.00  0.00    -0.200 F 
ATOM     79  C   UNL A   1      41.173  26.339  26.134  1.00  0.00     0.200 A 
ATOM     80  F   UNL A   1      39.742  24.720  27.087  1.00  0.00    -0.200 F 
ATOM     81  F   UNL A   1      41.306  25.593  25.029  1.00  0.00    -0.200 F 
ENDBRANCH  47  71
BRANCH  59  82
ATOM     82  C   UNL A   1      44.066  28.127  34.624  1.00  0.00     0.064 A 
ATOM     83  C   UNL A   1      45.412  28.509  34.526  1.00  0.00     0.173 A 
ATOM     84  C   UNL A   1      43.769  26.941  35.312  1.00  0.00     0.173 A 
ATOM     85  F   UNL A   1      45.751  29.627  33.867  1.00  0.00    -0.203 F 
ATOM     86  C   UNL A   1      46.423  27.715  35.061  1.00  0.00     0.198 A 
ATOM     87  C   UNL A   1      44.780  26.167  35.875  1.00  0.00     0.198 A 
ATOM     88  F   UNL A   1      42.498  26.533  35.442  1.00  0.00    -0.203 F 
ATOM     89  F   UNL A   1      47.706  28.068  34.901  1.00  0.00    -0.200 F 
ATOM     90  C   UNL A   1      46.106  26.548  35.739  1.00  0.00     0.200 A 
ATOM     91  F   UNL A   1      44.470  25.047  36.543  1.00  0.00    -0.200 F 
ATOM     92  F   UNL A   1      47.080  25.784  36.253  1.00  0.00    -0.200 F 
ENDBRANCH  59  82
ENDBRANCH  33  34
ENDBRANCH  25  28
ENDBRANCH  23  24
ENDBRANCH  22  23
ENDBRANCH   1  22
TORSDOF 14
ENDMDL
MODEL 3
REMARK VINA RESULT:     -12.2      5.532     11.164
REMARK SMILES Cn1c(SCC(=O)NCCCCNC(=O)c2ccc(-c3c4nc(c(-c5c(F)c(F)c(F)c(F)c5F)c5ccc([nH]5)c(-c5c(F)c(F)c(F)c(F)c5F)c5nc(c(-c6c(F)c(F)c(F)c(F)c6F)c6ccc3[nH]6)C=C5)C=C4)cc2)nnc1-c1ccccc1Br
REMARK SMILES IDX 10 1 9 2 8 3 6 4 7 5 5 7 4 8 3 9 1 10 2 11 81 12 79 13 80 14
REMARK SMILES IDX 82 15 83 16 87 17 84 18 86 19 88 20 85 21 11 22 12 23 13 24
REMARK SMILES IDX 14 25 15 27 16 28 17 29 78 30 18 31 77 32 19 33 20 34 21 35
REMARK SMILES IDX 71 36 22 37 76 38 70 39 72 40 23 41 75 42 69 43 68 44 24 46
REMARK SMILES IDX 56 47 36 48 55 49 37 50 40 51 54 52 73 53 38 54 39 55 53 57
REMARK SMILES IDX 74 58 41 59 25 60 26 61 34 62 27 63 28 64 32 65 35 66 29 67
REMARK SMILES IDX 30 68 33 69 31 70 57 71 58 72 66 73 59 74 60 75 64 76 67 77
REMARK SMILES IDX 61 78 62 79 65 80 63 81 42 82 43 83 51 84 44 85 45 86 49 87
REMARK SMILES IDX 52 88 46 89 47 90 50 91 48 92
REMARK H PARENT 8 6 13 26 72 45 40 56
REMARK Flexibility Score: inf
ROOT
ATOM      1  C   UNL A   1      36.793  19.221  24.961  1.00  0.00     0.023 C 
ENDROOT
BRANCH   1   2
ATOM      2  C   UNL A   1      35.628  20.207  25.006  1.00  0.00     0.116 C 
BRANCH   2   3
ATOM      3  N   UNL A   1      34.349  19.526  25.007  1.00  0.00    -0.355 N 
ATOM      4  C   UNL A   1      33.091  20.039  25.025  1.00  0.00     0.230 C 
ATOM      5  O   UNL A   1      32.152  19.241  24.961  1.00  0.00    -0.274 OA
ATOM      6  H   UNL A   1      34.398  18.543  24.995  1.00  0.00     0.163 HD
BRANCH   4   7
ATOM      7  C   UNL A   1      32.833  21.527  25.010  1.00  0.00     0.178 C 
BRANCH   7   8
ATOM      8  S   UNL A   1      32.544  22.321  26.585  1.00  0.00    -0.076 SA
BRANCH   8   9
ATOM      9  C   UNL A   1      31.805  23.870  26.410  1.00  0.00     0.191 A 
ATOM     10  C   UNL A   1      33.693  25.454  25.766  1.00  0.00     0.154 C 
ATOM     11  N   UNL A   1      32.344  25.090  26.106  1.00  0.00    -0.305 N 
ATOM     12  C   UNL A   1      31.307  26.001  26.231  1.00  0.00     0.165 A 
ATOM     13  N   UNL A   1      30.536  24.032  26.727  1.00  0.00    -0.123 NA
ATOM     14  N   UNL A   1      30.228  25.363  26.629  1.00  0.00    -0.129 NA
BRANCH  12  15
ATOM     15  C   UNL A   1      31.416  27.443  26.026  1.00  0.00     0.034 A 
ATOM     16  C   UNL A   1      31.779  28.244  27.121  1.00  0.00     0.013 A 
ATOM     17  C   UNL A   1      31.198  28.054  24.782  1.00  0.00     0.029 A 
ATOM     18  C   UNL A   1      31.963  29.620  26.968  1.00  0.00     0.001 A 
ATOM     19  C   UNL A   1      31.387  29.432  24.630  1.00  0.00     0.016 A 
ATOM     20  Br  UNL A   1      30.623  27.077  23.254  1.00  0.00    -0.050 Br
ATOM     21  C   UNL A   1      31.777  30.212  25.720  1.00  0.00     0.001 A 
ENDBRANCH  12  15
ENDBRANCH   8   9
ENDBRANCH   7   8
ENDBRANCH   4   7
ENDBRANCH   2   3
ENDBRANCH   1   2
BRANCH   1  22
ATOM     22  C   UNL A   1      38.160  19.842  24.652  1.00  0.00     0.023 C 
BRANCH  22  23
ATOM     23  C   UNL A   1      39.085  20.049  25.849  1.00  0.00     0.116 C 
BRANCH  23  24
ATOM     24  N   UNL A   1      40.212  19.132  25.867  1.00  0.00    -0.352 N 
ATOM     25  C   UNL A   1      41.544  19.378  26.073  1.00  0.00     0.251 C 
ATOM     26  H   UNL A   1      39.983  18.188  25.709  1.00  0.00     0.163 HD
ATOM     27  O   UNL A   1      42.357  18.460  25.941  1.00  0.00    -0.269 OA
BRANCH  25  28
ATOM     28  C   UNL A   1      42.030  20.733  26.417  1.00  0.00     0.039 A 
ATOM     29  C   UNL A   1      42.279  21.633  25.376  1.00  0.00     0.014 A 
ATOM     30  C   UNL A   1      42.268  21.119  27.739  1.00  0.00     0.014 A 
ATOM     31  C   UNL A   1      42.715  22.928  25.662  1.00  0.00     0.010 A 
ATOM     32  C   UNL A   1      42.634  22.434  28.028  1.00  0.00     0.010 A 
ATOM     33  C   UNL A   1      42.866  23.352  26.992  1.00  0.00    -0.014 A 
BRANCH  33  34
ATOM     34  C   UNL A   1      43.258  24.752  27.300  1.00  0.00     0.031 A 
ATOM     35  C   UNL A   1      44.652  25.241  27.014  1.00  0.00     0.074 A 
ATOM     36  C   UNL A   1      42.360  25.581  27.866  1.00  0.00     0.049 A 
ATOM     37  N   UNL A   1      45.169  26.429  27.208  1.00  0.00    -0.248 NA
ATOM     38  C   UNL A   1      45.599  24.260  26.461  1.00  0.00     0.031 C 
ATOM     39  C   UNL A   1      40.995  25.214  28.245  1.00  0.00     0.029 A 
ATOM     40  N   UNL A   1      42.459  26.902  28.224  1.00  0.00    -0.354 N 
ATOM     41  C   UNL A   1      46.496  26.336  26.807  1.00  0.00     0.074 A 
ATOM     42  C   UNL A   1      46.721  24.962  26.415  1.00  0.00     0.031 C 
ATOM     43  C   UNL A   1      40.373  26.291  28.749  1.00  0.00     0.029 A 
ATOM     44  C   UNL A   1      41.303  27.416  28.759  1.00  0.00     0.049 A 
ATOM     45  H   UNL A   1      43.281  27.432  28.108  1.00  0.00     0.167 HD
ATOM     46  C   UNL A   1      47.432  27.314  26.746  1.00  0.00     0.037 A 
ATOM     47  C   UNL A   1      41.022  28.656  29.205  1.00  0.00     0.037 A 
ATOM     48  C   UNL A   1      47.201  28.685  27.120  1.00  0.00     0.049 A 
ATOM     49  C   UNL A   1      42.080  29.722  29.121  1.00  0.00     0.074 A 
ATOM     50  C   UNL A   1      48.070  29.760  27.044  1.00  0.00     0.029 A 
ATOM     51  N   UNL A   1      46.013  29.171  27.648  1.00  0.00    -0.354 N 
ATOM     52  N   UNL A   1      43.307  29.641  28.668  1.00  0.00    -0.248 NA
ATOM     53  C   UNL A   1      41.706  31.061  29.600  1.00  0.00     0.031 C 
ATOM     54  C   UNL A   1      47.425  30.885  27.570  1.00  0.00     0.029 A 
ATOM     55  C   UNL A   1      46.133  30.525  27.921  1.00  0.00     0.049 A 
ATOM     56  H   UNL A   1      45.203  28.633  27.804  1.00  0.00     0.167 HD
ATOM     57  C   UNL A   1      43.841  30.918  28.779  1.00  0.00     0.074 A 
ATOM     58  C   UNL A   1      42.797  31.760  29.324  1.00  0.00     0.031 C 
ATOM     59  C   UNL A   1      45.085  31.353  28.461  1.00  0.00     0.037 A 
BRANCH  46  60
ATOM     60  C   UNL A   1      48.799  26.934  26.248  1.00  0.00     0.064 A 
ATOM     61  C   UNL A   1      49.146  27.048  24.893  1.00  0.00     0.173 A 
ATOM     62  C   UNL A   1      49.785  26.488  27.140  1.00  0.00     0.173 A 
ATOM     63  F   UNL A   1      48.238  27.459  23.995  1.00  0.00    -0.203 F 
ATOM     64  C   UNL A   1      50.419  26.701  24.446  1.00  0.00     0.198 A 
ATOM     65  C   UNL A   1      51.066  26.173  26.695  1.00  0.00     0.198 A 
ATOM     66  F   UNL A   1      49.511  26.368  28.449  1.00  0.00    -0.203 F 
ATOM     67  F   UNL A   1      50.711  26.768  23.139  1.00  0.00    -0.200 F 
ATOM     68  C   UNL A   1      51.380  26.270  25.348  1.00  0.00     0.200 A 
ATOM     69  F   UNL A   1      51.999  25.771  27.571  1.00  0.00    -0.200 F 
ATOM     70  F   UNL A   1      52.607  25.944  24.918  1.00  0.00    -0.200 F 
ENDBRANCH  46  60
BRANCH  47  71
ATOM     71  C   UNL A   1      39.669  28.965  29.736  1.00  0.00     0.064 A 
ATOM     72  C   UNL A   1      38.661  29.458  28.896  1.00  0.00     0.173 A 
ATOM     73  C   UNL A   1      39.359  28.786  31.092  1.00  0.00     0.173 A 
ATOM     74  F   UNL A   1      38.916  29.667  27.595  1.00  0.00    -0.203 F 
ATOM     75  C   UNL A   1      37.401  29.782  29.395  1.00  0.00     0.198 A 
ATOM     76  C   UNL A   1      38.089  29.082  31.584  1.00  0.00     0.198 A 
ATOM     77  F   UNL A   1      40.286  28.313  31.936  1.00  0.00    -0.203 F 
ATOM     78  F   UNL A   1      36.472  30.300  28.579  1.00  0.00    -0.200 F 
ATOM     79  C   UNL A   1      37.114  29.588  30.737  1.00  0.00     0.200 A 
ATOM     80  F   UNL A   1      37.812  28.880  32.879  1.00  0.00    -0.200 F 
ATOM     81  F   UNL A   1      35.903  29.899  31.217  1.00  0.00    -0.200 F 
ENDBRANCH  47  71
BRANCH  59  82
ATOM     82  C   UNL A   1      45.372  32.814  28.663  1.00  0.00     0.064 A 
ATOM     83  C   UNL A   1      45.930  33.300  29.855  1.00  0.00     0.173 A 
ATOM     84  C   UNL A   1      45.095  33.738  27.644  1.00  0.00     0.173 A 
ATOM     85  F   UNL A   1      46.200  32.460  30.865  1.00  0.00    -0.203 F 
ATOM     86  C   UNL A   1      46.162  34.661  30.034  1.00  0.00     0.198 A 
ATOM     87  C   UNL A   1      45.361  35.094  27.814  1.00  0.00     0.198 A 
ATOM     88  F   UNL A   1      44.569  33.326  26.481  1.00  0.00    -0.203 F 
ATOM     89  F   UNL A   1      46.637  35.109  31.205  1.00  0.00    -0.200 F 
ATOM     90  C   UNL A   1      45.884  35.556  29.013  1.00  0.00     0.200 A 
ATOM     91  F   UNL A   1      45.104  35.955  26.820  1.00  0.00    -0.200 F 
ATOM     92  F   UNL A   1      46.107  36.866  29.187  1.00  0.00    -0.200 F 
ENDBRANCH  59  82
ENDBRANCH  33  34
ENDBRANCH  25  28
ENDBRANCH  23  24
ENDBRANCH  22  23
ENDBRANCH   1  22
TORSDOF 14
ENDMDL
