MODEL 1
REMARK VINA RESULT:     -12.2      0.000      0.000
REMARK SMILES Cc1cc(S[C@@H](C)c2ccc(C(=O)NCCCCNC(=O)c3ccc(-c4c5nc(c(-c6c(F)c(F)c(F)c(F)c6F)c6ccc([nH]6)c(-c6c(F)c(F)c(F)c(F)c6F)c6nc(c(-c7c(F)c(F)c(F)c(F)c7F)c7ccc4[nH]7)C=C6)C=C5)cc3)o2)n(C)n1
REMARK SMILES IDX 16 1 15 2 14 3 12 4 13 5 11 7 8 8 9 9 85 10 10 11 6 12 7 13
REMARK SMILES IDX 5 14 4 15 1 16 2 17 3 18 88 19 86 20 87 21 17 22 18 23 19 24
REMARK SMILES IDX 20 25 21 27 22 28 23 29 84 30 24 31 83 32 25 33 26 34 27 35
REMARK SMILES IDX 77 36 28 37 82 38 76 39 78 40 29 41 81 42 75 43 74 44 30 46
REMARK SMILES IDX 62 47 42 48 61 49 43 50 46 51 60 52 79 53 44 54 45 55 59 57
REMARK SMILES IDX 80 58 47 59 31 60 32 61 40 62 33 63 34 64 38 65 41 66 35 67
REMARK SMILES IDX 36 68 39 69 37 70 63 71 64 72 72 73 65 74 66 75 70 76 73 77
REMARK SMILES IDX 67 78 68 79 71 80 69 81 48 82 49 83 57 84 50 85 51 86 55 87
REMARK SMILES IDX 58 88 52 89 53 90 56 91 54 92
REMARK H PARENT 14 6 19 26 78 45 46 56
REMARK Flexibility Score: inf
ROOT
ATOM      1  C   UNL A   1      32.329  30.186  26.377  1.00  0.00     0.023 C 
ENDROOT
BRANCH   1   2
ATOM      2  C   UNL A   1      31.612  29.696  25.120  1.00  0.00     0.116 C 
BRANCH   2   3
ATOM      3  N   UNL A   1      32.554  29.396  24.068  1.00  0.00    -0.349 N 
ATOM      4  C   UNL A   1      33.230  28.236  23.762  1.00  0.00     0.286 C 
ATOM      5  O   UNL A   1      33.948  28.298  22.762  1.00  0.00    -0.266 OA
ATOM      6  H   UNL A   1      32.747  30.149  23.466  1.00  0.00     0.163 HD
BRANCH   4   7
ATOM      7  C   UNL A   1      33.096  27.033  24.566  1.00  0.00     0.191 A 
ATOM      8  C   UNL A   1      32.245  25.005  24.910  1.00  0.00     0.118 A 
ATOM      9  C   UNL A   1      33.088  25.263  25.970  1.00  0.00     0.047 A 
ATOM     10  O   UNL A   1      32.236  26.081  24.079  1.00  0.00    -0.455 OA
ATOM     11  C   UNL A   1      33.652  26.543  25.734  1.00  0.00     0.056 A 
BRANCH   8  12
ATOM     12  C   UNL A   1      31.424  23.804  24.547  1.00  0.00     0.116 C 
ATOM     13  C   UNL A   1      30.895  23.076  25.782  1.00  0.00     0.028 C 
BRANCH  12  14
ATOM     14  S   UNL A   1      32.157  22.669  23.326  1.00  0.00    -0.096 SA
BRANCH  14  15
ATOM     15  C   UNL A   1      33.655  22.076  23.982  1.00  0.00     0.095 A 
ATOM     16  C   UNL A   1      37.191  21.578  24.827  1.00  0.00     0.069 C 
ATOM     17  C   UNL A   1      35.725  21.581  24.620  1.00  0.00     0.061 A 
ATOM     18  C   UNL A   1      34.943  22.559  23.971  1.00  0.00     0.060 A 
ATOM     19  N   UNL A   1      34.976  20.564  25.059  1.00  0.00    -0.178 NA
ATOM     20  N   UNL A   1      33.730  20.862  24.626  1.00  0.00    -0.262 N 
ATOM     21  C   UNL A   1      32.697  19.883  24.875  1.00  0.00     0.175 C 
ENDBRANCH  14  15
ENDBRANCH  12  14
ENDBRANCH   8  12
ENDBRANCH   4   7
ENDBRANCH   2   3
ENDBRANCH   1   2
BRANCH   1  22
ATOM     22  C   UNL A   1      31.863  31.562  26.867  1.00  0.00     0.023 C 
BRANCH  22  23
ATOM     23  C   UNL A   1      32.965  32.472  27.408  1.00  0.00     0.116 C 
BRANCH  23  24
ATOM     24  N   UNL A   1      32.532  33.845  27.624  1.00  0.00    -0.352 N 
ATOM     25  C   UNL A   1      33.045  34.784  28.488  1.00  0.00     0.251 C 
ATOM     26  H   UNL A   1      31.768  34.142  27.077  1.00  0.00     0.163 HD
ATOM     27  O   UNL A   1      32.508  35.876  28.615  1.00  0.00    -0.269 OA
BRANCH  25  28
ATOM     28  C   UNL A   1      34.227  34.438  29.302  1.00  0.00     0.039 A 
ATOM     29  C   UNL A   1      34.029  33.902  30.576  1.00  0.00     0.014 A 
ATOM     30  C   UNL A   1      35.516  34.584  28.784  1.00  0.00     0.014 A 
ATOM     31  C   UNL A   1      35.122  33.420  31.297  1.00  0.00     0.010 A 
ATOM     32  C   UNL A   1      36.598  34.055  29.480  1.00  0.00     0.010 A 
ATOM     33  C   UNL A   1      36.407  33.448  30.730  1.00  0.00    -0.014 A 
BRANCH  33  34
ATOM     34  C   UNL A   1      37.553  32.781  31.394  1.00  0.00     0.031 A 
ATOM     35  C   UNL A   1      38.226  31.607  30.750  1.00  0.00     0.074 A 
ATOM     36  C   UNL A   1      37.920  33.182  32.627  1.00  0.00     0.049 A 
ATOM     37  N   UNL A   1      39.170  30.833  31.223  1.00  0.00    -0.248 NA
ATOM     38  C   UNL A   1      37.762  31.236  29.404  1.00  0.00     0.031 C 
ATOM     39  C   UNL A   1      37.305  34.280  33.375  1.00  0.00     0.029 A 
ATOM     40  N   UNL A   1      38.882  32.699  33.477  1.00  0.00    -0.354 N 
ATOM     41  C   UNL A   1      39.404  29.880  30.243  1.00  0.00     0.074 A 
ATOM     42  C   UNL A   1      38.477  30.145  29.164  1.00  0.00     0.031 C 
ATOM     43  C   UNL A   1      37.913  34.394  34.568  1.00  0.00     0.029 A 
ATOM     44  C   UNL A   1      38.930  33.355  34.683  1.00  0.00     0.049 A 
ATOM     45  H   UNL A   1      39.482  31.953  33.244  1.00  0.00     0.167 HD
ATOM     46  C   UNL A   1      40.324  28.887  30.238  1.00  0.00     0.037 A 
ATOM     47  C   UNL A   1      39.698  33.132  35.767  1.00  0.00     0.037 A 
ATOM     48  C   UNL A   1      41.260  28.642  31.304  1.00  0.00     0.049 A 
ATOM     49  C   UNL A   1      40.696  32.008  35.741  1.00  0.00     0.074 A 
ATOM     50  C   UNL A   1      42.284  27.712  31.355  1.00  0.00     0.029 A 
ATOM     51  N   UNL A   1      41.281  29.327  32.509  1.00  0.00    -0.354 N 
ATOM     52  N   UNL A   1      40.960  31.160  34.779  1.00  0.00    -0.248 NA
ATOM     53  C   UNL A   1      41.501  31.810  36.954  1.00  0.00     0.031 C 
ATOM     54  C   UNL A   1      42.898  27.807  32.610  1.00  0.00     0.029 A 
ATOM     55  C   UNL A   1      42.282  28.822  33.323  1.00  0.00     0.049 A 
ATOM     56  H   UNL A   1      40.676  30.065  32.750  1.00  0.00     0.167 HD
ATOM     57  C   UNL A   1      41.967  30.338  35.261  1.00  0.00     0.074 A 
ATOM     58  C   UNL A   1      42.282  30.801  36.597  1.00  0.00     0.031 C 
ATOM     59  C   UNL A   1      42.575  29.290  34.653  1.00  0.00     0.037 A 
BRANCH  46  60
ATOM     60  C   UNL A   1      40.369  27.989  29.038  1.00  0.00     0.064 A 
ATOM     61  C   UNL A   1      39.630  26.796  28.989  1.00  0.00     0.173 A 
ATOM     62  C   UNL A   1      41.120  28.344  27.909  1.00  0.00     0.173 A 
ATOM     63  F   UNL A   1      38.904  26.408  30.048  1.00  0.00    -0.203 F 
ATOM     64  C   UNL A   1      39.661  25.982  27.860  1.00  0.00     0.198 A 
ATOM     65  C   UNL A   1      41.129  27.540  26.773  1.00  0.00     0.198 A 
ATOM     66  F   UNL A   1      41.839  29.476  27.905  1.00  0.00    -0.203 F 
ATOM     67  F   UNL A   1      38.980  24.828  27.851  1.00  0.00    -0.200 F 
ATOM     68  C   UNL A   1      40.404  26.357  26.752  1.00  0.00     0.200 A 
ATOM     69  F   UNL A   1      41.840  27.908  25.698  1.00  0.00    -0.200 F 
ATOM     70  F   UNL A   1      40.427  25.575  25.663  1.00  0.00    -0.200 F 
ENDBRANCH  46  60
BRANCH  47  71
ATOM     71  C   UNL A   1      39.554  33.996  36.965  1.00  0.00     0.064 A 
ATOM     72  C   UNL A   1      38.757  33.595  38.047  1.00  0.00     0.173 A 
ATOM     73  C   UNL A   1      40.207  35.233  37.056  1.00  0.00     0.173 A 
ATOM     74  F   UNL A   1      38.098  32.429  37.995  1.00  0.00    -0.203 F 
ATOM     75  C   UNL A   1      38.607  34.408  39.169  1.00  0.00     0.198 A 
ATOM     76  C   UNL A   1      40.074  36.034  38.190  1.00  0.00     0.198 A 
ATOM     77  F   UNL A   1      40.983  35.660  36.050  1.00  0.00    -0.203 F 
ATOM     78  F   UNL A   1      37.809  34.018  40.172  1.00  0.00    -0.200 F 
ATOM     79  C   UNL A   1      39.270  35.624  39.241  1.00  0.00     0.200 A 
ATOM     80  F   UNL A   1      40.726  37.202  38.262  1.00  0.00    -0.200 F 
ATOM     81  F   UNL A   1      39.127  36.402  40.323  1.00  0.00    -0.200 F 
ENDBRANCH  47  71
BRANCH  59  82
ATOM     82  C   UNL A   1      43.646  28.578  35.425  1.00  0.00     0.064 A 
ATOM     83  C   UNL A   1      43.333  27.553  36.330  1.00  0.00     0.173 A 
ATOM     84  C   UNL A   1      44.998  28.895  35.229  1.00  0.00     0.173 A 
ATOM     85  F   UNL A   1      42.052  27.228  36.564  1.00  0.00    -0.203 F 
ATOM     86  C   UNL A   1      44.335  26.882  37.023  1.00  0.00     0.198 A 
ATOM     87  C   UNL A   1      45.999  28.204  35.905  1.00  0.00     0.198 A 
ATOM     88  F   UNL A   1      45.348  29.866  34.372  1.00  0.00    -0.203 F 
ATOM     89  F   UNL A   1      44.013  25.932  37.911  1.00  0.00    -0.200 F 
ATOM     90  C   UNL A   1      45.668  27.202  36.805  1.00  0.00     0.200 A 
ATOM     91  F   UNL A   1      47.286  28.508  35.687  1.00  0.00    -0.200 F 
ATOM     92  F   UNL A   1      46.632  26.549  37.467  1.00  0.00    -0.200 F 
ENDBRANCH  59  82
ENDBRANCH  33  34
ENDBRANCH  25  28
ENDBRANCH  23  24
ENDBRANCH  22  23
ENDBRANCH   1  22
TORSDOF 14
ENDMDL
MODEL 2
REMARK VINA RESULT:     -12.2      5.667     11.219
REMARK SMILES Cc1cc(S[C@@H](C)c2ccc(C(=O)NCCCCNC(=O)c3ccc(-c4c5nc(c(-c6c(F)c(F)c(F)c(F)c6F)c6ccc([nH]6)c(-c6c(F)c(F)c(F)c(F)c6F)c6nc(c(-c7c(F)c(F)c(F)c(F)c7F)c7ccc4[nH]7)C=C6)C=C5)cc3)o2)n(C)n1
REMARK SMILES IDX 16 1 15 2 14 3 12 4 13 5 11 7 8 8 9 9 85 10 10 11 6 12 7 13
REMARK SMILES IDX 5 14 4 15 1 16 2 17 3 18 88 19 86 20 87 21 17 22 18 23 19 24
REMARK SMILES IDX 20 25 21 27 22 28 23 29 84 30 24 31 83 32 25 33 26 34 27 35
REMARK SMILES IDX 77 36 28 37 82 38 76 39 78 40 29 41 81 42 75 43 74 44 30 46
REMARK SMILES IDX 62 47 42 48 61 49 43 50 46 51 60 52 79 53 44 54 45 55 59 57
REMARK SMILES IDX 80 58 47 59 31 60 32 61 40 62 33 63 34 64 38 65 41 66 35 67
REMARK SMILES IDX 36 68 39 69 37 70 63 71 64 72 72 73 65 74 66 75 70 76 73 77
REMARK SMILES IDX 67 78 68 79 71 80 69 81 48 82 49 83 57 84 50 85 51 86 55 87
REMARK SMILES IDX 58 88 52 89 53 90 56 91 54 92
REMARK H PARENT 14 6 19 26 78 45 46 56
REMARK Flexibility Score: inf
ROOT
ATOM      1  C   UNL A   1      37.270  21.634  24.347  1.00  0.00     0.023 C 
ENDROOT
BRANCH   1   2
ATOM      2  C   UNL A   1      36.844  22.758  25.290  1.00  0.00     0.116 C 
BRANCH   2   3
ATOM      3  N   UNL A   1      36.000  22.256  26.348  1.00  0.00    -0.349 N 
ATOM      4  C   UNL A   1      34.680  21.867  26.344  1.00  0.00     0.286 C 
ATOM      5  O   UNL A   1      34.256  21.446  27.424  1.00  0.00    -0.266 OA
ATOM      6  H   UNL A   1      36.444  22.179  27.223  1.00  0.00     0.163 HD
BRANCH   4   7
ATOM      7  C   UNL A   1      33.858  21.947  25.149  1.00  0.00     0.191 A 
ATOM      8  C   UNL A   1      32.872  23.125  23.538  1.00  0.00     0.118 A 
ATOM      9  C   UNL A   1      32.592  21.799  23.283  1.00  0.00     0.047 A 
ATOM     10  O   UNL A   1      33.615  23.210  24.673  1.00  0.00    -0.455 OA
ATOM     11  C   UNL A   1      33.246  21.048  24.293  1.00  0.00     0.056 A 
BRANCH   8  12
ATOM     12  C   UNL A   1      32.533  24.385  22.799  1.00  0.00     0.116 C 
ATOM     13  C   UNL A   1      33.679  25.395  22.831  1.00  0.00     0.028 C 
BRANCH  12  14
ATOM     14  S   UNL A   1      30.923  25.140  23.193  1.00  0.00    -0.096 SA
BRANCH  14  15
ATOM     15  C   UNL A   1      31.099  26.022  24.682  1.00  0.00     0.095 A 
ATOM     16  C   UNL A   1      31.857  28.575  27.207  1.00  0.00     0.069 C 
ATOM     17  C   UNL A   1      31.480  27.409  26.376  1.00  0.00     0.061 A 
ATOM     18  C   UNL A   1      31.451  27.321  24.968  1.00  0.00     0.060 A 
ATOM     19  N   UNL A   1      31.123  26.254  26.948  1.00  0.00    -0.178 NA
ATOM     20  N   UNL A   1      30.937  25.414  25.905  1.00  0.00    -0.262 N 
ATOM     21  C   UNL A   1      30.627  24.038  26.218  1.00  0.00     0.175 C 
ENDBRANCH  14  15
ENDBRANCH  12  14
ENDBRANCH   8  12
ENDBRANCH   4   7
ENDBRANCH   2   3
ENDBRANCH   1   2
BRANCH   1  22
ATOM     22  C   UNL A   1      37.841  20.402  25.060  1.00  0.00     0.023 C 
BRANCH  22  23
ATOM     23  C   UNL A   1      39.172  20.620  25.778  1.00  0.00     0.116 C 
BRANCH  23  24
ATOM     24  N   UNL A   1      40.013  19.433  25.817  1.00  0.00    -0.352 N 
ATOM     25  C   UNL A   1      41.360  19.341  26.078  1.00  0.00     0.251 C 
ATOM     26  H   UNL A   1      39.557  18.581  25.631  1.00  0.00     0.163 HD
ATOM     27  O   UNL A   1      41.943  18.269  25.986  1.00  0.00    -0.269 OA
BRANCH  25  28
ATOM     28  C   UNL A   1      42.109  20.566  26.423  1.00  0.00     0.039 A 
ATOM     29  C   UNL A   1      42.604  21.362  25.388  1.00  0.00     0.014 A 
ATOM     30  C   UNL A   1      42.263  20.954  27.756  1.00  0.00     0.014 A 
ATOM     31  C   UNL A   1      43.172  22.601  25.686  1.00  0.00     0.010 A 
ATOM     32  C   UNL A   1      42.781  22.212  28.048  1.00  0.00     0.010 A 
ATOM     33  C   UNL A   1      43.216  23.054  27.014  1.00  0.00    -0.014 A 
BRANCH  33  34
ATOM     34  C   UNL A   1      43.646  24.437  27.339  1.00  0.00     0.031 A 
ATOM     35  C   UNL A   1      42.655  25.441  27.846  1.00  0.00     0.074 A 
ATOM     36  C   UNL A   1      44.916  24.806  27.082  1.00  0.00     0.049 A 
ATOM     37  N   UNL A   1      42.820  26.717  28.083  1.00  0.00    -0.248 NA
ATOM     38  C   UNL A   1      41.290  24.953  28.097  1.00  0.00     0.031 C 
ATOM     39  C   UNL A   1      45.957  23.929  26.542  1.00  0.00     0.029 A 
ATOM     40  N   UNL A   1      45.542  26.018  27.220  1.00  0.00    -0.354 N 
ATOM     41  C   UNL A   1      41.582  27.188  28.498  1.00  0.00     0.074 A 
ATOM     42  C   UNL A   1      40.664  26.070  28.443  1.00  0.00     0.031 C 
ATOM     43  C   UNL A   1      47.094  24.630  26.405  1.00  0.00     0.029 A 
ATOM     44  C   UNL A   1      46.853  26.010  26.810  1.00  0.00     0.049 A 
ATOM     45  H   UNL A   1      45.094  26.818  27.581  1.00  0.00     0.167 HD
ATOM     46  C   UNL A   1      41.250  28.435  28.907  1.00  0.00     0.037 A 
ATOM     47  C   UNL A   1      47.754  27.009  26.751  1.00  0.00     0.037 A 
ATOM     48  C   UNL A   1      42.172  29.537  28.982  1.00  0.00     0.049 A 
ATOM     49  C   UNL A   1      47.351  28.389  27.191  1.00  0.00     0.074 A 
ATOM     50  C   UNL A   1      41.950  30.817  29.462  1.00  0.00     0.029 A 
ATOM     51  N   UNL A   1      43.493  29.492  28.560  1.00  0.00    -0.354 N 
ATOM     52  N   UNL A   1      46.198  28.804  27.653  1.00  0.00    -0.248 NA
ATOM     53  C   UNL A   1      48.375  29.439  27.099  1.00  0.00     0.031 C 
ATOM     54  C   UNL A   1      43.125  31.558  29.290  1.00  0.00     0.029 A 
ATOM     55  C   UNL A   1      44.089  30.729  28.740  1.00  0.00     0.049 A 
ATOM     56  H   UNL A   1      43.941  28.698  28.188  1.00  0.00     0.167 HD
ATOM     57  C   UNL A   1      46.359  30.156  27.919  1.00  0.00     0.074 A 
ATOM     58  C   UNL A   1      47.728  30.488  27.586  1.00  0.00     0.031 C 
ATOM     59  C   UNL A   1      45.452  31.044  28.395  1.00  0.00     0.037 A 
BRANCH  46  60
ATOM     60  C   UNL A   1      39.826  28.676  29.311  1.00  0.00     0.064 A 
ATOM     61  C   UNL A   1      39.399  28.484  30.633  1.00  0.00     0.173 A 
ATOM     62  C   UNL A   1      38.891  29.145  28.377  1.00  0.00     0.173 A 
ATOM     63  F   UNL A   1      40.254  28.027  31.560  1.00  0.00    -0.203 F 
ATOM     64  C   UNL A   1      38.079  28.733  31.002  1.00  0.00     0.198 A 
ATOM     65  C   UNL A   1      37.578  29.416  28.755  1.00  0.00     0.198 A 
ATOM     66  F   UNL A   1      39.251  29.348  27.102  1.00  0.00    -0.203 F 
ATOM     67  F   UNL A   1      37.684  28.505  32.261  1.00  0.00    -0.200 F 
ATOM     68  C   UNL A   1      37.172  29.205  30.064  1.00  0.00     0.200 A 
ATOM     69  F   UNL A   1      36.705  29.881  27.851  1.00  0.00    -0.200 F 
ATOM     70  F   UNL A   1      35.904  29.451  30.422  1.00  0.00    -0.200 F 
ENDBRANCH  46  60
BRANCH  47  71
ATOM     71  C   UNL A   1      49.128  26.738  26.260  1.00  0.00     0.064 A 
ATOM     72  C   UNL A   1      49.475  26.985  24.924  1.00  0.00     0.173 A 
ATOM     73  C   UNL A   1      50.120  26.229  27.110  1.00  0.00     0.173 A 
ATOM     74  F   UNL A   1      48.552  27.452  24.071  1.00  0.00    -0.203 F 
ATOM     75  C   UNL A   1      50.759  26.719  24.453  1.00  0.00     0.198 A 
ATOM     76  C   UNL A   1      51.411  25.986  26.643  1.00  0.00     0.198 A 
ATOM     77  F   UNL A   1      49.840  25.978  28.397  1.00  0.00    -0.203 F 
ATOM     78  F   UNL A   1      51.052  26.928  23.163  1.00  0.00    -0.200 F 
ATOM     79  C   UNL A   1      51.727  26.224  25.314  1.00  0.00     0.200 A 
ATOM     80  F   UNL A   1      52.348  25.520  27.480  1.00  0.00    -0.200 F 
ATOM     81  F   UNL A   1      52.963  25.973  24.861  1.00  0.00    -0.200 F 
ENDBRANCH  47  71
BRANCH  59  82
ATOM     82  C   UNL A   1      45.914  32.457  28.589  1.00  0.00     0.064 A 
ATOM     83  C   UNL A   1      45.759  33.419  27.580  1.00  0.00     0.173 A 
ATOM     84  C   UNL A   1      46.478  32.863  29.806  1.00  0.00     0.173 A 
ATOM     85  F   UNL A   1      45.241  33.073  26.391  1.00  0.00    -0.203 F 
ATOM     86  C   UNL A   1      46.169  34.734  27.778  1.00  0.00     0.198 A 
ATOM     87  C   UNL A   1      46.864  34.185  30.010  1.00  0.00     0.198 A 
ATOM     88  F   UNL A   1      46.645  31.980  30.803  1.00  0.00    -0.203 F 
ATOM     89  F   UNL A   1      46.047  35.629  26.788  1.00  0.00    -0.200 F 
ATOM     90  C   UNL A   1      46.714  35.118  28.995  1.00  0.00     0.200 A 
ATOM     91  F   UNL A   1      47.381  34.557  31.189  1.00  0.00    -0.200 F 
ATOM     92  F   UNL A   1      47.100  36.387  29.187  1.00  0.00    -0.200 F 
ENDBRANCH  59  82
ENDBRANCH  33  34
ENDBRANCH  25  28
ENDBRANCH  23  24
ENDBRANCH  22  23
ENDBRANCH   1  22
TORSDOF 14
ENDMDL
MODEL 3
REMARK VINA RESULT:     -12.0      5.672     11.403
REMARK SMILES Cc1cc(S[C@@H](C)c2ccc(C(=O)NCCCCNC(=O)c3ccc(-c4c5nc(c(-c6c(F)c(F)c(F)c(F)c6F)c6ccc([nH]6)c(-c6c(F)c(F)c(F)c(F)c6F)c6nc(c(-c7c(F)c(F)c(F)c(F)c7F)c7ccc4[nH]7)C=C6)C=C5)cc3)o2)n(C)n1
REMARK SMILES IDX 16 1 15 2 14 3 12 4 13 5 11 7 8 8 9 9 85 10 10 11 6 12 7 13
REMARK SMILES IDX 5 14 4 15 1 16 2 17 3 18 88 19 86 20 87 21 17 22 18 23 19 24
REMARK SMILES IDX 20 25 21 27 22 28 23 29 84 30 24 31 83 32 25 33 26 34 27 35
REMARK SMILES IDX 77 36 28 37 82 38 76 39 78 40 29 41 81 42 75 43 74 44 30 46
REMARK SMILES IDX 62 47 42 48 61 49 43 50 46 51 60 52 79 53 44 54 45 55 59 57
REMARK SMILES IDX 80 58 47 59 31 60 32 61 40 62 33 63 34 64 38 65 41 66 35 67
REMARK SMILES IDX 36 68 39 69 37 70 63 71 64 72 72 73 65 74 66 75 70 76 73 77
REMARK SMILES IDX 67 78 68 79 71 80 69 81 48 82 49 83 57 84 50 85 51 86 55 87
REMARK SMILES IDX 58 88 52 89 53 90 56 91 54 92
REMARK H PARENT 14 6 19 26 78 45 46 56
REMARK Flexibility Score: inf
ROOT
ATOM      1  C   UNL A   1      36.877  19.962  25.001  1.00  0.00     0.023 C 
ENDROOT
BRANCH   1   2
ATOM      2  C   UNL A   1      35.539  20.699  25.027  1.00  0.00     0.116 C 
BRANCH   2   3
ATOM      3  N   UNL A   1      34.451  19.792  25.306  1.00  0.00    -0.349 N 
ATOM      4  C   UNL A   1      33.106  19.881  25.030  1.00  0.00     0.286 C 
ATOM      5  O   UNL A   1      32.435  18.905  25.376  1.00  0.00    -0.266 OA
ATOM      6  H   UNL A   1      34.717  18.968  25.774  1.00  0.00     0.163 HD
BRANCH   4   7
ATOM      7  C   UNL A   1      32.530  21.044  24.377  1.00  0.00     0.191 A 
ATOM      8  C   UNL A   1      31.682  23.100  24.453  1.00  0.00     0.118 A 
ATOM      9  C   UNL A   1      31.697  22.730  23.125  1.00  0.00     0.047 A 
ATOM     10  O   UNL A   1      32.164  22.075  25.204  1.00  0.00    -0.455 OA
ATOM     11  C   UNL A   1      32.266  21.431  23.075  1.00  0.00     0.056 A 
BRANCH   8  12
ATOM     12  C   UNL A   1      31.275  24.371  25.138  1.00  0.00     0.116 C 
ATOM     13  C   UNL A   1      30.486  24.104  26.419  1.00  0.00     0.028 C 
BRANCH  12  14
ATOM     14  S   UNL A   1      30.495  25.637  24.086  1.00  0.00    -0.096 SA
BRANCH  14  15
ATOM     15  C   UNL A   1      30.992  27.197  24.674  1.00  0.00     0.095 A 
ATOM     16  C   UNL A   1      32.278  29.953  26.727  1.00  0.00     0.069 C 
ATOM     17  C   UNL A   1      31.709  29.013  25.734  1.00  0.00     0.061 A 
ATOM     18  C   UNL A   1      31.681  27.604  25.793  1.00  0.00     0.060 A 
ATOM     19  N   UNL A   1      31.118  29.471  24.627  1.00  0.00    -0.178 NA
ATOM     20  N   UNL A   1      30.653  28.357  24.016  1.00  0.00    -0.262 N 
ATOM     21  C   UNL A   1      29.873  28.544  22.815  1.00  0.00     0.175 C 
ENDBRANCH  14  15
ENDBRANCH  12  14
ENDBRANCH   8  12
ENDBRANCH   4   7
ENDBRANCH   2   3
ENDBRANCH   1   2
BRANCH   1  22
ATOM     22  C   UNL A   1      38.100  20.887  24.958  1.00  0.00     0.023 C 
BRANCH  22  23
ATOM     23  C   UNL A   1      39.072  20.739  26.127  1.00  0.00     0.116 C 
BRANCH  23  24
ATOM     24  N   UNL A   1      39.931  19.567  26.024  1.00  0.00    -0.352 N 
ATOM     25  C   UNL A   1      41.300  19.493  26.125  1.00  0.00     0.251 C 
ATOM     26  H   UNL A   1      39.469  18.714  25.860  1.00  0.00     0.163 HD
ATOM     27  O   UNL A   1      41.885  18.437  25.926  1.00  0.00    -0.269 OA
BRANCH  25  28
ATOM     28  C   UNL A   1      42.065  20.719  26.428  1.00  0.00     0.039 A 
ATOM     29  C   UNL A   1      42.490  21.522  25.367  1.00  0.00     0.014 A 
ATOM     30  C   UNL A   1      42.302  21.102  27.750  1.00  0.00     0.014 A 
ATOM     31  C   UNL A   1      43.071  22.762  25.634  1.00  0.00     0.010 A 
ATOM     32  C   UNL A   1      42.832  22.360  28.015  1.00  0.00     0.010 A 
ATOM     33  C   UNL A   1      43.198  23.210  26.959  1.00  0.00    -0.014 A 
BRANCH  33  34
ATOM     34  C   UNL A   1      43.642  24.592  27.263  1.00  0.00     0.031 A 
ATOM     35  C   UNL A   1      42.660  25.617  27.746  1.00  0.00     0.074 A 
ATOM     36  C   UNL A   1      44.918  24.941  27.008  1.00  0.00     0.049 A 
ATOM     37  N   UNL A   1      42.839  26.895  27.962  1.00  0.00    -0.248 NA
ATOM     38  C   UNL A   1      41.288  25.149  27.997  1.00  0.00     0.031 C 
ATOM     39  C   UNL A   1      45.952  24.043  26.489  1.00  0.00     0.029 A 
ATOM     40  N   UNL A   1      45.558  26.149  27.129  1.00  0.00    -0.354 N 
ATOM     41  C   UNL A   1      41.604  27.387  28.362  1.00  0.00     0.074 A 
ATOM     42  C   UNL A   1      40.674  26.279  28.320  1.00  0.00     0.031 C 
ATOM     43  C   UNL A   1      47.098  24.729  26.347  1.00  0.00     0.029 A 
ATOM     44  C   UNL A   1      46.871  26.118  26.727  1.00  0.00     0.049 A 
ATOM     45  H   UNL A   1      45.118  26.960  27.473  1.00  0.00     0.167 HD
ATOM     46  C   UNL A   1      41.285  28.645  28.747  1.00  0.00     0.037 A 
ATOM     47  C   UNL A   1      47.784  27.105  26.657  1.00  0.00     0.037 A 
ATOM     48  C   UNL A   1      42.220  29.737  28.809  1.00  0.00     0.049 A 
ATOM     49  C   UNL A   1      47.396  28.497  27.071  1.00  0.00     0.074 A 
ATOM     50  C   UNL A   1      42.010  31.028  29.265  1.00  0.00     0.029 A 
ATOM     51  N   UNL A   1      43.542  29.669  28.396  1.00  0.00    -0.354 N 
ATOM     52  N   UNL A   1      46.244  28.934  27.518  1.00  0.00    -0.248 NA
ATOM     53  C   UNL A   1      48.432  29.533  26.967  1.00  0.00     0.031 C 
ATOM     54  C   UNL A   1      43.195  31.752  29.088  1.00  0.00     0.029 A 
ATOM     55  C   UNL A   1      44.152  30.902  28.559  1.00  0.00     0.049 A 
ATOM     56  H   UNL A   1      43.983  28.863  28.041  1.00  0.00     0.167 HD
ATOM     57  C   UNL A   1      46.420  30.288  27.762  1.00  0.00     0.074 A 
ATOM     58  C   UNL A   1      47.795  30.598  27.431  1.00  0.00     0.031 C 
ATOM     59  C   UNL A   1      45.521  31.195  28.216  1.00  0.00     0.037 A 
BRANCH  46  60
ATOM     60  C   UNL A   1      39.862  28.910  29.137  1.00  0.00     0.064 A 
ATOM     61  C   UNL A   1      38.910  29.327  28.194  1.00  0.00     0.173 A 
ATOM     62  C   UNL A   1      39.434  28.702  30.456  1.00  0.00     0.173 A 
ATOM     63  F   UNL A   1      39.273  29.549  26.922  1.00  0.00    -0.203 F 
ATOM     64  C   UNL A   1      37.586  29.547  28.564  1.00  0.00     0.198 A 
ATOM     65  C   UNL A   1      38.104  28.899  30.817  1.00  0.00     0.198 A 
ATOM     66  F   UNL A   1      40.304  28.299  31.394  1.00  0.00    -0.203 F 
ATOM     67  F   UNL A   1      36.703  29.983  27.655  1.00  0.00    -0.200 F 
ATOM     68  C   UNL A   1      37.183  29.327  29.872  1.00  0.00     0.200 A 
ATOM     69  F   UNL A   1      37.713  28.678  32.079  1.00  0.00    -0.200 F 
ATOM     70  F   UNL A   1      35.906  29.533  30.225  1.00  0.00    -0.200 F 
ENDBRANCH  46  60
BRANCH  47  71
ATOM     71  C   UNL A   1      49.158  26.809  26.179  1.00  0.00     0.064 A 
ATOM     72  C   UNL A   1      49.505  26.992  24.833  1.00  0.00     0.173 A 
ATOM     73  C   UNL A   1      50.150  26.339  27.052  1.00  0.00     0.173 A 
ATOM     74  F   UNL A   1      48.583  27.419  23.958  1.00  0.00    -0.203 F 
ATOM     75  C   UNL A   1      50.789  26.702  24.375  1.00  0.00     0.198 A 
ATOM     76  C   UNL A   1      51.440  26.073  26.597  1.00  0.00     0.198 A 
ATOM     77  F   UNL A   1      49.869  26.151  28.349  1.00  0.00    -0.203 F 
ATOM     78  F   UNL A   1      51.083  26.850  23.077  1.00  0.00    -0.200 F 
ATOM     79  C   UNL A   1      51.756  26.248  25.259  1.00  0.00     0.200 A 
ATOM     80  F   UNL A   1      52.376  25.646  27.456  1.00  0.00    -0.200 F 
ATOM     81  F   UNL A   1      52.992  25.973  24.818  1.00  0.00    -0.200 F 
ENDBRANCH  47  71
BRANCH  59  82
ATOM     82  C   UNL A   1      45.999  32.605  28.389  1.00  0.00     0.064 A 
ATOM     83  C   UNL A   1      46.589  33.032  29.588  1.00  0.00     0.173 A 
ATOM     84  C   UNL A   1      45.906  33.525  27.335  1.00  0.00     0.173 A 
ATOM     85  F   UNL A   1      46.683  32.193  30.630  1.00  0.00    -0.203 F 
ATOM     86  C   UNL A   1      47.052  34.336  29.730  1.00  0.00     0.198 A 
ATOM     87  C   UNL A   1      46.393  34.821  27.472  1.00  0.00     0.198 A 
ATOM     88  F   UNL A   1      45.352  33.163  26.168  1.00  0.00    -0.203 F 
ATOM     89  F   UNL A   1      47.577  34.736  30.897  1.00  0.00    -0.200 F 
ATOM     90  C   UNL A   1      46.961  35.228  28.671  1.00  0.00     0.200 A 
ATOM     91  F   UNL A   1      46.313  35.678  26.445  1.00  0.00    -0.200 F 
ATOM     92  F   UNL A   1      47.416  36.481  28.807  1.00  0.00    -0.200 F 
ENDBRANCH  59  82
ENDBRANCH  33  34
ENDBRANCH  25  28
ENDBRANCH  23  24
ENDBRANCH  22  23
ENDBRANCH   1  22
TORSDOF 14
ENDMDL
