MODEL 1
REMARK VINA RESULT:     -14.2      0.000      0.000
REMARK SMILES Cc1ccccc1NC(=O)CSc1nc(C(=O)NCCCCNC(=O)c2ccc(-c3c4nc(c(-c5c(F)c(F)c(F)c(F)c5F)c5ccc([nH]5)c(-c5c(F)c(F)c(F)c(F)c5F)c5nc(c(-c6c(F)c(F)c(F)c(F)c6F)c6ccc3[nH]6)C=C5)C=C4)cc2)c2ccccc2n1
REMARK SMILES IDX 19 1 18 2 16 3 17 4 15 6 13 7 14 8 95 9 94 10 89 11 93 12
REMARK SMILES IDX 90 13 92 14 91 15 12 16 11 17 9 18 8 19 10 21 7 22 1 23 2 24
REMARK SMILES IDX 3 25 4 26 6 27 5 28 20 29 21 30 22 31 23 32 24 33 25 35
REMARK SMILES IDX 26 36 27 37 88 38 28 39 87 40 29 41 30 42 31 43 81 44 32 45
REMARK SMILES IDX 86 46 80 47 82 48 33 49 85 50 79 51 78 52 34 54 66 55 46 56
REMARK SMILES IDX 65 57 47 58 50 59 64 60 83 61 48 62 49 63 63 65 84 66 51 67
REMARK SMILES IDX 35 68 36 69 44 70 37 71 38 72 42 73 45 74 39 75 40 76 43 77
REMARK SMILES IDX 41 78 67 79 68 80 76 81 69 82 70 83 74 84 77 85 71 86 72 87
REMARK SMILES IDX 75 88 73 89 52 90 53 91 61 92 54 93 55 94 59 95 62 96 56 97
REMARK SMILES IDX 57 98 60 99 58 100
REMARK H PARENT 18 5 8 20 23 34 82 53 50 64
REMARK Flexibility Score: inf
ROOT
ATOM      1  C   UNL A   1      35.608  22.850  26.048  1.00  0.00     0.116 C 
ENDROOT
BRANCH   1   2
ATOM      2  N   UNL A   1      34.638  22.863  27.133  1.00  0.00    -0.351 N 
ATOM      3  C   UNL A   1      33.292  22.518  27.134  1.00  0.00     0.270 C 
ATOM      4  O   UNL A   1      32.707  22.478  28.216  1.00  0.00    -0.267 OA
ATOM      5  H   UNL A   1      34.990  23.162  28.002  1.00  0.00     0.163 HD
BRANCH   3   6
ATOM      6  C   UNL A   1      32.529  22.286  25.860  1.00  0.00     0.140 A 
ATOM      7  C   UNL A   1      31.517  23.328  24.112  1.00  0.00     0.189 A 
ATOM      8  N   UNL A   1      32.012  23.425  25.342  1.00  0.00    -0.217 NA
ATOM      9  N   UNL A   1      31.605  22.242  23.336  1.00  0.00    -0.222 NA
ATOM     10  C   UNL A   1      32.100  21.126  23.878  1.00  0.00     0.076 A 
ATOM     11  C   UNL A   1      32.496  21.046  25.213  1.00  0.00     0.032 A 
ATOM     12  C   UNL A   1      32.269  20.008  23.071  1.00  0.00     0.029 A 
ATOM     13  C   UNL A   1      32.871  19.787  25.756  1.00  0.00     0.013 A 
ATOM     14  C   UNL A   1      32.760  18.800  23.575  1.00  0.00     0.002 A 
ATOM     15  C   UNL A   1      33.027  18.678  24.931  1.00  0.00     0.001 A 
BRANCH   7  16
ATOM     16  S   UNL A   1      30.828  24.775  23.369  1.00  0.00    -0.076 SA
BRANCH  16  17
ATOM     17  C   UNL A   1      32.254  25.342  22.398  1.00  0.00     0.178 C 
BRANCH  17  18
ATOM     18  C   UNL A   1      33.570  25.280  23.141  1.00  0.00     0.234 C 
ATOM     19  N   UNL A   1      33.927  26.072  24.188  1.00  0.00    -0.325 N 
ATOM     20  H   UNL A   1      34.852  25.904  24.477  1.00  0.00     0.169 HD
ATOM     21  O   UNL A   1      34.430  24.464  22.774  1.00  0.00    -0.274 OA
BRANCH  19  22
ATOM     22  C   UNL A   1      33.307  27.074  24.963  1.00  0.00     0.044 A 
ATOM     23  C   UNL A   1      33.768  28.836  23.109  1.00  0.00     0.046 C 
ATOM     24  C   UNL A   1      33.293  28.404  24.475  1.00  0.00    -0.027 A 
ATOM     25  C   UNL A   1      32.829  29.444  25.307  1.00  0.00     0.005 A 
ATOM     26  C   UNL A   1      32.336  29.183  26.580  1.00  0.00     0.000 A 
ATOM     27  C   UNL A   1      32.726  26.830  26.211  1.00  0.00     0.026 A 
ATOM     28  C   UNL A   1      32.260  27.871  27.019  1.00  0.00     0.002 A 
ENDBRANCH  19  22
ENDBRANCH  17  18
ENDBRANCH  16  17
ENDBRANCH   7  16
ENDBRANCH   3   6
ENDBRANCH   1   2
BRANCH   1  29
ATOM     29  C   UNL A   1      36.189  21.492  25.671  1.00  0.00     0.023 C 
BRANCH  29  30
ATOM     30  C   UNL A   1      37.676  21.434  25.358  1.00  0.00     0.023 C 
BRANCH  30  31
ATOM     31  C   UNL A   1      38.472  22.717  25.552  1.00  0.00     0.116 C 
BRANCH  31  32
ATOM     32  N   UNL A   1      39.787  22.570  26.162  1.00  0.00    -0.352 N 
ATOM     33  C   UNL A   1      40.595  23.522  26.779  1.00  0.00     0.251 C 
ATOM     34  H   UNL A   1      40.162  21.660  26.133  1.00  0.00     0.163 HD
ATOM     35  O   UNL A   1      41.681  23.196  27.228  1.00  0.00    -0.269 OA
BRANCH  33  36
ATOM     36  C   UNL A   1      40.084  24.901  27.017  1.00  0.00     0.039 A 
ATOM     37  C   UNL A   1      40.559  25.947  26.210  1.00  0.00     0.014 A 
ATOM     38  C   UNL A   1      39.306  25.199  28.126  1.00  0.00     0.014 A 
ATOM     39  C   UNL A   1      40.492  27.261  26.677  1.00  0.00     0.010 A 
ATOM     40  C   UNL A   1      39.373  26.463  28.662  1.00  0.00     0.010 A 
ATOM     41  C   UNL A   1      40.025  27.485  27.968  1.00  0.00    -0.014 A 
BRANCH  41  42
ATOM     42  C   UNL A   1      40.264  28.696  28.744  1.00  0.00     0.031 A 
ATOM     43  C   UNL A   1      39.220  29.737  28.850  1.00  0.00     0.074 A 
ATOM     44  C   UNL A   1      41.335  28.714  29.569  1.00  0.00     0.049 A 
ATOM     45  N   UNL A   1      39.391  30.893  29.393  1.00  0.00    -0.248 NA
ATOM     46  C   UNL A   1      37.880  29.561  28.306  1.00  0.00     0.031 C 
ATOM     47  C   UNL A   1      41.541  29.558  30.744  1.00  0.00     0.029 A 
ATOM     48  N   UNL A   1      42.570  28.063  29.392  1.00  0.00    -0.354 N 
ATOM     49  C   UNL A   1      38.154  31.480  29.547  1.00  0.00     0.074 A 
ATOM     50  C   UNL A   1      37.263  30.648  28.778  1.00  0.00     0.031 C 
ATOM     51  C   UNL A   1      42.856  29.626  31.005  1.00  0.00     0.029 A 
ATOM     52  C   UNL A   1      43.534  28.965  29.905  1.00  0.00     0.049 A 
ATOM     53  H   UNL A   1      42.729  27.175  28.999  1.00  0.00     0.167 HD
ATOM     54  C   UNL A   1      38.035  32.525  30.420  1.00  0.00     0.037 A 
ATOM     55  C   UNL A   1      44.444  29.570  29.087  1.00  0.00     0.037 A 
ATOM     56  C   UNL A   1      39.359  32.964  30.874  1.00  0.00     0.049 A 
ATOM     57  C   UNL A   1      44.378  31.079  29.102  1.00  0.00     0.074 A 
ATOM     58  C   UNL A   1      40.078  32.769  32.042  1.00  0.00     0.029 A 
ATOM     59  N   UNL A   1      40.260  33.468  29.941  1.00  0.00    -0.354 N 
ATOM     60  N   UNL A   1      43.331  31.758  29.482  1.00  0.00    -0.248 NA
ATOM     61  C   UNL A   1      45.479  31.939  28.682  1.00  0.00     0.031 C 
ATOM     62  C   UNL A   1      41.431  33.114  31.789  1.00  0.00     0.029 A 
ATOM     63  C   UNL A   1      41.530  33.537  30.475  1.00  0.00     0.049 A 
ATOM     64  H   UNL A   1      40.023  33.739  29.024  1.00  0.00     0.167 HD
ATOM     65  C   UNL A   1      43.588  33.102  29.368  1.00  0.00     0.074 A 
ATOM     66  C   UNL A   1      44.952  33.161  28.877  1.00  0.00     0.031 C 
ATOM     67  C   UNL A   1      42.646  34.042  29.686  1.00  0.00     0.037 A 
BRANCH  54  68
ATOM     68  C   UNL A   1      36.740  32.991  31.073  1.00  0.00     0.064 A 
ATOM     69  C   UNL A   1      35.833  33.813  30.362  1.00  0.00     0.173 A 
ATOM     70  C   UNL A   1      36.358  32.744  32.406  1.00  0.00     0.173 A 
ATOM     71  F   UNL A   1      35.988  34.064  29.056  1.00  0.00    -0.203 F 
ATOM     72  C   UNL A   1      34.718  34.413  30.961  1.00  0.00     0.198 A 
ATOM     73  C   UNL A   1      35.266  33.371  33.017  1.00  0.00     0.198 A 
ATOM     74  F   UNL A   1      36.978  31.841  33.165  1.00  0.00    -0.203 F 
ATOM     75  F   UNL A   1      33.910  35.195  30.231  1.00  0.00    -0.200 F 
ATOM     76  C   UNL A   1      34.451  34.217  32.298  1.00  0.00     0.200 A 
ATOM     77  F   UNL A   1      35.009  33.137  34.312  1.00  0.00    -0.200 F 
ATOM     78  F   UNL A   1      33.404  34.813  32.884  1.00  0.00    -0.200 F 
ENDBRANCH  54  68
BRANCH  55  79
ATOM     79  C   UNL A   1      44.808  28.732  27.913  1.00  0.00     0.064 A 
ATOM     80  C   UNL A   1      45.673  27.639  28.126  1.00  0.00     0.173 A 
ATOM     81  C   UNL A   1      44.032  28.724  26.749  1.00  0.00     0.173 A 
ATOM     82  F   UNL A   1      46.435  27.593  29.230  1.00  0.00    -0.203 F 
ATOM     83  C   UNL A   1      45.661  26.530  27.284  1.00  0.00     0.198 A 
ATOM     84  C   UNL A   1      44.038  27.617  25.896  1.00  0.00     0.198 A 
ATOM     85  F   UNL A   1      43.171  29.722  26.500  1.00  0.00    -0.203 F 
ATOM     86  F   UNL A   1      46.398  25.452  27.590  1.00  0.00    -0.200 F 
ATOM     87  C   UNL A   1      44.820  26.507  26.185  1.00  0.00     0.200 A 
ATOM     88  F   UNL A   1      43.200  27.578  24.849  1.00  0.00    -0.200 F 
ATOM     89  F   UNL A   1      44.725  25.401  25.435  1.00  0.00    -0.200 F 
ENDBRANCH  55  79
BRANCH  67  90
ATOM     90  C   UNL A   1      42.696  35.525  29.379  1.00  0.00     0.064 A 
ATOM     91  C   UNL A   1      43.454  36.462  30.101  1.00  0.00     0.173 A 
ATOM     92  C   UNL A   1      42.068  36.036  28.211  1.00  0.00     0.173 A 
ATOM     93  F   UNL A   1      44.202  36.099  31.151  1.00  0.00    -0.203 F 
ATOM     94  C   UNL A   1      43.529  37.808  29.726  1.00  0.00     0.198 A 
ATOM     95  C   UNL A   1      42.197  37.364  27.806  1.00  0.00     0.198 A 
ATOM     96  F   UNL A   1      41.335  35.256  27.406  1.00  0.00    -0.203 F 
ATOM     97  F   UNL A   1      44.233  38.666  30.477  1.00  0.00    -0.200 F 
ATOM     98  C   UNL A   1      42.913  38.255  28.572  1.00  0.00     0.200 A 
ATOM     99  F   UNL A   1      41.641  37.764  26.653  1.00  0.00    -0.200 F 
ATOM    100  F   UNL A   1      43.032  39.534  28.189  1.00  0.00    -0.200 F 
ENDBRANCH  67  90
ENDBRANCH  41  42
ENDBRANCH  33  36
ENDBRANCH  31  32
ENDBRANCH  30  31
ENDBRANCH  29  30
ENDBRANCH   1  29
TORSDOF 15
ENDMDL
MODEL 2
REMARK VINA RESULT:     -14.0      3.516      9.803
REMARK SMILES Cc1ccccc1NC(=O)CSc1nc(C(=O)NCCCCNC(=O)c2ccc(-c3c4nc(c(-c5c(F)c(F)c(F)c(F)c5F)c5ccc([nH]5)c(-c5c(F)c(F)c(F)c(F)c5F)c5nc(c(-c6c(F)c(F)c(F)c(F)c6F)c6ccc3[nH]6)C=C5)C=C4)cc2)c2ccccc2n1
REMARK SMILES IDX 19 1 18 2 16 3 17 4 15 6 13 7 14 8 95 9 94 10 89 11 93 12
REMARK SMILES IDX 90 13 92 14 91 15 12 16 11 17 9 18 8 19 10 21 7 22 1 23 2 24
REMARK SMILES IDX 3 25 4 26 6 27 5 28 20 29 21 30 22 31 23 32 24 33 25 35
REMARK SMILES IDX 26 36 27 37 88 38 28 39 87 40 29 41 30 42 31 43 81 44 32 45
REMARK SMILES IDX 86 46 80 47 82 48 33 49 85 50 79 51 78 52 34 54 66 55 46 56
REMARK SMILES IDX 65 57 47 58 50 59 64 60 83 61 48 62 49 63 63 65 84 66 51 67
REMARK SMILES IDX 35 68 36 69 44 70 37 71 38 72 42 73 45 74 39 75 40 76 43 77
REMARK SMILES IDX 41 78 67 79 68 80 76 81 69 82 70 83 74 84 77 85 71 86 72 87
REMARK SMILES IDX 75 88 73 89 52 90 53 91 61 92 54 93 55 94 59 95 62 96 56 97
REMARK SMILES IDX 57 98 60 99 58 100
REMARK H PARENT 18 5 8 20 23 34 82 53 50 64
REMARK Flexibility Score: inf
ROOT
ATOM      1  C   UNL A   1      33.602  28.991  25.145  1.00  0.00     0.116 C 
ENDROOT
BRANCH   1   2
ATOM      2  N   UNL A   1      34.030  28.693  23.787  1.00  0.00    -0.351 N 
ATOM      3  C   UNL A   1      33.333  28.108  22.737  1.00  0.00     0.270 C 
ATOM      4  O   UNL A   1      33.869  28.088  21.629  1.00  0.00    -0.267 OA
ATOM      5  H   UNL A   1      34.959  28.947  23.578  1.00  0.00     0.163 HD
BRANCH   3   6
ATOM      6  C   UNL A   1      32.007  27.433  22.941  1.00  0.00     0.140 A 
ATOM      7  C   UNL A   1      30.984  25.656  23.923  1.00  0.00     0.189 A 
ATOM      8  N   UNL A   1      32.121  26.212  23.516  1.00  0.00    -0.217 NA
ATOM      9  N   UNL A   1      29.790  26.261  23.910  1.00  0.00    -0.222 NA
ATOM     10  C   UNL A   1      29.701  27.454  23.318  1.00  0.00     0.076 A 
ATOM     11  C   UNL A   1      30.786  28.073  22.697  1.00  0.00     0.032 A 
ATOM     12  C   UNL A   1      28.489  28.132  23.357  1.00  0.00     0.029 A 
ATOM     13  C   UNL A   1      30.581  29.270  21.960  1.00  0.00     0.013 A 
ATOM     14  C   UNL A   1      28.317  29.374  22.740  1.00  0.00     0.002 A 
ATOM     15  C   UNL A   1      29.356  29.929  22.007  1.00  0.00     0.001 A 
BRANCH   7  16
ATOM     16  S   UNL A   1      31.054  24.065  24.687  1.00  0.00    -0.076 SA
BRANCH  16  17
ATOM     17  C   UNL A   1      32.425  24.331  25.847  1.00  0.00     0.178 C 
BRANCH  17  18
ATOM     18  C   UNL A   1      32.657  23.182  26.803  1.00  0.00     0.234 C 
ATOM     19  N   UNL A   1      33.760  22.385  26.832  1.00  0.00    -0.325 N 
ATOM     20  H   UNL A   1      33.672  21.660  27.492  1.00  0.00     0.169 HD
ATOM     21  O   UNL A   1      31.775  22.899  27.629  1.00  0.00    -0.274 OA
BRANCH  19  22
ATOM     22  C   UNL A   1      34.996  22.335  26.156  1.00  0.00     0.044 A 
ATOM     23  C   UNL A   1      34.308  20.111  25.001  1.00  0.00     0.046 C 
ATOM     24  C   UNL A   1      35.280  21.215  25.336  1.00  0.00    -0.027 A 
ATOM     25  C   UNL A   1      36.572  21.066  24.788  1.00  0.00     0.005 A 
ATOM     26  C   UNL A   1      37.557  22.025  24.993  1.00  0.00     0.000 A 
ATOM     27  C   UNL A   1      35.977  23.324  26.274  1.00  0.00     0.026 A 
ATOM     28  C   UNL A   1      37.249  23.167  25.714  1.00  0.00     0.002 A 
ENDBRANCH  19  22
ENDBRANCH  17  18
ENDBRANCH  16  17
ENDBRANCH   7  16
ENDBRANCH   3   6
ENDBRANCH   1   2
BRANCH   1  29
ATOM     29  C   UNL A   1      32.337  29.829  25.292  1.00  0.00     0.023 C 
BRANCH  29  30
ATOM     30  C   UNL A   1      32.220  30.699  26.534  1.00  0.00     0.023 C 
BRANCH  30  31
ATOM     31  C   UNL A   1      33.259  30.487  27.626  1.00  0.00     0.116 C 
BRANCH  31  32
ATOM     32  N   UNL A   1      34.076  31.644  27.968  1.00  0.00    -0.352 N 
ATOM     33  C   UNL A   1      35.395  31.705  28.411  1.00  0.00     0.251 C 
ATOM     34  H   UNL A   1      33.627  32.515  27.872  1.00  0.00     0.163 HD
ATOM     35  O   UNL A   1      35.904  32.786  28.651  1.00  0.00    -0.269 OA
BRANCH  33  36
ATOM     36  C   UNL A   1      36.229  30.471  28.457  1.00  0.00     0.039 A 
ATOM     37  C   UNL A   1      36.359  29.788  29.676  1.00  0.00     0.014 A 
ATOM     38  C   UNL A   1      37.023  30.098  27.382  1.00  0.00     0.014 A 
ATOM     39  C   UNL A   1      37.457  28.953  29.884  1.00  0.00     0.010 A 
ATOM     40  C   UNL A   1      38.184  29.403  27.626  1.00  0.00     0.010 A 
ATOM     41  C   UNL A   1      38.436  28.884  28.898  1.00  0.00    -0.014 A 
BRANCH  41  42
ATOM     42  C   UNL A   1      39.799  28.409  29.106  1.00  0.00     0.031 A 
ATOM     43  C   UNL A   1      40.183  27.037  28.714  1.00  0.00     0.074 A 
ATOM     44  C   UNL A   1      40.747  29.326  29.405  1.00  0.00     0.049 A 
ATOM     45  N   UNL A   1      41.317  26.488  28.985  1.00  0.00    -0.248 NA
ATOM     46  C   UNL A   1      39.280  26.145  27.998  1.00  0.00     0.031 C 
ATOM     47  C   UNL A   1      42.191  29.211  29.213  1.00  0.00     0.029 A 
ATOM     48  N   UNL A   1      40.590  30.522  30.129  1.00  0.00    -0.354 N 
ATOM     49  C   UNL A   1      41.418  25.329  28.247  1.00  0.00     0.074 A 
ATOM     50  C   UNL A   1      40.092  25.121  27.720  1.00  0.00     0.031 C 
ATOM     51  C   UNL A   1      42.808  30.078  30.031  1.00  0.00     0.029 A 
ATOM     52  C   UNL A   1      41.782  30.650  30.883  1.00  0.00     0.049 A 
ATOM     53  H   UNL A   1      39.821  31.136  30.115  1.00  0.00     0.167 HD
ATOM     54  C   UNL A   1      42.655  24.773  28.077  1.00  0.00     0.037 A 
ATOM     55  C   UNL A   1      41.773  30.555  32.245  1.00  0.00     0.037 A 
ATOM     56  C   UNL A   1      43.637  25.441  28.937  1.00  0.00     0.049 A 
ATOM     57  C   UNL A   1      42.641  29.446  32.791  1.00  0.00     0.074 A 
ATOM     58  C   UNL A   1      44.621  26.387  28.702  1.00  0.00     0.029 A 
ATOM     59  N   UNL A   1      43.479  25.377  30.318  1.00  0.00    -0.354 N 
ATOM     60  N   UNL A   1      43.023  28.410  32.096  1.00  0.00    -0.248 NA
ATOM     61  C   UNL A   1      43.138  29.411  34.162  1.00  0.00     0.031 C 
ATOM     62  C   UNL A   1      45.019  26.929  29.952  1.00  0.00     0.029 A 
ATOM     63  C   UNL A   1      44.292  26.298  30.947  1.00  0.00     0.049 A 
ATOM     64  H   UNL A   1      42.869  24.759  30.784  1.00  0.00     0.167 HD
ATOM     65  C   UNL A   1      43.790  27.586  32.880  1.00  0.00     0.074 A 
ATOM     66  C   UNL A   1      43.843  28.266  34.161  1.00  0.00     0.031 C 
ATOM     67  C   UNL A   1      44.306  26.414  32.399  1.00  0.00     0.037 A 
BRANCH  54  68
ATOM     68  C   UNL A   1      43.049  23.813  26.962  1.00  0.00     0.064 A 
ATOM     69  C   UNL A   1      42.709  22.441  27.042  1.00  0.00     0.173 A 
ATOM     70  C   UNL A   1      43.824  24.141  25.832  1.00  0.00     0.173 A 
ATOM     71  F   UNL A   1      41.893  21.974  27.995  1.00  0.00    -0.203 F 
ATOM     72  C   UNL A   1      43.191  21.483  26.141  1.00  0.00     0.198 A 
ATOM     73  C   UNL A   1      44.336  23.181  24.951  1.00  0.00     0.198 A 
ATOM     74  F   UNL A   1      44.071  25.404  25.485  1.00  0.00    -0.203 F 
ATOM     75  F   UNL A   1      42.842  20.197  26.287  1.00  0.00    -0.200 F 
ATOM     76  C   UNL A   1      44.031  21.848  25.112  1.00  0.00     0.200 A 
ATOM     77  F   UNL A   1      45.124  23.568  23.938  1.00  0.00    -0.200 F 
ATOM     78  F   UNL A   1      44.518  20.932  24.266  1.00  0.00    -0.200 F 
ENDBRANCH  54  68
BRANCH  55  79
ATOM     79  C   UNL A   1      40.497  31.030  32.846  1.00  0.00     0.064 A 
ATOM     80  C   UNL A   1      40.278  32.420  32.912  1.00  0.00     0.173 A 
ATOM     81  C   UNL A   1      39.380  30.193  32.951  1.00  0.00     0.173 A 
ATOM     82  F   UNL A   1      41.314  33.268  32.810  1.00  0.00    -0.203 F 
ATOM     83  C   UNL A   1      38.990  32.951  32.945  1.00  0.00     0.198 A 
ATOM     84  C   UNL A   1      38.091  30.730  33.004  1.00  0.00     0.198 A 
ATOM     85  F   UNL A   1      39.519  28.862  32.871  1.00  0.00    -0.203 F 
ATOM     86  F   UNL A   1      38.813  34.278  32.872  1.00  0.00    -0.200 F 
ATOM     87  C   UNL A   1      37.896  32.104  32.961  1.00  0.00     0.200 A 
ATOM     88  F   UNL A   1      37.028  29.912  32.985  1.00  0.00    -0.200 F 
ATOM     89  F   UNL A   1      36.656  32.607  32.883  1.00  0.00    -0.200 F 
ENDBRANCH  55  79
BRANCH  67  90
ATOM     90  C   UNL A   1      44.948  25.300  33.202  1.00  0.00     0.064 A 
ATOM     91  C   UNL A   1      46.326  25.030  33.228  1.00  0.00     0.173 A 
ATOM     92  C   UNL A   1      44.172  24.540  34.118  1.00  0.00     0.173 A 
ATOM     93  F   UNL A   1      47.195  25.754  32.512  1.00  0.00    -0.203 F 
ATOM     94  C   UNL A   1      46.876  24.040  34.050  1.00  0.00     0.198 A 
ATOM     95  C   UNL A   1      44.733  23.599  34.982  1.00  0.00     0.198 A 
ATOM     96  F   UNL A   1      42.847  24.706  34.229  1.00  0.00    -0.203 F 
ATOM     97  F   UNL A   1      48.193  23.796  34.001  1.00  0.00    -0.200 F 
ATOM     98  C   UNL A   1      46.083  23.336  34.936  1.00  0.00     0.200 A 
ATOM     99  F   UNL A   1      43.955  22.969  35.875  1.00  0.00    -0.200 F 
ATOM    100  F   UNL A   1      46.623  22.428  35.759  1.00  0.00    -0.200 F 
ENDBRANCH  67  90
ENDBRANCH  41  42
ENDBRANCH  33  36
ENDBRANCH  31  32
ENDBRANCH  30  31
ENDBRANCH  29  30
ENDBRANCH   1  29
TORSDOF 15
ENDMDL
MODEL 3
REMARK VINA RESULT:     -13.9      1.057      1.964
REMARK SMILES Cc1ccccc1NC(=O)CSc1nc(C(=O)NCCCCNC(=O)c2ccc(-c3c4nc(c(-c5c(F)c(F)c(F)c(F)c5F)c5ccc([nH]5)c(-c5c(F)c(F)c(F)c(F)c5F)c5nc(c(-c6c(F)c(F)c(F)c(F)c6F)c6ccc3[nH]6)C=C5)C=C4)cc2)c2ccccc2n1
REMARK SMILES IDX 19 1 18 2 16 3 17 4 15 6 13 7 14 8 95 9 94 10 89 11 93 12
REMARK SMILES IDX 90 13 92 14 91 15 12 16 11 17 9 18 8 19 10 21 7 22 1 23 2 24
REMARK SMILES IDX 3 25 4 26 6 27 5 28 20 29 21 30 22 31 23 32 24 33 25 35
REMARK SMILES IDX 26 36 27 37 88 38 28 39 87 40 29 41 30 42 31 43 81 44 32 45
REMARK SMILES IDX 86 46 80 47 82 48 33 49 85 50 79 51 78 52 34 54 66 55 46 56
REMARK SMILES IDX 65 57 47 58 50 59 64 60 83 61 48 62 49 63 63 65 84 66 51 67
REMARK SMILES IDX 35 68 36 69 44 70 37 71 38 72 42 73 45 74 39 75 40 76 43 77
REMARK SMILES IDX 41 78 67 79 68 80 76 81 69 82 70 83 74 84 77 85 71 86 72 87
REMARK SMILES IDX 75 88 73 89 52 90 53 91 61 92 54 93 55 94 59 95 62 96 56 97
REMARK SMILES IDX 57 98 60 99 58 100
REMARK H PARENT 18 5 8 20 23 34 82 53 50 64
REMARK Flexibility Score: inf
ROOT
ATOM      1  C   UNL A   1      35.449  22.836  26.111  1.00  0.00     0.116 C 
ENDROOT
BRANCH   1   2
ATOM      2  N   UNL A   1      34.573  22.694  27.264  1.00  0.00    -0.351 N 
ATOM      3  C   UNL A   1      33.186  22.645  27.334  1.00  0.00     0.270 C 
ATOM      4  O   UNL A   1      32.671  22.377  28.419  1.00  0.00    -0.267 OA
ATOM      5  H   UNL A   1      35.034  22.620  28.131  1.00  0.00     0.163 HD
BRANCH   3   6
ATOM      6  C   UNL A   1      32.317  22.994  26.159  1.00  0.00     0.140 A 
ATOM      7  C   UNL A   1      31.245  24.704  25.113  1.00  0.00     0.189 A 
ATOM      8  N   UNL A   1      31.836  24.258  26.218  1.00  0.00    -0.217 NA
ATOM      9  N   UNL A   1      31.207  24.046  23.948  1.00  0.00    -0.222 NA
ATOM     10  C   UNL A   1      31.669  22.794  23.923  1.00  0.00     0.076 A 
ATOM     11  C   UNL A   1      32.158  22.145  25.057  1.00  0.00     0.032 A 
ATOM     12  C   UNL A   1      31.706  22.118  22.709  1.00  0.00     0.029 A 
ATOM     13  C   UNL A   1      32.492  20.766  24.985  1.00  0.00     0.013 A 
ATOM     14  C   UNL A   1      32.157  20.799  22.612  1.00  0.00     0.002 A 
ATOM     15  C   UNL A   1      32.516  20.107  23.760  1.00  0.00     0.001 A 
BRANCH   7  16
ATOM     16  S   UNL A   1      30.596  26.346  25.113  1.00  0.00    -0.076 SA
BRANCH  16  17
ATOM     17  C   UNL A   1      30.701  26.729  23.341  1.00  0.00     0.178 C 
BRANCH  17  18
ATOM     18  C   UNL A   1      30.656  28.207  23.025  1.00  0.00     0.234 C 
ATOM     19  N   UNL A   1      31.266  29.190  23.742  1.00  0.00    -0.325 N 
ATOM     20  H   UNL A   1      31.051  30.085  23.395  1.00  0.00     0.169 HD
ATOM     21  O   UNL A   1      29.995  28.594  22.049  1.00  0.00    -0.274 OA
BRANCH  19  22
ATOM     22  C   UNL A   1      32.127  29.250  24.857  1.00  0.00     0.044 A 
ATOM     23  C   UNL A   1      34.108  28.391  23.411  1.00  0.00     0.046 C 
ATOM     24  C   UNL A   1      33.464  28.805  24.711  1.00  0.00    -0.027 A 
ATOM     25  C   UNL A   1      34.289  28.701  25.851  1.00  0.00     0.005 A 
ATOM     26  C   UNL A   1      33.832  29.077  27.109  1.00  0.00     0.000 A 
ATOM     27  C   UNL A   1      31.723  29.703  26.116  1.00  0.00     0.026 A 
ATOM     28  C   UNL A   1      32.557  29.604  27.234  1.00  0.00     0.002 A 
ENDBRANCH  19  22
ENDBRANCH  17  18
ENDBRANCH  16  17
ENDBRANCH   7  16
ENDBRANCH   3   6
ENDBRANCH   1   2
BRANCH   1  29
ATOM     29  C   UNL A   1      36.041  21.551  25.544  1.00  0.00     0.023 C 
BRANCH  29  30
ATOM     30  C   UNL A   1      37.554  21.482  25.412  1.00  0.00     0.023 C 
BRANCH  30  31
ATOM     31  C   UNL A   1      38.333  22.754  25.723  1.00  0.00     0.116 C 
BRANCH  31  32
ATOM     32  N   UNL A   1      39.618  22.573  26.385  1.00  0.00    -0.352 N 
ATOM     33  C   UNL A   1      40.428  23.506  27.027  1.00  0.00     0.251 C 
ATOM     34  H   UNL A   1      39.966  21.652  26.378  1.00  0.00     0.163 HD
ATOM     35  O   UNL A   1      41.485  23.152  27.522  1.00  0.00    -0.269 OA
BRANCH  33  36
ATOM     36  C   UNL A   1      39.948  24.901  27.236  1.00  0.00     0.039 A 
ATOM     37  C   UNL A   1      40.383  25.904  26.355  1.00  0.00     0.014 A 
ATOM     38  C   UNL A   1      39.247  25.258  28.378  1.00  0.00     0.014 A 
ATOM     39  C   UNL A   1      40.361  27.237  26.766  1.00  0.00     0.010 A 
ATOM     40  C   UNL A   1      39.361  26.543  28.852  1.00  0.00     0.010 A 
ATOM     41  C   UNL A   1      39.979  27.525  28.073  1.00  0.00    -0.014 A 
BRANCH  41  42
ATOM     42  C   UNL A   1      40.281  28.765  28.777  1.00  0.00     0.031 A 
ATOM     43  C   UNL A   1      39.260  29.827  28.897  1.00  0.00     0.074 A 
ATOM     44  C   UNL A   1      41.399  28.802  29.537  1.00  0.00     0.049 A 
ATOM     45  N   UNL A   1      39.479  31.003  29.375  1.00  0.00    -0.248 NA
ATOM     46  C   UNL A   1      37.888  29.649  28.440  1.00  0.00     0.031 C 
ATOM     47  C   UNL A   1      41.686  29.693  30.659  1.00  0.00     0.029 A 
ATOM     48  N   UNL A   1      42.611  28.122  29.319  1.00  0.00    -0.354 N 
ATOM     49  C   UNL A   1      38.262  31.617  29.574  1.00  0.00     0.074 A 
ATOM     50  C   UNL A   1      37.315  30.766  28.896  1.00  0.00     0.031 C 
ATOM     51  C   UNL A   1      43.015  29.751  30.839  1.00  0.00     0.029 A 
ATOM     52  C   UNL A   1      43.617  29.030  29.733  1.00  0.00     0.049 A 
ATOM     53  H   UNL A   1      42.735  27.215  28.958  1.00  0.00     0.167 HD
ATOM     54  C   UNL A   1      38.209  32.702  30.404  1.00  0.00     0.037 A 
ATOM     55  C   UNL A   1      44.486  29.582  28.837  1.00  0.00     0.037 A 
ATOM     56  C   UNL A   1      39.564  33.138  30.759  1.00  0.00     0.049 A 
ATOM     57  C   UNL A   1      44.443  31.091  28.787  1.00  0.00     0.074 A 
ATOM     58  C   UNL A   1      40.347  32.984  31.892  1.00  0.00     0.029 A 
ATOM     59  N   UNL A   1      40.415  33.585  29.753  1.00  0.00    -0.354 N 
ATOM     60  N   UNL A   1      43.430  31.805  29.195  1.00  0.00    -0.248 NA
ATOM     61  C   UNL A   1      45.529  31.912  28.265  1.00  0.00     0.031 C 
ATOM     62  C   UNL A   1      41.688  33.294  31.545  1.00  0.00     0.029 A 
ATOM     63  C   UNL A   1      41.716  33.656  30.209  1.00  0.00     0.049 A 
ATOM     64  H   UNL A   1      40.128  33.818  28.840  1.00  0.00     0.167 HD
ATOM     65  C   UNL A   1      43.698  33.137  29.006  1.00  0.00     0.074 A 
ATOM     66  C   UNL A   1      45.032  33.151  28.434  1.00  0.00     0.031 C 
ATOM     67  C   UNL A   1      42.791  34.106  29.334  1.00  0.00     0.037 A 
BRANCH  54  68
ATOM     68  C   UNL A   1      36.962  33.218  31.109  1.00  0.00     0.064 A 
ATOM     69  C   UNL A   1      36.763  32.970  32.488  1.00  0.00     0.173 A 
ATOM     70  C   UNL A   1      35.888  33.889  30.492  1.00  0.00     0.173 A 
ATOM     71  F   UNL A   1      37.723  32.434  33.252  1.00  0.00    -0.203 F 
ATOM     72  C   UNL A   1      35.564  33.264  33.150  1.00  0.00     0.198 A 
ATOM     73  C   UNL A   1      34.676  34.152  31.141  1.00  0.00     0.198 A 
ATOM     74  F   UNL A   1      35.976  34.379  29.255  1.00  0.00    -0.203 F 
ATOM     75  F   UNL A   1      35.438  32.986  34.455  1.00  0.00    -0.200 F 
ATOM     76  C   UNL A   1      34.508  33.828  32.468  1.00  0.00     0.200 A 
ATOM     77  F   UNL A   1      33.675  34.732  30.463  1.00  0.00    -0.200 F 
ATOM     78  F   UNL A   1      33.349  34.085  33.089  1.00  0.00    -0.200 F 
ENDBRANCH  54  68
BRANCH  55  79
ATOM     79  C   UNL A   1      44.768  28.686  27.683  1.00  0.00     0.064 A 
ATOM     80  C   UNL A   1      45.642  27.600  27.891  1.00  0.00     0.173 A 
ATOM     81  C   UNL A   1      43.916  28.627  26.575  1.00  0.00     0.173 A 
ATOM     82  F   UNL A   1      46.476  27.602  28.943  1.00  0.00    -0.203 F 
ATOM     83  C   UNL A   1      45.570  26.451  27.106  1.00  0.00     0.198 A 
ATOM     84  C   UNL A   1      43.862  27.481  25.778  1.00  0.00     0.198 A 
ATOM     85  F   UNL A   1      43.044  29.618  26.336  1.00  0.00    -0.203 F 
ATOM     86  F   UNL A   1      46.322  25.385  27.414  1.00  0.00    -0.200 F 
ATOM     87  C   UNL A   1      44.658  26.381  26.068  1.00  0.00     0.200 A 
ATOM     88  F   UNL A   1      42.956  27.398  24.792  1.00  0.00    -0.200 F 
ATOM     89  F   UNL A   1      44.510  25.241  25.380  1.00  0.00    -0.200 F 
ENDBRANCH  55  79
BRANCH  67  90
ATOM     90  C   UNL A   1      42.843  35.573  28.958  1.00  0.00     0.064 A 
ATOM     91  C   UNL A   1      42.148  36.144  27.879  1.00  0.00     0.173 A 
ATOM     92  C   UNL A   1      43.509  36.504  29.800  1.00  0.00     0.173 A 
ATOM     93  F   UNL A   1      41.373  35.404  27.076  1.00  0.00    -0.203 F 
ATOM     94  C   UNL A   1      42.167  37.519  27.624  1.00  0.00     0.198 A 
ATOM     95  C   UNL A   1      43.473  37.881  29.579  1.00  0.00     0.198 A 
ATOM     96  F   UNL A   1      44.191  36.113  30.885  1.00  0.00    -0.203 F 
ATOM     97  F   UNL A   1      41.519  38.003  26.555  1.00  0.00    -0.200 F 
ATOM     98  C   UNL A   1      42.816  38.388  28.481  1.00  0.00     0.200 A 
ATOM     99  F   UNL A   1      44.059  38.711  30.454  1.00  0.00    -0.200 F 
ATOM    100  F   UNL A   1      42.786  39.709  28.261  1.00  0.00    -0.200 F 
ENDBRANCH  67  90
ENDBRANCH  41  42
ENDBRANCH  33  36
ENDBRANCH  31  32
ENDBRANCH  30  31
ENDBRANCH  29  30
ENDBRANCH   1  29
TORSDOF 15
ENDMDL
