MODEL 1
REMARK VINA RESULT:     -12.9      0.000      0.000
REMARK SMILES O=C(NCCCCNC(=O)c1ccc(-c2ccc(Cl)cc2)cc1F)c1ccc(-c2c3nc(c(-c4c(F)c(F)c(F)c(F)c4F)c4ccc([nH]4)c(-c4c(F)c(F)c(F)c(F)c4F)c4nc(c(-c5c(F)c(F)c(F)c(F)c5F)c5ccc2[nH]5)C=C4)C=C3)cc1
REMARK SMILES IDX 5 1 4 2 3 3 1 4 2 5 25 7 26 8 87 9 27 10 86 11 28 12 29 13
REMARK SMILES IDX 30 14 80 15 31 16 85 17 79 18 81 19 32 20 84 21 78 22 77 23
REMARK SMILES IDX 33 25 65 26 45 27 64 28 46 29 49 30 63 31 82 32 47 33 48 34
REMARK SMILES IDX 62 36 83 37 50 38 34 39 35 40 43 41 36 42 37 43 41 44 44 45
REMARK SMILES IDX 38 46 39 47 42 48 40 49 66 50 67 51 75 52 68 53 69 54 73 55
REMARK SMILES IDX 76 56 70 57 71 58 74 59 72 60 51 61 52 62 60 63 53 64 54 65
REMARK SMILES IDX 58 66 61 67 55 68 56 69 59 70 57 71 6 72 7 73 8 74 9 75
REMARK SMILES IDX 10 77 11 78 12 79 23 80 13 81 22 82 24 83 14 84 15 85 16 86
REMARK SMILES IDX 21 87 17 88 20 89 18 90 19 91
REMARK H PARENT 3 6 81 24 49 35 8 76
REMARK Flexibility Score: inf
ROOT
ATOM      1  C   UNL A   1      31.523  32.079  26.857  1.00  0.00     0.023 C 
ENDROOT
BRANCH   1   2
ATOM      2  C   UNL A   1      32.755  32.895  27.222  1.00  0.00     0.116 C 
BRANCH   2   3
ATOM      3  N   UNL A   1      32.437  34.235  27.694  1.00  0.00    -0.352 N 
ATOM      4  O   UNL A   1      32.542  36.036  29.054  1.00  0.00    -0.269 OA
ATOM      5  C   UNL A   1      33.021  34.962  28.705  1.00  0.00     0.251 C 
ATOM      6  H   UNL A   1      31.699  34.685  27.222  1.00  0.00     0.163 HD
BRANCH   5   7
ATOM      7  C   UNL A   1      34.215  34.427  29.397  1.00  0.00     0.039 A 
ATOM      8  C   UNL A   1      35.490  34.639  28.872  1.00  0.00     0.014 A 
ATOM      9  C   UNL A   1      34.055  33.687  30.572  1.00  0.00     0.014 A 
ATOM     10  C   UNL A   1      36.577  33.970  29.418  1.00  0.00     0.010 A 
ATOM     11  C   UNL A   1      35.168  33.096  31.180  1.00  0.00     0.010 A 
ATOM     12  C   UNL A   1      36.434  33.201  30.586  1.00  0.00    -0.014 A 
BRANCH  12  13
ATOM     13  C   UNL A   1      37.645  32.575  31.177  1.00  0.00     0.031 A 
ATOM     14  C   UNL A   1      38.106  32.912  32.568  1.00  0.00     0.074 A 
ATOM     15  C   UNL A   1      38.284  31.626  30.465  1.00  0.00     0.049 A 
ATOM     16  N   UNL A   1      39.090  32.387  33.257  1.00  0.00    -0.248 NA
ATOM     17  C   UNL A   1      37.381  33.975  33.282  1.00  0.00     0.031 C 
ATOM     18  C   UNL A   1      37.929  31.224  29.101  1.00  0.00     0.029 A 
ATOM     19  N   UNL A   1      39.323  30.796  30.795  1.00  0.00    -0.354 N 
ATOM     20  C   UNL A   1      39.110  33.060  34.470  1.00  0.00     0.074 A 
ATOM     21  C   UNL A   1      38.056  34.050  34.423  1.00  0.00     0.031 C 
ATOM     22  C   UNL A   1      38.679  30.173  28.744  1.00  0.00     0.029 A 
ATOM     23  C   UNL A   1      39.610  29.867  29.824  1.00  0.00     0.049 A 
ATOM     24  H   UNL A   1      39.816  30.859  31.644  1.00  0.00     0.167 HD
ATOM     25  C   UNL A   1      39.931  32.859  35.530  1.00  0.00     0.037 A 
ATOM     26  C   UNL A   1      40.521  28.877  29.802  1.00  0.00     0.037 A 
ATOM     27  C   UNL A   1      40.963  31.854  35.583  1.00  0.00     0.049 A 
ATOM     28  C   UNL A   1      41.417  28.685  30.991  1.00  0.00     0.074 A 
ATOM     29  C   UNL A   1      41.832  31.567  36.623  1.00  0.00     0.029 A 
ATOM     30  N   UNL A   1      41.260  30.969  34.558  1.00  0.00    -0.354 N 
ATOM     31  N   UNL A   1      41.419  29.326  32.134  1.00  0.00    -0.248 NA
ATOM     32  C   UNL A   1      42.442  27.640  30.883  1.00  0.00     0.031 C 
ATOM     33  C   UNL A   1      42.677  30.532  36.214  1.00  0.00     0.029 A 
ATOM     34  C   UNL A   1      42.308  30.145  34.936  1.00  0.00     0.049 A 
ATOM     35  H   UNL A   1      40.794  30.932  33.692  1.00  0.00     0.167 HD
ATOM     36  C   UNL A   1      42.443  28.764  32.881  1.00  0.00     0.074 A 
ATOM     37  C   UNL A   1      43.018  27.708  32.075  1.00  0.00     0.031 C 
ATOM     38  C   UNL A   1      42.872  29.101  34.121  1.00  0.00     0.037 A 
BRANCH  25  39
ATOM     39  C   UNL A   1      39.762  33.737  36.734  1.00  0.00     0.064 A 
ATOM     40  C   UNL A   1      38.901  33.356  37.775  1.00  0.00     0.173 A 
ATOM     41  C   UNL A   1      40.358  35.003  36.806  1.00  0.00     0.173 A 
ATOM     42  F   UNL A   1      38.299  32.157  37.750  1.00  0.00    -0.203 F 
ATOM     43  C   UNL A   1      38.626  34.220  38.833  1.00  0.00     0.198 A 
ATOM     44  C   UNL A   1      40.099  35.857  37.876  1.00  0.00     0.198 A 
ATOM     45  F   UNL A   1      41.195  35.411  35.840  1.00  0.00    -0.203 F 
ATOM     46  F   UNL A   1      37.772  33.849  39.796  1.00  0.00    -0.200 F 
ATOM     47  C   UNL A   1      39.225  35.469  38.882  1.00  0.00     0.200 A 
ATOM     48  F   UNL A   1      40.689  37.060  37.930  1.00  0.00    -0.200 F 
ATOM     49  F   UNL A   1      38.957  36.304  39.897  1.00  0.00    -0.200 F 
ENDBRANCH  25  39
BRANCH  26  50
ATOM     50  C   UNL A   1      40.615  27.990  28.615  1.00  0.00     0.064 A 
ATOM     51  C   UNL A   1      41.390  28.342  27.502  1.00  0.00     0.173 A 
ATOM     52  C   UNL A   1      39.904  26.782  28.563  1.00  0.00     0.173 A 
ATOM     53  F   UNL A   1      42.084  29.489  27.502  1.00  0.00    -0.203 F 
ATOM     54  C   UNL A   1      41.432  27.531  26.370  1.00  0.00     0.198 A 
ATOM     55  C   UNL A   1      39.973  25.958  27.442  1.00  0.00     0.198 A 
ATOM     56  F   UNL A   1      39.164  26.395  29.613  1.00  0.00    -0.203 F 
ATOM     57  F   UNL A   1      42.151  27.911  25.304  1.00  0.00    -0.200 F 
ATOM     58  C   UNL A   1      40.729  26.338  26.343  1.00  0.00     0.200 A 
ATOM     59  F   UNL A   1      39.310  24.793  27.430  1.00  0.00    -0.200 F 
ATOM     60  F   UNL A   1      40.782  25.551  25.260  1.00  0.00    -0.200 F 
ENDBRANCH  26  50
BRANCH  38  61
ATOM     61  C   UNL A   1      44.021  28.320  34.681  1.00  0.00     0.064 A 
ATOM     62  C   UNL A   1      45.342  28.745  34.473  1.00  0.00     0.173 A 
ATOM     63  C   UNL A   1      43.815  27.125  35.385  1.00  0.00     0.173 A 
ATOM     64  F   UNL A   1      45.589  29.877  33.798  1.00  0.00    -0.203 F 
ATOM     65  C   UNL A   1      46.415  27.996  34.946  1.00  0.00     0.198 A 
ATOM     66  C   UNL A   1      44.890  26.393  35.879  1.00  0.00     0.198 A 
ATOM     67  F   UNL A   1      42.569  26.688  35.621  1.00  0.00    -0.203 F 
ATOM     68  F   UNL A   1      47.670  28.408  34.717  1.00  0.00    -0.200 F 
ATOM     69  C   UNL A   1      46.189  26.826  35.653  1.00  0.00     0.200 A 
ATOM     70  F   UNL A   1      44.670  25.275  36.583  1.00  0.00    -0.200 F 
ATOM     71  F   UNL A   1      47.224  26.114  36.122  1.00  0.00    -0.200 F 
ENDBRANCH  38  61
ENDBRANCH  12  13
ENDBRANCH   5   7
ENDBRANCH   2   3
ENDBRANCH   1   2
BRANCH   1  72
ATOM     72  C   UNL A   1      31.753  30.575  26.736  1.00  0.00     0.023 C 
BRANCH  72  73
ATOM     73  C   UNL A   1      32.171  30.089  25.352  1.00  0.00     0.116 C 
BRANCH  73  74
ATOM     74  N   UNL A   1      31.037  29.718  24.519  1.00  0.00    -0.352 N 
ATOM     75  C   UNL A   1      30.801  28.531  23.874  1.00  0.00     0.254 C 
ATOM     76  H   UNL A   1      30.348  30.410  24.405  1.00  0.00     0.163 HD
ATOM     77  O   UNL A   1      29.827  28.403  23.138  1.00  0.00    -0.269 OA
BRANCH  75  78
ATOM     78  C   UNL A   1      31.758  27.425  24.011  1.00  0.00     0.075 A 
ATOM     79  C   UNL A   1      32.672  27.194  22.984  1.00  0.00     0.017 A 
ATOM     80  C   UNL A   1      31.773  26.627  25.149  1.00  0.00     0.136 A 
ATOM     81  C   UNL A   1      33.645  26.200  23.140  1.00  0.00     0.010 A 
ATOM     82  C   UNL A   1      32.744  25.644  25.308  1.00  0.00     0.048 A 
ATOM     83  F   UNL A   1      30.884  26.818  26.136  1.00  0.00    -0.206 F 
ATOM     84  C   UNL A   1      33.710  25.423  24.311  1.00  0.00    -0.015 A 
BRANCH  84  85
ATOM     85  C   UNL A   1      34.766  24.414  24.501  1.00  0.00    -0.018 A 
ATOM     86  C   UNL A   1      35.430  24.285  25.733  1.00  0.00     0.010 A 
ATOM     87  C   UNL A   1      35.155  23.566  23.449  1.00  0.00     0.010 A 
ATOM     88  C   UNL A   1      36.449  23.344  25.908  1.00  0.00     0.021 A 
ATOM     89  C   UNL A   1      36.172  22.622  23.621  1.00  0.00     0.021 A 
ATOM     90  C   UNL A   1      36.816  22.516  24.851  1.00  0.00     0.041 A 
ATOM     91  Cl  UNL A   1      38.069  21.360  25.065  1.00  0.00    -0.084 Cl
ENDBRANCH  84  85
ENDBRANCH  75  78
ENDBRANCH  73  74
ENDBRANCH  72  73
ENDBRANCH   1  72
TORSDOF 12
ENDMDL
MODEL 2
REMARK VINA RESULT:     -12.8      2.054      3.148
REMARK SMILES O=C(NCCCCNC(=O)c1ccc(-c2ccc(Cl)cc2)cc1F)c1ccc(-c2c3nc(c(-c4c(F)c(F)c(F)c(F)c4F)c4ccc([nH]4)c(-c4c(F)c(F)c(F)c(F)c4F)c4nc(c(-c5c(F)c(F)c(F)c(F)c5F)c5ccc2[nH]5)C=C4)C=C3)cc1
REMARK SMILES IDX 5 1 4 2 3 3 1 4 2 5 25 7 26 8 87 9 27 10 86 11 28 12 29 13
REMARK SMILES IDX 30 14 80 15 31 16 85 17 79 18 81 19 32 20 84 21 78 22 77 23
REMARK SMILES IDX 33 25 65 26 45 27 64 28 46 29 49 30 63 31 82 32 47 33 48 34
REMARK SMILES IDX 62 36 83 37 50 38 34 39 35 40 43 41 36 42 37 43 41 44 44 45
REMARK SMILES IDX 38 46 39 47 42 48 40 49 66 50 67 51 75 52 68 53 69 54 73 55
REMARK SMILES IDX 76 56 70 57 71 58 74 59 72 60 51 61 52 62 60 63 53 64 54 65
REMARK SMILES IDX 58 66 61 67 55 68 56 69 59 70 57 71 6 72 7 73 8 74 9 75
REMARK SMILES IDX 10 77 11 78 12 79 23 80 13 81 22 82 24 83 14 84 15 85 16 86
REMARK SMILES IDX 21 87 17 88 20 89 18 90 19 91
REMARK H PARENT 3 6 81 24 49 35 8 76
REMARK Flexibility Score: inf
ROOT
ATOM      1  C   UNL A   1      31.699  28.402  25.430  1.00  0.00     0.023 C 
ENDROOT
BRANCH   1   2
ATOM      2  C   UNL A   1      32.841  29.308  25.868  1.00  0.00     0.116 C 
BRANCH   2   3
ATOM      3  N   UNL A   1      32.411  30.662  26.187  1.00  0.00    -0.352 N 
ATOM      4  O   UNL A   1      32.425  32.643  27.273  1.00  0.00    -0.269 OA
ATOM      5  C   UNL A   1      32.995  31.586  27.022  1.00  0.00     0.251 C 
ATOM      6  H   UNL A   1      31.585  30.959  25.741  1.00  0.00     0.163 HD
BRANCH   5   7
ATOM      7  C   UNL A   1      34.302  31.286  27.647  1.00  0.00     0.039 A 
ATOM      8  C   UNL A   1      34.637  29.976  27.990  1.00  0.00     0.014 A 
ATOM      9  C   UNL A   1      35.194  32.330  27.910  1.00  0.00     0.014 A 
ATOM     10  C   UNL A   1      35.775  29.734  28.749  1.00  0.00     0.010 A 
ATOM     11  C   UNL A   1      36.390  32.069  28.588  1.00  0.00     0.010 A 
ATOM     12  C   UNL A   1      36.673  30.774  29.047  1.00  0.00    -0.014 A 
BRANCH  12  13
ATOM     13  C   UNL A   1      37.917  30.447  29.789  1.00  0.00     0.031 A 
ATOM     14  C   UNL A   1      38.123  30.883  31.213  1.00  0.00     0.074 A 
ATOM     15  C   UNL A   1      38.836  29.670  29.182  1.00  0.00     0.049 A 
ATOM     16  N   UNL A   1      39.114  30.601  32.024  1.00  0.00    -0.248 NA
ATOM     17  C   UNL A   1      37.095  31.751  31.809  1.00  0.00     0.031 C 
ATOM     18  C   UNL A   1      38.745  29.194  27.798  1.00  0.00     0.029 A 
ATOM     19  N   UNL A   1      39.992  29.103  29.651  1.00  0.00    -0.354 N 
ATOM     20  C   UNL A   1      38.837  31.262  33.212  1.00  0.00     0.074 A 
ATOM     21  C   UNL A   1      37.596  31.982  33.017  1.00  0.00     0.031 C 
ATOM     22  C   UNL A   1      39.752  28.344  27.559  1.00  0.00     0.029 A 
ATOM     23  C   UNL A   1      40.596  28.264  28.747  1.00  0.00     0.049 A 
ATOM     24  H   UNL A   1      40.355  29.279  30.549  1.00  0.00     0.167 HD
ATOM     25  C   UNL A   1      39.552  31.259  34.363  1.00  0.00     0.037 A 
ATOM     26  C   UNL A   1      41.706  27.511  28.856  1.00  0.00     0.037 A 
ATOM     27  C   UNL A   1      40.773  30.519  34.563  1.00  0.00     0.049 A 
ATOM     28  C   UNL A   1      42.476  27.533  30.144  1.00  0.00     0.074 A 
ATOM     29  C   UNL A   1      41.556  30.442  35.701  1.00  0.00     0.029 A 
ATOM     30  N   UNL A   1      41.383  29.725  33.604  1.00  0.00    -0.354 N 
ATOM     31  N   UNL A   1      42.197  28.159  31.261  1.00  0.00    -0.248 NA
ATOM     32  C   UNL A   1      43.719  26.753  30.183  1.00  0.00     0.031 C 
ATOM     33  C   UNL A   1      42.659  29.630  35.421  1.00  0.00     0.029 A 
ATOM     34  C   UNL A   1      42.540  29.166  34.122  1.00  0.00     0.049 A 
ATOM     35  H   UNL A   1      41.043  29.580  32.691  1.00  0.00     0.167 HD
ATOM     36  C   UNL A   1      43.228  27.850  32.135  1.00  0.00     0.074 A 
ATOM     37  C   UNL A   1      44.121  26.954  31.431  1.00  0.00     0.031 C 
ATOM     38  C   UNL A   1      43.420  28.280  33.405  1.00  0.00     0.037 A 
BRANCH  25  39
ATOM     39  C   UNL A   1      39.046  32.075  35.515  1.00  0.00     0.064 A 
ATOM     40  C   UNL A   1      39.406  33.426  35.641  1.00  0.00     0.173 A 
ATOM     41  C   UNL A   1      38.303  31.495  36.553  1.00  0.00     0.173 A 
ATOM     42  F   UNL A   1      40.123  34.026  34.679  1.00  0.00    -0.203 F 
ATOM     43  C   UNL A   1      39.059  34.159  36.773  1.00  0.00     0.198 A 
ATOM     44  C   UNL A   1      37.939  32.236  37.675  1.00  0.00     0.198 A 
ATOM     45  F   UNL A   1      37.927  30.209  36.476  1.00  0.00    -0.203 F 
ATOM     46  F   UNL A   1      39.446  35.436  36.888  1.00  0.00    -0.200 F 
ATOM     47  C   UNL A   1      38.327  33.563  37.789  1.00  0.00     0.200 A 
ATOM     48  F   UNL A   1      37.219  31.664  38.650  1.00  0.00    -0.200 F 
ATOM     49  F   UNL A   1      37.998  34.267  38.882  1.00  0.00    -0.200 F 
ENDBRANCH  25  39
BRANCH  26  50
ATOM     50  C   UNL A   1      42.139  26.667  27.714  1.00  0.00     0.064 A 
ATOM     51  C   UNL A   1      41.617  25.380  27.520  1.00  0.00     0.173 A 
ATOM     52  C   UNL A   1      43.107  27.124  26.809  1.00  0.00     0.173 A 
ATOM     53  F   UNL A   1      40.691  24.897  28.361  1.00  0.00    -0.203 F 
ATOM     54  C   UNL A   1      42.065  24.573  26.477  1.00  0.00     0.198 A 
ATOM     55  C   UNL A   1      43.531  26.326  25.749  1.00  0.00     0.198 A 
ATOM     56  F   UNL A   1      43.621  28.356  26.943  1.00  0.00    -0.203 F 
ATOM     57  F   UNL A   1      41.577  23.332  26.338  1.00  0.00    -0.200 F 
ATOM     58  C   UNL A   1      43.016  25.048  25.589  1.00  0.00     0.200 A 
ATOM     59  F   UNL A   1      44.435  26.799  24.879  1.00  0.00    -0.200 F 
ATOM     60  F   UNL A   1      43.437  24.276  24.578  1.00  0.00    -0.200 F 
ENDBRANCH  26  50
BRANCH  38  61
ATOM     61  C   UNL A   1      44.644  27.786  34.115  1.00  0.00     0.064 A 
ATOM     62  C   UNL A   1      45.849  28.501  34.041  1.00  0.00     0.173 A 
ATOM     63  C   UNL A   1      44.634  26.580  34.830  1.00  0.00     0.173 A 
ATOM     64  F   UNL A   1      45.909  29.656  33.362  1.00  0.00    -0.203 F 
ATOM     65  C   UNL A   1      47.002  28.021  34.654  1.00  0.00     0.198 A 
ATOM     66  C   UNL A   1      45.784  26.117  35.463  1.00  0.00     0.198 A 
ATOM     67  F   UNL A   1      43.502  25.870  34.940  1.00  0.00    -0.203 F 
ATOM     68  F   UNL A   1      48.149  28.709  34.552  1.00  0.00    -0.200 F 
ATOM     69  C   UNL A   1      46.967  26.834  35.369  1.00  0.00     0.200 A 
ATOM     70  F   UNL A   1      45.743  24.982  36.175  1.00  0.00    -0.200 F 
ATOM     71  F   UNL A   1      48.076  26.382  35.973  1.00  0.00    -0.200 F 
ENDBRANCH  38  61
ENDBRANCH  12  13
ENDBRANCH   5   7
ENDBRANCH   2   3
ENDBRANCH   1   2
BRANCH   1  72
ATOM     72  C   UNL A   1      30.846  28.941  24.285  1.00  0.00     0.023 C 
BRANCH  72  73
ATOM     73  C   UNL A   1      31.030  28.233  22.946  1.00  0.00     0.116 C 
BRANCH  73  74
ATOM     74  N   UNL A   1      32.310  28.531  22.323  1.00  0.00    -0.352 N 
ATOM     75  C   UNL A   1      33.388  27.703  22.141  1.00  0.00     0.254 C 
ATOM     76  H   UNL A   1      32.416  29.450  21.987  1.00  0.00     0.163 HD
ATOM     77  O   UNL A   1      34.434  28.133  21.665  1.00  0.00    -0.269 OA
BRANCH  75  78
ATOM     78  C   UNL A   1      33.311  26.303  22.580  1.00  0.00     0.075 A 
ATOM     79  C   UNL A   1      32.714  25.364  21.740  1.00  0.00     0.017 A 
ATOM     80  C   UNL A   1      33.840  25.906  23.803  1.00  0.00     0.136 A 
ATOM     81  C   UNL A   1      32.712  24.014  22.107  1.00  0.00     0.010 A 
ATOM     82  C   UNL A   1      33.845  24.563  24.166  1.00  0.00     0.048 A 
ATOM     83  F   UNL A   1      34.395  26.799  24.637  1.00  0.00    -0.206 F 
ATOM     84  C   UNL A   1      33.295  23.589  23.316  1.00  0.00    -0.015 A 
BRANCH  84  85
ATOM     85  C   UNL A   1      33.343  22.162  23.679  1.00  0.00    -0.018 A 
ATOM     86  C   UNL A   1      32.384  21.259  23.190  1.00  0.00     0.010 A 
ATOM     87  C   UNL A   1      34.337  21.667  24.542  1.00  0.00     0.010 A 
ATOM     88  C   UNL A   1      32.414  19.908  23.551  1.00  0.00     0.021 A 
ATOM     89  C   UNL A   1      34.372  20.317  24.903  1.00  0.00     0.021 A 
ATOM     90  C   UNL A   1      33.409  19.443  24.407  1.00  0.00     0.041 A 
ATOM     91  Cl  UNL A   1      33.446  17.784  24.853  1.00  0.00    -0.084 Cl
ENDBRANCH  84  85
ENDBRANCH  75  78
ENDBRANCH  73  74
ENDBRANCH  72  73
ENDBRANCH   1  72
TORSDOF 12
ENDMDL
MODEL 3
REMARK VINA RESULT:     -12.8      5.755     10.762
REMARK SMILES O=C(NCCCCNC(=O)c1ccc(-c2ccc(Cl)cc2)cc1F)c1ccc(-c2c3nc(c(-c4c(F)c(F)c(F)c(F)c4F)c4ccc([nH]4)c(-c4c(F)c(F)c(F)c(F)c4F)c4nc(c(-c5c(F)c(F)c(F)c(F)c5F)c5ccc2[nH]5)C=C4)C=C3)cc1
REMARK SMILES IDX 5 1 4 2 3 3 1 4 2 5 25 7 26 8 87 9 27 10 86 11 28 12 29 13
REMARK SMILES IDX 30 14 80 15 31 16 85 17 79 18 81 19 32 20 84 21 78 22 77 23
REMARK SMILES IDX 33 25 65 26 45 27 64 28 46 29 49 30 63 31 82 32 47 33 48 34
REMARK SMILES IDX 62 36 83 37 50 38 34 39 35 40 43 41 36 42 37 43 41 44 44 45
REMARK SMILES IDX 38 46 39 47 42 48 40 49 66 50 67 51 75 52 68 53 69 54 73 55
REMARK SMILES IDX 76 56 70 57 71 58 74 59 72 60 51 61 52 62 60 63 53 64 54 65
REMARK SMILES IDX 58 66 61 67 55 68 56 69 59 70 57 71 6 72 7 73 8 74 9 75
REMARK SMILES IDX 10 77 11 78 12 79 23 80 13 81 22 82 24 83 14 84 15 85 16 86
REMARK SMILES IDX 21 87 17 88 20 89 18 90 19 91
REMARK H PARENT 3 6 81 24 49 35 8 76
REMARK Flexibility Score: inf
ROOT
ATOM      1  C   UNL A   1      38.166  19.829  24.884  1.00  0.00     0.023 C 
ENDROOT
BRANCH   1   2
ATOM      2  C   UNL A   1      39.253  20.041  25.928  1.00  0.00     0.116 C 
BRANCH   2   3
ATOM      3  N   UNL A   1      40.310  19.041  25.867  1.00  0.00    -0.352 N 
ATOM      4  O   UNL A   1      42.429  18.259  25.849  1.00  0.00    -0.269 OA
ATOM      5  C   UNL A   1      41.663  19.192  26.063  1.00  0.00     0.251 C 
ATOM      6  H   UNL A   1      40.013  18.126  25.657  1.00  0.00     0.163 HD
BRANCH   5   7
ATOM      7  C   UNL A   1      42.197  20.500  26.502  1.00  0.00     0.039 A 
ATOM      8  C   UNL A   1      42.224  20.835  27.856  1.00  0.00     0.014 A 
ATOM      9  C   UNL A   1      42.659  21.411  25.546  1.00  0.00     0.014 A 
ATOM     10  C   UNL A   1      42.541  22.132  28.237  1.00  0.00     0.010 A 
ATOM     11  C   UNL A   1      43.075  22.686  25.943  1.00  0.00     0.010 A 
ATOM     12  C   UNL A   1      42.984  23.071  27.288  1.00  0.00    -0.014 A 
BRANCH  12  13
ATOM     13  C   UNL A   1      43.392  24.418  27.761  1.00  0.00     0.031 A 
ATOM     14  C   UNL A   1      44.833  24.847  27.767  1.00  0.00     0.074 A 
ATOM     15  C   UNL A   1      42.426  25.291  28.110  1.00  0.00     0.049 A 
ATOM     16  N   UNL A   1      45.340  26.019  28.066  1.00  0.00    -0.248 NA
ATOM     17  C   UNL A   1      45.840  23.840  27.399  1.00  0.00     0.031 C 
ATOM     18  C   UNL A   1      40.994  24.981  28.150  1.00  0.00     0.029 A 
ATOM     19  N   UNL A   1      42.487  26.618  28.449  1.00  0.00    -0.354 N 
ATOM     20  C   UNL A   1      46.716  25.886  27.935  1.00  0.00     0.074 A 
ATOM     21  C   UNL A   1      46.973  24.514  27.552  1.00  0.00     0.031 C 
ATOM     22  C   UNL A   1      40.309  26.102  28.410  1.00  0.00     0.029 A 
ATOM     23  C   UNL A   1      41.252  27.195  28.620  1.00  0.00     0.049 A 
ATOM     24  H   UNL A   1      43.333  27.109  28.558  1.00  0.00     0.167 HD
ATOM     25  C   UNL A   1      47.672  26.829  28.111  1.00  0.00     0.037 A 
ATOM     26  C   UNL A   1      40.912  28.464  28.913  1.00  0.00     0.037 A 
ATOM     27  C   UNL A   1      47.409  28.201  28.467  1.00  0.00     0.049 A 
ATOM     28  C   UNL A   1      41.997  29.483  29.104  1.00  0.00     0.074 A 
ATOM     29  C   UNL A   1      48.316  29.232  28.649  1.00  0.00     0.029 A 
ATOM     30  N   UNL A   1      46.149  28.734  28.686  1.00  0.00    -0.354 N 
ATOM     31  N   UNL A   1      43.293  29.342  28.972  1.00  0.00    -0.248 NA
ATOM     32  C   UNL A   1      41.573  30.832  29.497  1.00  0.00     0.031 C 
ATOM     33  C   UNL A   1      47.607  30.380  29.013  1.00  0.00     0.029 A 
ATOM     34  C   UNL A   1      46.256  30.076  29.016  1.00  0.00     0.049 A 
ATOM     35  H   UNL A   1      45.304  28.234  28.617  1.00  0.00     0.167 HD
ATOM     36  C   UNL A   1      43.840  30.582  29.263  1.00  0.00     0.074 A 
ATOM     37  C   UNL A   1      42.734  31.472  29.548  1.00  0.00     0.031 C 
ATOM     38  C   UNL A   1      45.144  30.947  29.301  1.00  0.00     0.037 A 
BRANCH  25  39
ATOM     39  C   UNL A   1      49.106  26.429  27.924  1.00  0.00     0.064 A 
ATOM     40  C   UNL A   1      49.942  26.243  29.036  1.00  0.00     0.173 A 
ATOM     41  C   UNL A   1      49.681  26.343  26.648  1.00  0.00     0.173 A 
ATOM     42  F   UNL A   1      49.442  26.322  30.278  1.00  0.00    -0.203 F 
ATOM     43  C   UNL A   1      51.305  26.007  28.877  1.00  0.00     0.198 A 
ATOM     44  C   UNL A   1      51.041  26.086  26.492  1.00  0.00     0.198 A 
ATOM     45  F   UNL A   1      48.922  26.506  25.554  1.00  0.00    -0.203 F 
ATOM     46  F   UNL A   1      52.091  25.870  29.953  1.00  0.00    -0.200 F 
ATOM     47  C   UNL A   1      51.854  25.930  27.606  1.00  0.00     0.200 A 
ATOM     48  F   UNL A   1      51.567  25.997  25.262  1.00  0.00    -0.200 F 
ATOM     49  F   UNL A   1      53.167  25.709  27.452  1.00  0.00    -0.200 F 
ENDBRANCH  25  39
BRANCH  26  50
ATOM     50  C   UNL A   1      39.479  28.834  29.027  1.00  0.00     0.064 A 
ATOM     51  C   UNL A   1      38.761  29.318  27.924  1.00  0.00     0.173 A 
ATOM     52  C   UNL A   1      38.806  28.736  30.253  1.00  0.00     0.173 A 
ATOM     53  F   UNL A   1      39.361  29.434  26.731  1.00  0.00    -0.203 F 
ATOM     54  C   UNL A   1      37.432  29.713  28.049  1.00  0.00     0.198 A 
ATOM     55  C   UNL A   1      37.468  29.103  30.369  1.00  0.00     0.198 A 
ATOM     56  F   UNL A   1      39.447  28.260  31.332  1.00  0.00    -0.203 F 
ATOM     57  F   UNL A   1      36.781  30.209  26.988  1.00  0.00    -0.200 F 
ATOM     58  C   UNL A   1      36.784  29.600  29.269  1.00  0.00     0.200 A 
ATOM     59  F   UNL A   1      36.840  28.970  31.545  1.00  0.00    -0.200 F 
ATOM     60  F   UNL A   1      35.501  29.967  29.385  1.00  0.00    -0.200 F 
ENDBRANCH  26  50
BRANCH  38  61
ATOM     61  C   UNL A   1      45.446  32.369  29.663  1.00  0.00     0.064 A 
ATOM     62  C   UNL A   1      45.643  32.737  31.003  1.00  0.00     0.173 A 
ATOM     63  C   UNL A   1      45.494  33.375  28.688  1.00  0.00     0.173 A 
ATOM     64  F   UNL A   1      45.598  31.811  31.972  1.00  0.00    -0.203 F 
ATOM     65  C   UNL A   1      45.871  34.065  31.351  1.00  0.00     0.198 A 
ATOM     66  C   UNL A   1      45.748  34.697  29.038  1.00  0.00     0.198 A 
ATOM     67  F   UNL A   1      45.326  33.067  27.393  1.00  0.00    -0.203 F 
ATOM     68  F   UNL A   1      46.034  34.399  32.640  1.00  0.00    -0.200 F 
ATOM     69  C   UNL A   1      45.929  35.042  30.370  1.00  0.00     0.200 A 
ATOM     70  F   UNL A   1      45.828  35.637  28.086  1.00  0.00    -0.200 F 
ATOM     71  F   UNL A   1      46.166  36.318  30.706  1.00  0.00    -0.200 F 
ENDBRANCH  38  61
ENDBRANCH  12  13
ENDBRANCH   5   7
ENDBRANCH   2   3
ENDBRANCH   1   2
BRANCH   1  72
ATOM     72  C   UNL A   1      37.260  21.033  24.637  1.00  0.00     0.023 C 
BRANCH  72  73
ATOM     73  C   UNL A   1      36.001  21.088  25.497  1.00  0.00     0.116 C 
BRANCH  73  74
ATOM     74  N   UNL A   1      34.842  20.512  24.834  1.00  0.00    -0.352 N 
ATOM     75  C   UNL A   1      33.638  21.103  24.544  1.00  0.00     0.254 C 
ATOM     76  H   UNL A   1      34.933  19.572  24.555  1.00  0.00     0.163 HD
ATOM     77  O   UNL A   1      32.725  20.452  24.048  1.00  0.00    -0.269 OA
BRANCH  75  78
ATOM     78  C   UNL A   1      33.419  22.513  24.892  1.00  0.00     0.075 A 
ATOM     79  C   UNL A   1      32.734  22.819  26.068  1.00  0.00     0.017 A 
ATOM     80  C   UNL A   1      33.898  23.535  24.080  1.00  0.00     0.136 A 
ATOM     81  C   UNL A   1      32.595  24.156  26.455  1.00  0.00     0.010 A 
ATOM     82  C   UNL A   1      33.766  24.864  24.468  1.00  0.00     0.048 A 
ATOM     83  F   UNL A   1      34.536  23.261  22.932  1.00  0.00    -0.206 F 
ATOM     84  C   UNL A   1      33.125  25.199  25.673  1.00  0.00    -0.015 A 
BRANCH  84  85
ATOM     85  C   UNL A   1      33.027  26.603  26.106  1.00  0.00    -0.018 A 
ATOM     86  C   UNL A   1      31.876  27.082  26.754  1.00  0.00     0.010 A 
ATOM     87  C   UNL A   1      34.075  27.511  25.866  1.00  0.00     0.010 A 
ATOM     88  C   UNL A   1      31.771  28.420  27.146  1.00  0.00     0.021 A 
ATOM     89  C   UNL A   1      33.974  28.849  26.258  1.00  0.00     0.021 A 
ATOM     90  C   UNL A   1      32.821  29.298  26.896  1.00  0.00     0.041 A 
ATOM     91  Cl  UNL A   1      32.694  30.944  27.376  1.00  0.00    -0.084 Cl
ENDBRANCH  84  85
ENDBRANCH  75  78
ENDBRANCH  73  74
ENDBRANCH  72  73
ENDBRANCH   1  72
TORSDOF 12
ENDMDL
