MODEL 1
REMARK VINA RESULT:     -12.0      0.000      0.000
REMARK SMILES C[NH2+][C@]1(C(=O)NCCCCNC(=O)c2ccc(-c3c4nc(c(-c5c(F)c(F)c(F)c(F)c5F)c5ccc([nH]5)c(-c5c(F)c(F)c(F)c(F)c5F)c5nc(c(-c6c(F)c(F)c(F)c(F)c6F)c6ccc3[nH]6)C=C5)C=C4)cc2)CCC[C@@H]1CCn1nc(C)c(Cl)c1C
REMARK SMILES IDX 8 1 7 2 6 3 4 4 5 5 3 7 77 8 80 9 78 10 79 11 2 12 1 13
REMARK SMILES IDX 81 16 82 17 83 18 84 19 89 20 85 21 87 22 90 23 86 24 88 25
REMARK SMILES IDX 9 26 10 27 11 28 12 29 13 31 14 32 15 33 76 34 16 35 75 36
REMARK SMILES IDX 17 37 18 38 19 39 69 40 20 41 74 42 68 43 70 44 21 45 73 46
REMARK SMILES IDX 67 47 66 48 22 50 54 51 34 52 53 53 35 54 38 55 52 56 71 57
REMARK SMILES IDX 36 58 37 59 51 61 72 62 39 63 23 64 24 65 32 66 25 67 26 68
REMARK SMILES IDX 30 69 33 70 27 71 28 72 31 73 29 74 55 75 56 76 64 77 57 78
REMARK SMILES IDX 58 79 62 80 65 81 59 82 60 83 63 84 61 85 40 86 41 87 49 88
REMARK SMILES IDX 42 89 43 90 47 91 50 92 44 93 45 94 48 95 46 96
REMARK H PARENT 6 6 2 14 2 15 11 30 70 49 38 60
REMARK Flexibility Score: inf
ROOT
ATOM      1  C   UNL A   1      37.139  21.179  24.562  1.00  0.00     0.023 C 
ENDROOT
BRANCH   1   2
ATOM      2  C   UNL A   1      36.772  22.143  25.684  1.00  0.00     0.116 C 
BRANCH   2   3
ATOM      3  N   UNL A   1      35.683  21.641  26.502  1.00  0.00    -0.351 N 
ATOM      4  C   UNL A   1      34.327  21.736  26.406  1.00  0.00     0.281 C 
ATOM      5  O   UNL A   1      33.698  21.078  27.243  1.00  0.00    -0.268 OA
ATOM      6  H   UNL A   1      35.986  21.128  27.287  1.00  0.00     0.163 HD
BRANCH   4   7
ATOM      7  C   UNL A   1      33.601  22.538  25.275  1.00  0.00     0.178 C 
ATOM      8  C   UNL A   1      33.728  21.950  23.852  1.00  0.00     0.079 C 
ATOM      9  C   UNL A   1      32.062  22.474  25.522  1.00  0.00     0.062 C 
ATOM     10  C   UNL A   1      32.411  22.250  23.131  1.00  0.00     0.008 C 
ATOM     11  C   UNL A   1      31.447  22.823  24.167  1.00  0.00     0.011 C 
BRANCH   7  12
ATOM     12  N   UNL A   1      34.029  23.971  25.249  1.00  0.00    -0.336 N 
ATOM     13  C   UNL A   1      34.736  24.389  24.037  1.00  0.00     0.331 C 
ATOM     14  H   UNL A   1      33.195  24.551  25.342  1.00  0.00     0.346 HD
ATOM     15  H   UNL A   1      34.691  24.082  26.016  1.00  0.00     0.346 HD
ENDBRANCH   7  12
BRANCH   9  16
ATOM     16  C   UNL A   1      31.527  23.328  26.688  1.00  0.00     0.034 C 
BRANCH  16  17
ATOM     17  C   UNL A   1      30.456  24.344  26.266  1.00  0.00     0.145 C 
BRANCH  17  18
ATOM     18  N   UNL A   1      31.003  25.648  25.912  1.00  0.00    -0.268 N 
ATOM     19  N   UNL A   1      32.124  26.052  26.546  1.00  0.00    -0.176 NA
ATOM     20  C   UNL A   1      30.536  26.567  25.003  1.00  0.00     0.054 A 
ATOM     21  C   UNL A   1      32.378  27.265  26.042  1.00  0.00     0.078 A 
ATOM     22  C   UNL A   1      31.402  27.638  25.093  1.00  0.00     0.084 A 
ATOM     23  C   UNL A   1      29.333  26.398  24.149  1.00  0.00     0.068 C 
ATOM     24  C   UNL A   1      33.572  28.015  26.501  1.00  0.00     0.070 C 
ATOM     25  Cl  UNL A   1      31.322  29.106  24.244  1.00  0.00    -0.080 Cl
ENDBRANCH  17  18
ENDBRANCH  16  17
ENDBRANCH   9  16
ENDBRANCH   4   7
ENDBRANCH   2   3
ENDBRANCH   1   2
BRANCH   1  26
ATOM     26  C   UNL A   1      37.969  19.974  25.001  1.00  0.00     0.023 C 
BRANCH  26  27
ATOM     27  C   UNL A   1      39.209  20.302  25.826  1.00  0.00     0.116 C 
BRANCH  27  28
ATOM     28  N   UNL A   1      40.154  19.199  25.906  1.00  0.00    -0.352 N 
ATOM     29  C   UNL A   1      41.509  19.238  26.126  1.00  0.00     0.251 C 
ATOM     30  H   UNL A   1      39.770  18.300  25.786  1.00  0.00     0.163 HD
ATOM     31  O   UNL A   1      42.183  18.215  26.051  1.00  0.00    -0.269 OA
BRANCH  29  32
ATOM     32  C   UNL A   1      42.160  20.533  26.410  1.00  0.00     0.039 A 
ATOM     33  C   UNL A   1      42.618  21.305  25.340  1.00  0.00     0.014 A 
ATOM     34  C   UNL A   1      42.280  20.999  27.722  1.00  0.00     0.014 A 
ATOM     35  C   UNL A   1      43.128  22.582  25.580  1.00  0.00     0.010 A 
ATOM     36  C   UNL A   1      42.721  22.299  27.952  1.00  0.00     0.010 A 
ATOM     37  C   UNL A   1      43.145  23.104  26.885  1.00  0.00    -0.014 A 
BRANCH  37  38
ATOM     38  C   UNL A   1      43.597  24.492  27.150  1.00  0.00     0.031 A 
ATOM     39  C   UNL A   1      42.624  25.516  27.660  1.00  0.00     0.074 A 
ATOM     40  C   UNL A   1      44.864  24.847  26.862  1.00  0.00     0.049 A 
ATOM     41  N   UNL A   1      42.806  26.793  27.881  1.00  0.00    -0.248 NA
ATOM     42  C   UNL A   1      41.256  25.048  27.932  1.00  0.00     0.031 C 
ATOM     43  C   UNL A   1      45.888  23.958  26.311  1.00  0.00     0.029 A 
ATOM     44  N   UNL A   1      45.503  26.056  26.981  1.00  0.00    -0.354 N 
ATOM     45  C   UNL A   1      41.575  27.283  28.297  1.00  0.00     0.074 A 
ATOM     46  C   UNL A   1      40.642  26.177  28.252  1.00  0.00     0.031 C 
ATOM     47  C   UNL A   1      47.031  24.646  26.157  1.00  0.00     0.029 A 
ATOM     48  C   UNL A   1      46.812  26.030  26.567  1.00  0.00     0.049 A 
ATOM     49  H   UNL A   1      45.065  26.866  27.329  1.00  0.00     0.167 HD
ATOM     50  C   UNL A   1      41.258  28.536  28.701  1.00  0.00     0.037 A 
ATOM     51  C   UNL A   1      47.731  27.014  26.517  1.00  0.00     0.037 A 
ATOM     52  C   UNL A   1      42.195  29.625  28.775  1.00  0.00     0.049 A 
ATOM     53  C   UNL A   1      47.356  28.394  26.986  1.00  0.00     0.074 A 
ATOM     54  C   UNL A   1      41.987  30.912  29.238  1.00  0.00     0.029 A 
ATOM     55  N   UNL A   1      43.522  29.552  28.376  1.00  0.00    -0.354 N 
ATOM     56  N   UNL A   1      46.208  28.827  27.445  1.00  0.00    -0.248 NA
ATOM     57  C   UNL A   1      48.408  29.418  26.936  1.00  0.00     0.031 C 
ATOM     58  C   UNL A   1      43.177  31.630  29.083  1.00  0.00     0.029 A 
ATOM     59  C   UNL A   1      44.139  30.778  28.565  1.00  0.00     0.049 A 
ATOM     60  H   UNL A   1      43.959  28.749  28.013  1.00  0.00     0.167 HD
ATOM     61  C   UNL A   1      46.405  30.164  27.763  1.00  0.00     0.074 A 
ATOM     62  C   UNL A   1      47.787  30.466  27.457  1.00  0.00     0.031 C 
ATOM     63  C   UNL A   1      45.519  31.059  28.263  1.00  0.00     0.037 A 
BRANCH  50  64
ATOM     64  C   UNL A   1      39.834  28.795  29.100  1.00  0.00     0.064 A 
ATOM     65  C   UNL A   1      39.402  28.634  30.425  1.00  0.00     0.173 A 
ATOM     66  C   UNL A   1      38.899  29.240  28.155  1.00  0.00     0.173 A 
ATOM     67  F   UNL A   1      40.255  28.197  31.366  1.00  0.00    -0.203 F 
ATOM     68  C   UNL A   1      38.080  28.882  30.783  1.00  0.00     0.198 A 
ATOM     69  C   UNL A   1      37.584  29.515  28.521  1.00  0.00     0.198 A 
ATOM     70  F   UNL A   1      39.261  29.414  26.875  1.00  0.00    -0.203 F 
ATOM     71  F   UNL A   1      37.680  28.674  32.046  1.00  0.00    -0.200 F 
ATOM     72  C   UNL A   1      37.174  29.328  29.833  1.00  0.00     0.200 A 
ATOM     73  F   UNL A   1      36.713  29.959  27.605  1.00  0.00    -0.200 F 
ATOM     74  F   UNL A   1      35.903  29.573  30.180  1.00  0.00    -0.200 F 
ENDBRANCH  50  64
BRANCH  51  75
ATOM     75  C   UNL A   1      49.104  26.721  26.032  1.00  0.00     0.064 A 
ATOM     76  C   UNL A   1      49.466  26.981  24.703  1.00  0.00     0.173 A 
ATOM     77  C   UNL A   1      50.079  26.176  26.880  1.00  0.00     0.173 A 
ATOM     78  F   UNL A   1      48.563  27.484  23.849  1.00  0.00    -0.203 F 
ATOM     79  C   UNL A   1      50.747  26.691  24.236  1.00  0.00     0.198 A 
ATOM     80  C   UNL A   1      51.366  25.910  26.419  1.00  0.00     0.198 A 
ATOM     81  F   UNL A   1      49.783  25.913  28.161  1.00  0.00    -0.203 F 
ATOM     82  F   UNL A   1      51.054  26.912  22.950  1.00  0.00    -0.200 F 
ATOM     83  C   UNL A   1      51.697  26.161  25.095  1.00  0.00     0.200 A 
ATOM     84  F   UNL A   1      52.286  25.410  27.255  1.00  0.00    -0.200 F 
ATOM     85  F   UNL A   1      52.929  25.887  24.647  1.00  0.00    -0.200 F 
ENDBRANCH  51  75
BRANCH  63  86
ATOM     86  C   UNL A   1      46.025  32.444  28.541  1.00  0.00     0.064 A 
ATOM     87  C   UNL A   1      46.604  32.781  29.774  1.00  0.00     0.173 A 
ATOM     88  C   UNL A   1      45.969  33.433  27.548  1.00  0.00     0.173 A 
ATOM     89  F   UNL A   1      46.665  31.874  30.761  1.00  0.00    -0.203 F 
ATOM     90  C   UNL A   1      47.087  34.065  30.009  1.00  0.00     0.198 A 
ATOM     91  C   UNL A   1      46.479  34.707  27.777  1.00  0.00     0.198 A 
ATOM     92  F   UNL A   1      45.431  33.158  26.351  1.00  0.00    -0.203 F 
ATOM     93  F   UNL A   1      47.597  34.378  31.208  1.00  0.00    -0.200 F 
ATOM     94  C   UNL A   1      47.032  35.024  29.008  1.00  0.00     0.200 A 
ATOM     95  F   UNL A   1      46.436  35.629  26.805  1.00  0.00    -0.200 F 
ATOM     96  F   UNL A   1      47.505  36.258  29.235  1.00  0.00    -0.200 F 
ENDBRANCH  63  86
ENDBRANCH  37  38
ENDBRANCH  29  32
ENDBRANCH  27  28
ENDBRANCH  26  27
ENDBRANCH   1  26
TORSDOF 15
ENDMDL
MODEL 2
REMARK VINA RESULT:     -12.0      5.685     11.099
REMARK SMILES C[NH2+][C@]1(C(=O)NCCCCNC(=O)c2ccc(-c3c4nc(c(-c5c(F)c(F)c(F)c(F)c5F)c5ccc([nH]5)c(-c5c(F)c(F)c(F)c(F)c5F)c5nc(c(-c6c(F)c(F)c(F)c(F)c6F)c6ccc3[nH]6)C=C5)C=C4)cc2)CCC[C@@H]1CCn1nc(C)c(Cl)c1C
REMARK SMILES IDX 8 1 7 2 6 3 4 4 5 5 3 7 77 8 80 9 78 10 79 11 2 12 1 13
REMARK SMILES IDX 81 16 82 17 83 18 84 19 89 20 85 21 87 22 90 23 86 24 88 25
REMARK SMILES IDX 9 26 10 27 11 28 12 29 13 31 14 32 15 33 76 34 16 35 75 36
REMARK SMILES IDX 17 37 18 38 19 39 69 40 20 41 74 42 68 43 70 44 21 45 73 46
REMARK SMILES IDX 67 47 66 48 22 50 54 51 34 52 53 53 35 54 38 55 52 56 71 57
REMARK SMILES IDX 36 58 37 59 51 61 72 62 39 63 23 64 24 65 32 66 25 67 26 68
REMARK SMILES IDX 30 69 33 70 27 71 28 72 31 73 29 74 55 75 56 76 64 77 57 78
REMARK SMILES IDX 58 79 62 80 65 81 59 82 60 83 63 84 61 85 40 86 41 87 49 88
REMARK SMILES IDX 42 89 43 90 47 91 50 92 44 93 45 94 48 95 46 96
REMARK H PARENT 6 6 2 14 2 15 11 30 70 49 38 60
REMARK Flexibility Score: inf
ROOT
ATOM      1  C   UNL A   1      31.879  30.603  25.976  1.00  0.00     0.023 C 
ENDROOT
BRANCH   1   2
ATOM      2  C   UNL A   1      32.554  29.445  26.701  1.00  0.00     0.116 C 
BRANCH   2   3
ATOM      3  N   UNL A   1      31.628  28.362  26.981  1.00  0.00    -0.351 N 
ATOM      4  C   UNL A   1      31.286  27.232  26.302  1.00  0.00     0.281 C 
ATOM      5  O   UNL A   1      30.525  26.469  26.908  1.00  0.00    -0.268 OA
ATOM      6  H   UNL A   1      31.150  28.466  27.836  1.00  0.00     0.163 HD
BRANCH   4   7
ATOM      7  C   UNL A   1      31.871  26.864  24.897  1.00  0.00     0.178 C 
ATOM      8  C   UNL A   1      31.674  27.925  23.792  1.00  0.00     0.079 C 
ATOM      9  C   UNL A   1      33.426  26.785  25.005  1.00  0.00     0.062 C 
ATOM     10  C   UNL A   1      32.910  27.861  22.891  1.00  0.00     0.008 C 
ATOM     11  C   UNL A   1      33.911  26.925  23.562  1.00  0.00     0.011 C 
BRANCH   7  12
ATOM     12  N   UNL A   1      31.352  25.550  24.406  1.00  0.00    -0.336 N 
ATOM     13  C   UNL A   1      30.138  25.624  23.590  1.00  0.00     0.331 C 
ATOM     14  H   UNL A   1      32.082  25.112  23.845  1.00  0.00     0.346 HD
ATOM     15  H   UNL A   1      31.102  25.017  25.239  1.00  0.00     0.346 HD
ENDBRANCH   7  12
BRANCH   9  16
ATOM     16  C   UNL A   1      33.992  25.554  25.737  1.00  0.00     0.034 C 
BRANCH  16  17
ATOM     17  C   UNL A   1      34.788  24.608  24.827  1.00  0.00     0.145 C 
BRANCH  17  18
ATOM     18  N   UNL A   1      34.112  23.340  24.579  1.00  0.00    -0.268 N 
ATOM     19  N   UNL A   1      33.392  23.224  23.444  1.00  0.00    -0.176 NA
ATOM     20  C   UNL A   1      34.089  22.203  25.352  1.00  0.00     0.054 A 
ATOM     21  C   UNL A   1      32.884  21.987  23.492  1.00  0.00     0.078 A 
ATOM     22  C   UNL A   1      33.273  21.321  24.673  1.00  0.00     0.084 A 
ATOM     23  C   UNL A   1      34.795  22.029  26.646  1.00  0.00     0.068 C 
ATOM     24  C   UNL A   1      32.040  21.496  22.375  1.00  0.00     0.070 C 
ATOM     25  Cl  UNL A   1      32.820  19.757  25.152  1.00  0.00    -0.080 Cl
ENDBRANCH  17  18
ENDBRANCH  16  17
ENDBRANCH   9  16
ENDBRANCH   4   7
ENDBRANCH   2   3
ENDBRANCH   1   2
BRANCH   1  26
ATOM     26  C   UNL A   1      31.552  31.806  26.859  1.00  0.00     0.023 C 
BRANCH  26  27
ATOM     27  C   UNL A   1      32.749  32.657  27.271  1.00  0.00     0.116 C 
BRANCH  27  28
ATOM     28  N   UNL A   1      32.394  34.031  27.592  1.00  0.00    -0.352 N 
ATOM     29  C   UNL A   1      32.952  34.871  28.524  1.00  0.00     0.251 C 
ATOM     30  H   UNL A   1      31.651  34.411  27.069  1.00  0.00     0.163 HD
ATOM     31  O   UNL A   1      32.456  35.972  28.748  1.00  0.00    -0.269 OA
BRANCH  29  32
ATOM     32  C   UNL A   1      34.132  34.422  29.290  1.00  0.00     0.039 A 
ATOM     33  C   UNL A   1      33.936  33.830  30.540  1.00  0.00     0.014 A 
ATOM     34  C   UNL A   1      35.419  34.548  28.760  1.00  0.00     0.014 A 
ATOM     35  C   UNL A   1      35.027  33.292  31.226  1.00  0.00     0.010 A 
ATOM     36  C   UNL A   1      36.492  33.948  29.411  1.00  0.00     0.010 A 
ATOM     37  C   UNL A   1      36.307  33.312  30.647  1.00  0.00    -0.014 A 
BRANCH  37  38
ATOM     38  C   UNL A   1      37.462  32.665  31.317  1.00  0.00     0.031 A 
ATOM     39  C   UNL A   1      38.180  31.527  30.649  1.00  0.00     0.074 A 
ATOM     40  C   UNL A   1      37.817  33.054  32.557  1.00  0.00     0.049 A 
ATOM     41  N   UNL A   1      39.159  30.786  31.102  1.00  0.00    -0.248 NA
ATOM     42  C   UNL A   1      37.717  31.155  29.303  1.00  0.00     0.031 C 
ATOM     43  C   UNL A   1      37.163  34.109  33.333  1.00  0.00     0.029 A 
ATOM     44  N   UNL A   1      38.808  32.596  33.389  1.00  0.00    -0.354 N 
ATOM     45  C   UNL A   1      39.414  29.851  30.109  1.00  0.00     0.074 A 
ATOM     46  C   UNL A   1      38.456  30.085  29.049  1.00  0.00     0.031 C 
ATOM     47  C   UNL A   1      37.782  34.231  34.518  1.00  0.00     0.029 A 
ATOM     48  C   UNL A   1      38.853  33.242  34.600  1.00  0.00     0.049 A 
ATOM     49  H   UNL A   1      39.428  31.873  33.142  1.00  0.00     0.167 HD
ATOM     50  C   UNL A   1      40.375  28.897  30.074  1.00  0.00     0.037 A 
ATOM     51  C   UNL A   1      39.663  33.054  35.660  1.00  0.00     0.037 A 
ATOM     52  C   UNL A   1      41.346  28.687  31.115  1.00  0.00     0.049 A 
ATOM     53  C   UNL A   1      40.731  31.997  35.589  1.00  0.00     0.074 A 
ATOM     54  C   UNL A   1      42.402  27.793  31.141  1.00  0.00     0.029 A 
ATOM     55  N   UNL A   1      41.379  29.382  32.314  1.00  0.00    -0.354 N 
ATOM     56  N   UNL A   1      41.009  31.167  34.614  1.00  0.00    -0.248 NA
ATOM     57  C   UNL A   1      41.603  31.858  36.763  1.00  0.00     0.031 C 
ATOM     58  C   UNL A   1      43.051  27.920  32.374  1.00  0.00     0.029 A 
ATOM     59  C   UNL A   1      42.427  28.924  33.096  1.00  0.00     0.049 A 
ATOM     60  H   UNL A   1      40.751  30.095  32.571  1.00  0.00     0.167 HD
ATOM     61  C   UNL A   1      42.101  30.425  35.045  1.00  0.00     0.074 A 
ATOM     62  C   UNL A   1      42.444  30.914  36.363  1.00  0.00     0.031 C 
ATOM     63  C   UNL A   1      42.759  29.428  34.404  1.00  0.00     0.037 A 
BRANCH  50  64
ATOM     64  C   UNL A   1      40.425  28.009  28.864  1.00  0.00     0.064 A 
ATOM     65  C   UNL A   1      41.191  28.345  27.738  1.00  0.00     0.173 A 
ATOM     66  C   UNL A   1      39.726  26.794  28.844  1.00  0.00     0.173 A 
ATOM     67  F   UNL A   1      41.868  29.504  27.702  1.00  0.00    -0.203 F 
ATOM     68  C   UNL A   1      41.234  27.510  26.625  1.00  0.00     0.198 A 
ATOM     69  C   UNL A   1      39.794  25.946  27.741  1.00  0.00     0.198 A 
ATOM     70  F   UNL A   1      38.983  26.422  29.897  1.00  0.00    -0.203 F 
ATOM     71  F   UNL A   1      41.934  27.876  25.542  1.00  0.00    -0.200 F 
ATOM     72  C   UNL A   1      40.540  26.309  26.629  1.00  0.00     0.200 A 
ATOM     73  F   UNL A   1      39.134  24.780  27.751  1.00  0.00    -0.200 F 
ATOM     74  F   UNL A   1      40.587  25.503  25.559  1.00  0.00    -0.200 F 
ENDBRANCH  50  64
BRANCH  51  75
ATOM     75  C   UNL A   1      39.514  33.906  36.867  1.00  0.00     0.064 A 
ATOM     76  C   UNL A   1      40.138  35.159  36.941  1.00  0.00     0.173 A 
ATOM     77  C   UNL A   1      38.750  33.491  37.966  1.00  0.00     0.173 A 
ATOM     78  F   UNL A   1      40.895  35.593  35.922  1.00  0.00    -0.203 F 
ATOM     79  C   UNL A   1      40.019  35.957  38.078  1.00  0.00     0.198 A 
ATOM     80  C   UNL A   1      38.611  34.299  39.092  1.00  0.00     0.198 A 
ATOM     81  F   UNL A   1      38.130  32.302  37.943  1.00  0.00    -0.203 F 
ATOM     82  F   UNL A   1      40.660  37.132  38.139  1.00  0.00    -0.200 F 
ATOM     83  C   UNL A   1      39.251  35.529  39.150  1.00  0.00     0.200 A 
ATOM     84  F   UNL A   1      37.857  33.888  40.121  1.00  0.00    -0.200 F 
ATOM     85  F   UNL A   1      39.133  36.298  40.241  1.00  0.00    -0.200 F 
ENDBRANCH  51  75
BRANCH  63  86
ATOM     86  C   UNL A   1      43.937  28.821  35.106  1.00  0.00     0.064 A 
ATOM     87  C   UNL A   1      43.787  27.762  36.014  1.00  0.00     0.173 A 
ATOM     88  C   UNL A   1      45.236  29.278  34.836  1.00  0.00     0.173 A 
ATOM     89  F   UNL A   1      42.564  27.302  36.317  1.00  0.00    -0.203 F 
ATOM     90  C   UNL A   1      44.893  27.197  36.642  1.00  0.00     0.198 A 
ATOM     91  C   UNL A   1      46.342  28.691  35.445  1.00  0.00     0.198 A 
ATOM     92  F   UNL A   1      45.433  30.283  33.972  1.00  0.00    -0.203 F 
ATOM     93  F   UNL A   1      44.724  26.215  37.538  1.00  0.00    -0.200 F 
ATOM     94  C   UNL A   1      46.170  27.656  36.351  1.00  0.00     0.200 A 
ATOM     95  F   UNL A   1      47.575  29.128  35.154  1.00  0.00    -0.200 F 
ATOM     96  F   UNL A   1      47.234  27.106  36.952  1.00  0.00    -0.200 F 
ENDBRANCH  63  86
ENDBRANCH  37  38
ENDBRANCH  29  32
ENDBRANCH  27  28
ENDBRANCH  26  27
ENDBRANCH   1  26
TORSDOF 15
ENDMDL
MODEL 3
REMARK VINA RESULT:     -11.9      5.791     11.154
REMARK SMILES C[NH2+][C@]1(C(=O)NCCCCNC(=O)c2ccc(-c3c4nc(c(-c5c(F)c(F)c(F)c(F)c5F)c5ccc([nH]5)c(-c5c(F)c(F)c(F)c(F)c5F)c5nc(c(-c6c(F)c(F)c(F)c(F)c6F)c6ccc3[nH]6)C=C5)C=C4)cc2)CCC[C@@H]1CCn1nc(C)c(Cl)c1C
REMARK SMILES IDX 8 1 7 2 6 3 4 4 5 5 3 7 77 8 80 9 78 10 79 11 2 12 1 13
REMARK SMILES IDX 81 16 82 17 83 18 84 19 89 20 85 21 87 22 90 23 86 24 88 25
REMARK SMILES IDX 9 26 10 27 11 28 12 29 13 31 14 32 15 33 76 34 16 35 75 36
REMARK SMILES IDX 17 37 18 38 19 39 69 40 20 41 74 42 68 43 70 44 21 45 73 46
REMARK SMILES IDX 67 47 66 48 22 50 54 51 34 52 53 53 35 54 38 55 52 56 71 57
REMARK SMILES IDX 36 58 37 59 51 61 72 62 39 63 23 64 24 65 32 66 25 67 26 68
REMARK SMILES IDX 30 69 33 70 27 71 28 72 31 73 29 74 55 75 56 76 64 77 57 78
REMARK SMILES IDX 58 79 62 80 65 81 59 82 60 83 63 84 61 85 40 86 41 87 49 88
REMARK SMILES IDX 42 89 43 90 47 91 50 92 44 93 45 94 48 95 46 96
REMARK H PARENT 6 6 2 14 2 15 11 30 70 49 38 60
REMARK Flexibility Score: inf
ROOT
ATOM      1  C   UNL A   1      31.775  30.294  26.879  1.00  0.00     0.023 C 
ENDROOT
BRANCH   1   2
ATOM      2  C   UNL A   1      33.114  29.620  26.603  1.00  0.00     0.116 C 
BRANCH   2   3
ATOM      3  N   UNL A   1      33.471  29.669  25.197  1.00  0.00    -0.351 N 
ATOM      4  C   UNL A   1      33.118  28.911  24.121  1.00  0.00     0.281 C 
ATOM      5  O   UNL A   1      33.542  29.319  23.033  1.00  0.00    -0.268 OA
ATOM      6  H   UNL A   1      34.097  30.397  24.976  1.00  0.00     0.163 HD
BRANCH   4   7
ATOM      7  C   UNL A   1      32.172  27.667  24.220  1.00  0.00     0.178 C 
ATOM      8  C   UNL A   1      30.708  27.970  24.605  1.00  0.00     0.079 C 
ATOM      9  C   UNL A   1      32.017  27.039  22.800  1.00  0.00     0.062 C 
ATOM     10  C   UNL A   1      29.835  26.955  23.861  1.00  0.00     0.008 C 
ATOM     11  C   UNL A   1      30.745  26.198  22.897  1.00  0.00     0.011 C 
BRANCH   7  12
ATOM     12  N   UNL A   1      32.715  26.631  25.152  1.00  0.00    -0.336 N 
ATOM     13  C   UNL A   1      31.929  26.411  26.367  1.00  0.00     0.331 C 
ATOM     14  H   UNL A   1      32.766  25.747  24.646  1.00  0.00     0.346 HD
ATOM     15  H   UNL A   1      33.623  26.977  25.461  1.00  0.00     0.346 HD
ENDBRANCH   7  12
BRANCH   9  16
ATOM     16  C   UNL A   1      33.237  26.266  22.265  1.00  0.00     0.034 C 
BRANCH  16  17
ATOM     17  C   UNL A   1      32.970  24.770  22.045  1.00  0.00     0.145 C 
BRANCH  17  18
ATOM     18  N   UNL A   1      33.645  23.915  23.014  1.00  0.00    -0.268 N 
ATOM     19  N   UNL A   1      34.676  24.441  23.707  1.00  0.00    -0.176 NA
ATOM     20  C   UNL A   1      33.388  22.604  23.341  1.00  0.00     0.054 A 
ATOM     21  C   UNL A   1      35.101  23.443  24.490  1.00  0.00     0.078 A 
ATOM     22  C   UNL A   1      34.343  22.272  24.281  1.00  0.00     0.084 A 
ATOM     23  C   UNL A   1      32.311  21.766  22.755  1.00  0.00     0.068 C 
ATOM     24  C   UNL A   1      36.230  23.673  25.424  1.00  0.00     0.070 C 
ATOM     25  Cl  UNL A   1      34.571  20.768  25.034  1.00  0.00    -0.080 Cl
ENDBRANCH  17  18
ENDBRANCH  16  17
ENDBRANCH   9  16
ENDBRANCH   4   7
ENDBRANCH   2   3
ENDBRANCH   1   2
BRANCH   1  26
ATOM     26  C   UNL A   1      31.749  31.797  26.610  1.00  0.00     0.023 C 
BRANCH  26  27
ATOM     27  C   UNL A   1      32.884  32.592  27.245  1.00  0.00     0.116 C 
BRANCH  27  28
ATOM     28  N   UNL A   1      32.516  33.962  27.569  1.00  0.00    -0.352 N 
ATOM     29  C   UNL A   1      33.040  34.793  28.528  1.00  0.00     0.251 C 
ATOM     30  H   UNL A   1      31.790  34.346  27.025  1.00  0.00     0.163 HD
ATOM     31  O   UNL A   1      32.534  35.890  28.747  1.00  0.00    -0.269 OA
BRANCH  29  32
ATOM     32  C   UNL A   1      34.194  34.339  29.329  1.00  0.00     0.039 A 
ATOM     33  C   UNL A   1      33.957  33.630  30.509  1.00  0.00     0.014 A 
ATOM     34  C   UNL A   1      35.502  34.575  28.896  1.00  0.00     0.014 A 
ATOM     35  C   UNL A   1      35.032  33.090  31.216  1.00  0.00     0.010 A 
ATOM     36  C   UNL A   1      36.566  33.975  29.562  1.00  0.00     0.010 A 
ATOM     37  C   UNL A   1      36.342  33.224  30.726  1.00  0.00    -0.014 A 
BRANCH  37  38
ATOM     38  C   UNL A   1      37.488  32.580  31.413  1.00  0.00     0.031 A 
ATOM     39  C   UNL A   1      38.194  31.419  30.773  1.00  0.00     0.074 A 
ATOM     40  C   UNL A   1      37.846  32.993  32.644  1.00  0.00     0.049 A 
ATOM     41  N   UNL A   1      39.163  30.677  31.245  1.00  0.00    -0.248 NA
ATOM     42  C   UNL A   1      37.729  31.020  29.435  1.00  0.00     0.031 C 
ATOM     43  C   UNL A   1      37.204  34.074  33.394  1.00  0.00     0.029 A 
ATOM     44  N   UNL A   1      38.831  32.544  33.488  1.00  0.00    -0.354 N 
ATOM     45  C   UNL A   1      39.409  29.716  30.274  1.00  0.00     0.074 A 
ATOM     46  C   UNL A   1      38.456  29.937  29.207  1.00  0.00     0.031 C 
ATOM     47  C   UNL A   1      37.822  34.217  34.576  1.00  0.00     0.029 A 
ATOM     48  C   UNL A   1      38.882  33.218  34.683  1.00  0.00     0.049 A 
ATOM     49  H   UNL A   1      39.443  31.808  33.258  1.00  0.00     0.167 HD
ATOM     50  C   UNL A   1      40.359  28.750  30.262  1.00  0.00     0.037 A 
ATOM     51  C   UNL A   1      39.688  33.045  35.749  1.00  0.00     0.037 A 
ATOM     52  C   UNL A   1      41.326  28.553  31.309  1.00  0.00     0.049 A 
ATOM     53  C   UNL A   1      40.744  31.974  35.704  1.00  0.00     0.074 A 
ATOM     54  C   UNL A   1      42.372  27.648  31.358  1.00  0.00     0.029 A 
ATOM     55  N   UNL A   1      41.366  29.276  32.493  1.00  0.00    -0.354 N 
ATOM     56  N   UNL A   1      41.014  31.118  34.749  1.00  0.00    -0.248 NA
ATOM     57  C   UNL A   1      41.612  31.852  36.883  1.00  0.00     0.031 C 
ATOM     58  C   UNL A   1      43.021  27.797  32.589  1.00  0.00     0.029 A 
ATOM     59  C   UNL A   1      42.407  28.824  33.287  1.00  0.00     0.049 A 
ATOM     60  H   UNL A   1      40.745  30.002  32.732  1.00  0.00     0.167 HD
ATOM     61  C   UNL A   1      42.096  30.374  35.199  1.00  0.00     0.074 A 
ATOM     62  C   UNL A   1      42.442  30.890  36.507  1.00  0.00     0.031 C 
ATOM     63  C   UNL A   1      42.743  29.355  34.583  1.00  0.00     0.037 A 
BRANCH  50  64
ATOM     64  C   UNL A   1      40.401  27.834  29.074  1.00  0.00     0.064 A 
ATOM     65  C   UNL A   1      39.649  26.651  29.032  1.00  0.00     0.173 A 
ATOM     66  C   UNL A   1      41.176  28.159  27.952  1.00  0.00     0.173 A 
ATOM     67  F   UNL A   1      38.901  26.288  30.086  1.00  0.00    -0.203 F 
ATOM     68  C   UNL A   1      39.693  25.812  27.923  1.00  0.00     0.198 A 
ATOM     69  C   UNL A   1      41.196  27.333  26.831  1.00  0.00     0.198 A 
ATOM     70  F   UNL A   1      41.911  29.281  27.938  1.00  0.00    -0.203 F 
ATOM     71  F   UNL A   1      39.003  24.662  27.926  1.00  0.00    -0.200 F 
ATOM     72  C   UNL A   1      40.461  26.156  26.820  1.00  0.00     0.200 A 
ATOM     73  F   UNL A   1      41.928  27.673  25.762  1.00  0.00    -0.200 F 
ATOM     74  F   UNL A   1      40.497  25.351  25.749  1.00  0.00    -0.200 F 
ENDBRANCH  50  64
BRANCH  51  75
ATOM     75  C   UNL A   1      39.547  33.927  36.935  1.00  0.00     0.064 A 
ATOM     76  C   UNL A   1      38.778  33.529  38.038  1.00  0.00     0.173 A 
ATOM     77  C   UNL A   1      40.171  35.181  36.993  1.00  0.00     0.173 A 
ATOM     78  F   UNL A   1      38.145  32.346  38.021  1.00  0.00    -0.203 F 
ATOM     79  C   UNL A   1      38.625  34.359  39.147  1.00  0.00     0.198 A 
ATOM     80  C   UNL A   1      40.039  35.999  38.113  1.00  0.00     0.198 A 
ATOM     81  F   UNL A   1      40.921  35.606  35.966  1.00  0.00    -0.203 F 
ATOM     82  F   UNL A   1      37.851  33.970  40.170  1.00  0.00    -0.200 F 
ATOM     83  C   UNL A   1      39.260  35.590  39.186  1.00  0.00     0.200 A 
ATOM     84  F   UNL A   1      40.664  37.183  38.152  1.00  0.00    -0.200 F 
ATOM     85  F   UNL A   1      39.116  36.387  40.254  1.00  0.00    -0.200 F 
ENDBRANCH  51  75
BRANCH  63  86
ATOM     86  C   UNL A   1      43.913  28.751  35.301  1.00  0.00     0.064 A 
ATOM     87  C   UNL A   1      45.215  29.251  35.137  1.00  0.00     0.173 A 
ATOM     88  C   UNL A   1      43.724  27.687  36.196  1.00  0.00     0.173 A 
ATOM     89  F   UNL A   1      45.448  30.256  34.280  1.00  0.00    -0.203 F 
ATOM     90  C   UNL A   1      46.286  28.691  35.827  1.00  0.00     0.198 A 
ATOM     91  C   UNL A   1      44.795  27.150  36.906  1.00  0.00     0.198 A 
ATOM     92  F   UNL A   1      42.499  27.179  36.392  1.00  0.00    -0.203 F 
ATOM     93  F   UNL A   1      47.527  29.155  35.624  1.00  0.00    -0.200 F 
ATOM     94  C   UNL A   1      46.075  27.647  36.717  1.00  0.00     0.200 A 
ATOM     95  F   UNL A   1      44.586  26.149  37.773  1.00  0.00    -0.200 F 
ATOM     96  F   UNL A   1      47.107  27.116  37.385  1.00  0.00    -0.200 F 
ENDBRANCH  63  86
ENDBRANCH  37  38
ENDBRANCH  29  32
ENDBRANCH  27  28
ENDBRANCH  26  27
ENDBRANCH   1  26
TORSDOF 15
ENDMDL
