MODEL 1
REMARK VINA RESULT:     -14.2      0.000      0.000
REMARK SMILES Cc1ccc(C(=O)c2cccc(C)c2C(=O)NCCCCNC(=O)c2ccc(-c3c4nc(c(-c5c(F)c(F)c(F)c(F)c5F)c5ccc([nH]5)c(-c5c(F)c(F)c(F)c(F)c5F)c5nc(c(-c6c(F)c(F)c(F)c(F)c6F)c6ccc3[nH]6)C=C5)C=C4)cc2)c(C)c1
REMARK SMILES IDX 19 1 18 2 17 3 15 4 16 5 14 7 8 8 9 9 10 10 12 11 11 12
REMARK SMILES IDX 13 13 6 14 7 15 5 16 1 17 2 18 3 19 90 20 4 21 88 22 89 23
REMARK SMILES IDX 20 24 21 25 22 26 23 27 24 29 25 30 26 31 87 32 27 33 86 34
REMARK SMILES IDX 28 35 29 36 30 37 80 38 31 39 85 40 79 41 81 42 32 43 84 44
REMARK SMILES IDX 78 45 77 46 33 48 65 49 45 50 64 51 46 52 49 53 63 54 82 55
REMARK SMILES IDX 47 56 48 57 62 59 83 60 50 61 34 62 35 63 43 64 36 65 37 66
REMARK SMILES IDX 41 67 44 68 38 69 39 70 42 71 40 72 66 73 67 74 75 75 68 76
REMARK SMILES IDX 69 77 73 78 76 79 70 80 71 81 74 82 72 83 51 84 52 85 60 86
REMARK SMILES IDX 53 87 54 88 58 89 61 90 55 91 56 92 59 93 57 94
REMARK H PARENT 17 6 22 28 81 47 49 58
REMARK Flexibility Score: inf
ROOT
ATOM      1  C   UNL A   1      32.116  30.197  27.195  1.00  0.00     0.023 C 
ENDROOT
BRANCH   1   2
ATOM      2  C   UNL A   1      31.831  30.412  25.708  1.00  0.00     0.116 C 
BRANCH   2   3
ATOM      3  N   UNL A   1      32.587  29.594  24.780  1.00  0.00    -0.352 N 
ATOM      4  C   UNL A   1      32.205  28.581  23.917  1.00  0.00     0.252 C 
ATOM      5  O   UNL A   1      33.056  28.209  23.108  1.00  0.00    -0.269 OA
ATOM      6  H   UNL A   1      33.551  29.796  24.758  1.00  0.00     0.163 HD
BRANCH   4   7
ATOM      7  C   UNL A   1      30.884  27.863  23.998  1.00  0.00     0.053 A 
ATOM      8  C   UNL A   1      30.663  26.744  24.825  1.00  0.00     0.036 A 
ATOM      9  C   UNL A   1      29.429  26.067  24.826  1.00  0.00     0.013 A 
ATOM     10  C   UNL A   1      28.389  26.505  24.018  1.00  0.00     0.001 A 
ATOM     11  C   UNL A   1      29.772  28.373  23.276  1.00  0.00    -0.038 A 
ATOM     12  C   UNL A   1      28.549  27.671  23.278  1.00  0.00     0.004 A 
ATOM     13  C   UNL A   1      29.793  29.712  22.579  1.00  0.00     0.045 C 
BRANCH   8  14
ATOM     14  C   UNL A   1      31.584  26.441  25.931  1.00  0.00     0.194 C 
ATOM     15  O   UNL A   1      31.336  27.028  26.980  1.00  0.00    -0.289 OA
BRANCH  14  16
ATOM     16  C   UNL A   1      32.708  25.446  25.820  1.00  0.00     0.025 A 
ATOM     17  C   UNL A   1      35.829  22.511  25.196  1.00  0.00     0.044 C 
ATOM     18  C   UNL A   1      34.778  23.553  25.444  1.00  0.00    -0.051 A 
ATOM     19  C   UNL A   1      35.030  24.910  25.265  1.00  0.00     0.004 A 
ATOM     20  C   UNL A   1      33.510  23.160  25.879  1.00  0.00     0.007 A 
ATOM     21  C   UNL A   1      34.005  25.845  25.442  1.00  0.00     0.013 A 
ATOM     22  C   UNL A   1      32.491  24.094  26.134  1.00  0.00    -0.040 A 
ATOM     23  C   UNL A   1      31.215  23.579  26.737  1.00  0.00     0.045 C 
ENDBRANCH  14  16
ENDBRANCH   8  14
ENDBRANCH   4   7
ENDBRANCH   2   3
ENDBRANCH   1   2
BRANCH   1  24
ATOM     24  C   UNL A   1      33.581  30.096  27.604  1.00  0.00     0.023 C 
BRANCH  24  25
ATOM     25  C   UNL A   1      34.403  31.374  27.447  1.00  0.00     0.116 C 
BRANCH  25  26
ATOM     26  N   UNL A   1      34.920  31.895  28.715  1.00  0.00    -0.352 N 
ATOM     27  C   UNL A   1      35.960  31.445  29.513  1.00  0.00     0.251 C 
ATOM     28  H   UNL A   1      34.454  32.692  29.055  1.00  0.00     0.163 HD
ATOM     29  O   UNL A   1      36.321  32.102  30.486  1.00  0.00    -0.269 OA
BRANCH  27  30
ATOM     30  C   UNL A   1      36.723  30.240  29.119  1.00  0.00     0.039 A 
ATOM     31  C   UNL A   1      36.849  29.194  30.041  1.00  0.00     0.014 A 
ATOM     32  C   UNL A   1      37.475  30.236  27.952  1.00  0.00     0.014 A 
ATOM     33  C   UNL A   1      37.929  28.324  29.932  1.00  0.00     0.010 A 
ATOM     34  C   UNL A   1      38.621  29.468  27.916  1.00  0.00     0.010 A 
ATOM     35  C   UNL A   1      38.890  28.573  28.956  1.00  0.00    -0.014 A 
BRANCH  35  36
ATOM     36  C   UNL A   1      40.266  28.093  29.058  1.00  0.00     0.031 A 
ATOM     37  C   UNL A   1      40.655  26.770  28.528  1.00  0.00     0.074 A 
ATOM     38  C   UNL A   1      41.205  28.960  29.503  1.00  0.00     0.049 A 
ATOM     39  N   UNL A   1      41.758  26.159  28.806  1.00  0.00    -0.248 NA
ATOM     40  C   UNL A   1      39.774  25.994  27.664  1.00  0.00     0.031 C 
ATOM     41  C   UNL A   1      42.651  28.883  29.310  1.00  0.00     0.029 A 
ATOM     42  N   UNL A   1      41.027  30.047  30.384  1.00  0.00    -0.354 N 
ATOM     43  C   UNL A   1      41.849  25.051  27.990  1.00  0.00     0.074 A 
ATOM     44  C   UNL A   1      40.564  24.969  27.335  1.00  0.00     0.031 C 
ATOM     45  C   UNL A   1      43.251  29.670  30.217  1.00  0.00     0.029 A 
ATOM     46  C   UNL A   1      42.217  30.109  31.143  1.00  0.00     0.049 A 
ATOM     47  H   UNL A   1      40.241  30.637  30.456  1.00  0.00     0.167 HD
ATOM     48  C   UNL A   1      43.044  24.401  27.872  1.00  0.00     0.037 A 
ATOM     49  C   UNL A   1      42.245  29.865  32.486  1.00  0.00     0.037 A 
ATOM     50  C   UNL A   1      44.044  24.975  28.770  1.00  0.00     0.049 A 
ATOM     51  C   UNL A   1      43.204  28.778  32.881  1.00  0.00     0.074 A 
ATOM     52  C   UNL A   1      45.036  25.922  28.571  1.00  0.00     0.029 A 
ATOM     53  N   UNL A   1      43.910  24.825  30.147  1.00  0.00    -0.354 N 
ATOM     54  N   UNL A   1      43.534  27.786  32.104  1.00  0.00    -0.248 NA
ATOM     55  C   UNL A   1      43.820  28.707  34.200  1.00  0.00     0.031 C 
ATOM     56  C   UNL A   1      45.465  26.380  29.840  1.00  0.00     0.029 A 
ATOM     57  C   UNL A   1      44.752  25.697  30.810  1.00  0.00     0.049 A 
ATOM     58  H   UNL A   1      43.301  24.187  30.586  1.00  0.00     0.167 HD
ATOM     59  C   UNL A   1      44.350  26.937  32.799  1.00  0.00     0.074 A 
ATOM     60  C   UNL A   1      44.518  27.564  34.096  1.00  0.00     0.031 C 
ATOM     61  C   UNL A   1      44.791  25.764  32.262  1.00  0.00     0.037 A 
BRANCH  48  62
ATOM     62  C   UNL A   1      43.393  23.464  26.730  1.00  0.00     0.064 A 
ATOM     63  C   UNL A   1      43.001  22.107  26.764  1.00  0.00     0.173 A 
ATOM     64  C   UNL A   1      44.169  23.815  25.610  1.00  0.00     0.173 A 
ATOM     65  F   UNL A   1      42.154  21.644  27.691  1.00  0.00    -0.203 F 
ATOM     66  C   UNL A   1      43.465  21.163  25.840  1.00  0.00     0.198 A 
ATOM     67  C   UNL A   1      44.681  22.864  24.719  1.00  0.00     0.198 A 
ATOM     68  F   UNL A   1      44.403  25.095  25.299  1.00  0.00    -0.203 F 
ATOM     69  F   UNL A   1      43.065  19.887  25.935  1.00  0.00    -0.200 F 
ATOM     70  C   UNL A   1      44.342  21.534  24.844  1.00  0.00     0.200 A 
ATOM     71  F   UNL A   1      45.505  23.253  23.735  1.00  0.00    -0.200 F 
ATOM     72  F   UNL A   1      44.829  20.623  23.990  1.00  0.00    -0.200 F 
ENDBRANCH  48  62
BRANCH  49  73
ATOM     73  C   UNL A   1      40.963  30.096  33.201  1.00  0.00     0.064 A 
ATOM     74  C   UNL A   1      40.656  31.383  33.661  1.00  0.00     0.173 A 
ATOM     75  C   UNL A   1      39.916  29.171  33.125  1.00  0.00     0.173 A 
ATOM     76  F   UNL A   1      41.642  32.270  33.863  1.00  0.00    -0.203 F 
ATOM     77  C   UNL A   1      39.335  31.785  33.854  1.00  0.00     0.198 A 
ATOM     78  C   UNL A   1      38.598  29.564  33.361  1.00  0.00     0.198 A 
ATOM     79  F   UNL A   1      40.149  27.914  32.724  1.00  0.00    -0.203 F 
ATOM     80  F   UNL A   1      39.057  33.059  34.163  1.00  0.00    -0.200 F 
ATOM     81  C   UNL A   1      38.304  30.882  33.667  1.00  0.00     0.200 A 
ATOM     82  F   UNL A   1      37.599  28.685  33.190  1.00  0.00    -0.200 F 
ATOM     83  F   UNL A   1      37.030  31.288  33.759  1.00  0.00    -0.200 F 
ENDBRANCH  49  73
BRANCH  61  84
ATOM     84  C   UNL A   1      45.385  24.635  33.059  1.00  0.00     0.064 A 
ATOM     85  C   UNL A   1      46.672  24.685  33.624  1.00  0.00     0.173 A 
ATOM     86  C   UNL A   1      44.606  23.511  33.411  1.00  0.00     0.173 A 
ATOM     87  F   UNL A   1      47.459  25.760  33.475  1.00  0.00    -0.203 F 
ATOM     88  C   UNL A   1      47.173  23.652  34.416  1.00  0.00     0.198 A 
ATOM     89  C   UNL A   1      45.088  22.508  34.249  1.00  0.00     0.198 A 
ATOM     90  F   UNL A   1      43.345  23.372  32.975  1.00  0.00    -0.203 F 
ATOM     91  F   UNL A   1      48.424  23.728  34.891  1.00  0.00    -0.200 F 
ATOM     92  C   UNL A   1      46.379  22.568  34.736  1.00  0.00     0.200 A 
ATOM     93  F   UNL A   1      44.288  21.491  34.600  1.00  0.00    -0.200 F 
ATOM     94  F   UNL A   1      46.848  21.599  35.532  1.00  0.00    -0.200 F 
ENDBRANCH  61  84
ENDBRANCH  35  36
ENDBRANCH  27  30
ENDBRANCH  25  26
ENDBRANCH  24  25
ENDBRANCH   1  24
TORSDOF 13
ENDMDL
MODEL 2
REMARK VINA RESULT:     -14.2      4.283     10.215
REMARK SMILES Cc1ccc(C(=O)c2cccc(C)c2C(=O)NCCCCNC(=O)c2ccc(-c3c4nc(c(-c5c(F)c(F)c(F)c(F)c5F)c5ccc([nH]5)c(-c5c(F)c(F)c(F)c(F)c5F)c5nc(c(-c6c(F)c(F)c(F)c(F)c6F)c6ccc3[nH]6)C=C5)C=C4)cc2)c(C)c1
REMARK SMILES IDX 19 1 18 2 17 3 15 4 16 5 14 7 8 8 9 9 10 10 12 11 11 12
REMARK SMILES IDX 13 13 6 14 7 15 5 16 1 17 2 18 3 19 90 20 4 21 88 22 89 23
REMARK SMILES IDX 20 24 21 25 22 26 23 27 24 29 25 30 26 31 87 32 27 33 86 34
REMARK SMILES IDX 28 35 29 36 30 37 80 38 31 39 85 40 79 41 81 42 32 43 84 44
REMARK SMILES IDX 78 45 77 46 33 48 65 49 45 50 64 51 46 52 49 53 63 54 82 55
REMARK SMILES IDX 47 56 48 57 62 59 83 60 50 61 34 62 35 63 43 64 36 65 37 66
REMARK SMILES IDX 41 67 44 68 38 69 39 70 42 71 40 72 66 73 67 74 75 75 68 76
REMARK SMILES IDX 69 77 73 78 76 79 70 80 71 81 74 82 72 83 51 84 52 85 60 86
REMARK SMILES IDX 53 87 54 88 58 89 61 90 55 91 56 92 59 93 57 94
REMARK H PARENT 17 6 22 28 81 47 49 58
REMARK Flexibility Score: inf
ROOT
ATOM      1  C   UNL A   1      37.694  21.140  24.657  1.00  0.00     0.023 C 
ENDROOT
BRANCH   1   2
ATOM      2  C   UNL A   1      36.428  20.419  25.121  1.00  0.00     0.116 C 
BRANCH   2   3
ATOM      3  N   UNL A   1      35.507  21.188  25.934  1.00  0.00    -0.352 N 
ATOM      4  C   UNL A   1      34.170  21.506  25.768  1.00  0.00     0.252 C 
ATOM      5  O   UNL A   1      33.610  22.016  26.739  1.00  0.00    -0.269 OA
ATOM      6  H   UNL A   1      35.905  21.550  26.759  1.00  0.00     0.163 HD
BRANCH   4   7
ATOM      7  C   UNL A   1      33.430  21.369  24.463  1.00  0.00     0.053 A 
ATOM      8  C   UNL A   1      33.375  22.391  23.496  1.00  0.00     0.036 A 
ATOM      9  C   UNL A   1      32.623  22.242  22.315  1.00  0.00     0.013 A 
ATOM     10  C   UNL A   1      31.931  21.065  22.071  1.00  0.00     0.001 A 
ATOM     11  C   UNL A   1      32.823  20.127  24.139  1.00  0.00    -0.038 A 
ATOM     12  C   UNL A   1      32.061  20.003  22.958  1.00  0.00     0.004 A 
ATOM     13  C   UNL A   1      33.040  18.872  24.949  1.00  0.00     0.045 C 
BRANCH   8  14
ATOM     14  C   UNL A   1      34.338  23.503  23.530  1.00  0.00     0.194 C 
ATOM     15  O   UNL A   1      35.418  23.263  22.999  1.00  0.00    -0.289 OA
BRANCH  14  16
ATOM     16  C   UNL A   1      34.018  24.854  24.112  1.00  0.00     0.025 A 
ATOM     17  C   UNL A   1      32.789  28.630  25.836  1.00  0.00     0.044 C 
ATOM     18  C   UNL A   1      33.262  27.331  25.253  1.00  0.00    -0.051 A 
ATOM     19  C   UNL A   1      33.962  26.396  26.011  1.00  0.00     0.004 A 
ATOM     20  C   UNL A   1      33.007  27.048  23.909  1.00  0.00     0.007 A 
ATOM     21  C   UNL A   1      34.328  25.168  25.449  1.00  0.00     0.013 A 
ATOM     22  C   UNL A   1      33.435  25.850  23.310  1.00  0.00    -0.040 A 
ATOM     23  C   UNL A   1      33.239  25.710  21.827  1.00  0.00     0.045 C 
ENDBRANCH  14  16
ENDBRANCH   8  14
ENDBRANCH   4   7
ENDBRANCH   2   3
ENDBRANCH   1   2
BRANCH   1  24
ATOM     24  C   UNL A   1      38.835  21.234  25.663  1.00  0.00     0.023 C 
BRANCH  24  25
ATOM     25  C   UNL A   1      39.078  22.618  26.263  1.00  0.00     0.116 C 
BRANCH  25  26
ATOM     26  N   UNL A   1      40.486  22.877  26.579  1.00  0.00    -0.352 N 
ATOM     27  C   UNL A   1      41.108  24.033  27.020  1.00  0.00     0.251 C 
ATOM     28  H   UNL A   1      41.085  22.106  26.459  1.00  0.00     0.163 HD
ATOM     29  O   UNL A   1      42.291  24.011  27.352  1.00  0.00    -0.269 OA
BRANCH  27  30
ATOM     30  C   UNL A   1      40.315  25.268  27.218  1.00  0.00     0.039 A 
ATOM     31  C   UNL A   1      40.576  26.372  26.398  1.00  0.00     0.014 A 
ATOM     32  C   UNL A   1      39.489  25.401  28.326  1.00  0.00     0.014 A 
ATOM     33  C   UNL A   1      40.257  27.645  26.858  1.00  0.00     0.010 A 
ATOM     34  C   UNL A   1      39.295  26.663  28.848  1.00  0.00     0.010 A 
ATOM     35  C   UNL A   1      39.761  27.783  28.152  1.00  0.00    -0.014 A 
BRANCH  35  36
ATOM     36  C   UNL A   1      39.876  29.021  28.918  1.00  0.00     0.031 A 
ATOM     37  C   UNL A   1      38.831  30.063  28.846  1.00  0.00     0.074 A 
ATOM     38  C   UNL A   1      40.882  29.115  29.817  1.00  0.00     0.049 A 
ATOM     39  N   UNL A   1      38.970  31.277  29.264  1.00  0.00    -0.248 NA
ATOM     40  C   UNL A   1      37.533  29.816  28.229  1.00  0.00     0.031 C 
ATOM     41  C   UNL A   1      40.973  30.019  30.960  1.00  0.00     0.029 A 
ATOM     42  N   UNL A   1      42.141  28.478  29.773  1.00  0.00    -0.354 N 
ATOM     43  C   UNL A   1      37.738  31.893  29.202  1.00  0.00     0.074 A 
ATOM     44  C   UNL A   1      36.891  30.954  28.504  1.00  0.00     0.031 C 
ATOM     45  C   UNL A   1      42.256  30.094  31.352  1.00  0.00     0.029 A 
ATOM     46  C   UNL A   1      43.045  29.402  30.342  1.00  0.00     0.049 A 
ATOM     47  H   UNL A   1      42.346  27.581  29.421  1.00  0.00     0.167 HD
ATOM     48  C   UNL A   1      37.546  33.076  29.857  1.00  0.00     0.037 A 
ATOM     49  C   UNL A   1      44.043  29.992  29.622  1.00  0.00     0.037 A 
ATOM     50  C   UNL A   1      38.791  33.553  30.455  1.00  0.00     0.049 A 
ATOM     51  C   UNL A   1      44.005  31.493  29.656  1.00  0.00     0.074 A 
ATOM     52  C   UNL A   1      39.313  33.432  31.732  1.00  0.00     0.029 A 
ATOM     53  N   UNL A   1      39.834  33.983  29.639  1.00  0.00    -0.354 N 
ATOM     54  N   UNL A   1      42.914  32.187  29.810  1.00  0.00    -0.248 NA
ATOM     55  C   UNL A   1      45.192  32.319  29.469  1.00  0.00     0.031 C 
ATOM     56  C   UNL A   1      40.693  33.745  31.673  1.00  0.00     0.029 A 
ATOM     57  C   UNL A   1      41.005  34.077  30.366  1.00  0.00     0.049 A 
ATOM     58  H   UNL A   1      39.748  34.191  28.681  1.00  0.00     0.167 HD
ATOM     59  C   UNL A   1      43.220  33.516  29.706  1.00  0.00     0.074 A 
ATOM     60  C   UNL A   1      44.657  33.551  29.515  1.00  0.00     0.031 C 
ATOM     61  C   UNL A   1      42.258  34.480  29.747  1.00  0.00     0.037 A 
BRANCH  48  62
ATOM     62  C   UNL A   1      36.182  33.634  30.221  1.00  0.00     0.064 A 
ATOM     63  C   UNL A   1      35.324  34.152  29.225  1.00  0.00     0.173 A 
ATOM     64  C   UNL A   1      35.687  33.756  31.533  1.00  0.00     0.173 A 
ATOM     65  F   UNL A   1      35.588  33.996  27.922  1.00  0.00    -0.203 F 
ATOM     66  C   UNL A   1      34.151  34.854  29.528  1.00  0.00     0.198 A 
ATOM     67  C   UNL A   1      34.546  34.507  31.841  1.00  0.00     0.198 A 
ATOM     68  F   UNL A   1      36.249  33.098  32.553  1.00  0.00    -0.203 F 
ATOM     69  F   UNL A   1      33.387  35.330  28.535  1.00  0.00    -0.200 F 
ATOM     70  C   UNL A   1      33.787  35.070  30.839  1.00  0.00     0.200 A 
ATOM     71  F   UNL A   1      34.189  34.675  33.123  1.00  0.00    -0.200 F 
ATOM     72  F   UNL A   1      32.693  35.786  31.132  1.00  0.00    -0.200 F 
ENDBRANCH  48  62
BRANCH  49  73
ATOM     73  C   UNL A   1      44.499  29.233  28.429  1.00  0.00     0.064 A 
ATOM     74  C   UNL A   1      45.495  28.258  28.575  1.00  0.00     0.173 A 
ATOM     75  C   UNL A   1      43.741  29.209  27.253  1.00  0.00     0.173 A 
ATOM     76  F   UNL A   1      46.326  28.308  29.627  1.00  0.00    -0.203 F 
ATOM     77  C   UNL A   1      45.601  27.195  27.680  1.00  0.00     0.198 A 
ATOM     78  C   UNL A   1      43.878  28.167  26.336  1.00  0.00     0.198 A 
ATOM     79  F   UNL A   1      42.795  30.134  27.038  1.00  0.00    -0.203 F 
ATOM     80  F   UNL A   1      46.471  26.202  27.913  1.00  0.00    -0.200 F 
ATOM     81  C   UNL A   1      44.766  27.132  26.579  1.00  0.00     0.200 A 
ATOM     82  F   UNL A   1      43.076  28.113  25.263  1.00  0.00    -0.200 F 
ATOM     83  F   UNL A   1      44.800  26.065  25.769  1.00  0.00    -0.200 F 
ENDBRANCH  49  73
BRANCH  61  84
ATOM     84  C   UNL A   1      42.459  35.902  29.299  1.00  0.00     0.064 A 
ATOM     85  C   UNL A   1      43.290  36.811  29.976  1.00  0.00     0.173 A 
ATOM     86  C   UNL A   1      41.932  36.353  28.069  1.00  0.00     0.173 A 
ATOM     87  F   UNL A   1      43.956  36.458  31.085  1.00  0.00    -0.203 F 
ATOM     88  C   UNL A   1      43.514  38.104  29.501  1.00  0.00     0.198 A 
ATOM     89  C   UNL A   1      42.204  37.625  27.568  1.00  0.00     0.198 A 
ATOM     90  F   UNL A   1      41.164  35.562  27.306  1.00  0.00    -0.203 F 
ATOM     91  F   UNL A   1      44.277  38.948  30.210  1.00  0.00    -0.200 F 
ATOM     92  C   UNL A   1      42.978  38.508  28.294  1.00  0.00     0.200 A 
ATOM     93  F   UNL A   1      41.727  37.984  26.368  1.00  0.00    -0.200 F 
ATOM     94  F   UNL A   1      43.230  39.735  27.820  1.00  0.00    -0.200 F 
ENDBRANCH  61  84
ENDBRANCH  35  36
ENDBRANCH  27  30
ENDBRANCH  25  26
ENDBRANCH  24  25
ENDBRANCH   1  24
TORSDOF 13
ENDMDL
MODEL 3
REMARK VINA RESULT:     -13.7      1.131      2.072
REMARK SMILES Cc1ccc(C(=O)c2cccc(C)c2C(=O)NCCCCNC(=O)c2ccc(-c3c4nc(c(-c5c(F)c(F)c(F)c(F)c5F)c5ccc([nH]5)c(-c5c(F)c(F)c(F)c(F)c5F)c5nc(c(-c6c(F)c(F)c(F)c(F)c6F)c6ccc3[nH]6)C=C5)C=C4)cc2)c(C)c1
REMARK SMILES IDX 19 1 18 2 17 3 15 4 16 5 14 7 8 8 9 9 10 10 12 11 11 12
REMARK SMILES IDX 13 13 6 14 7 15 5 16 1 17 2 18 3 19 90 20 4 21 88 22 89 23
REMARK SMILES IDX 20 24 21 25 22 26 23 27 24 29 25 30 26 31 87 32 27 33 86 34
REMARK SMILES IDX 28 35 29 36 30 37 80 38 31 39 85 40 79 41 81 42 32 43 84 44
REMARK SMILES IDX 78 45 77 46 33 48 65 49 45 50 64 51 46 52 49 53 63 54 82 55
REMARK SMILES IDX 47 56 48 57 62 59 83 60 50 61 34 62 35 63 43 64 36 65 37 66
REMARK SMILES IDX 41 67 44 68 38 69 39 70 42 71 40 72 66 73 67 74 75 75 68 76
REMARK SMILES IDX 69 77 73 78 76 79 70 80 71 81 74 82 72 83 51 84 52 85 60 86
REMARK SMILES IDX 53 87 54 88 58 89 61 90 55 91 56 92 59 93 57 94
REMARK H PARENT 17 6 22 28 81 47 49 58
REMARK Flexibility Score: inf
ROOT
ATOM      1  C   UNL A   1      31.887  29.417  26.556  1.00  0.00     0.023 C 
ENDROOT
BRANCH   1   2
ATOM      2  C   UNL A   1      32.114  28.074  27.250  1.00  0.00     0.116 C 
BRANCH   2   3
ATOM      3  N   UNL A   1      31.081  27.072  27.073  1.00  0.00    -0.352 N 
ATOM      4  C   UNL A   1      30.823  26.182  26.046  1.00  0.00     0.252 C 
ATOM      5  O   UNL A   1      29.979  25.315  26.279  1.00  0.00    -0.269 OA
ATOM      6  H   UNL A   1      30.447  27.012  27.824  1.00  0.00     0.163 HD
BRANCH   4   7
ATOM      7  C   UNL A   1      31.421  26.293  24.668  1.00  0.00     0.053 A 
ATOM      8  C   UNL A   1      32.698  25.798  24.339  1.00  0.00     0.036 A 
ATOM      9  C   UNL A   1      33.243  25.975  23.053  1.00  0.00     0.013 A 
ATOM     10  C   UNL A   1      32.515  26.629  22.069  1.00  0.00     0.001 A 
ATOM     11  C   UNL A   1      30.642  26.845  23.616  1.00  0.00    -0.038 A 
ATOM     12  C   UNL A   1      31.211  27.027  22.339  1.00  0.00     0.004 A 
ATOM     13  C   UNL A   1      29.172  27.155  23.762  1.00  0.00     0.045 C 
BRANCH   8  14
ATOM     14  C   UNL A   1      33.366  24.819  25.210  1.00  0.00     0.194 C 
ATOM     15  O   UNL A   1      33.938  25.304  26.182  1.00  0.00    -0.289 OA
BRANCH  14  16
ATOM     16  C   UNL A   1      33.310  23.333  24.977  1.00  0.00     0.025 A 
ATOM     17  C   UNL A   1      33.273  19.020  24.612  1.00  0.00     0.044 C 
ATOM     18  C   UNL A   1      33.248  20.516  24.705  1.00  0.00    -0.051 A 
ATOM     19  C   UNL A   1      32.084  21.215  25.014  1.00  0.00     0.004 A 
ATOM     20  C   UNL A   1      34.419  21.239  24.466  1.00  0.00     0.007 A 
ATOM     21  C   UNL A   1      32.117  22.607  25.157  1.00  0.00     0.013 A 
ATOM     22  C   UNL A   1      34.451  22.643  24.531  1.00  0.00    -0.040 A 
ATOM     23  C   UNL A   1      35.721  23.327  24.113  1.00  0.00     0.045 C 
ENDBRANCH  14  16
ENDBRANCH   8  14
ENDBRANCH   4   7
ENDBRANCH   2   3
ENDBRANCH   1   2
BRANCH   1  24
ATOM     24  C   UNL A   1      32.465  30.649  27.243  1.00  0.00     0.023 C 
BRANCH  24  25
ATOM     25  C   UNL A   1      33.972  30.850  27.088  1.00  0.00     0.116 C 
BRANCH  25  26
ATOM     26  N   UNL A   1      34.565  31.658  28.156  1.00  0.00    -0.352 N 
ATOM     27  C   UNL A   1      35.682  31.427  28.942  1.00  0.00     0.251 C 
ATOM     28  H   UNL A   1      34.094  32.501  28.346  1.00  0.00     0.163 HD
ATOM     29  O   UNL A   1      36.092  32.297  29.706  1.00  0.00    -0.269 OA
BRANCH  27  30
ATOM     30  C   UNL A   1      36.462  30.181  28.765  1.00  0.00     0.039 A 
ATOM     31  C   UNL A   1      36.663  29.352  29.875  1.00  0.00     0.014 A 
ATOM     32  C   UNL A   1      37.158  29.950  27.586  1.00  0.00     0.014 A 
ATOM     33  C   UNL A   1      37.763  28.500  29.891  1.00  0.00     0.010 A 
ATOM     34  C   UNL A   1      38.323  29.214  27.648  1.00  0.00     0.010 A 
ATOM     35  C   UNL A   1      38.669  28.559  28.835  1.00  0.00    -0.014 A 
BRANCH  35  36
ATOM     36  C   UNL A   1      40.061  28.138  28.961  1.00  0.00     0.031 A 
ATOM     37  C   UNL A   1      40.506  26.815  28.479  1.00  0.00     0.074 A 
ATOM     38  C   UNL A   1      40.962  29.056  29.381  1.00  0.00     0.049 A 
ATOM     39  N   UNL A   1      41.630  26.257  28.784  1.00  0.00    -0.248 NA
ATOM     40  C   UNL A   1      39.662  25.975  27.637  1.00  0.00     0.031 C 
ATOM     41  C   UNL A   1      42.412  29.030  29.199  1.00  0.00     0.029 A 
ATOM     42  N   UNL A   1      40.736  30.165  30.224  1.00  0.00    -0.354 N 
ATOM     43  C   UNL A   1      41.770  25.127  28.007  1.00  0.00     0.074 A 
ATOM     44  C   UNL A   1      40.495  24.972  27.347  1.00  0.00     0.031 C 
ATOM     45  C   UNL A   1      42.974  29.871  30.082  1.00  0.00     0.029 A 
ATOM     46  C   UNL A   1      41.917  30.300  30.987  1.00  0.00     0.049 A 
ATOM     47  H   UNL A   1      39.927  30.725  30.271  1.00  0.00     0.167 HD
ATOM     48  C   UNL A   1      42.992  24.522  27.918  1.00  0.00     0.037 A 
ATOM     49  C   UNL A   1      41.946  30.102  32.337  1.00  0.00     0.037 A 
ATOM     50  C   UNL A   1      43.962  25.165  28.800  1.00  0.00     0.049 A 
ATOM     51  C   UNL A   1      42.944  29.068  32.774  1.00  0.00     0.074 A 
ATOM     52  C   UNL A   1      44.916  26.143  28.575  1.00  0.00     0.029 A 
ATOM     53  N   UNL A   1      43.824  25.056  30.181  1.00  0.00    -0.354 N 
ATOM     54  N   UNL A   1      43.319  28.065  32.034  1.00  0.00    -0.248 NA
ATOM     55  C   UNL A   1      43.553  29.067  34.098  1.00  0.00     0.031 C 
ATOM     56  C   UNL A   1      45.319  26.660  29.830  1.00  0.00     0.029 A 
ATOM     57  C   UNL A   1      44.626  25.983  30.819  1.00  0.00     0.049 A 
ATOM     58  H   UNL A   1      43.238  24.410  30.639  1.00  0.00     0.167 HD
ATOM     59  C   UNL A   1      44.162  27.273  32.762  1.00  0.00     0.074 A 
ATOM     60  C   UNL A   1      44.297  27.950  34.038  1.00  0.00     0.031 C 
ATOM     61  C   UNL A   1      44.653  26.101  32.268  1.00  0.00     0.037 A 
BRANCH  48  62
ATOM     62  C   UNL A   1      43.385  23.561  26.810  1.00  0.00     0.064 A 
ATOM     63  C   UNL A   1      42.998  22.202  26.861  1.00  0.00     0.173 A 
ATOM     64  C   UNL A   1      44.198  23.891  25.710  1.00  0.00     0.173 A 
ATOM     65  F   UNL A   1      42.120  21.756  27.768  1.00  0.00    -0.203 F 
ATOM     66  C   UNL A   1      43.499  21.241  25.976  1.00  0.00     0.198 A 
ATOM     67  C   UNL A   1      44.746  22.923  24.860  1.00  0.00     0.198 A 
ATOM     68  F   UNL A   1      44.437  25.165  25.379  1.00  0.00    -0.203 F 
ATOM     69  F   UNL A   1      43.101  19.965  26.085  1.00  0.00    -0.200 F 
ATOM     70  C   UNL A   1      44.409  21.594  25.003  1.00  0.00     0.200 A 
ATOM     71  F   UNL A   1      45.603  23.293  23.897  1.00  0.00    -0.200 F 
ATOM     72  F   UNL A   1      44.929  20.666  24.188  1.00  0.00    -0.200 F 
ENDBRANCH  48  62
BRANCH  49  73
ATOM     73  C   UNL A   1      40.651  30.307  33.037  1.00  0.00     0.064 A 
ATOM     74  C   UNL A   1      40.264  31.603  33.399  1.00  0.00     0.173 A 
ATOM     75  C   UNL A   1      39.664  29.316  33.035  1.00  0.00     0.173 A 
ATOM     76  F   UNL A   1      41.191  32.563  33.531  1.00  0.00    -0.203 F 
ATOM     77  C   UNL A   1      38.920  31.936  33.565  1.00  0.00     0.198 A 
ATOM     78  C   UNL A   1      38.323  29.642  33.244  1.00  0.00     0.198 A 
ATOM     79  F   UNL A   1      39.975  28.048  32.729  1.00  0.00    -0.203 F 
ATOM     80  F   UNL A   1      38.562  33.210  33.778  1.00  0.00    -0.200 F 
ATOM     81  C   UNL A   1      37.947  30.959  33.451  1.00  0.00     0.200 A 
ATOM     82  F   UNL A   1      37.382  28.692  33.144  1.00  0.00    -0.200 F 
ATOM     83  F   UNL A   1      36.650  31.290  33.516  1.00  0.00    -0.200 F 
ENDBRANCH  49  73
BRANCH  61  84
ATOM     84  C   UNL A   1      45.286  25.024  33.106  1.00  0.00     0.064 A 
ATOM     85  C   UNL A   1      44.644  23.813  33.416  1.00  0.00     0.173 A 
ATOM     86  C   UNL A   1      46.638  25.119  33.502  1.00  0.00     0.173 A 
ATOM     87  F   UNL A   1      43.404  23.547  32.979  1.00  0.00    -0.203 F 
ATOM     88  C   UNL A   1      45.279  22.802  34.137  1.00  0.00     0.198 A 
ATOM     89  C   UNL A   1      47.288  24.084  34.173  1.00  0.00     0.198 A 
ATOM     90  F   UNL A   1      47.373  26.205  33.222  1.00  0.00    -0.203 F 
ATOM     91  F   UNL A   1      44.606  21.685  34.448  1.00  0.00    -0.200 F 
ATOM     92  C   UNL A   1      46.603  22.934  34.508  1.00  0.00     0.200 A 
ATOM     93  F   UNL A   1      48.589  24.200  34.475  1.00  0.00    -0.200 F 
ATOM     94  F   UNL A   1      47.223  21.944  35.163  1.00  0.00    -0.200 F 
ENDBRANCH  61  84
ENDBRANCH  35  36
ENDBRANCH  27  30
ENDBRANCH  25  26
ENDBRANCH  24  25
ENDBRANCH   1  24
TORSDOF 13
ENDMDL
