MODEL 1
REMARK VINA RESULT:     -12.2      0.000      0.000
REMARK SMILES CCOc1ccc(N)c(SCc2ccccc2C(=O)NCCCCNC(=O)c2ccc(-c3c4nc(c(-c5c(F)c(F)c(F)c(F)c5F)c5ccc([nH]5)c(-c5c(F)c(F)c(F)c(F)c5F)c5nc(c(-c6c(F)c(F)c(F)c(F)c6F)c6ccc3[nH]6)C=C5)C=C4)cc2)c1
REMARK SMILES IDX 21 1 20 2 18 3 19 4 17 6 12 7 13 8 14 9 16 10 15 11 11 12
REMARK SMILES IDX 10 13 9 14 4 15 5 16 91 17 6 18 7 19 3 20 2 21 1 22 8 23
REMARK SMILES IDX 22 26 23 27 24 28 25 29 26 30 27 32 28 33 29 34 90 35 30 36
REMARK SMILES IDX 89 37 31 38 32 39 33 40 83 41 34 42 88 43 82 44 84 45 35 46
REMARK SMILES IDX 87 47 81 48 80 49 36 51 68 52 48 53 67 54 49 55 52 56 66 57
REMARK SMILES IDX 85 58 50 59 51 60 65 62 86 63 53 64 37 65 38 66 46 67 39 68
REMARK SMILES IDX 40 69 44 70 47 71 41 72 42 73 45 74 43 75 69 76 70 77 78 78
REMARK SMILES IDX 71 79 72 80 76 81 79 82 73 83 74 84 77 85 75 86 54 87 55 88
REMARK SMILES IDX 63 89 56 90 57 91 61 92 64 93 58 94 59 95 62 96 60 97
REMARK H PARENT 20 5 8 24 8 25 25 31 84 50 52 61
REMARK Flexibility Score: inf
ROOT
ATOM      1  C   UNL A   1      37.082  22.432  25.444  1.00  0.00     0.116 C 
ENDROOT
BRANCH   1   2
ATOM      2  N   UNL A   1      36.012  22.539  26.413  1.00  0.00    -0.352 N 
ATOM      3  C   UNL A   1      34.851  23.277  26.439  1.00  0.00     0.251 C 
ATOM      4  O   UNL A   1      34.129  23.102  27.428  1.00  0.00    -0.269 OA
ATOM      5  H   UNL A   1      36.139  21.974  27.209  1.00  0.00     0.163 HD
BRANCH   3   6
ATOM      6  C   UNL A   1      34.410  24.278  25.405  1.00  0.00     0.043 A 
ATOM      7  C   UNL A   1      33.885  24.032  24.115  1.00  0.00    -0.025 A 
ATOM      8  C   UNL A   1      33.571  25.143  23.294  1.00  0.00     0.005 A 
ATOM      9  C   UNL A   1      33.606  26.448  23.776  1.00  0.00     0.000 A 
ATOM     10  C   UNL A   1      34.406  25.611  25.880  1.00  0.00     0.014 A 
ATOM     11  C   UNL A   1      33.989  26.681  25.086  1.00  0.00     0.001 A 
BRANCH   7  12
ATOM     12  C   UNL A   1      33.601  22.656  23.566  1.00  0.00     0.111 C 
BRANCH  12  13
ATOM     13  S   UNL A   1      32.181  21.768  24.276  1.00  0.00    -0.119 SA
BRANCH  13  14
ATOM     14  C   UNL A   1      32.383  20.042  23.799  1.00  0.00     0.034 A 
ATOM     15  C   UNL A   1      33.028  17.868  24.683  1.00  0.00     0.120 A 
ATOM     16  C   UNL A   1      32.890  17.292  23.432  1.00  0.00     0.048 A 
ATOM     17  C   UNL A   1      32.758  19.219  24.878  1.00  0.00     0.063 A 
ATOM     18  C   UNL A   1      32.535  18.089  22.354  1.00  0.00     0.030 A 
ATOM     19  C   UNL A   1      32.300  19.463  22.513  1.00  0.00     0.045 A 
BRANCH  15  20
ATOM     20  O   UNL A   1      33.356  17.083  25.751  1.00  0.00    -0.494 OA
BRANCH  20  21
ATOM     21  C   UNL A   1      33.897  15.826  25.325  1.00  0.00     0.226 C 
ATOM     22  C   UNL A   1      35.417  15.827  25.374  1.00  0.00     0.049 C 
ENDBRANCH  20  21
ENDBRANCH  15  20
BRANCH  19  23
ATOM     23  N   UNL A   1      31.770  20.109  21.400  1.00  0.00    -0.398 N 
ATOM     24  H   UNL A   1      31.894  19.724  20.503  1.00  0.00     0.156 HD
ATOM     25  H   UNL A   1      31.272  20.951  21.510  1.00  0.00     0.156 HD
ENDBRANCH  19  23
ENDBRANCH  13  14
ENDBRANCH  12  13
ENDBRANCH   7  12
ENDBRANCH   3   6
ENDBRANCH   1   2
BRANCH   1  26
ATOM     26  C   UNL A   1      37.023  21.194  24.555  1.00  0.00     0.023 C 
BRANCH  26  27
ATOM     27  C   UNL A   1      37.874  19.997  25.000  1.00  0.00     0.023 C 
BRANCH  27  28
ATOM     28  C   UNL A   1      39.124  20.292  25.831  1.00  0.00     0.116 C 
BRANCH  28  29
ATOM     29  N   UNL A   1      40.092  19.203  25.864  1.00  0.00    -0.352 N 
ATOM     30  C   UNL A   1      41.452  19.214  26.075  1.00  0.00     0.251 C 
ATOM     31  H   UNL A   1      39.709  18.310  25.709  1.00  0.00     0.163 HD
ATOM     32  O   UNL A   1      42.096  18.173  25.968  1.00  0.00    -0.269 OA
BRANCH  30  33
ATOM     33  C   UNL A   1      42.158  20.476  26.382  1.00  0.00     0.039 A 
ATOM     34  C   UNL A   1      42.685  21.227  25.327  1.00  0.00     0.014 A 
ATOM     35  C   UNL A   1      42.291  20.931  27.695  1.00  0.00     0.014 A 
ATOM     36  C   UNL A   1      43.240  22.485  25.579  1.00  0.00     0.010 A 
ATOM     37  C   UNL A   1      42.762  22.220  27.934  1.00  0.00     0.010 A 
ATOM     38  C   UNL A   1      43.228  23.018  26.877  1.00  0.00    -0.014 A 
BRANCH  38  39
ATOM     39  C   UNL A   1      43.669  24.413  27.147  1.00  0.00     0.031 A 
ATOM     40  C   UNL A   1      42.690  25.437  27.650  1.00  0.00     0.074 A 
ATOM     41  C   UNL A   1      44.934  24.780  26.860  1.00  0.00     0.049 A 
ATOM     42  N   UNL A   1      42.863  26.718  27.858  1.00  0.00    -0.248 NA
ATOM     43  C   UNL A   1      41.325  24.965  27.928  1.00  0.00     0.031 C 
ATOM     44  C   UNL A   1      45.969  23.899  26.313  1.00  0.00     0.029 A 
ATOM     45  N   UNL A   1      45.565  25.996  26.974  1.00  0.00    -0.354 N 
ATOM     46  C   UNL A   1      41.630  27.205  28.272  1.00  0.00     0.074 A 
ATOM     47  C   UNL A   1      40.703  26.095  28.230  1.00  0.00     0.031 C 
ATOM     48  C   UNL A   1      47.108  24.593  26.166  1.00  0.00     0.029 A 
ATOM     49  C   UNL A   1      46.877  25.979  26.566  1.00  0.00     0.049 A 
ATOM     50  H   UNL A   1      45.119  26.803  27.319  1.00  0.00     0.167 HD
ATOM     51  C   UNL A   1      41.305  28.456  28.677  1.00  0.00     0.037 A 
ATOM     52  C   UNL A   1      47.789  26.969  26.510  1.00  0.00     0.037 A 
ATOM     53  C   UNL A   1      42.235  29.553  28.745  1.00  0.00     0.049 A 
ATOM     54  C   UNL A   1      47.401  28.352  26.959  1.00  0.00     0.074 A 
ATOM     55  C   UNL A   1      42.019  30.841  29.203  1.00  0.00     0.029 A 
ATOM     56  N   UNL A   1      43.562  29.490  28.342  1.00  0.00    -0.354 N 
ATOM     57  N   UNL A   1      46.251  28.780  27.420  1.00  0.00    -0.248 NA
ATOM     58  C   UNL A   1      48.441  29.387  26.886  1.00  0.00     0.031 C 
ATOM     59  C   UNL A   1      43.199  31.571  29.033  1.00  0.00     0.029 A 
ATOM     60  C   UNL A   1      44.167  30.724  28.518  1.00  0.00     0.049 A 
ATOM     61  H   UNL A   1      44.006  28.688  27.983  1.00  0.00     0.167 HD
ATOM     62  C   UNL A   1      46.436  30.124  27.718  1.00  0.00     0.074 A 
ATOM     63  C   UNL A   1      47.814  30.435  27.402  1.00  0.00     0.031 C 
ATOM     64  C   UNL A   1      45.543  31.018  28.208  1.00  0.00     0.037 A 
BRANCH  51  65
ATOM     65  C   UNL A   1      39.882  28.706  29.086  1.00  0.00     0.064 A 
ATOM     66  C   UNL A   1      39.457  28.536  30.413  1.00  0.00     0.173 A 
ATOM     67  C   UNL A   1      38.939  29.156  28.149  1.00  0.00     0.173 A 
ATOM     68  F   UNL A   1      40.316  28.098  31.345  1.00  0.00    -0.203 F 
ATOM     69  C   UNL A   1      38.135  28.775  30.779  1.00  0.00     0.198 A 
ATOM     70  C   UNL A   1      37.626  29.426  28.526  1.00  0.00     0.198 A 
ATOM     71  F   UNL A   1      39.292  29.343  26.868  1.00  0.00    -0.203 F 
ATOM     72  F   UNL A   1      37.742  28.555  32.040  1.00  0.00    -0.200 F 
ATOM     73  C   UNL A   1      37.223  29.227  29.837  1.00  0.00     0.200 A 
ATOM     74  F   UNL A   1      36.749  29.876  27.619  1.00  0.00    -0.200 F 
ATOM     75  F   UNL A   1      35.953  29.464  30.193  1.00  0.00    -0.200 F 
ENDBRANCH  51  65
BRANCH  52  76
ATOM     76  C   UNL A   1      49.169  26.686  26.031  1.00  0.00     0.064 A 
ATOM     77  C   UNL A   1      49.537  26.948  24.705  1.00  0.00     0.173 A 
ATOM     78  C   UNL A   1      50.141  26.138  26.880  1.00  0.00     0.173 A 
ATOM     79  F   UNL A   1      48.636  27.453  23.848  1.00  0.00    -0.203 F 
ATOM     80  C   UNL A   1      50.815  26.650  24.238  1.00  0.00     0.198 A 
ATOM     81  C   UNL A   1      51.429  25.867  26.421  1.00  0.00     0.198 A 
ATOM     82  F   UNL A   1      49.843  25.871  28.160  1.00  0.00    -0.203 F 
ATOM     83  F   UNL A   1      51.124  26.864  22.951  1.00  0.00    -0.200 F 
ATOM     84  C   UNL A   1      51.762  26.115  25.098  1.00  0.00     0.200 A 
ATOM     85  F   UNL A   1      52.346  25.364  27.259  1.00  0.00    -0.200 F 
ATOM     86  F   UNL A   1      52.992  25.830  24.650  1.00  0.00    -0.200 F 
ENDBRANCH  52  76
BRANCH  64  87
ATOM     87  C   UNL A   1      46.036  32.412  28.470  1.00  0.00     0.064 A 
ATOM     88  C   UNL A   1      45.946  33.420  27.498  1.00  0.00     0.173 A 
ATOM     89  C   UNL A   1      46.564  32.753  29.725  1.00  0.00     0.173 A 
ATOM     90  F   UNL A   1      45.464  33.141  26.278  1.00  0.00    -0.203 F 
ATOM     91  C   UNL A   1      46.390  34.712  27.766  1.00  0.00     0.198 A 
ATOM     92  C   UNL A   1      46.978  34.055  29.998  1.00  0.00     0.198 A 
ATOM     93  F   UNL A   1      46.666  31.828  30.691  1.00  0.00    -0.203 F 
ATOM     94  F   UNL A   1      46.339  35.648  26.807  1.00  0.00    -0.200 F 
ATOM     95  C   UNL A   1      46.898  35.031  29.017  1.00  0.00     0.200 A 
ATOM     96  F   UNL A   1      47.454  34.363  31.213  1.00  0.00    -0.200 F 
ATOM     97  F   UNL A   1      47.314  36.277  29.275  1.00  0.00    -0.200 F 
ENDBRANCH  64  87
ENDBRANCH  38  39
ENDBRANCH  30  33
ENDBRANCH  28  29
ENDBRANCH  27  28
ENDBRANCH  26  27
ENDBRANCH   1  26
TORSDOF 17
ENDMDL
MODEL 2
REMARK VINA RESULT:     -12.1      5.757      9.807
REMARK SMILES CCOc1ccc(N)c(SCc2ccccc2C(=O)NCCCCNC(=O)c2ccc(-c3c4nc(c(-c5c(F)c(F)c(F)c(F)c5F)c5ccc([nH]5)c(-c5c(F)c(F)c(F)c(F)c5F)c5nc(c(-c6c(F)c(F)c(F)c(F)c6F)c6ccc3[nH]6)C=C5)C=C4)cc2)c1
REMARK SMILES IDX 21 1 20 2 18 3 19 4 17 6 12 7 13 8 14 9 16 10 15 11 11 12
REMARK SMILES IDX 10 13 9 14 4 15 5 16 91 17 6 18 7 19 3 20 2 21 1 22 8 23
REMARK SMILES IDX 22 26 23 27 24 28 25 29 26 30 27 32 28 33 29 34 90 35 30 36
REMARK SMILES IDX 89 37 31 38 32 39 33 40 83 41 34 42 88 43 82 44 84 45 35 46
REMARK SMILES IDX 87 47 81 48 80 49 36 51 68 52 48 53 67 54 49 55 52 56 66 57
REMARK SMILES IDX 85 58 50 59 51 60 65 62 86 63 53 64 37 65 38 66 46 67 39 68
REMARK SMILES IDX 40 69 44 70 47 71 41 72 42 73 45 74 43 75 69 76 70 77 78 78
REMARK SMILES IDX 71 79 72 80 76 81 79 82 73 83 74 84 77 85 75 86 54 87 55 88
REMARK SMILES IDX 63 89 56 90 57 91 61 92 64 93 58 94 59 95 62 96 60 97
REMARK H PARENT 20 5 8 24 8 25 25 31 84 50 52 61
REMARK Flexibility Score: inf
ROOT
ATOM      1  C   UNL A   1      32.842  30.042  26.255  1.00  0.00     0.116 C 
ENDROOT
BRANCH   1   2
ATOM      2  N   UNL A   1      33.522  29.430  25.133  1.00  0.00    -0.352 N 
ATOM      3  C   UNL A   1      33.129  28.486  24.211  1.00  0.00     0.251 C 
ATOM      4  O   UNL A   1      33.968  28.205  23.347  1.00  0.00    -0.269 OA
ATOM      5  H   UNL A   1      34.444  29.749  25.005  1.00  0.00     0.163 HD
BRANCH   3   6
ATOM      6  C   UNL A   1      31.809  27.765  24.183  1.00  0.00     0.043 A 
ATOM      7  C   UNL A   1      31.375  26.701  25.007  1.00  0.00    -0.025 A 
ATOM      8  C   UNL A   1      30.091  26.149  24.772  1.00  0.00     0.005 A 
ATOM      9  C   UNL A   1      29.194  26.726  23.877  1.00  0.00     0.000 A 
ATOM     10  C   UNL A   1      30.868  28.351  23.304  1.00  0.00     0.014 A 
ATOM     11  C   UNL A   1      29.570  27.853  23.168  1.00  0.00     0.001 A 
BRANCH   7  12
ATOM     12  C   UNL A   1      32.177  26.135  26.152  1.00  0.00     0.111 C 
BRANCH  12  13
ATOM     13  S   UNL A   1      33.681  25.208  25.719  1.00  0.00    -0.119 SA
BRANCH  13  14
ATOM     14  C   UNL A   1      33.169  23.956  24.528  1.00  0.00     0.034 A 
ATOM     15  C   UNL A   1      32.414  21.648  24.373  1.00  0.00     0.120 A 
ATOM     16  C   UNL A   1      32.394  21.723  22.990  1.00  0.00     0.048 A 
ATOM     17  C   UNL A   1      32.773  22.752  25.139  1.00  0.00     0.063 A 
ATOM     18  C   UNL A   1      32.793  22.896  22.369  1.00  0.00     0.030 A 
ATOM     19  C   UNL A   1      33.203  24.011  23.116  1.00  0.00     0.045 A 
BRANCH  15  20
ATOM     20  O   UNL A   1      32.000  20.501  24.988  1.00  0.00    -0.494 OA
BRANCH  20  21
ATOM     21  C   UNL A   1      32.806  19.382  24.598  1.00  0.00     0.226 C 
ATOM     22  C   UNL A   1      32.529  18.165  25.468  1.00  0.00     0.049 C 
ENDBRANCH  20  21
ENDBRANCH  15  20
BRANCH  19  23
ATOM     23  N   UNL A   1      33.396  25.179  22.386  1.00  0.00    -0.398 N 
ATOM     24  H   UNL A   1      34.304  25.443  22.112  1.00  0.00     0.156 HD
ATOM     25  H   UNL A   1      32.626  25.742  22.143  1.00  0.00     0.156 HD
ENDBRANCH  19  23
ENDBRANCH  13  14
ENDBRANCH  12  13
ENDBRANCH   7  12
ENDBRANCH   3   6
ENDBRANCH   1   2
BRANCH   1  26
ATOM     26  C   UNL A   1      31.559  30.786  25.900  1.00  0.00     0.023 C 
BRANCH  26  27
ATOM     27  C   UNL A   1      31.328  32.125  26.615  1.00  0.00     0.023 C 
BRANCH  27  28
ATOM     28  C   UNL A   1      32.551  32.820  27.217  1.00  0.00     0.116 C 
BRANCH  28  29
ATOM     29  N   UNL A   1      32.317  34.201  27.617  1.00  0.00    -0.352 N 
ATOM     30  C   UNL A   1      32.952  34.987  28.552  1.00  0.00     0.251 C 
ATOM     31  H   UNL A   1      31.582  34.647  27.139  1.00  0.00     0.163 HD
ATOM     32  O   UNL A   1      32.526  36.114  28.795  1.00  0.00    -0.269 OA
BRANCH  30  33
ATOM     33  C   UNL A   1      34.116  34.473  29.306  1.00  0.00     0.039 A 
ATOM     34  C   UNL A   1      33.901  33.879  30.553  1.00  0.00     0.014 A 
ATOM     35  C   UNL A   1      35.409  34.557  28.788  1.00  0.00     0.014 A 
ATOM     36  C   UNL A   1      34.965  33.269  31.224  1.00  0.00     0.010 A 
ATOM     37  C   UNL A   1      36.448  33.874  29.413  1.00  0.00     0.010 A 
ATOM     38  C   UNL A   1      36.236  33.208  30.632  1.00  0.00    -0.014 A 
BRANCH  38  39
ATOM     39  C   UNL A   1      37.344  32.433  31.251  1.00  0.00     0.031 A 
ATOM     40  C   UNL A   1      37.838  32.779  32.629  1.00  0.00     0.074 A 
ATOM     41  C   UNL A   1      37.961  31.468  30.541  1.00  0.00     0.049 A 
ATOM     42  N   UNL A   1      38.846  32.280  33.298  1.00  0.00    -0.248 NA
ATOM     43  C   UNL A   1      37.123  33.852  33.337  1.00  0.00     0.031 C 
ATOM     44  C   UNL A   1      37.617  31.071  29.173  1.00  0.00     0.029 A 
ATOM     45  N   UNL A   1      39.018  30.651  30.863  1.00  0.00    -0.354 N 
ATOM     46  C   UNL A   1      38.896  32.987  34.491  1.00  0.00     0.074 A 
ATOM     47  C   UNL A   1      37.854  33.989  34.432  1.00  0.00     0.031 C 
ATOM     48  C   UNL A   1      38.427  30.073  28.786  1.00  0.00     0.029 A 
ATOM     49  C   UNL A   1      39.376  29.786  29.858  1.00  0.00     0.049 A 
ATOM     50  H   UNL A   1      39.476  30.683  31.735  1.00  0.00     0.167 HD
ATOM     51  C   UNL A   1      39.717  32.800  35.553  1.00  0.00     0.037 A 
ATOM     52  C   UNL A   1      40.363  28.871  29.801  1.00  0.00     0.037 A 
ATOM     53  C   UNL A   1      40.734  31.784  35.623  1.00  0.00     0.049 A 
ATOM     54  C   UNL A   1      41.266  28.688  30.992  1.00  0.00     0.074 A 
ATOM     55  C   UNL A   1      41.572  31.473  36.679  1.00  0.00     0.029 A 
ATOM     56  N   UNL A   1      41.052  30.913  34.591  1.00  0.00    -0.354 N 
ATOM     57  N   UNL A   1      41.253  29.313  32.144  1.00  0.00    -0.248 NA
ATOM     58  C   UNL A   1      42.317  27.668  30.875  1.00  0.00     0.031 C 
ATOM     59  C   UNL A   1      42.429  30.447  36.271  1.00  0.00     0.029 A 
ATOM     60  C   UNL A   1      42.091  30.081  34.978  1.00  0.00     0.049 A 
ATOM     61  H   UNL A   1      40.607  30.890  33.713  1.00  0.00     0.167 HD
ATOM     62  C   UNL A   1      42.270  28.744  32.898  1.00  0.00     0.074 A 
ATOM     63  C   UNL A   1      42.869  27.711  32.079  1.00  0.00     0.031 C 
ATOM     64  C   UNL A   1      42.671  29.051  34.156  1.00  0.00     0.037 A 
BRANCH  51  65
ATOM     65  C   UNL A   1      39.544  33.713  36.734  1.00  0.00     0.064 A 
ATOM     66  C   UNL A   1      38.751  33.350  37.834  1.00  0.00     0.173 A 
ATOM     67  C   UNL A   1      40.206  34.949  36.783  1.00  0.00     0.173 A 
ATOM     68  F   UNL A   1      38.088  32.184  37.832  1.00  0.00    -0.203 F 
ATOM     69  C   UNL A   1      38.602  34.204  38.923  1.00  0.00     0.198 A 
ATOM     70  C   UNL A   1      40.081  35.786  37.889  1.00  0.00     0.198 A 
ATOM     71  F   UNL A   1      40.982  35.343  35.762  1.00  0.00    -0.203 F 
ATOM     72  F   UNL A   1      37.798  33.858  39.937  1.00  0.00    -0.200 F 
ATOM     73  C   UNL A   1      39.273  35.417  38.953  1.00  0.00     0.200 A 
ATOM     74  F   UNL A   1      40.741  36.951  37.923  1.00  0.00    -0.200 F 
ATOM     75  F   UNL A   1      39.134  36.235  40.006  1.00  0.00    -0.200 F 
ENDBRANCH  51  65
BRANCH  52  76
ATOM     76  C   UNL A   1      40.539  28.037  28.582  1.00  0.00     0.064 A 
ATOM     77  C   UNL A   1      41.326  28.485  27.512  1.00  0.00     0.173 A 
ATOM     78  C   UNL A   1      39.916  26.787  28.452  1.00  0.00     0.173 A 
ATOM     79  F   UNL A   1      41.926  29.684  27.579  1.00  0.00    -0.203 F 
ATOM     80  C   UNL A   1      41.464  27.729  26.350  1.00  0.00     0.198 A 
ATOM     81  C   UNL A   1      40.078  26.017  27.302  1.00  0.00     0.198 A 
ATOM     82  F   UNL A   1      39.154  26.309  29.447  1.00  0.00    -0.203 F 
ATOM     83  F   UNL A   1      42.181  28.205  25.324  1.00  0.00    -0.200 F 
ATOM     84  C   UNL A   1      40.844  26.492  26.248  1.00  0.00     0.200 A 
ATOM     85  F   UNL A   1      39.489  24.816  27.213  1.00  0.00    -0.200 F 
ATOM     86  F   UNL A   1      40.978  25.764  25.132  1.00  0.00    -0.200 F 
ENDBRANCH  52  76
BRANCH  64  87
ATOM     87  C   UNL A   1      43.789  28.236  34.741  1.00  0.00     0.064 A 
ATOM     88  C   UNL A   1      45.127  28.650  34.652  1.00  0.00     0.173 A 
ATOM     89  C   UNL A   1      43.512  27.050  35.438  1.00  0.00     0.173 A 
ATOM     90  F   UNL A   1      45.445  29.768  33.983  1.00  0.00    -0.203 F 
ATOM     91  C   UNL A   1      46.148  27.891  35.218  1.00  0.00     0.198 A 
ATOM     92  C   UNL A   1      44.534  26.312  36.030  1.00  0.00     0.198 A 
ATOM     93  F   UNL A   1      42.249  26.614  35.558  1.00  0.00    -0.203 F 
ATOM     94  F   UNL A   1      47.424  28.280  35.080  1.00  0.00    -0.200 F 
ATOM     95  C   UNL A   1      45.851  26.729  35.914  1.00  0.00     0.200 A 
ATOM     96  F   UNL A   1      44.242  25.196  36.715  1.00  0.00    -0.200 F 
ATOM     97  F   UNL A   1      46.835  26.007  36.466  1.00  0.00    -0.200 F 
ENDBRANCH  64  87
ENDBRANCH  38  39
ENDBRANCH  30  33
ENDBRANCH  28  29
ENDBRANCH  27  28
ENDBRANCH  26  27
ENDBRANCH   1  26
TORSDOF 17
ENDMDL
MODEL 3
REMARK VINA RESULT:     -12.1      5.932     11.063
REMARK SMILES CCOc1ccc(N)c(SCc2ccccc2C(=O)NCCCCNC(=O)c2ccc(-c3c4nc(c(-c5c(F)c(F)c(F)c(F)c5F)c5ccc([nH]5)c(-c5c(F)c(F)c(F)c(F)c5F)c5nc(c(-c6c(F)c(F)c(F)c(F)c6F)c6ccc3[nH]6)C=C5)C=C4)cc2)c1
REMARK SMILES IDX 21 1 20 2 18 3 19 4 17 6 12 7 13 8 14 9 16 10 15 11 11 12
REMARK SMILES IDX 10 13 9 14 4 15 5 16 91 17 6 18 7 19 3 20 2 21 1 22 8 23
REMARK SMILES IDX 22 26 23 27 24 28 25 29 26 30 27 32 28 33 29 34 90 35 30 36
REMARK SMILES IDX 89 37 31 38 32 39 33 40 83 41 34 42 88 43 82 44 84 45 35 46
REMARK SMILES IDX 87 47 81 48 80 49 36 51 68 52 48 53 67 54 49 55 52 56 66 57
REMARK SMILES IDX 85 58 50 59 51 60 65 62 86 63 53 64 37 65 38 66 46 67 39 68
REMARK SMILES IDX 40 69 44 70 47 71 41 72 42 73 45 74 43 75 69 76 70 77 78 78
REMARK SMILES IDX 71 79 72 80 76 81 79 82 73 83 74 84 77 85 75 86 54 87 55 88
REMARK SMILES IDX 63 89 56 90 57 91 61 92 64 93 58 94 59 95 62 96 60 97
REMARK H PARENT 20 5 8 24 8 25 25 31 84 50 52 61
REMARK Flexibility Score: inf
ROOT
ATOM      1  C   UNL A   1      33.048  29.859  26.551  1.00  0.00     0.116 C 
ENDROOT
BRANCH   1   2
ATOM      2  N   UNL A   1      33.599  29.526  25.255  1.00  0.00    -0.352 N 
ATOM      3  C   UNL A   1      33.123  28.768  24.209  1.00  0.00     0.251 C 
ATOM      4  O   UNL A   1      33.854  28.714  23.214  1.00  0.00    -0.269 OA
ATOM      5  H   UNL A   1      34.488  29.916  25.089  1.00  0.00     0.163 HD
BRANCH   3   6
ATOM      6  C   UNL A   1      31.833  27.993  24.188  1.00  0.00     0.043 A 
ATOM      7  C   UNL A   1      31.455  26.896  24.996  1.00  0.00    -0.025 A 
ATOM      8  C   UNL A   1      30.191  26.297  24.769  1.00  0.00     0.005 A 
ATOM      9  C   UNL A   1      29.258  26.854  23.901  1.00  0.00     0.000 A 
ATOM     10  C   UNL A   1      30.854  28.557  23.335  1.00  0.00     0.014 A 
ATOM     11  C   UNL A   1      29.576  28.010  23.208  1.00  0.00     0.001 A 
BRANCH   7  12
ATOM     12  C   UNL A   1      32.298  26.342  26.117  1.00  0.00     0.111 C 
BRANCH  12  13
ATOM     13  S   UNL A   1      33.813  25.453  25.641  1.00  0.00    -0.119 SA
BRANCH  13  14
ATOM     14  C   UNL A   1      33.330  24.309  24.336  1.00  0.00     0.034 A 
ATOM     15  C   UNL A   1      32.529  22.040  23.970  1.00  0.00     0.120 A 
ATOM     16  C   UNL A   1      32.578  22.219  22.598  1.00  0.00     0.048 A 
ATOM     17  C   UNL A   1      32.877  23.073  24.835  1.00  0.00     0.063 A 
ATOM     18  C   UNL A   1      33.034  23.424  22.088  1.00  0.00     0.030 A 
ATOM     19  C   UNL A   1      33.433  24.468  22.936  1.00  0.00     0.045 A 
BRANCH  15  20
ATOM     20  O   UNL A   1      32.060  20.862  24.478  1.00  0.00    -0.494 OA
BRANCH  20  21
ATOM     21  C   UNL A   1      33.056  19.833  24.409  1.00  0.00     0.226 C 
ATOM     22  C   UNL A   1      32.575  18.645  23.590  1.00  0.00     0.049 C 
ENDBRANCH  20  21
ENDBRANCH  15  20
BRANCH  19  23
ATOM     23  N   UNL A   1      33.689  25.682  22.306  1.00  0.00    -0.398 N 
ATOM     24  H   UNL A   1      33.655  25.744  21.324  1.00  0.00     0.156 HD
ATOM     25  H   UNL A   1      33.904  26.479  22.842  1.00  0.00     0.156 HD
ENDBRANCH  19  23
ENDBRANCH  13  14
ENDBRANCH  12  13
ENDBRANCH   7  12
ENDBRANCH   3   6
ENDBRANCH   1   2
BRANCH   1  26
ATOM     26  C   UNL A   1      31.656  30.482  26.516  1.00  0.00     0.023 C 
BRANCH  26  27
ATOM     27  C   UNL A   1      31.593  32.014  26.578  1.00  0.00     0.023 C 
BRANCH  27  28
ATOM     28  C   UNL A   1      32.690  32.732  27.367  1.00  0.00     0.116 C 
BRANCH  28  29
ATOM     29  N   UNL A   1      32.384  34.119  27.692  1.00  0.00    -0.352 N 
ATOM     30  C   UNL A   1      32.978  34.987  28.579  1.00  0.00     0.251 C 
ATOM     31  H   UNL A   1      31.626  34.498  27.193  1.00  0.00     0.163 HD
ATOM     32  O   UNL A   1      32.493  36.101  28.762  1.00  0.00    -0.269 OA
BRANCH  30  33
ATOM     33  C   UNL A   1      34.168  34.578  29.355  1.00  0.00     0.039 A 
ATOM     34  C   UNL A   1      33.994  34.115  30.662  1.00  0.00     0.014 A 
ATOM     35  C   UNL A   1      35.448  34.631  28.800  1.00  0.00     0.014 A 
ATOM     36  C   UNL A   1      35.084  33.600  31.368  1.00  0.00     0.010 A 
ATOM     37  C   UNL A   1      36.515  34.037  29.469  1.00  0.00     0.010 A 
ATOM     38  C   UNL A   1      36.343  33.500  30.755  1.00  0.00    -0.014 A 
BRANCH  38  39
ATOM     39  C   UNL A   1      37.480  32.816  31.426  1.00  0.00     0.031 A 
ATOM     40  C   UNL A   1      38.145  31.632  30.779  1.00  0.00     0.074 A 
ATOM     41  C   UNL A   1      37.863  33.208  32.658  1.00  0.00     0.049 A 
ATOM     42  N   UNL A   1      39.088  30.852  31.246  1.00  0.00    -0.248 NA
ATOM     43  C   UNL A   1      37.665  31.254  29.441  1.00  0.00     0.031 C 
ATOM     44  C   UNL A   1      37.264  34.306  33.421  1.00  0.00     0.029 A 
ATOM     45  N   UNL A   1      38.839  32.722  33.494  1.00  0.00    -0.354 N 
ATOM     46  C   UNL A   1      39.299  29.887  30.271  1.00  0.00     0.074 A 
ATOM     47  C   UNL A   1      38.347  30.143  29.211  1.00  0.00     0.031 C 
ATOM     48  C   UNL A   1      37.901  34.426  34.596  1.00  0.00     0.029 A 
ATOM     49  C   UNL A   1      38.924  33.388  34.692  1.00  0.00     0.049 A 
ATOM     50  H   UNL A   1      39.424  31.966  33.255  1.00  0.00     0.167 HD
ATOM     51  C   UNL A   1      40.221  28.895  30.246  1.00  0.00     0.037 A 
ATOM     52  C   UNL A   1      39.729  33.182  35.753  1.00  0.00     0.037 A 
ATOM     53  C   UNL A   1      41.186  28.659  31.287  1.00  0.00     0.049 A 
ATOM     54  C   UNL A   1      40.740  32.068  35.703  1.00  0.00     0.074 A 
ATOM     55  C   UNL A   1      42.203  27.721  31.326  1.00  0.00     0.029 A 
ATOM     56  N   UNL A   1      41.254  29.370  32.477  1.00  0.00    -0.354 N 
ATOM     57  N   UNL A   1      40.979  31.210  34.742  1.00  0.00    -0.248 NA
ATOM     58  C   UNL A   1      41.597  31.899  36.885  1.00  0.00     0.031 C 
ATOM     59  C   UNL A   1      42.855  27.831  32.558  1.00  0.00     0.029 A 
ATOM     60  C   UNL A   1      42.280  28.874  33.266  1.00  0.00     0.049 A 
ATOM     61  H   UNL A   1      40.660  30.115  32.725  1.00  0.00     0.167 HD
ATOM     62  C   UNL A   1      42.030  30.419  35.188  1.00  0.00     0.074 A 
ATOM     63  C   UNL A   1      42.393  30.912  36.500  1.00  0.00     0.031 C 
ATOM     64  C   UNL A   1      42.637  29.379  34.566  1.00  0.00     0.037 A 
BRANCH  51  65
ATOM     65  C   UNL A   1      40.234  27.989  29.048  1.00  0.00     0.064 A 
ATOM     66  C   UNL A   1      40.969  28.306  27.895  1.00  0.00     0.173 A 
ATOM     67  C   UNL A   1      39.534  26.773  29.065  1.00  0.00     0.173 A 
ATOM     68  F   UNL A   1      41.648  29.461  27.824  1.00  0.00    -0.203 F 
ATOM     69  C   UNL A   1      40.977  27.456  26.792  1.00  0.00     0.198 A 
ATOM     70  C   UNL A   1      39.571  25.910  27.973  1.00  0.00     0.198 A 
ATOM     71  F   UNL A   1      38.821  26.417  30.143  1.00  0.00    -0.203 F 
ATOM     72  F   UNL A   1      41.642  27.805  25.684  1.00  0.00    -0.200 F 
ATOM     73  C   UNL A   1      40.283  26.255  26.835  1.00  0.00     0.200 A 
ATOM     74  F   UNL A   1      38.912  24.744  28.021  1.00  0.00    -0.200 F 
ATOM     75  F   UNL A   1      40.297  25.434  25.776  1.00  0.00    -0.200 F 
ENDBRANCH  51  65
BRANCH  52  76
ATOM     76  C   UNL A   1      39.630  34.064  36.947  1.00  0.00     0.064 A 
ATOM     77  C   UNL A   1      40.346  35.267  37.013  1.00  0.00     0.173 A 
ATOM     78  C   UNL A   1      38.835  33.718  38.049  1.00  0.00     0.173 A 
ATOM     79  F   UNL A   1      41.138  35.631  35.993  1.00  0.00    -0.203 F 
ATOM     80  C   UNL A   1      40.290  36.079  38.144  1.00  0.00     0.198 A 
ATOM     81  C   UNL A   1      38.756  34.545  39.168  1.00  0.00     0.198 A 
ATOM     82  F   UNL A   1      38.127  32.579  38.037  1.00  0.00    -0.203 F 
ATOM     83  F   UNL A   1      41.024  37.198  38.200  1.00  0.00    -0.200 F 
ATOM     84  C   UNL A   1      39.490  35.720  39.218  1.00  0.00     0.200 A 
ATOM     85  F   UNL A   1      37.970  34.202  40.198  1.00  0.00    -0.200 F 
ATOM     86  F   UNL A   1      39.434  36.502  40.305  1.00  0.00    -0.200 F 
ENDBRANCH  52  76
BRANCH  64  87
ATOM     87  C   UNL A   1      43.784  28.724  35.280  1.00  0.00     0.064 A 
ATOM     88  C   UNL A   1      45.106  29.162  35.108  1.00  0.00     0.173 A 
ATOM     89  C   UNL A   1      43.552  27.674  36.181  1.00  0.00     0.173 A 
ATOM     90  F   UNL A   1      45.383  30.152  34.246  1.00  0.00    -0.203 F 
ATOM     91  C   UNL A   1      46.155  28.555  35.794  1.00  0.00     0.198 A 
ATOM     92  C   UNL A   1      44.600  27.091  36.889  1.00  0.00     0.198 A 
ATOM     93  F   UNL A   1      42.306  27.222  36.387  1.00  0.00    -0.203 F 
ATOM     94  F   UNL A   1      47.415  28.958  35.578  1.00  0.00    -0.200 F 
ATOM     95  C   UNL A   1      45.901  27.527  36.689  1.00  0.00     0.200 A 
ATOM     96  F   UNL A   1      44.350  26.108  37.765  1.00  0.00    -0.200 F 
ATOM     97  F   UNL A   1      46.911  26.952  37.355  1.00  0.00    -0.200 F 
ENDBRANCH  64  87
ENDBRANCH  38  39
ENDBRANCH  30  33
ENDBRANCH  28  29
ENDBRANCH  27  28
ENDBRANCH  26  27
ENDBRANCH   1  26
TORSDOF 17
ENDMDL
