MODEL 1
REMARK VINA RESULT:     -12.3      0.000      0.000
REMARK SMILES COc1ccc(/C=C/c2cc(OC)cc(OC)c2/C=C/C(=O)NCCCCNC(=O)c2ccc(-c3c4nc(c(-c5c(F)c(F)c(F)c(F)c5F)c5ccc([nH]5)c(-c5c(F)c(F)c(F)c(F)c5F)c5nc(c(-c6c(F)c(F)c(F)c(F)c6F)c6ccc3[nH]6)C=C5)C=C4)cc2)cc1
REMARK SMILES IDX 24 1 23 2 21 3 22 4 20 6 19 7 18 8 9 9 10 10 11 11 15 12
REMARK SMILES IDX 14 13 8 14 7 15 6 16 3 17 4 18 95 19 5 20 94 21 2 22 1 23
REMARK SMILES IDX 12 24 13 25 16 26 17 27 25 28 26 29 27 30 28 31 29 32 30 34
REMARK SMILES IDX 31 35 32 36 93 37 33 38 92 39 34 40 35 41 36 42 86 43 37 44
REMARK SMILES IDX 91 45 85 46 87 47 38 48 90 49 84 50 83 51 39 53 71 54 51 55
REMARK SMILES IDX 70 56 52 57 55 58 69 59 88 60 53 61 54 62 68 64 89 65 56 66
REMARK SMILES IDX 40 67 41 68 49 69 42 70 43 71 47 72 50 73 44 74 45 75 48 76
REMARK SMILES IDX 46 77 72 78 73 79 81 80 74 81 75 82 79 83 82 84 76 85 77 86
REMARK SMILES IDX 80 87 78 88 57 89 58 90 66 91 59 92 60 93 64 94 67 95 61 96
REMARK SMILES IDX 62 97 65 98 63 99
REMARK H PARENT 23 5 28 33 87 52 55 63
REMARK Flexibility Score: inf
ROOT
ATOM      1  C   UNL A   1      36.691  23.216  25.224  1.00  0.00     0.116 C 
ENDROOT
BRANCH   1   2
ATOM      2  N   UNL A   1      36.027  22.785  26.433  1.00  0.00    -0.353 N 
ATOM      3  C   UNL A   1      34.812  23.178  26.897  1.00  0.00     0.244 C 
ATOM      4  O   UNL A   1      34.352  22.720  27.937  1.00  0.00    -0.270 OA
ATOM      5  H   UNL A   1      36.511  22.129  26.985  1.00  0.00     0.163 HD
BRANCH   3   6
ATOM      6  C   UNL A   1      34.018  24.125  26.090  1.00  0.00     0.072 C 
ATOM      7  C   UNL A   1      32.813  24.543  26.505  1.00  0.00     0.018 C 
BRANCH   7   8
ATOM      8  C   UNL A   1      31.928  25.365  25.667  1.00  0.00     0.024 A 
ATOM      9  C   UNL A   1      31.168  24.720  24.645  1.00  0.00    -0.011 A 
ATOM     10  C   UNL A   1      30.368  25.485  23.777  1.00  0.00     0.055 A 
ATOM     11  C   UNL A   1      30.318  26.870  23.877  1.00  0.00     0.123 A 
ATOM     12  C   UNL A   1      31.851  26.771  25.779  1.00  0.00     0.130 A 
ATOM     13  C   UNL A   1      31.035  27.494  24.890  1.00  0.00     0.093 A 
BRANCH   9  14
ATOM     14  C   UNL A   1      31.211  23.273  24.328  1.00  0.00     0.009 C 
ATOM     15  C   UNL A   1      32.243  22.648  23.733  1.00  0.00     0.009 C 
BRANCH  15  16
ATOM     16  C   UNL A   1      32.332  21.195  23.454  1.00  0.00    -0.025 A 
ATOM     17  C   UNL A   1      32.584  18.447  22.775  1.00  0.00     0.118 A 
ATOM     18  C   UNL A   1      32.894  18.901  24.057  1.00  0.00     0.047 A 
ATOM     19  C   UNL A   1      32.116  19.362  21.837  1.00  0.00     0.047 A 
ATOM     20  C   UNL A   1      32.776  20.256  24.393  1.00  0.00     0.012 A 
ATOM     21  C   UNL A   1      31.992  20.721  22.176  1.00  0.00     0.012 A 
BRANCH  17  22
ATOM     22  O   UNL A   1      32.789  17.111  22.582  1.00  0.00    -0.497 OA
ATOM     23  C   UNL A   1      33.893  16.500  23.237  1.00  0.00     0.278 C 
ENDBRANCH  17  22
ENDBRANCH  15  16
ENDBRANCH   9  14
BRANCH  11  24
ATOM     24  O   UNL A   1      29.558  27.510  22.937  1.00  0.00    -0.497 OA
ATOM     25  C   UNL A   1      29.645  28.932  22.932  1.00  0.00     0.278 C 
ENDBRANCH  11  24
BRANCH  12  26
ATOM     26  O   UNL A   1      32.489  27.651  26.612  1.00  0.00    -0.496 OA
ATOM     27  C   UNL A   1      33.796  28.140  26.385  1.00  0.00     0.278 C 
ENDBRANCH  12  26
ENDBRANCH   7   8
ENDBRANCH   3   6
ENDBRANCH   1   2
BRANCH   1  28
ATOM     28  C   UNL A   1      37.068  22.024  24.353  1.00  0.00     0.023 C 
BRANCH  28  29
ATOM     29  C   UNL A   1      37.587  20.834  25.157  1.00  0.00     0.023 C 
BRANCH  29  30
ATOM     30  C   UNL A   1      38.984  21.036  25.728  1.00  0.00     0.116 C 
BRANCH  30  31
ATOM     31  N   UNL A   1      39.705  19.783  25.885  1.00  0.00    -0.352 N 
ATOM     32  C   UNL A   1      41.058  19.609  26.028  1.00  0.00     0.251 C 
ATOM     33  H   UNL A   1      39.159  18.965  25.891  1.00  0.00     0.163 HD
ATOM     34  O   UNL A   1      41.585  18.534  25.787  1.00  0.00    -0.269 OA
BRANCH  32  35
ATOM     35  C   UNL A   1      41.897  20.758  26.405  1.00  0.00     0.039 A 
ATOM     36  C   UNL A   1      42.486  21.490  25.375  1.00  0.00     0.014 A 
ATOM     37  C   UNL A   1      42.031  21.155  27.738  1.00  0.00     0.014 A 
ATOM     38  C   UNL A   1      43.100  22.700  25.669  1.00  0.00     0.010 A 
ATOM     39  C   UNL A   1      42.556  22.406  28.019  1.00  0.00     0.010 A 
ATOM     40  C   UNL A   1      43.065  23.197  26.980  1.00  0.00    -0.014 A 
BRANCH  40  41
ATOM     41  C   UNL A   1      43.506  24.577  27.261  1.00  0.00     0.031 A 
ATOM     42  C   UNL A   1      42.525  25.582  27.773  1.00  0.00     0.074 A 
ATOM     43  C   UNL A   1      44.784  24.911  26.998  1.00  0.00     0.049 A 
ATOM     44  N   UNL A   1      42.706  26.847  28.040  1.00  0.00    -0.248 NA
ATOM     45  C   UNL A   1      41.147  25.110  27.989  1.00  0.00     0.031 C 
ATOM     46  C   UNL A   1      45.799  24.006  26.451  1.00  0.00     0.029 A 
ATOM     47  N   UNL A   1      45.451  26.096  27.155  1.00  0.00    -0.354 N 
ATOM     48  C   UNL A   1      41.472  27.320  28.456  1.00  0.00     0.074 A 
ATOM     49  C   UNL A   1      40.531  26.228  28.338  1.00  0.00     0.031 C 
ATOM     50  C   UNL A   1      46.967  24.658  26.354  1.00  0.00     0.029 A 
ATOM     51  C   UNL A   1      46.772  26.038  26.783  1.00  0.00     0.049 A 
ATOM     52  H   UNL A   1      45.024  26.914  27.501  1.00  0.00     0.167 HD
ATOM     53  C   UNL A   1      41.163  28.552  28.924  1.00  0.00     0.037 A 
ATOM     54  C   UNL A   1      47.714  26.999  26.784  1.00  0.00     0.037 A 
ATOM     55  C   UNL A   1      42.118  29.624  29.032  1.00  0.00     0.049 A 
ATOM     56  C   UNL A   1      47.331  28.370  27.271  1.00  0.00     0.074 A 
ATOM     57  C   UNL A   1      41.927  30.906  29.511  1.00  0.00     0.029 A 
ATOM     58  N   UNL A   1      43.450  29.531  28.645  1.00  0.00    -0.354 N 
ATOM     59  N   UNL A   1      46.175  28.795  27.724  1.00  0.00    -0.248 NA
ATOM     60  C   UNL A   1      48.381  29.395  27.254  1.00  0.00     0.031 C 
ATOM     61  C   UNL A   1      43.128  31.607  29.365  1.00  0.00     0.029 A 
ATOM     62  C   UNL A   1      44.086  30.743  28.856  1.00  0.00     0.049 A 
ATOM     63  H   UNL A   1      43.877  28.725  28.277  1.00  0.00     0.167 HD
ATOM     64  C   UNL A   1      46.367  30.122  28.076  1.00  0.00     0.074 A 
ATOM     65  C   UNL A   1      47.755  30.429  27.797  1.00  0.00     0.031 C 
ATOM     66  C   UNL A   1      45.477  31.010  28.584  1.00  0.00     0.037 A 
BRANCH  53  67
ATOM     67  C   UNL A   1      39.744  28.797  29.343  1.00  0.00     0.064 A 
ATOM     68  C   UNL A   1      39.297  28.494  30.639  1.00  0.00     0.173 A 
ATOM     69  C   UNL A   1      38.820  29.354  28.447  1.00  0.00     0.173 A 
ATOM     70  F   UNL A   1      40.136  27.944  31.531  1.00  0.00    -0.203 F 
ATOM     71  C   UNL A   1      37.973  28.706  31.011  1.00  0.00     0.198 A 
ATOM     72  C   UNL A   1      37.504  29.597  28.832  1.00  0.00     0.198 A 
ATOM     73  F   UNL A   1      39.191  29.662  27.195  1.00  0.00    -0.203 F 
ATOM     74  F   UNL A   1      37.556  28.351  32.234  1.00  0.00    -0.200 F 
ATOM     75  C   UNL A   1      37.079  29.264  30.110  1.00  0.00     0.200 A 
ATOM     76  F   UNL A   1      36.644  30.147  27.964  1.00  0.00    -0.200 F 
ATOM     77  F   UNL A   1      35.805  29.472  30.469  1.00  0.00    -0.200 F 
ENDBRANCH  53  67
BRANCH  54  78
ATOM     78  C   UNL A   1      49.098  26.699  26.329  1.00  0.00     0.064 A 
ATOM     79  C   UNL A   1      50.058  26.196  27.218  1.00  0.00     0.173 A 
ATOM     80  C   UNL A   1      49.496  26.922  25.002  1.00  0.00     0.173 A 
ATOM     81  F   UNL A   1      49.733  25.977  28.501  1.00  0.00    -0.203 F 
ATOM     82  C   UNL A   1      51.369  25.960  26.808  1.00  0.00     0.198 A 
ATOM     83  C   UNL A   1      50.798  26.653  24.584  1.00  0.00     0.198 A 
ATOM     84  F   UNL A   1      48.616  27.393  24.105  1.00  0.00    -0.203 F 
ATOM     85  F   UNL A   1      52.280  25.534  27.694  1.00  0.00    -0.200 F 
ATOM     86  C   UNL A   1      51.737  26.185  25.490  1.00  0.00     0.200 A 
ATOM     87  F   UNL A   1      51.143  26.854  23.305  1.00  0.00    -0.200 F 
ATOM     88  F   UNL A   1      52.997  25.960  25.095  1.00  0.00    -0.200 F 
ENDBRANCH  54  78
BRANCH  66  89
ATOM     89  C   UNL A   1      45.990  32.380  28.918  1.00  0.00     0.064 A 
ATOM     90  C   UNL A   1      46.564  32.672  30.164  1.00  0.00     0.173 A 
ATOM     91  C   UNL A   1      45.957  33.398  27.953  1.00  0.00     0.173 A 
ATOM     92  F   UNL A   1      46.605  31.737  31.125  1.00  0.00    -0.203 F 
ATOM     93  C   UNL A   1      47.064  33.940  30.439  1.00  0.00     0.198 A 
ATOM     94  C   UNL A   1      46.491  34.655  28.219  1.00  0.00     0.198 A 
ATOM     95  F   UNL A   1      45.425  33.167  26.744  1.00  0.00    -0.203 F 
ATOM     96  F   UNL A   1      47.564  34.212  31.653  1.00  0.00    -0.200 F 
ATOM     97  C   UNL A   1      47.037  34.928  29.465  1.00  0.00     0.200 A 
ATOM     98  F   UNL A   1      46.480  35.601  27.270  1.00  0.00    -0.200 F 
ATOM     99  F   UNL A   1      47.534  36.144  29.726  1.00  0.00    -0.200 F 
ENDBRANCH  66  89
ENDBRANCH  40  41
ENDBRANCH  32  35
ENDBRANCH  30  31
ENDBRANCH  29  30
ENDBRANCH  28  29
ENDBRANCH   1  28
TORSDOF 17
ENDMDL
MODEL 2
REMARK VINA RESULT:     -12.2      0.872      7.034
REMARK SMILES COc1ccc(/C=C/c2cc(OC)cc(OC)c2/C=C/C(=O)NCCCCNC(=O)c2ccc(-c3c4nc(c(-c5c(F)c(F)c(F)c(F)c5F)c5ccc([nH]5)c(-c5c(F)c(F)c(F)c(F)c5F)c5nc(c(-c6c(F)c(F)c(F)c(F)c6F)c6ccc3[nH]6)C=C5)C=C4)cc2)cc1
REMARK SMILES IDX 24 1 23 2 21 3 22 4 20 6 19 7 18 8 9 9 10 10 11 11 15 12
REMARK SMILES IDX 14 13 8 14 7 15 6 16 3 17 4 18 95 19 5 20 94 21 2 22 1 23
REMARK SMILES IDX 12 24 13 25 16 26 17 27 25 28 26 29 27 30 28 31 29 32 30 34
REMARK SMILES IDX 31 35 32 36 93 37 33 38 92 39 34 40 35 41 36 42 86 43 37 44
REMARK SMILES IDX 91 45 85 46 87 47 38 48 90 49 84 50 83 51 39 53 71 54 51 55
REMARK SMILES IDX 70 56 52 57 55 58 69 59 88 60 53 61 54 62 68 64 89 65 56 66
REMARK SMILES IDX 40 67 41 68 49 69 42 70 43 71 47 72 50 73 44 74 45 75 48 76
REMARK SMILES IDX 46 77 72 78 73 79 81 80 74 81 75 82 79 83 82 84 76 85 77 86
REMARK SMILES IDX 80 87 78 88 57 89 58 90 66 91 59 92 60 93 64 94 67 95 61 96
REMARK SMILES IDX 62 97 65 98 63 99
REMARK H PARENT 23 5 28 33 87 52 55 63
REMARK Flexibility Score: inf
ROOT
ATOM      1  C   UNL A   1      36.800  23.309  25.368  1.00  0.00     0.116 C 
ENDROOT
BRANCH   1   2
ATOM      2  N   UNL A   1      35.994  22.880  26.488  1.00  0.00    -0.353 N 
ATOM      3  C   UNL A   1      34.743  23.297  26.818  1.00  0.00     0.244 C 
ATOM      4  O   UNL A   1      34.159  22.837  27.793  1.00  0.00    -0.270 OA
ATOM      5  H   UNL A   1      36.398  22.205  27.080  1.00  0.00     0.163 HD
BRANCH   3   6
ATOM      6  C   UNL A   1      34.069  24.273  25.941  1.00  0.00     0.072 C 
ATOM      7  C   UNL A   1      32.825  24.698  26.212  1.00  0.00     0.018 C 
BRANCH   7   8
ATOM      8  C   UNL A   1      32.061  25.552  25.290  1.00  0.00     0.024 A 
ATOM      9  C   UNL A   1      31.360  24.931  24.213  1.00  0.00    -0.011 A 
ATOM     10  C   UNL A   1      30.680  25.723  23.269  1.00  0.00     0.055 A 
ATOM     11  C   UNL A   1      30.697  27.109  23.349  1.00  0.00     0.123 A 
ATOM     12  C   UNL A   1      32.051  26.962  25.379  1.00  0.00     0.130 A 
ATOM     13  C   UNL A   1      31.355  27.712  24.414  1.00  0.00     0.093 A 
BRANCH   9  14
ATOM     14  C   UNL A   1      31.353  23.479  23.918  1.00  0.00     0.009 C 
ATOM     15  C   UNL A   1      32.453  22.730  23.720  1.00  0.00     0.009 C 
BRANCH  15  16
ATOM     16  C   UNL A   1      32.475  21.268  23.476  1.00  0.00    -0.025 A 
ATOM     17  C   UNL A   1      32.590  18.497  22.860  1.00  0.00     0.118 A 
ATOM     18  C   UNL A   1      32.994  18.972  24.107  1.00  0.00     0.047 A 
ATOM     19  C   UNL A   1      32.098  19.404  21.927  1.00  0.00     0.047 A 
ATOM     20  C   UNL A   1      32.944  20.338  24.413  1.00  0.00     0.012 A 
ATOM     21  C   UNL A   1      32.042  20.775  22.234  1.00  0.00     0.012 A 
BRANCH  17  22
ATOM     22  O   UNL A   1      32.738  17.150  22.692  1.00  0.00    -0.497 OA
ATOM     23  C   UNL A   1      33.977  16.560  23.058  1.00  0.00     0.278 C 
ENDBRANCH  17  22
ENDBRANCH  15  16
ENDBRANCH   9  14
BRANCH  11  24
ATOM     24  O   UNL A   1      30.056  27.773  22.339  1.00  0.00    -0.497 OA
ATOM     25  C   UNL A   1      30.235  29.187  22.314  1.00  0.00     0.278 C 
ENDBRANCH  11  24
BRANCH  12  26
ATOM     26  O   UNL A   1      32.659  27.821  26.255  1.00  0.00    -0.496 OA
ATOM     27  C   UNL A   1      34.029  28.164  26.193  1.00  0.00     0.278 C 
ENDBRANCH  12  26
ENDBRANCH   7   8
ENDBRANCH   3   6
ENDBRANCH   1   2
BRANCH   1  28
ATOM     28  C   UNL A   1      37.056  22.157  24.404  1.00  0.00     0.023 C 
BRANCH  28  29
ATOM     29  C   UNL A   1      37.630  20.919  25.089  1.00  0.00     0.023 C 
BRANCH  29  30
ATOM     30  C   UNL A   1      38.976  21.153  25.761  1.00  0.00     0.116 C 
BRANCH  30  31
ATOM     31  N   UNL A   1      39.747  19.928  25.898  1.00  0.00    -0.352 N 
ATOM     32  C   UNL A   1      41.104  19.807  26.060  1.00  0.00     0.251 C 
ATOM     33  H   UNL A   1      39.236  19.088  25.873  1.00  0.00     0.163 HD
ATOM     34  O   UNL A   1      41.680  18.762  25.801  1.00  0.00    -0.269 OA
BRANCH  32  35
ATOM     35  C   UNL A   1      41.886  20.980  26.481  1.00  0.00     0.039 A 
ATOM     36  C   UNL A   1      42.324  21.854  25.486  1.00  0.00     0.014 A 
ATOM     37  C   UNL A   1      42.113  21.258  27.832  1.00  0.00     0.014 A 
ATOM     38  C   UNL A   1      42.871  23.076  25.849  1.00  0.00     0.010 A 
ATOM     39  C   UNL A   1      42.567  22.516  28.195  1.00  0.00     0.010 A 
ATOM     40  C   UNL A   1      42.919  23.441  27.203  1.00  0.00    -0.014 A 
BRANCH  40  41
ATOM     41  C   UNL A   1      43.281  24.820  27.586  1.00  0.00     0.031 A 
ATOM     42  C   UNL A   1      44.720  25.219  27.659  1.00  0.00     0.074 A 
ATOM     43  C   UNL A   1      42.295  25.677  27.912  1.00  0.00     0.049 A 
ATOM     44  N   UNL A   1      45.240  26.363  28.012  1.00  0.00    -0.248 NA
ATOM     45  C   UNL A   1      45.711  24.186  27.314  1.00  0.00     0.031 C 
ATOM     46  C   UNL A   1      40.864  25.358  27.916  1.00  0.00     0.029 A 
ATOM     47  N   UNL A   1      42.340  26.989  28.302  1.00  0.00    -0.354 N 
ATOM     48  C   UNL A   1      46.613  26.190  27.931  1.00  0.00     0.074 A 
ATOM     49  C   UNL A   1      46.850  24.811  27.565  1.00  0.00     0.031 C 
ATOM     50  C   UNL A   1      40.168  26.455  28.252  1.00  0.00     0.029 A 
ATOM     51  C   UNL A   1      41.103  27.537  28.536  1.00  0.00     0.049 A 
ATOM     52  H   UNL A   1      43.181  27.492  28.405  1.00  0.00     0.167 HD
ATOM     53  C   UNL A   1      47.584  27.113  28.117  1.00  0.00     0.037 A 
ATOM     54  C   UNL A   1      40.768  28.774  28.943  1.00  0.00     0.037 A 
ATOM     55  C   UNL A   1      47.322  28.481  28.481  1.00  0.00     0.049 A 
ATOM     56  C   UNL A   1      41.873  29.769  29.181  1.00  0.00     0.074 A 
ATOM     57  C   UNL A   1      48.223  29.511  28.674  1.00  0.00     0.029 A 
ATOM     58  N   UNL A   1      46.055  29.003  28.712  1.00  0.00    -0.354 N 
ATOM     59  N   UNL A   1      43.168  29.616  29.040  1.00  0.00    -0.248 NA
ATOM     60  C   UNL A   1      41.472  31.108  29.629  1.00  0.00     0.031 C 
ATOM     61  C   UNL A   1      47.507  30.643  29.075  1.00  0.00     0.029 A 
ATOM     62  C   UNL A   1      46.154  30.338  29.068  1.00  0.00     0.049 A 
ATOM     63  H   UNL A   1      45.213  28.500  28.634  1.00  0.00     0.167 HD
ATOM     64  C   UNL A   1      43.733  30.844  29.349  1.00  0.00     0.074 A 
ATOM     65  C   UNL A   1      42.638  31.736  29.670  1.00  0.00     0.031 C 
ATOM     66  C   UNL A   1      45.041  31.204  29.365  1.00  0.00     0.037 A 
BRANCH  53  67
ATOM     67  C   UNL A   1      49.005  26.668  27.934  1.00  0.00     0.064 A 
ATOM     68  C   UNL A   1      49.823  26.349  29.030  1.00  0.00     0.173 A 
ATOM     69  C   UNL A   1      49.556  26.546  26.650  1.00  0.00     0.173 A 
ATOM     70  F   UNL A   1      49.351  26.465  30.281  1.00  0.00    -0.203 F 
ATOM     71  C   UNL A   1      51.146  25.957  28.849  1.00  0.00     0.198 A 
ATOM     72  C   UNL A   1      50.870  26.120  26.471  1.00  0.00     0.198 A 
ATOM     73  F   UNL A   1      48.821  26.839  25.567  1.00  0.00    -0.203 F 
ATOM     74  F   UNL A   1      51.923  25.716  29.913  1.00  0.00    -0.200 F 
ATOM     75  C   UNL A   1      51.666  25.835  27.570  1.00  0.00     0.200 A 
ATOM     76  F   UNL A   1      51.367  25.992  25.234  1.00  0.00    -0.200 F 
ATOM     77  F   UNL A   1      52.939  25.454  27.396  1.00  0.00    -0.200 F 
ENDBRANCH  53  67
BRANCH  54  78
ATOM     78  C   UNL A   1      39.341  29.146  29.134  1.00  0.00     0.064 A 
ATOM     79  C   UNL A   1      38.736  29.070  30.397  1.00  0.00     0.173 A 
ATOM     80  C   UNL A   1      38.545  29.570  28.058  1.00  0.00     0.173 A 
ATOM     81  F   UNL A   1      39.449  28.659  31.456  1.00  0.00    -0.203 F 
ATOM     82  C   UNL A   1      37.386  29.371  30.571  1.00  0.00     0.198 A 
ATOM     83  C   UNL A   1      37.204  29.903  28.239  1.00  0.00     0.198 A 
ATOM     84  F   UNL A   1      39.074  29.671  26.829  1.00  0.00    -0.203 F 
ATOM     85  F   UNL A   1      36.822  29.234  31.779  1.00  0.00    -0.200 F 
ATOM     86  C   UNL A   1      36.623  29.791  29.493  1.00  0.00     0.200 A 
ATOM     87  F   UNL A   1      36.475  30.326  27.199  1.00  0.00    -0.200 F 
ATOM     88  F   UNL A   1      35.324  30.078  29.659  1.00  0.00    -0.200 F 
ENDBRANCH  54  78
BRANCH  66  89
ATOM     89  C   UNL A   1      45.352  32.635  29.693  1.00  0.00     0.064 A 
ATOM     90  C   UNL A   1      45.654  33.046  30.999  1.00  0.00     0.173 A 
ATOM     91  C   UNL A   1      45.403  33.596  28.671  1.00  0.00     0.173 A 
ATOM     92  F   UNL A   1      45.604  32.168  32.013  1.00  0.00    -0.203 F 
ATOM     93  C   UNL A   1      45.973  34.372  31.274  1.00  0.00     0.198 A 
ATOM     94  C   UNL A   1      45.758  34.913  28.944  1.00  0.00     0.198 A 
ATOM     95  F   UNL A   1      45.130  33.252  27.404  1.00  0.00    -0.203 F 
ATOM     96  F   UNL A   1      46.212  34.753  32.536  1.00  0.00    -0.200 F 
ATOM     97  C   UNL A   1      46.036  35.302  30.246  1.00  0.00     0.200 A 
ATOM     98  F   UNL A   1      45.836  35.805  27.947  1.00  0.00    -0.200 F 
ATOM     99  F   UNL A   1      46.359  36.575  30.510  1.00  0.00    -0.200 F 
ENDBRANCH  66  89
ENDBRANCH  40  41
ENDBRANCH  32  35
ENDBRANCH  30  31
ENDBRANCH  29  30
ENDBRANCH  28  29
ENDBRANCH   1  28
TORSDOF 17
ENDMDL
MODEL 3
REMARK VINA RESULT:     -12.1      1.247      7.333
REMARK SMILES COc1ccc(/C=C/c2cc(OC)cc(OC)c2/C=C/C(=O)NCCCCNC(=O)c2ccc(-c3c4nc(c(-c5c(F)c(F)c(F)c(F)c5F)c5ccc([nH]5)c(-c5c(F)c(F)c(F)c(F)c5F)c5nc(c(-c6c(F)c(F)c(F)c(F)c6F)c6ccc3[nH]6)C=C5)C=C4)cc2)cc1
REMARK SMILES IDX 24 1 23 2 21 3 22 4 20 6 19 7 18 8 9 9 10 10 11 11 15 12
REMARK SMILES IDX 14 13 8 14 7 15 6 16 3 17 4 18 95 19 5 20 94 21 2 22 1 23
REMARK SMILES IDX 12 24 13 25 16 26 17 27 25 28 26 29 27 30 28 31 29 32 30 34
REMARK SMILES IDX 31 35 32 36 93 37 33 38 92 39 34 40 35 41 36 42 86 43 37 44
REMARK SMILES IDX 91 45 85 46 87 47 38 48 90 49 84 50 83 51 39 53 71 54 51 55
REMARK SMILES IDX 70 56 52 57 55 58 69 59 88 60 53 61 54 62 68 64 89 65 56 66
REMARK SMILES IDX 40 67 41 68 49 69 42 70 43 71 47 72 50 73 44 74 45 75 48 76
REMARK SMILES IDX 46 77 72 78 73 79 81 80 74 81 75 82 79 83 82 84 76 85 77 86
REMARK SMILES IDX 80 87 78 88 57 89 58 90 66 91 59 92 60 93 64 94 67 95 61 96
REMARK SMILES IDX 62 97 65 98 63 99
REMARK H PARENT 23 5 28 33 87 52 55 63
REMARK Flexibility Score: inf
ROOT
ATOM      1  C   UNL A   1      37.588  23.561  25.820  1.00  0.00     0.116 C 
ENDROOT
BRANCH   1   2
ATOM      2  N   UNL A   1      37.554  23.236  24.412  1.00  0.00    -0.353 N 
ATOM      3  C   UNL A   1      36.482  23.276  23.577  1.00  0.00     0.244 C 
ATOM      4  O   UNL A   1      36.593  22.990  22.390  1.00  0.00    -0.270 OA
ATOM      5  H   UNL A   1      38.407  22.954  24.011  1.00  0.00     0.163 HD
BRANCH   3   6
ATOM      6  C   UNL A   1      35.186  23.736  24.111  1.00  0.00     0.072 C 
ATOM      7  C   UNL A   1      34.137  23.934  23.298  1.00  0.00     0.018 C 
BRANCH   7   8
ATOM      8  C   UNL A   1      32.876  24.531  23.762  1.00  0.00     0.024 A 
ATOM      9  C   UNL A   1      31.923  23.688  24.407  1.00  0.00    -0.011 A 
ATOM     10  C   UNL A   1      30.676  24.210  24.798  1.00  0.00     0.055 A 
ATOM     11  C   UNL A   1      30.340  25.534  24.547  1.00  0.00     0.123 A 
ATOM     12  C   UNL A   1      32.537  25.884  23.534  1.00  0.00     0.130 A 
ATOM     13  C   UNL A   1      31.279  26.362  23.945  1.00  0.00     0.093 A 
BRANCH   9  14
ATOM     14  C   UNL A   1      32.078  22.231  24.631  1.00  0.00     0.009 C 
ATOM     15  C   UNL A   1      32.284  21.323  23.661  1.00  0.00     0.009 C 
BRANCH  15  16
ATOM     16  C   UNL A   1      32.496  19.870  23.864  1.00  0.00    -0.025 A 
ATOM     17  C   UNL A   1      33.015  17.089  24.128  1.00  0.00     0.118 A 
ATOM     18  C   UNL A   1      32.966  17.919  25.247  1.00  0.00     0.047 A 
ATOM     19  C   UNL A   1      32.773  17.642  22.874  1.00  0.00     0.047 A 
ATOM     20  C   UNL A   1      32.715  19.292  25.120  1.00  0.00     0.012 A 
ATOM     21  C   UNL A   1      32.516  19.019  22.746  1.00  0.00     0.012 A 
BRANCH  17  22
ATOM     22  O   UNL A   1      33.312  15.785  24.402  1.00  0.00    -0.497 OA
ATOM     23  C   UNL A   1      32.681  15.173  25.519  1.00  0.00     0.278 C 
ENDBRANCH  17  22
ENDBRANCH  15  16
ENDBRANCH   9  14
BRANCH  11  24
ATOM     24  O   UNL A   1      29.076  25.910  24.913  1.00  0.00    -0.497 OA
ATOM     25  C   UNL A   1      28.352  26.674  23.953  1.00  0.00     0.278 C 
ENDBRANCH  11  24
BRANCH  12  26
ATOM     26  O   UNL A   1      33.214  26.897  22.909  1.00  0.00    -0.496 OA
ATOM     27  C   UNL A   1      33.991  27.860  23.593  1.00  0.00     0.278 C 
ENDBRANCH  12  26
ENDBRANCH   7   8
ENDBRANCH   3   6
ENDBRANCH   1   2
BRANCH   1  28
ATOM     28  C   UNL A   1      38.971  23.308  26.406  1.00  0.00     0.023 C 
BRANCH  28  29
ATOM     29  C   UNL A   1      39.200  21.849  26.794  1.00  0.00     0.023 C 
BRANCH  29  30
ATOM     30  C   UNL A   1      39.326  20.907  25.604  1.00  0.00     0.116 C 
BRANCH  30  31
ATOM     31  N   UNL A   1      40.076  19.704  25.927  1.00  0.00    -0.352 N 
ATOM     32  C   UNL A   1      41.422  19.597  26.166  1.00  0.00     0.251 C 
ATOM     33  H   UNL A   1      39.558  18.870  25.982  1.00  0.00     0.163 HD
ATOM     34  O   UNL A   1      41.998  18.525  26.066  1.00  0.00    -0.269 OA
BRANCH  32  35
ATOM     35  C   UNL A   1      42.197  20.808  26.477  1.00  0.00     0.039 A 
ATOM     36  C   UNL A   1      42.549  21.639  25.413  1.00  0.00     0.014 A 
ATOM     37  C   UNL A   1      42.499  21.163  27.794  1.00  0.00     0.014 A 
ATOM     38  C   UNL A   1      43.084  22.891  25.677  1.00  0.00     0.010 A 
ATOM     39  C   UNL A   1      42.941  22.448  28.063  1.00  0.00     0.010 A 
ATOM     40  C   UNL A   1      43.206  23.328  27.005  1.00  0.00    -0.014 A 
BRANCH  40  41
ATOM     41  C   UNL A   1      43.553  24.733  27.293  1.00  0.00     0.031 A 
ATOM     42  C   UNL A   1      44.945  25.222  27.046  1.00  0.00     0.074 A 
ATOM     43  C   UNL A   1      42.609  25.534  27.824  1.00  0.00     0.049 A 
ATOM     44  N   UNL A   1      45.454  26.403  27.272  1.00  0.00    -0.248 NA
ATOM     45  C   UNL A   1      45.900  24.246  26.497  1.00  0.00     0.031 C 
ATOM     46  C   UNL A   1      41.238  25.127  28.143  1.00  0.00     0.029 A 
ATOM     47  N   UNL A   1      42.654  26.854  28.188  1.00  0.00    -0.354 N 
ATOM     48  C   UNL A   1      46.784  26.313  26.892  1.00  0.00     0.074 A 
ATOM     49  C   UNL A   1      47.024  24.945  26.489  1.00  0.00     0.031 C 
ATOM     50  C   UNL A   1      40.563  26.185  28.619  1.00  0.00     0.029 A 
ATOM     51  C   UNL A   1      41.465  27.328  28.686  1.00  0.00     0.049 A 
ATOM     52  H   UNL A   1      43.463  27.409  28.102  1.00  0.00     0.167 HD
ATOM     53  C   UNL A   1      47.711  27.298  26.857  1.00  0.00     0.037 A 
ATOM     54  C   UNL A   1      41.149  28.550  29.151  1.00  0.00     0.037 A 
ATOM     55  C   UNL A   1      47.448  28.653  27.263  1.00  0.00     0.049 A 
ATOM     56  C   UNL A   1      42.212  29.614  29.136  1.00  0.00     0.074 A 
ATOM     57  C   UNL A   1      48.301  29.740  27.250  1.00  0.00     0.029 A 
ATOM     58  N   UNL A   1      46.231  29.100  27.765  1.00  0.00    -0.354 N 
ATOM     59  N   UNL A   1      43.453  29.539  28.715  1.00  0.00    -0.248 NA
ATOM     60  C   UNL A   1      41.834  30.934  29.656  1.00  0.00     0.031 C 
ATOM     61  C   UNL A   1      47.619  30.833  27.793  1.00  0.00     0.029 A 
ATOM     62  C   UNL A   1      46.320  30.445  28.084  1.00  0.00     0.049 A 
ATOM     63  H   UNL A   1      45.427  28.545  27.875  1.00  0.00     0.167 HD
ATOM     64  C   UNL A   1      43.992  30.805  28.887  1.00  0.00     0.074 A 
ATOM     65  C   UNL A   1      42.938  31.634  29.437  1.00  0.00     0.031 C 
ATOM     66  C   UNL A   1      45.245  31.246  28.614  1.00  0.00     0.037 A 
BRANCH  53  67
ATOM     67  C   UNL A   1      49.083  26.938  26.368  1.00  0.00     0.064 A 
ATOM     68  C   UNL A   1      49.442  27.073  25.017  1.00  0.00     0.173 A 
ATOM     69  C   UNL A   1      50.058  26.465  27.259  1.00  0.00     0.173 A 
ATOM     70  F   UNL A   1      48.542  27.504  24.120  1.00  0.00    -0.203 F 
ATOM     71  C   UNL A   1      50.711  26.717  24.571  1.00  0.00     0.198 A 
ATOM     72  C   UNL A   1      51.338  26.143  26.816  1.00  0.00     0.198 A 
ATOM     73  F   UNL A   1      49.771  26.316  28.561  1.00  0.00    -0.203 F 
ATOM     74  F   UNL A   1      51.009  26.797  23.268  1.00  0.00    -0.200 F 
ATOM     75  C   UNL A   1      51.660  26.259  25.472  1.00  0.00     0.200 A 
ATOM     76  F   UNL A   1      52.258  25.711  27.689  1.00  0.00    -0.200 F 
ATOM     77  F   UNL A   1      52.884  25.920  25.043  1.00  0.00    -0.200 F 
ENDBRANCH  53  67
BRANCH  54  78
ATOM     78  C   UNL A   1      39.777  28.835  29.649  1.00  0.00     0.064 A 
ATOM     79  C   UNL A   1      38.802  29.388  28.805  1.00  0.00     0.173 A 
ATOM     80  C   UNL A   1      39.413  28.578  30.979  1.00  0.00     0.173 A 
ATOM     81  F   UNL A   1      39.102  29.665  27.527  1.00  0.00    -0.203 F 
ATOM     82  C   UNL A   1      37.530  29.702  29.280  1.00  0.00     0.198 A 
ATOM     83  C   UNL A   1      38.129  28.861  31.445  1.00  0.00     0.198 A 
ATOM     84  F   UNL A   1      40.301  28.040  31.828  1.00  0.00    -0.203 F 
ATOM     85  F   UNL A   1      36.638  30.283  28.466  1.00  0.00    -0.200 F 
ATOM     86  C   UNL A   1      37.194  29.435  30.598  1.00  0.00     0.200 A 
ATOM     87  F   UNL A   1      37.803  28.583  32.714  1.00  0.00    -0.200 F 
ATOM     88  F   UNL A   1      35.971  29.739  31.055  1.00  0.00    -0.200 F 
ENDBRANCH  54  78
BRANCH  66  89
ATOM     89  C   UNL A   1      45.528  32.699  28.859  1.00  0.00     0.064 A 
ATOM     90  C   UNL A   1      46.080  33.152  30.067  1.00  0.00     0.173 A 
ATOM     91  C   UNL A   1      45.294  33.642  27.847  1.00  0.00     0.173 A 
ATOM     92  F   UNL A   1      46.307  32.292  31.071  1.00  0.00    -0.203 F 
ATOM     93  C   UNL A   1      46.365  34.500  30.259  1.00  0.00     0.198 A 
ATOM     94  C   UNL A   1      45.614  34.984  28.029  1.00  0.00     0.198 A 
ATOM     95  F   UNL A   1      44.774  33.258  26.672  1.00  0.00    -0.203 F 
ATOM     96  F   UNL A   1      46.847  34.919  31.437  1.00  0.00    -0.200 F 
ATOM     97  C   UNL A   1      46.143  35.413  29.237  1.00  0.00     0.200 A 
ATOM     98  F   UNL A   1      45.416  35.860  27.035  1.00  0.00    -0.200 F 
ATOM     99  F   UNL A   1      46.433  36.708  29.419  1.00  0.00    -0.200 F 
ENDBRANCH  66  89
ENDBRANCH  40  41
ENDBRANCH  32  35
ENDBRANCH  30  31
ENDBRANCH  29  30
ENDBRANCH  28  29
ENDBRANCH   1  28
TORSDOF 17
ENDMDL
