MODEL 1
REMARK VINA RESULT:     -12.6      0.000      0.000
REMARK SMILES COc1ccc(Nc2c(C(=O)NCCCCNC(=O)c3ccc(-c4c5nc(c(-c6c(F)c(F)c(F)c(F)c6F)c6ccc([nH]6)c(-c6c(F)c(F)c(F)c(F)c6F)c6nc(c(-c7c(F)c(F)c(F)c(F)c7F)c7ccc4[nH]7)C=C6)C=C5)cc3)[nH]c(=O)[nH]c2=O)cc1
REMARK SMILES IDX 14 1 13 2 12 3 10 4 11 5 9 7 8 8 87 9 83 10 86 11 88 12
REMARK SMILES IDX 84 13 85 16 7 17 6 19 3 20 4 21 90 22 5 23 89 24 2 25 1 26
REMARK SMILES IDX 15 27 16 28 17 29 18 30 19 32 20 33 21 34 82 35 22 36 81 37
REMARK SMILES IDX 23 38 24 39 25 40 75 41 26 42 80 43 74 44 76 45 27 46 79 47
REMARK SMILES IDX 73 48 72 49 28 51 60 52 40 53 59 54 41 55 44 56 58 57 77 58
REMARK SMILES IDX 42 59 43 60 57 62 78 63 45 64 29 65 30 66 38 67 31 68 32 69
REMARK SMILES IDX 36 70 39 71 33 72 34 73 37 74 35 75 61 76 62 77 70 78 63 79
REMARK SMILES IDX 64 80 68 81 71 82 65 83 66 84 69 85 67 86 46 87 47 88 55 89
REMARK SMILES IDX 48 90 49 91 53 92 56 93 50 94 51 95 54 96 52 97
REMARK H PARENT 12 6 83 14 86 15 7 18 17 31 76 50 44 61
REMARK Flexibility Score: inf
ROOT
ATOM      1  C   UNL A   1      32.252  27.520  26.969  1.00  0.00     0.023 C 
ENDROOT
BRANCH   1   2
ATOM      2  C   UNL A   1      31.970  26.211  26.254  1.00  0.00     0.116 C 
BRANCH   2   3
ATOM      3  N   UNL A   1      31.076  25.281  26.876  1.00  0.00    -0.351 N 
ATOM      4  C   UNL A   1      30.948  23.950  26.619  1.00  0.00     0.270 C 
ATOM      5  O   UNL A   1      30.074  23.347  27.258  1.00  0.00    -0.268 OA
ATOM      6  H   UNL A   1      30.485  25.647  27.572  1.00  0.00     0.163 HD
BRANCH   4   7
ATOM      7  C   UNL A   1      31.691  23.161  25.542  1.00  0.00     0.137 A 
ATOM      8  C   UNL A   1      31.515  23.111  24.199  1.00  0.00     0.134 A 
ATOM      9  C   UNL A   1      32.567  22.340  23.417  1.00  0.00     0.278 A 
ATOM     10  N   UNL A   1      32.756  22.477  26.115  1.00  0.00    -0.301 N 
ATOM     11  N   UNL A   1      33.481  21.618  24.121  1.00  0.00    -0.272 N 
ATOM     12  O   UNL A   1      32.606  22.378  22.192  1.00  0.00    -0.267 OA
ATOM     13  C   UNL A   1      33.640  21.692  25.460  1.00  0.00     0.326 A 
ATOM     14  H   UNL A   1      32.877  22.574  27.088  1.00  0.00     0.172 HD
ATOM     15  H   UNL A   1      34.064  21.000  23.622  1.00  0.00     0.175 HD
ATOM     16  O   UNL A   1      34.550  21.097  26.043  1.00  0.00    -0.248 OA
BRANCH   8  17
ATOM     17  N   UNL A   1      30.554  23.708  23.390  1.00  0.00    -0.349 N 
ATOM     18  H   UNL A   1      29.883  23.125  22.966  1.00  0.00     0.167 HD
BRANCH  17  19
ATOM     19  C   UNL A   1      30.474  25.110  23.132  1.00  0.00     0.039 A 
ATOM     20  C   UNL A   1      30.643  27.929  22.970  1.00  0.00     0.119 A 
ATOM     21  C   UNL A   1      29.554  27.318  23.588  1.00  0.00     0.048 A 
ATOM     22  C   UNL A   1      31.646  27.133  22.419  1.00  0.00     0.048 A 
ATOM     23  C   UNL A   1      29.471  25.925  23.675  1.00  0.00     0.030 A 
ATOM     24  C   UNL A   1      31.554  25.735  22.487  1.00  0.00     0.030 A 
BRANCH  20  25
ATOM     25  O   UNL A   1      30.623  29.294  23.003  1.00  0.00    -0.497 OA
ATOM     26  C   UNL A   1      29.355  29.912  23.177  1.00  0.00     0.278 C 
ENDBRANCH  20  25
ENDBRANCH  17  19
ENDBRANCH   8  17
ENDBRANCH   4   7
ENDBRANCH   2   3
ENDBRANCH   1   2
BRANCH   1  27
ATOM     27  C   UNL A   1      31.689  28.789  26.350  1.00  0.00     0.023 C 
BRANCH  27  28
ATOM     28  C   UNL A   1      32.695  29.857  25.944  1.00  0.00     0.116 C 
BRANCH  28  29
ATOM     29  N   UNL A   1      32.425  31.185  26.483  1.00  0.00    -0.352 N 
ATOM     30  C   UNL A   1      33.205  32.007  27.267  1.00  0.00     0.251 C 
ATOM     31  H   UNL A   1      31.543  31.554  26.249  1.00  0.00     0.163 HD
ATOM     32  O   UNL A   1      32.770  33.090  27.650  1.00  0.00    -0.269 OA
BRANCH  30  33
ATOM     33  C   UNL A   1      34.544  31.554  27.704  1.00  0.00     0.039 A 
ATOM     34  C   UNL A   1      35.553  32.503  27.894  1.00  0.00     0.014 A 
ATOM     35  C   UNL A   1      34.779  30.215  28.013  1.00  0.00     0.014 A 
ATOM     36  C   UNL A   1      36.745  32.129  28.521  1.00  0.00     0.010 A 
ATOM     37  C   UNL A   1      35.912  29.870  28.741  1.00  0.00     0.010 A 
ATOM     38  C   UNL A   1      36.904  30.825  29.016  1.00  0.00    -0.014 A 
BRANCH  38  39
ATOM     39  C   UNL A   1      38.081  30.433  29.836  1.00  0.00     0.031 A 
ATOM     40  C   UNL A   1      39.085  29.455  29.290  1.00  0.00     0.074 A 
ATOM     41  C   UNL A   1      38.198  30.874  31.106  1.00  0.00     0.049 A 
ATOM     42  N   UNL A   1      40.108  28.894  29.884  1.00  0.00    -0.248 NA
ATOM     43  C   UNL A   1      38.887  29.018  27.898  1.00  0.00     0.031 C 
ATOM     44  C   UNL A   1      37.264  31.778  31.780  1.00  0.00     0.029 A 
ATOM     45  N   UNL A   1      39.147  30.610  32.063  1.00  0.00    -0.354 N 
ATOM     46  C   UNL A   1      40.654  28.023  28.949  1.00  0.00     0.074 A 
ATOM     47  C   UNL A   1      39.811  28.078  27.776  1.00  0.00     0.031 C 
ATOM     48  C   UNL A   1      37.701  32.017  33.026  1.00  0.00     0.029 A 
ATOM     49  C   UNL A   1      38.920  31.249  33.259  1.00  0.00     0.049 A 
ATOM     50  H   UNL A   1      39.918  30.017  31.908  1.00  0.00     0.167 HD
ATOM     51  C   UNL A   1      41.775  27.269  29.047  1.00  0.00     0.037 A 
ATOM     52  C   UNL A   1      39.612  31.213  34.415  1.00  0.00     0.037 A 
ATOM     53  C   UNL A   1      42.630  27.242  30.204  1.00  0.00     0.049 A 
ATOM     54  C   UNL A   1      40.852  30.365  34.502  1.00  0.00     0.074 A 
ATOM     55  C   UNL A   1      43.823  26.563  30.379  1.00  0.00     0.029 A 
ATOM     56  N   UNL A   1      42.380  27.925  31.386  1.00  0.00    -0.354 N 
ATOM     57  N   UNL A   1      41.399  29.602  33.587  1.00  0.00    -0.248 NA
ATOM     58  C   UNL A   1      41.575  30.378  35.781  1.00  0.00     0.031 C 
ATOM     59  C   UNL A   1      44.269  26.795  31.685  1.00  0.00     0.029 A 
ATOM     60  C   UNL A   1      43.385  27.665  32.303  1.00  0.00     0.049 A 
ATOM     61  H   UNL A   1      41.603  28.507  31.548  1.00  0.00     0.167 HD
ATOM     62  C   UNL A   1      42.545  29.072  34.166  1.00  0.00     0.074 A 
ATOM     63  C   UNL A   1      42.619  29.609  35.509  1.00  0.00     0.031 C 
ATOM     64  C   UNL A   1      43.452  28.218  33.632  1.00  0.00     0.037 A 
BRANCH  51  65
ATOM     65  C   UNL A   1      42.139  26.417  27.864  1.00  0.00     0.064 A 
ATOM     66  C   UNL A   1      43.085  26.836  26.916  1.00  0.00     0.173 A 
ATOM     67  C   UNL A   1      41.543  25.160  27.681  1.00  0.00     0.173 A 
ATOM     68  F   UNL A   1      43.677  28.034  27.036  1.00  0.00    -0.203 F 
ATOM     69  C   UNL A   1      43.388  26.050  25.807  1.00  0.00     0.198 A 
ATOM     70  C   UNL A   1      41.875  24.361  26.590  1.00  0.00     0.198 A 
ATOM     71  F   UNL A   1      40.636  24.706  28.559  1.00  0.00    -0.203 F 
ATOM     72  F   UNL A   1      44.244  26.503  24.881  1.00  0.00    -0.200 F 
ATOM     73  C   UNL A   1      42.788  24.811  25.648  1.00  0.00     0.200 A 
ATOM     74  F   UNL A   1      41.305  23.156  26.446  1.00  0.00    -0.200 F 
ATOM     75  F   UNL A   1      43.081  24.055  24.582  1.00  0.00    -0.200 F 
ENDBRANCH  51  65
BRANCH  52  76
ATOM     76  C   UNL A   1      39.166  32.031  35.575  1.00  0.00     0.064 A 
ATOM     77  C   UNL A   1      38.353  31.475  36.573  1.00  0.00     0.173 A 
ATOM     78  C   UNL A   1      39.536  33.377  35.713  1.00  0.00     0.173 A 
ATOM     79  F   UNL A   1      37.954  30.198  36.477  1.00  0.00    -0.203 F 
ATOM     80  C   UNL A   1      37.912  32.238  37.653  1.00  0.00     0.198 A 
ATOM     81  C   UNL A   1      39.120  34.130  36.809  1.00  0.00     0.198 A 
ATOM     82  F   UNL A   1      40.317  33.956  34.789  1.00  0.00    -0.203 F 
ATOM     83  F   UNL A   1      37.099  31.693  38.569  1.00  0.00    -0.200 F 
ATOM     84  C   UNL A   1      38.302  33.563  37.773  1.00  0.00     0.200 A 
ATOM     85  F   UNL A   1      39.510  35.407  36.929  1.00  0.00    -0.200 F 
ATOM     86  F   UNL A   1      37.883  34.295  38.815  1.00  0.00    -0.200 F 
ENDBRANCH  52  76
BRANCH  64  87
ATOM     87  C   UNL A   1      44.634  27.845  34.481  1.00  0.00     0.064 A 
ATOM     88  C   UNL A   1      44.626  26.704  35.297  1.00  0.00     0.173 A 
ATOM     89  C   UNL A   1      45.809  28.612  34.434  1.00  0.00     0.173 A 
ATOM     90  F   UNL A   1      43.524  25.946  35.388  1.00  0.00    -0.203 F 
ATOM     91  C   UNL A   1      45.745  26.359  36.052  1.00  0.00     0.198 A 
ATOM     92  C   UNL A   1      46.935  28.245  35.164  1.00  0.00     0.198 A 
ATOM     93  F   UNL A   1      45.870  29.709  33.663  1.00  0.00    -0.203 F 
ATOM     94  F   UNL A   1      45.701  25.290  36.860  1.00  0.00    -0.200 F 
ATOM     95  C   UNL A   1      46.900  27.123  35.977  1.00  0.00     0.200 A 
ATOM     96  F   UNL A   1      48.054  28.976  35.078  1.00  0.00    -0.200 F 
ATOM     97  F   UNL A   1      47.979  26.781  36.695  1.00  0.00    -0.200 F 
ENDBRANCH  64  87
ENDBRANCH  38  39
ENDBRANCH  30  33
ENDBRANCH  28  29
ENDBRANCH  27  28
ENDBRANCH   1  27
TORSDOF 14
ENDMDL
MODEL 2
REMARK VINA RESULT:     -12.6      0.469      7.453
REMARK SMILES COc1ccc(Nc2c(C(=O)NCCCCNC(=O)c3ccc(-c4c5nc(c(-c6c(F)c(F)c(F)c(F)c6F)c6ccc([nH]6)c(-c6c(F)c(F)c(F)c(F)c6F)c6nc(c(-c7c(F)c(F)c(F)c(F)c7F)c7ccc4[nH]7)C=C6)C=C5)cc3)[nH]c(=O)[nH]c2=O)cc1
REMARK SMILES IDX 14 1 13 2 12 3 10 4 11 5 9 7 8 8 87 9 83 10 86 11 88 12
REMARK SMILES IDX 84 13 85 16 7 17 6 19 3 20 4 21 90 22 5 23 89 24 2 25 1 26
REMARK SMILES IDX 15 27 16 28 17 29 18 30 19 32 20 33 21 34 82 35 22 36 81 37
REMARK SMILES IDX 23 38 24 39 25 40 75 41 26 42 80 43 74 44 76 45 27 46 79 47
REMARK SMILES IDX 73 48 72 49 28 51 60 52 40 53 59 54 41 55 44 56 58 57 77 58
REMARK SMILES IDX 42 59 43 60 57 62 78 63 45 64 29 65 30 66 38 67 31 68 32 69
REMARK SMILES IDX 36 70 39 71 33 72 34 73 37 74 35 75 61 76 62 77 70 78 63 79
REMARK SMILES IDX 64 80 68 81 71 82 65 83 66 84 69 85 67 86 46 87 47 88 55 89
REMARK SMILES IDX 48 90 49 91 53 92 56 93 50 94 51 95 54 96 52 97
REMARK H PARENT 12 6 83 14 86 15 7 18 17 31 76 50 44 61
REMARK Flexibility Score: inf
ROOT
ATOM      1  C   UNL A   1      32.242  27.708  26.959  1.00  0.00     0.023 C 
ENDROOT
BRANCH   1   2
ATOM      2  C   UNL A   1      32.083  26.375  26.251  1.00  0.00     0.116 C 
BRANCH   2   3
ATOM      3  N   UNL A   1      31.275  25.371  26.876  1.00  0.00    -0.351 N 
ATOM      4  C   UNL A   1      31.245  24.038  26.604  1.00  0.00     0.270 C 
ATOM      5  O   UNL A   1      30.433  23.361  27.250  1.00  0.00    -0.268 OA
ATOM      6  H   UNL A   1      30.670  25.682  27.588  1.00  0.00     0.163 HD
BRANCH   4   7
ATOM      7  C   UNL A   1      32.027  23.322  25.503  1.00  0.00     0.137 A 
ATOM      8  C   UNL A   1      31.812  23.249  24.167  1.00  0.00     0.134 A 
ATOM      9  C   UNL A   1      32.909  22.583  23.351  1.00  0.00     0.278 A 
ATOM     10  N   UNL A   1      33.173  22.749  26.041  1.00  0.00    -0.301 N 
ATOM     11  N   UNL A   1      33.913  21.958  24.025  1.00  0.00    -0.272 N 
ATOM     12  O   UNL A   1      32.903  22.618  22.125  1.00  0.00    -0.267 OA
ATOM     13  C   UNL A   1      34.108  22.054  25.358  1.00  0.00     0.326 A 
ATOM     14  H   UNL A   1      33.316  22.862  27.009  1.00  0.00     0.172 HD
ATOM     15  H   UNL A   1      34.538  21.399  23.508  1.00  0.00     0.175 HD
ATOM     16  O   UNL A   1      35.092  21.554  25.911  1.00  0.00    -0.248 OA
BRANCH   8  17
ATOM     17  N   UNL A   1      30.769  23.743  23.390  1.00  0.00    -0.349 N 
ATOM     18  H   UNL A   1      30.161  23.093  22.969  1.00  0.00     0.167 HD
BRANCH  17  19
ATOM     19  C   UNL A   1      30.522  25.131  23.161  1.00  0.00     0.039 A 
ATOM     20  C   UNL A   1      30.382  27.952  23.026  1.00  0.00     0.119 A 
ATOM     21  C   UNL A   1      29.423  27.227  23.730  1.00  0.00     0.048 A 
ATOM     22  C   UNL A   1      31.409  27.268  22.376  1.00  0.00     0.048 A 
ATOM     23  C   UNL A   1      29.493  25.833  23.803  1.00  0.00     0.030 A 
ATOM     24  C   UNL A   1      31.468  25.868  22.432  1.00  0.00     0.030 A 
BRANCH  20  25
ATOM     25  O   UNL A   1      30.225  29.308  23.082  1.00  0.00    -0.497 OA
ATOM     26  C   UNL A   1      29.570  29.921  21.979  1.00  0.00     0.278 C 
ENDBRANCH  20  25
ENDBRANCH  17  19
ENDBRANCH   8  17
ENDBRANCH   4   7
ENDBRANCH   2   3
ENDBRANCH   1   2
BRANCH   1  27
ATOM     27  C   UNL A   1      31.723  28.945  26.244  1.00  0.00     0.023 C 
BRANCH  27  28
ATOM     28  C   UNL A   1      32.753  30.003  25.873  1.00  0.00     0.116 C 
BRANCH  28  29
ATOM     29  N   UNL A   1      32.565  31.293  26.528  1.00  0.00    -0.352 N 
ATOM     30  C   UNL A   1      33.388  31.988  27.388  1.00  0.00     0.251 C 
ATOM     31  H   UNL A   1      31.711  31.739  26.323  1.00  0.00     0.163 HD
ATOM     32  O   UNL A   1      33.021  33.059  27.864  1.00  0.00    -0.269 OA
BRANCH  30  33
ATOM     33  C   UNL A   1      34.690  31.409  27.789  1.00  0.00     0.039 A 
ATOM     34  C   UNL A   1      35.775  32.263  28.001  1.00  0.00     0.014 A 
ATOM     35  C   UNL A   1      34.816  30.044  28.044  1.00  0.00     0.014 A 
ATOM     36  C   UNL A   1      36.938  31.768  28.598  1.00  0.00     0.010 A 
ATOM     37  C   UNL A   1      35.923  29.578  28.743  1.00  0.00     0.010 A 
ATOM     38  C   UNL A   1      36.994  30.438  29.041  1.00  0.00    -0.014 A 
BRANCH  38  39
ATOM     39  C   UNL A   1      38.143  29.918  29.830  1.00  0.00     0.031 A 
ATOM     40  C   UNL A   1      38.366  30.398  31.237  1.00  0.00     0.074 A 
ATOM     41  C   UNL A   1      39.042  29.095  29.252  1.00  0.00     0.049 A 
ATOM     42  N   UNL A   1      39.368  30.164  32.047  1.00  0.00    -0.248 NA
ATOM     43  C   UNL A   1      37.344  31.298  31.796  1.00  0.00     0.031 C 
ATOM     44  C   UNL A   1      38.977  28.600  27.876  1.00  0.00     0.029 A 
ATOM     45  N   UNL A   1      40.196  28.538  29.746  1.00  0.00    -0.354 N 
ATOM     46  C   UNL A   1      39.108  30.905  33.193  1.00  0.00     0.074 A 
ATOM     47  C   UNL A   1      37.893  31.649  32.948  1.00  0.00     0.031 C 
ATOM     48  C   UNL A   1      40.025  27.791  27.647  1.00  0.00     0.029 A 
ATOM     49  C   UNL A   1      40.861  27.745  28.842  1.00  0.00     0.049 A 
ATOM     50  H   UNL A   1      40.518  28.693  30.665  1.00  0.00     0.167 HD
ATOM     51  C   UNL A   1      39.801  30.939  34.356  1.00  0.00     0.037 A 
ATOM     52  C   UNL A   1      42.018  27.065  28.959  1.00  0.00     0.037 A 
ATOM     53  C   UNL A   1      40.991  30.172  34.608  1.00  0.00     0.049 A 
ATOM     54  C   UNL A   1      42.773  27.121  30.261  1.00  0.00     0.074 A 
ATOM     55  C   UNL A   1      41.731  30.085  35.774  1.00  0.00     0.029 A 
ATOM     56  N   UNL A   1      41.618  29.359  33.674  1.00  0.00    -0.354 N 
ATOM     57  N   UNL A   1      42.478  27.768  31.362  1.00  0.00    -0.248 NA
ATOM     58  C   UNL A   1      44.020  26.346  30.337  1.00  0.00     0.031 C 
ATOM     59  C   UNL A   1      42.834  29.259  35.531  1.00  0.00     0.029 A 
ATOM     60  C   UNL A   1      42.749  28.785  34.232  1.00  0.00     0.049 A 
ATOM     61  H   UNL A   1      41.306  29.213  32.752  1.00  0.00     0.167 HD
ATOM     62  C   UNL A   1      43.481  27.453  32.270  1.00  0.00     0.074 A 
ATOM     63  C   UNL A   1      44.387  26.549  31.594  1.00  0.00     0.031 C 
ATOM     64  C   UNL A   1      43.634  27.875  33.549  1.00  0.00     0.037 A 
BRANCH  51  65
ATOM     65  C   UNL A   1      39.278  31.834  35.444  1.00  0.00     0.064 A 
ATOM     66  C   UNL A   1      38.411  31.357  36.439  1.00  0.00     0.173 A 
ATOM     67  C   UNL A   1      39.659  33.184  35.500  1.00  0.00     0.173 A 
ATOM     68  F   UNL A   1      38.006  30.078  36.426  1.00  0.00    -0.203 F 
ATOM     69  C   UNL A   1      37.909  32.206  37.422  1.00  0.00     0.198 A 
ATOM     70  C   UNL A   1      39.183  34.021  36.507  1.00  0.00     0.198 A 
ATOM     71  F   UNL A   1      40.490  33.693  34.579  1.00  0.00    -0.203 F 
ATOM     72  F   UNL A   1      37.028  31.743  38.319  1.00  0.00    -0.200 F 
ATOM     73  C   UNL A   1      38.300  33.536  37.459  1.00  0.00     0.200 A 
ATOM     74  F   UNL A   1      39.574  35.303  36.550  1.00  0.00    -0.200 F 
ATOM     75  F   UNL A   1      37.817  34.351  38.406  1.00  0.00    -0.200 F 
ENDBRANCH  51  65
BRANCH  52  76
ATOM     76  C   UNL A   1      42.519  26.245  27.824  1.00  0.00     0.064 A 
ATOM     77  C   UNL A   1      43.476  26.759  26.937  1.00  0.00     0.173 A 
ATOM     78  C   UNL A   1      42.056  24.941  27.597  1.00  0.00     0.173 A 
ATOM     79  F   UNL A   1      43.935  28.008  27.098  1.00  0.00    -0.203 F 
ATOM     80  C   UNL A   1      43.936  26.007  25.857  1.00  0.00     0.198 A 
ATOM     81  C   UNL A   1      42.539  24.179  26.534  1.00  0.00     0.198 A 
ATOM     82  F   UNL A   1      41.144  24.400  28.418  1.00  0.00    -0.203 F 
ATOM     83  F   UNL A   1      44.818  26.539  25.000  1.00  0.00    -0.200 F 
ATOM     84  C   UNL A   1      43.472  24.715  25.661  1.00  0.00     0.200 A 
ATOM     85  F   UNL A   1      42.098  22.926  26.356  1.00  0.00    -0.200 F 
ATOM     86  F   UNL A   1      43.919  23.990  24.626  1.00  0.00    -0.200 F 
ENDBRANCH  52  76
BRANCH  64  87
ATOM     87  C   UNL A   1      44.800  27.330  34.323  1.00  0.00     0.064 A 
ATOM     88  C   UNL A   1      46.023  28.012  34.396  1.00  0.00     0.173 A 
ATOM     89  C   UNL A   1      44.671  26.132  35.044  1.00  0.00     0.173 A 
ATOM     90  F   UNL A   1      46.202  29.152  33.714  1.00  0.00    -0.203 F 
ATOM     91  C   UNL A   1      47.082  27.503  35.146  1.00  0.00     0.198 A 
ATOM     92  C   UNL A   1      45.719  25.644  35.818  1.00  0.00     0.198 A 
ATOM     93  F   UNL A   1      43.519  25.444  35.013  1.00  0.00    -0.203 F 
ATOM     94  F   UNL A   1      48.256  28.148  35.165  1.00  0.00    -0.200 F 
ATOM     95  C   UNL A   1      46.926  26.326  35.862  1.00  0.00     0.200 A 
ATOM     96  F   UNL A   1      45.562  24.515  36.522  1.00  0.00    -0.200 F 
ATOM     97  F   UNL A   1      47.941  25.845  36.593  1.00  0.00    -0.200 F 
ENDBRANCH  64  87
ENDBRANCH  38  39
ENDBRANCH  30  33
ENDBRANCH  28  29
ENDBRANCH  27  28
ENDBRANCH   1  27
TORSDOF 14
ENDMDL
MODEL 3
REMARK VINA RESULT:     -12.6      1.144      7.832
REMARK SMILES COc1ccc(Nc2c(C(=O)NCCCCNC(=O)c3ccc(-c4c5nc(c(-c6c(F)c(F)c(F)c(F)c6F)c6ccc([nH]6)c(-c6c(F)c(F)c(F)c(F)c6F)c6nc(c(-c7c(F)c(F)c(F)c(F)c7F)c7ccc4[nH]7)C=C6)C=C5)cc3)[nH]c(=O)[nH]c2=O)cc1
REMARK SMILES IDX 14 1 13 2 12 3 10 4 11 5 9 7 8 8 87 9 83 10 86 11 88 12
REMARK SMILES IDX 84 13 85 16 7 17 6 19 3 20 4 21 90 22 5 23 89 24 2 25 1 26
REMARK SMILES IDX 15 27 16 28 17 29 18 30 19 32 20 33 21 34 82 35 22 36 81 37
REMARK SMILES IDX 23 38 24 39 25 40 75 41 26 42 80 43 74 44 76 45 27 46 79 47
REMARK SMILES IDX 73 48 72 49 28 51 60 52 40 53 59 54 41 55 44 56 58 57 77 58
REMARK SMILES IDX 42 59 43 60 57 62 78 63 45 64 29 65 30 66 38 67 31 68 32 69
REMARK SMILES IDX 36 70 39 71 33 72 34 73 37 74 35 75 61 76 62 77 70 78 63 79
REMARK SMILES IDX 64 80 68 81 71 82 65 83 66 84 69 85 67 86 46 87 47 88 55 89
REMARK SMILES IDX 48 90 49 91 53 92 56 93 50 94 51 95 54 96 52 97
REMARK H PARENT 12 6 83 14 86 15 7 18 17 31 76 50 44 61
REMARK Flexibility Score: inf
ROOT
ATOM      1  C   UNL A   1      32.014  28.204  27.566  1.00  0.00     0.023 C 
ENDROOT
BRANCH   1   2
ATOM      2  C   UNL A   1      32.568  27.013  26.806  1.00  0.00     0.116 C 
BRANCH   2   3
ATOM      3  N   UNL A   1      31.717  25.875  26.620  1.00  0.00    -0.351 N 
ATOM      4  C   UNL A   1      31.356  25.289  25.446  1.00  0.00     0.270 C 
ATOM      5  O   UNL A   1      30.574  24.331  25.525  1.00  0.00    -0.268 OA
ATOM      6  H   UNL A   1      31.351  25.469  27.438  1.00  0.00     0.163 HD
BRANCH   4   7
ATOM      7  C   UNL A   1      31.727  25.770  24.043  1.00  0.00     0.137 A 
ATOM      8  C   UNL A   1      32.687  25.347  23.186  1.00  0.00     0.134 A 
ATOM      9  C   UNL A   1      32.649  25.951  21.791  1.00  0.00     0.278 A 
ATOM     10  N   UNL A   1      30.827  26.744  23.631  1.00  0.00    -0.301 N 
ATOM     11  N   UNL A   1      31.791  26.984  21.569  1.00  0.00    -0.272 N 
ATOM     12  O   UNL A   1      33.354  25.515  20.887  1.00  0.00    -0.267 OA
ATOM     13  C   UNL A   1      30.837  27.380  22.439  1.00  0.00     0.326 A 
ATOM     14  H   UNL A   1      30.116  26.993  24.266  1.00  0.00     0.172 HD
ATOM     15  H   UNL A   1      31.870  27.476  20.718  1.00  0.00     0.175 HD
ATOM     16  O   UNL A   1      30.014  28.254  22.152  1.00  0.00    -0.248 OA
BRANCH   8  17
ATOM     17  N   UNL A   1      33.684  24.390  23.345  1.00  0.00    -0.349 N 
ATOM     18  H   UNL A   1      34.621  24.693  23.324  1.00  0.00     0.167 HD
BRANCH  17  19
ATOM     19  C   UNL A   1      33.441  22.996  23.537  1.00  0.00     0.039 A 
ATOM     20  C   UNL A   1      32.531  20.374  24.081  1.00  0.00     0.119 A 
ATOM     21  C   UNL A   1      33.444  20.998  24.928  1.00  0.00     0.048 A 
ATOM     22  C   UNL A   1      32.078  21.054  22.951  1.00  0.00     0.048 A 
ATOM     23  C   UNL A   1      33.891  22.296  24.665  1.00  0.00     0.030 A 
ATOM     24  C   UNL A   1      32.542  22.348  22.675  1.00  0.00     0.030 A 
BRANCH  20  25
ATOM     25  O   UNL A   1      32.138  19.130  24.486  1.00  0.00    -0.497 OA
ATOM     26  C   UNL A   1      32.801  18.024  23.888  1.00  0.00     0.278 C 
ENDBRANCH  20  25
ENDBRANCH  17  19
ENDBRANCH   8  17
ENDBRANCH   4   7
ENDBRANCH   2   3
ENDBRANCH   1   2
BRANCH   1  27
ATOM     27  C   UNL A   1      31.542  29.396  26.750  1.00  0.00     0.023 C 
BRANCH  27  28
ATOM     28  C   UNL A   1      32.617  30.345  26.241  1.00  0.00     0.116 C 
BRANCH  28  29
ATOM     29  N   UNL A   1      32.548  31.695  26.790  1.00  0.00    -0.352 N 
ATOM     30  C   UNL A   1      33.465  32.407  27.533  1.00  0.00     0.251 C 
ATOM     31  H   UNL A   1      31.710  32.176  26.599  1.00  0.00     0.163 HD
ATOM     32  O   UNL A   1      33.193  33.535  27.934  1.00  0.00    -0.269 OA
BRANCH  30  33
ATOM     33  C   UNL A   1      34.755  31.783  27.904  1.00  0.00     0.039 A 
ATOM     34  C   UNL A   1      35.874  32.599  28.091  1.00  0.00     0.014 A 
ATOM     35  C   UNL A   1      34.839  30.414  28.156  1.00  0.00     0.014 A 
ATOM     36  C   UNL A   1      37.032  32.063  28.661  1.00  0.00     0.010 A 
ATOM     37  C   UNL A   1      35.946  29.910  28.829  1.00  0.00     0.010 A 
ATOM     38  C   UNL A   1      37.052  30.731  29.103  1.00  0.00    -0.014 A 
BRANCH  38  39
ATOM     39  C   UNL A   1      38.200  30.171  29.865  1.00  0.00     0.031 A 
ATOM     40  C   UNL A   1      38.452  30.616  31.279  1.00  0.00     0.074 A 
ATOM     41  C   UNL A   1      39.074  29.342  29.258  1.00  0.00     0.049 A 
ATOM     42  N   UNL A   1      39.459  30.344  32.070  1.00  0.00    -0.248 NA
ATOM     43  C   UNL A   1      37.455  31.525  31.870  1.00  0.00     0.031 C 
ATOM     44  C   UNL A   1      38.981  28.878  27.872  1.00  0.00     0.029 A 
ATOM     45  N   UNL A   1      40.223  28.751  29.725  1.00  0.00    -0.354 N 
ATOM     46  C   UNL A   1      39.229  31.066  33.235  1.00  0.00     0.074 A 
ATOM     47  C   UNL A   1      38.027  31.840  33.022  1.00  0.00     0.031 C 
ATOM     48  C   UNL A   1      40.008  28.052  27.613  1.00  0.00     0.029 A 
ATOM     49  C   UNL A   1      40.859  27.965  28.794  1.00  0.00     0.049 A 
ATOM     50  H   UNL A   1      40.560  28.880  30.642  1.00  0.00     0.167 HD
ATOM     51  C   UNL A   1      39.938  31.060  34.389  1.00  0.00     0.037 A 
ATOM     52  C   UNL A   1      42.003  27.258  28.882  1.00  0.00     0.037 A 
ATOM     53  C   UNL A   1      41.115  30.264  34.608  1.00  0.00     0.049 A 
ATOM     54  C   UNL A   1      42.776  27.271  30.174  1.00  0.00     0.074 A 
ATOM     55  C   UNL A   1      41.868  30.137  35.763  1.00  0.00     0.029 A 
ATOM     56  N   UNL A   1      41.713  29.459  33.649  1.00  0.00    -0.354 N 
ATOM     57  N   UNL A   1      42.509  27.899  31.293  1.00  0.00    -0.248 NA
ATOM     58  C   UNL A   1      44.007  26.469  30.217  1.00  0.00     0.031 C 
ATOM     59  C   UNL A   1      42.950  29.294  35.487  1.00  0.00     0.029 A 
ATOM     60  C   UNL A   1      42.838  28.849  34.180  1.00  0.00     0.049 A 
ATOM     61  H   UNL A   1      41.385  29.339  32.729  1.00  0.00     0.167 HD
ATOM     62  C   UNL A   1      43.517  27.545  32.180  1.00  0.00     0.074 A 
ATOM     63  C   UNL A   1      44.395  26.637  31.473  1.00  0.00     0.031 C 
ATOM     64  C   UNL A   1      43.696  27.936  33.466  1.00  0.00     0.037 A 
BRANCH  51  65
ATOM     65  C   UNL A   1      39.448  31.943  35.503  1.00  0.00     0.064 A 
ATOM     66  C   UNL A   1      39.871  33.275  35.629  1.00  0.00     0.173 A 
ATOM     67  C   UNL A   1      38.536  31.454  36.451  1.00  0.00     0.173 A 
ATOM     68  F   UNL A   1      40.752  33.790  34.757  1.00  0.00    -0.203 F 
ATOM     69  C   UNL A   1      39.435  34.070  36.685  1.00  0.00     0.198 A 
ATOM     70  C   UNL A   1      38.074  32.264  37.485  1.00  0.00     0.198 A 
ATOM     71  F   UNL A   1      38.093  30.190  36.376  1.00  0.00    -0.203 F 
ATOM     72  F   UNL A   1      39.907  35.317  36.822  1.00  0.00    -0.200 F 
ATOM     73  C   UNL A   1      38.532  33.566  37.608  1.00  0.00     0.200 A 
ATOM     74  F   UNL A   1      37.189  31.780  38.368  1.00  0.00    -0.200 F 
ATOM     75  F   UNL A   1      38.111  34.334  38.623  1.00  0.00    -0.200 F 
ENDBRANCH  51  65
BRANCH  52  76
ATOM     76  C   UNL A   1      42.472  26.452  27.723  1.00  0.00     0.064 A 
ATOM     77  C   UNL A   1      41.982  25.156  27.506  1.00  0.00     0.173 A 
ATOM     78  C   UNL A   1      43.414  26.952  26.812  1.00  0.00     0.173 A 
ATOM     79  F   UNL A   1      41.096  24.625  28.361  1.00  0.00    -0.203 F 
ATOM     80  C   UNL A   1      42.430  24.385  26.435  1.00  0.00     0.198 A 
ATOM     81  C   UNL A   1      43.839  26.191  25.724  1.00  0.00     0.198 A 
ATOM     82  F   UNL A   1      43.911  28.188  26.970  1.00  0.00    -0.203 F 
ATOM     83  F   UNL A   1      41.978  23.133  26.278  1.00  0.00    -0.200 F 
ATOM     84  C   UNL A   1      43.353  24.906  25.541  1.00  0.00     0.200 A 
ATOM     85  F   UNL A   1      44.720  26.704  24.854  1.00  0.00    -0.200 F 
ATOM     86  F   UNL A   1      43.780  24.166  24.508  1.00  0.00    -0.200 F 
ENDBRANCH  52  76
BRANCH  64  87
ATOM     87  C   UNL A   1      44.859  27.350  34.212  1.00  0.00     0.064 A 
ATOM     88  C   UNL A   1      46.091  28.016  34.301  1.00  0.00     0.173 A 
ATOM     89  C   UNL A   1      44.721  26.129  34.891  1.00  0.00     0.173 A 
ATOM     90  F   UNL A   1      46.279  29.177  33.659  1.00  0.00    -0.203 F 
ATOM     91  C   UNL A   1      47.148  27.468  35.026  1.00  0.00     0.198 A 
ATOM     92  C   UNL A   1      45.768  25.602  35.640  1.00  0.00     0.198 A 
ATOM     93  F   UNL A   1      43.561  25.456  34.843  1.00  0.00    -0.203 F 
ATOM     94  F   UNL A   1      48.330  28.099  35.060  1.00  0.00    -0.200 F 
ATOM     95  C   UNL A   1      46.983  26.268  35.701  1.00  0.00     0.200 A 
ATOM     96  F   UNL A   1      45.602  24.451  36.305  1.00  0.00    -0.200 F 
ATOM     97  F   UNL A   1      47.997  25.751  36.407  1.00  0.00    -0.200 F 
ENDBRANCH  64  87
ENDBRANCH  38  39
ENDBRANCH  30  33
ENDBRANCH  28  29
ENDBRANCH  27  28
ENDBRANCH   1  27
TORSDOF 14
ENDMDL
