MODEL 1
REMARK VINA RESULT:     -13.2      0.000      0.000
REMARK SMILES Cc1ccccc1[C@H](C(=O)NC[C@H]1CC[C@@H](C(=O)NCCCCNC(=O)c2ccc(-c3c4nc(c(-c5c(F)c(F)c(F)c(F)c5F)c5ccc([nH]5)c(-c5c(F)c(F)c(F)c(F)c5F)c5nc(c(-c6c(F)c(F)c(F)c(F)c6F)c6ccc3[nH]6)C=C5)C=C4)cc2)CC1)[NH+](C)C
REMARK SMILES IDX 20 1 19 2 17 3 18 4 16 6 13 7 14 8 91 9 15 10 90 11 12 12
REMARK SMILES IDX 11 13 9 14 10 15 8 17 7 18 1 19 2 20 3 21 4 22 6 23 5 24
REMARK SMILES IDX 92 25 93 26 94 27 21 29 22 30 23 31 24 32 25 33 26 35 27 36
REMARK SMILES IDX 28 37 89 38 29 39 88 40 30 41 31 42 32 43 82 44 33 45 87 46
REMARK SMILES IDX 81 47 83 48 34 49 86 50 80 51 79 52 35 54 67 55 47 56 66 57
REMARK SMILES IDX 48 58 51 59 65 60 84 61 49 62 50 63 64 65 85 66 52 67 36 68
REMARK SMILES IDX 37 69 45 70 38 71 39 72 43 73 46 74 40 75 41 76 44 77 42 78
REMARK SMILES IDX 68 79 69 80 77 81 70 82 71 83 75 84 78 85 72 86 73 87 76 88
REMARK SMILES IDX 74 89 53 90 54 91 62 92 55 93 56 94 60 95 63 96 57 97 58 98
REMARK SMILES IDX 61 99 59 100
REMARK H PARENT 19 5 11 16 92 28 24 34 83 53 51 64
REMARK Flexibility Score: inf
ROOT
ATOM      1  C   UNL A   1      40.833  21.937  26.378  1.00  0.00     0.116 C 
ENDROOT
BRANCH   1   2
ATOM      2  N   UNL A   1      39.510  22.521  26.072  1.00  0.00    -0.356 N 
ATOM      3  C   UNL A   1      38.544  21.786  25.413  1.00  0.00     0.223 C 
ATOM      4  O   UNL A   1      38.653  20.558  25.345  1.00  0.00    -0.275 OA
ATOM      5  H   UNL A   1      39.316  23.448  26.341  1.00  0.00     0.163 HD
BRANCH   3   6
ATOM      6  C   UNL A   1      37.315  22.503  24.776  1.00  0.00     0.078 C 
ATOM      7  C   UNL A   1      34.582  22.509  26.275  1.00  0.00     0.008 C 
ATOM      8  C   UNL A   1      35.642  23.601  26.534  1.00  0.00     0.006 C 
ATOM      9  C   UNL A   1      35.093  21.354  25.415  1.00  0.00     0.006 C 
ATOM     10  C   UNL A   1      36.866  23.727  25.608  1.00  0.00     0.014 C 
ATOM     11  C   UNL A   1      36.096  21.706  24.318  1.00  0.00     0.014 C 
BRANCH   7  12
ATOM     12  C   UNL A   1      33.905  22.085  27.639  1.00  0.00     0.119 C 
BRANCH  12  13
ATOM     13  N   UNL A   1      32.510  22.478  27.859  1.00  0.00    -0.350 N 
ATOM     14  C   UNL A   1      31.612  23.288  27.202  1.00  0.00     0.283 C 
ATOM     15  O   UNL A   1      30.436  23.125  27.574  1.00  0.00    -0.268 OA
ATOM     16  H   UNL A   1      32.125  22.066  28.665  1.00  0.00     0.163 HD
BRANCH  14  17
ATOM     17  C   UNL A   1      31.937  24.433  26.148  1.00  0.00     0.305 C 
BRANCH  17  18
ATOM     18  C   UNL A   1      32.259  23.958  24.742  1.00  0.00     0.022 A 
ATOM     19  C   UNL A   1      33.810  25.954  24.546  1.00  0.00     0.045 C 
ATOM     20  C   UNL A   1      33.251  24.654  24.034  1.00  0.00    -0.041 A 
ATOM     21  C   UNL A   1      33.739  24.101  22.849  1.00  0.00     0.004 A 
ATOM     22  C   UNL A   1      33.227  22.937  22.299  1.00  0.00     0.000 A 
ATOM     23  C   UNL A   1      31.712  22.798  24.160  1.00  0.00     0.011 A 
ATOM     24  C   UNL A   1      32.192  22.298  22.947  1.00  0.00     0.001 A 
ENDBRANCH  17  18
BRANCH  17  25
ATOM     25  N   UNL A   1      31.086  25.638  26.306  1.00  0.00    -0.326 N 
ATOM     26  C   UNL A   1      31.759  26.812  26.842  1.00  0.00     0.333 C 
ATOM     27  C   UNL A   1      30.155  25.904  25.236  1.00  0.00     0.333 C 
ATOM     28  H   UNL A   1      30.468  25.354  27.067  1.00  0.00     0.348 HD
ENDBRANCH  17  25
ENDBRANCH  14  17
ENDBRANCH  12  13
ENDBRANCH   7  12
ENDBRANCH   3   6
ENDBRANCH   1   2
BRANCH   1  29
ATOM     29  C   UNL A   1      40.782  20.822  27.441  1.00  0.00     0.023 C 
BRANCH  29  30
ATOM     30  C   UNL A   1      41.727  19.615  27.245  1.00  0.00     0.023 C 
BRANCH  30  31
ATOM     31  C   UNL A   1      42.040  19.147  25.817  1.00  0.00     0.116 C 
BRANCH  31  32
ATOM     32  N   UNL A   1      43.453  19.065  25.468  1.00  0.00    -0.352 N 
ATOM     33  C   UNL A   1      44.363  20.049  25.122  1.00  0.00     0.251 C 
ATOM     34  H   UNL A   1      43.825  18.154  25.480  1.00  0.00     0.163 HD
ATOM     35  O   UNL A   1      45.420  19.694  24.587  1.00  0.00    -0.269 OA
BRANCH  33  36
ATOM     36  C   UNL A   1      44.185  21.497  25.441  1.00  0.00     0.039 A 
ATOM     37  C   UNL A   1      44.061  22.433  24.383  1.00  0.00     0.014 A 
ATOM     38  C   UNL A   1      44.243  21.985  26.736  1.00  0.00     0.014 A 
ATOM     39  C   UNL A   1      44.072  23.819  24.621  1.00  0.00     0.010 A 
ATOM     40  C   UNL A   1      44.306  23.336  26.972  1.00  0.00     0.010 A 
ATOM     41  C   UNL A   1      44.220  24.260  25.928  1.00  0.00    -0.014 A 
BRANCH  41  42
ATOM     42  C   UNL A   1      44.216  25.632  26.426  1.00  0.00     0.031 A 
ATOM     43  C   UNL A   1      42.912  26.330  26.607  1.00  0.00     0.074 A 
ATOM     44  C   UNL A   1      45.239  25.942  27.252  1.00  0.00     0.049 A 
ATOM     45  N   UNL A   1      42.782  27.530  27.068  1.00  0.00    -0.248 NA
ATOM     46  C   UNL A   1      41.629  25.690  26.305  1.00  0.00     0.031 C 
ATOM     47  C   UNL A   1      45.145  26.689  28.506  1.00  0.00     0.029 A 
ATOM     48  N   UNL A   1      46.590  25.636  27.173  1.00  0.00    -0.354 N 
ATOM     49  C   UNL A   1      41.459  27.691  27.416  1.00  0.00     0.074 A 
ATOM     50  C   UNL A   1      40.768  26.554  26.852  1.00  0.00     0.031 C 
ATOM     51  C   UNL A   1      46.385  26.975  28.936  1.00  0.00     0.029 A 
ATOM     52  C   UNL A   1      47.287  26.641  27.849  1.00  0.00     0.049 A 
ATOM     53  H   UNL A   1      46.984  24.854  26.722  1.00  0.00     0.167 HD
ATOM     54  C   UNL A   1      41.087  28.679  28.280  1.00  0.00     0.037 A 
ATOM     55  C   UNL A   1      48.125  27.540  27.248  1.00  0.00     0.037 A 
ATOM     56  C   UNL A   1      42.237  29.413  28.792  1.00  0.00     0.049 A 
ATOM     57  C   UNL A   1      47.730  28.987  27.462  1.00  0.00     0.074 A 
ATOM     58  C   UNL A   1      42.947  29.312  29.978  1.00  0.00     0.029 A 
ATOM     59  N   UNL A   1      43.010  30.187  27.936  1.00  0.00    -0.354 N 
ATOM     60  N   UNL A   1      46.562  29.362  27.896  1.00  0.00    -0.248 NA
ATOM     61  C   UNL A   1      48.572  30.119  27.080  1.00  0.00     0.031 C 
ATOM     62  C   UNL A   1      44.164  30.015  29.825  1.00  0.00     0.029 A 
ATOM     63  C   UNL A   1      44.200  30.542  28.546  1.00  0.00     0.049 A 
ATOM     64  H   UNL A   1      42.748  30.448  27.024  1.00  0.00     0.167 HD
ATOM     65  C   UNL A   1      46.421  30.708  27.707  1.00  0.00     0.074 A 
ATOM     66  C   UNL A   1      47.730  31.149  27.269  1.00  0.00     0.031 C 
ATOM     67  C   UNL A   1      45.208  31.318  27.839  1.00  0.00     0.037 A 
BRANCH  54  68
ATOM     68  C   UNL A   1      39.699  28.787  28.867  1.00  0.00     0.064 A 
ATOM     69  C   UNL A   1      38.623  29.328  28.132  1.00  0.00     0.173 A 
ATOM     70  C   UNL A   1      39.376  28.361  30.169  1.00  0.00     0.173 A 
ATOM     71  F   UNL A   1      38.761  29.706  26.856  1.00  0.00    -0.203 F 
ATOM     72  C   UNL A   1      37.353  29.511  28.685  1.00  0.00     0.198 A 
ATOM     73  C   UNL A   1      38.119  28.590  30.740  1.00  0.00     0.198 A 
ATOM     74  F   UNL A   1      40.263  27.683  30.912  1.00  0.00    -0.203 F 
ATOM     75  F   UNL A   1      36.370  30.032  27.936  1.00  0.00    -0.200 F 
ATOM     76  C   UNL A   1      37.108  29.170  29.999  1.00  0.00     0.200 A 
ATOM     77  F   UNL A   1      37.894  28.242  32.016  1.00  0.00    -0.200 F 
ATOM     78  F   UNL A   1      35.903  29.384  30.542  1.00  0.00    -0.200 F 
ENDBRANCH  54  68
BRANCH  55  79
ATOM     79  C   UNL A   1      48.665  27.065  25.951  1.00  0.00     0.064 A 
ATOM     80  C   UNL A   1      47.971  27.376  24.773  1.00  0.00     0.173 A 
ATOM     81  C   UNL A   1      50.018  26.708  25.848  1.00  0.00     0.173 A 
ATOM     82  F   UNL A   1      46.678  27.733  24.825  1.00  0.00    -0.203 F 
ATOM     83  C   UNL A   1      48.642  27.453  23.557  1.00  0.00     0.198 A 
ATOM     84  C   UNL A   1      50.689  26.814  24.634  1.00  0.00     0.198 A 
ATOM     85  F   UNL A   1      50.720  26.391  26.946  1.00  0.00    -0.203 F 
ATOM     86  F   UNL A   1      47.980  27.839  22.460  1.00  0.00    -0.200 F 
ATOM     87  C   UNL A   1      50.008  27.220  23.497  1.00  0.00     0.200 A 
ATOM     88  F   UNL A   1      52.013  26.614  24.583  1.00  0.00    -0.200 F 
ATOM     89  F   UNL A   1      50.675  27.440  22.356  1.00  0.00    -0.200 F 
ENDBRANCH  55  79
BRANCH  67  90
ATOM     90  C   UNL A   1      44.891  32.708  27.358  1.00  0.00     0.064 A 
ATOM     91  C   UNL A   1      44.187  32.978  26.173  1.00  0.00     0.173 A 
ATOM     92  C   UNL A   1      45.185  33.830  28.166  1.00  0.00     0.173 A 
ATOM     93  F   UNL A   1      43.721  31.990  25.397  1.00  0.00    -0.203 F 
ATOM     94  C   UNL A   1      43.888  34.281  25.773  1.00  0.00     0.198 A 
ATOM     95  C   UNL A   1      44.829  35.126  27.794  1.00  0.00     0.198 A 
ATOM     96  F   UNL A   1      45.803  33.696  29.349  1.00  0.00    -0.203 F 
ATOM     97  F   UNL A   1      43.268  34.489  24.602  1.00  0.00    -0.200 F 
ATOM     98  C   UNL A   1      44.203  35.354  26.586  1.00  0.00     0.200 A 
ATOM     99  F   UNL A   1      45.082  36.149  28.622  1.00  0.00    -0.200 F 
ATOM    100  F   UNL A   1      43.883  36.601  26.214  1.00  0.00    -0.200 F 
ENDBRANCH  67  90
ENDBRANCH  41  42
ENDBRANCH  33  36
ENDBRANCH  31  32
ENDBRANCH  30  31
ENDBRANCH  29  30
ENDBRANCH   1  29
TORSDOF 16
ENDMDL
MODEL 2
REMARK VINA RESULT:     -13.2      5.354     11.324
REMARK SMILES Cc1ccccc1[C@H](C(=O)NC[C@H]1CC[C@@H](C(=O)NCCCCNC(=O)c2ccc(-c3c4nc(c(-c5c(F)c(F)c(F)c(F)c5F)c5ccc([nH]5)c(-c5c(F)c(F)c(F)c(F)c5F)c5nc(c(-c6c(F)c(F)c(F)c(F)c6F)c6ccc3[nH]6)C=C5)C=C4)cc2)CC1)[NH+](C)C
REMARK SMILES IDX 20 1 19 2 17 3 18 4 16 6 13 7 14 8 91 9 15 10 90 11 12 12
REMARK SMILES IDX 11 13 9 14 10 15 8 17 7 18 1 19 2 20 3 21 4 22 6 23 5 24
REMARK SMILES IDX 92 25 93 26 94 27 21 29 22 30 23 31 24 32 25 33 26 35 27 36
REMARK SMILES IDX 28 37 89 38 29 39 88 40 30 41 31 42 32 43 82 44 33 45 87 46
REMARK SMILES IDX 81 47 83 48 34 49 86 50 80 51 79 52 35 54 67 55 47 56 66 57
REMARK SMILES IDX 48 58 51 59 65 60 84 61 49 62 50 63 64 65 85 66 52 67 36 68
REMARK SMILES IDX 37 69 45 70 38 71 39 72 43 73 46 74 40 75 41 76 44 77 42 78
REMARK SMILES IDX 68 79 69 80 77 81 70 82 71 83 75 84 78 85 72 86 73 87 76 88
REMARK SMILES IDX 74 89 53 90 54 91 62 92 55 93 56 94 60 95 63 96 57 97 58 98
REMARK SMILES IDX 61 99 59 100
REMARK H PARENT 19 5 11 16 92 28 24 34 83 53 51 64
REMARK Flexibility Score: inf
ROOT
ATOM      1  C   UNL A   1      34.844  31.983  28.259  1.00  0.00     0.116 C 
ENDROOT
BRANCH   1   2
ATOM      2  N   UNL A   1      33.607  31.239  27.944  1.00  0.00    -0.356 N 
ATOM      3  C   UNL A   1      33.658  30.018  27.297  1.00  0.00     0.223 C 
ATOM      4  O   UNL A   1      34.724  29.397  27.251  1.00  0.00    -0.275 OA
ATOM      5  H   UNL A   1      32.735  31.618  28.197  1.00  0.00     0.163 HD
BRANCH   3   6
ATOM      6  C   UNL A   1      32.372  29.423  26.649  1.00  0.00     0.078 C 
ATOM      7  C   UNL A   1      32.584  26.907  24.821  1.00  0.00     0.008 C 
ATOM      8  C   UNL A   1      32.407  26.777  26.349  1.00  0.00     0.006 C 
ATOM      9  C   UNL A   1      32.862  28.336  24.359  1.00  0.00     0.006 C 
ATOM     10  C   UNL A   1      32.049  28.013  27.196  1.00  0.00     0.014 C 
ATOM     11  C   UNL A   1      32.173  29.456  25.136  1.00  0.00     0.014 C 
BRANCH   7  12
ATOM     12  C   UNL A   1      33.611  25.820  24.307  1.00  0.00     0.119 C 
BRANCH  12  13
ATOM     13  N   UNL A   1      33.067  24.608  23.687  1.00  0.00    -0.350 N 
ATOM     14  C   UNL A   1      32.794  23.332  24.122  1.00  0.00     0.283 C 
ATOM     15  O   UNL A   1      32.072  22.687  23.340  1.00  0.00    -0.268 OA
ATOM     16  H   UNL A   1      32.845  24.738  22.737  1.00  0.00     0.163 HD
BRANCH  14  17
ATOM     17  C   UNL A   1      33.378  22.605  25.410  1.00  0.00     0.305 C 
BRANCH  17  18
ATOM     18  C   UNL A   1      34.877  22.366  25.405  1.00  0.00     0.022 A 
ATOM     19  C   UNL A   1      34.373  19.938  24.876  1.00  0.00     0.045 C 
ATOM     20  C   UNL A   1      35.329  21.089  25.035  1.00  0.00    -0.041 A 
ATOM     21  C   UNL A   1      36.691  20.908  24.785  1.00  0.00     0.004 A 
ATOM     22  C   UNL A   1      37.626  21.914  24.967  1.00  0.00     0.000 A 
ATOM     23  C   UNL A   1      35.835  23.374  25.629  1.00  0.00     0.011 A 
ATOM     24  C   UNL A   1      37.196  23.144  25.415  1.00  0.00     0.001 A 
ENDBRANCH  17  18
BRANCH  17  25
ATOM     25  N   UNL A   1      32.740  23.046  26.675  1.00  0.00    -0.326 N 
ATOM     26  C   UNL A   1      31.314  23.320  26.592  1.00  0.00     0.333 C 
ATOM     27  C   UNL A   1      33.160  22.358  27.872  1.00  0.00     0.333 C 
ATOM     28  H   UNL A   1      33.151  23.971  26.800  1.00  0.00     0.348 HD
ENDBRANCH  17  25
ENDBRANCH  14  17
ENDBRANCH  12  13
ENDBRANCH   7  12
ENDBRANCH   3   6
ENDBRANCH   1   2
BRANCH   1  29
ATOM     29  C   UNL A   1      34.734  33.498  28.002  1.00  0.00     0.023 C 
BRANCH  29  30
ATOM     30  C   UNL A   1      33.444  34.204  28.480  1.00  0.00     0.023 C 
BRANCH  30  31
ATOM     31  C   UNL A   1      33.506  35.697  28.828  1.00  0.00     0.116 C 
BRANCH  31  32
ATOM     32  N   UNL A   1      33.195  36.043  30.211  1.00  0.00    -0.352 N 
ATOM     33  C   UNL A   1      33.472  35.386  31.396  1.00  0.00     0.251 C 
ATOM     34  H   UNL A   1      32.705  36.889  30.320  1.00  0.00     0.163 HD
ATOM     35  O   UNL A   1      32.849  35.732  32.407  1.00  0.00    -0.269 OA
BRANCH  33  36
ATOM     36  C   UNL A   1      34.541  34.352  31.546  1.00  0.00     0.039 A 
ATOM     37  C   UNL A   1      34.229  33.112  32.159  1.00  0.00     0.014 A 
ATOM     38  C   UNL A   1      35.861  34.595  31.207  1.00  0.00     0.014 A 
ATOM     39  C   UNL A   1      35.230  32.180  32.486  1.00  0.00     0.010 A 
ATOM     40  C   UNL A   1      36.850  33.714  31.569  1.00  0.00     0.010 A 
ATOM     41  C   UNL A   1      36.549  32.507  32.204  1.00  0.00    -0.014 A 
BRANCH  41  42
ATOM     42  C   UNL A   1      37.745  31.695  32.406  1.00  0.00     0.031 A 
ATOM     43  C   UNL A   1      37.957  30.496  31.547  1.00  0.00     0.074 A 
ATOM     44  C   UNL A   1      38.824  32.373  32.855  1.00  0.00     0.049 A 
ATOM     45  N   UNL A   1      38.990  29.723  31.613  1.00  0.00    -0.248 NA
ATOM     46  C   UNL A   1      37.010  30.100  30.503  1.00  0.00     0.031 C 
ATOM     47  C   UNL A   1      40.197  32.240  32.367  1.00  0.00     0.029 A 
ATOM     48  N   UNL A   1      38.936  33.352  33.831  1.00  0.00    -0.354 N 
ATOM     49  C   UNL A   1      39.003  28.963  30.464  1.00  0.00     0.074 A 
ATOM     50  C   UNL A   1      37.715  29.175  29.844  1.00  0.00     0.031 C 
ATOM     51  C   UNL A   1      41.018  32.914  33.187  1.00  0.00     0.029 A 
ATOM     52  C   UNL A   1      40.231  33.281  34.351  1.00  0.00     0.049 A 
ATOM     53  H   UNL A   1      38.230  33.982  34.108  1.00  0.00     0.167 HD
ATOM     54  C   UNL A   1      40.151  28.350  30.054  1.00  0.00     0.037 A 
ATOM     55  C   UNL A   1      40.533  32.897  35.628  1.00  0.00     0.037 A 
ATOM     56  C   UNL A   1      41.279  28.678  30.916  1.00  0.00     0.049 A 
ATOM     57  C   UNL A   1      41.457  31.699  35.708  1.00  0.00     0.074 A 
ATOM     58  C   UNL A   1      42.303  29.603  30.789  1.00  0.00     0.029 A 
ATOM     59  N   UNL A   1      41.295  28.253  32.239  1.00  0.00    -0.354 N 
ATOM     60  N   UNL A   1      41.703  30.906  34.706  1.00  0.00    -0.248 NA
ATOM     61  C   UNL A   1      42.064  31.230  36.952  1.00  0.00     0.031 C 
ATOM     62  C   UNL A   1      42.927  29.747  32.050  1.00  0.00     0.029 A 
ATOM     63  C   UNL A   1      42.282  28.915  32.948  1.00  0.00     0.049 A 
ATOM     64  H   UNL A   1      40.692  27.575  32.618  1.00  0.00     0.167 HD
ATOM     65  C   UNL A   1      42.327  29.781  35.164  1.00  0.00     0.074 A 
ATOM     66  C   UNL A   1      42.602  30.063  36.559  1.00  0.00     0.031 C 
ATOM     67  C   UNL A   1      42.474  28.681  34.371  1.00  0.00     0.037 A 
BRANCH  54  68
ATOM     68  C   UNL A   1      40.296  27.679  28.708  1.00  0.00     0.064 A 
ATOM     69  C   UNL A   1      39.793  26.382  28.467  1.00  0.00     0.173 A 
ATOM     70  C   UNL A   1      40.930  28.285  27.607  1.00  0.00     0.173 A 
ATOM     71  F   UNL A   1      39.101  25.712  29.396  1.00  0.00    -0.203 F 
ATOM     72  C   UNL A   1      39.990  25.715  27.256  1.00  0.00     0.198 A 
ATOM     73  C   UNL A   1      41.170  27.598  26.412  1.00  0.00     0.198 A 
ATOM     74  F   UNL A   1      41.306  29.572  27.652  1.00  0.00    -0.203 F 
ATOM     75  F   UNL A   1      39.489  24.482  27.087  1.00  0.00    -0.200 F 
ATOM     76  C   UNL A   1      40.705  26.310  26.238  1.00  0.00     0.200 A 
ATOM     77  F   UNL A   1      41.858  28.197  25.428  1.00  0.00    -0.200 F 
ATOM     78  F   UNL A   1      40.930  25.654  25.093  1.00  0.00    -0.200 F 
ENDBRANCH  54  68
BRANCH  55  79
ATOM     79  C   UNL A   1      39.407  33.077  36.577  1.00  0.00     0.064 A 
ATOM     80  C   UNL A   1      38.555  31.994  36.832  1.00  0.00     0.173 A 
ATOM     81  C   UNL A   1      39.444  34.124  37.510  1.00  0.00     0.173 A 
ATOM     82  F   UNL A   1      38.495  30.965  35.971  1.00  0.00    -0.203 F 
ATOM     83  C   UNL A   1      37.865  31.904  38.036  1.00  0.00     0.198 A 
ATOM     84  C   UNL A   1      38.774  34.015  38.726  1.00  0.00     0.198 A 
ATOM     85  F   UNL A   1      40.236  35.187  37.306  1.00  0.00    -0.203 F 
ATOM     86  F   UNL A   1      37.128  30.818  38.296  1.00  0.00    -0.200 F 
ATOM     87  C   UNL A   1      38.014  32.890  39.001  1.00  0.00     0.200 A 
ATOM     88  F   UNL A   1      38.940  34.955  39.666  1.00  0.00    -0.200 F 
ATOM     89  F   UNL A   1      37.469  32.726  40.214  1.00  0.00    -0.200 F 
ENDBRANCH  55  79
BRANCH  67  90
ATOM     90  C   UNL A   1      42.857  27.312  34.866  1.00  0.00     0.064 A 
ATOM     91  C   UNL A   1      41.941  26.260  35.028  1.00  0.00     0.173 A 
ATOM     92  C   UNL A   1      44.215  26.980  35.072  1.00  0.00     0.173 A 
ATOM     93  F   UNL A   1      40.645  26.408  34.718  1.00  0.00    -0.203 F 
ATOM     94  C   UNL A   1      42.338  24.995  35.464  1.00  0.00     0.198 A 
ATOM     95  C   UNL A   1      44.616  25.698  35.447  1.00  0.00     0.198 A 
ATOM     96  F   UNL A   1      45.191  27.883  34.893  1.00  0.00    -0.203 F 
ATOM     97  F   UNL A   1      41.416  24.042  35.661  1.00  0.00    -0.200 F 
ATOM     98  C   UNL A   1      43.676  24.712  35.667  1.00  0.00     0.200 A 
ATOM     99  F   UNL A   1      45.921  25.420  35.577  1.00  0.00    -0.200 F 
ATOM    100  F   UNL A   1      44.057  23.487  36.053  1.00  0.00    -0.200 F 
ENDBRANCH  67  90
ENDBRANCH  41  42
ENDBRANCH  33  36
ENDBRANCH  31  32
ENDBRANCH  30  31
ENDBRANCH  29  30
ENDBRANCH   1  29
TORSDOF 16
ENDMDL
MODEL 3
REMARK VINA RESULT:     -13.0      1.340      2.302
REMARK SMILES Cc1ccccc1[C@H](C(=O)NC[C@H]1CC[C@@H](C(=O)NCCCCNC(=O)c2ccc(-c3c4nc(c(-c5c(F)c(F)c(F)c(F)c5F)c5ccc([nH]5)c(-c5c(F)c(F)c(F)c(F)c5F)c5nc(c(-c6c(F)c(F)c(F)c(F)c6F)c6ccc3[nH]6)C=C5)C=C4)cc2)CC1)[NH+](C)C
REMARK SMILES IDX 20 1 19 2 17 3 18 4 16 6 13 7 14 8 91 9 15 10 90 11 12 12
REMARK SMILES IDX 11 13 9 14 10 15 8 17 7 18 1 19 2 20 3 21 4 22 6 23 5 24
REMARK SMILES IDX 92 25 93 26 94 27 21 29 22 30 23 31 24 32 25 33 26 35 27 36
REMARK SMILES IDX 28 37 89 38 29 39 88 40 30 41 31 42 32 43 82 44 33 45 87 46
REMARK SMILES IDX 81 47 83 48 34 49 86 50 80 51 79 52 35 54 67 55 47 56 66 57
REMARK SMILES IDX 48 58 51 59 65 60 84 61 49 62 50 63 64 65 85 66 52 67 36 68
REMARK SMILES IDX 37 69 45 70 38 71 39 72 43 73 46 74 40 75 41 76 44 77 42 78
REMARK SMILES IDX 68 79 69 80 77 81 70 82 71 83 75 84 78 85 72 86 73 87 76 88
REMARK SMILES IDX 74 89 53 90 54 91 62 92 55 93 56 94 60 95 63 96 57 97 58 98
REMARK SMILES IDX 61 99 59 100
REMARK H PARENT 19 5 11 16 92 28 24 34 83 53 51 64
REMARK Flexibility Score: inf
ROOT
ATOM      1  C   UNL A   1      40.666  21.871  26.575  1.00  0.00     0.116 C 
ENDROOT
BRANCH   1   2
ATOM      2  N   UNL A   1      39.516  21.558  25.701  1.00  0.00    -0.356 N 
ATOM      3  C   UNL A   1      38.360  22.315  25.750  1.00  0.00     0.223 C 
ATOM      4  O   UNL A   1      38.382  23.426  26.286  1.00  0.00    -0.275 OA
ATOM      5  H   UNL A   1      39.573  20.799  25.076  1.00  0.00     0.163 HD
BRANCH   3   6
ATOM      6  C   UNL A   1      37.044  21.774  25.113  1.00  0.00     0.078 C 
ATOM      7  C   UNL A   1      34.445  23.488  25.248  1.00  0.00     0.008 C 
ATOM      8  C   UNL A   1      35.455  23.652  24.093  1.00  0.00     0.006 C 
ATOM      9  C   UNL A   1      34.952  22.598  26.381  1.00  0.00     0.006 C 
ATOM     10  C   UNL A   1      36.592  22.630  23.907  1.00  0.00     0.014 C 
ATOM     11  C   UNL A   1      35.842  21.422  25.985  1.00  0.00     0.014 C 
BRANCH   7  12
ATOM     12  C   UNL A   1      33.905  24.906  25.693  1.00  0.00     0.119 C 
BRANCH  12  13
ATOM     13  N   UNL A   1      32.483  25.192  25.479  1.00  0.00    -0.350 N 
ATOM     14  C   UNL A   1      31.776  26.090  24.713  1.00  0.00     0.283 C 
ATOM     15  O   UNL A   1      30.569  25.810  24.611  1.00  0.00    -0.268 OA
ATOM     16  H   UNL A   1      31.897  24.604  26.007  1.00  0.00     0.163 HD
BRANCH  14  17
ATOM     17  C   UNL A   1      32.311  27.445  24.074  1.00  0.00     0.305 C 
BRANCH  17  18
ATOM     18  C   UNL A   1      32.520  28.592  25.047  1.00  0.00     0.022 A 
ATOM     19  C   UNL A   1      30.528  29.724  23.961  1.00  0.00     0.045 C 
ATOM     20  C   UNL A   1      31.573  29.629  25.039  1.00  0.00    -0.041 A 
ATOM     21  C   UNL A   1      31.598  30.564  26.075  1.00  0.00     0.004 A 
ATOM     22  C   UNL A   1      32.568  30.561  27.064  1.00  0.00     0.000 A 
ATOM     23  C   UNL A   1      33.528  28.615  26.029  1.00  0.00     0.011 A 
ATOM     24  C   UNL A   1      33.551  29.596  27.025  1.00  0.00     0.001 A 
ENDBRANCH  17  18
BRANCH  17  25
ATOM     25  N   UNL A   1      33.320  27.234  23.008  1.00  0.00    -0.326 N 
ATOM     26  C   UNL A   1      33.062  26.115  22.114  1.00  0.00     0.333 C 
ATOM     27  C   UNL A   1      33.823  28.424  22.364  1.00  0.00     0.333 C 
ATOM     28  H   UNL A   1      34.127  26.922  23.548  1.00  0.00     0.348 HD
ENDBRANCH  17  25
ENDBRANCH  14  17
ENDBRANCH  12  13
ENDBRANCH   7  12
ENDBRANCH   3   6
ENDBRANCH   1   2
BRANCH   1  29
ATOM     29  C   UNL A   1      40.891  20.833  27.692  1.00  0.00     0.023 C 
BRANCH  29  30
ATOM     30  C   UNL A   1      41.821  19.641  27.372  1.00  0.00     0.023 C 
BRANCH  30  31
ATOM     31  C   UNL A   1      42.075  19.276  25.903  1.00  0.00     0.116 C 
BRANCH  31  32
ATOM     32  N   UNL A   1      43.474  19.215  25.494  1.00  0.00    -0.352 N 
ATOM     33  C   UNL A   1      44.357  20.212  25.122  1.00  0.00     0.251 C 
ATOM     34  H   UNL A   1      43.856  18.307  25.482  1.00  0.00     0.163 HD
ATOM     35  O   UNL A   1      45.394  19.876  24.539  1.00  0.00    -0.269 OA
BRANCH  33  36
ATOM     36  C   UNL A   1      44.176  21.656  25.463  1.00  0.00     0.039 A 
ATOM     37  C   UNL A   1      44.010  22.602  24.420  1.00  0.00     0.014 A 
ATOM     38  C   UNL A   1      44.271  22.129  26.761  1.00  0.00     0.014 A 
ATOM     39  C   UNL A   1      44.016  23.986  24.674  1.00  0.00     0.010 A 
ATOM     40  C   UNL A   1      44.330  23.478  27.011  1.00  0.00     0.010 A 
ATOM     41  C   UNL A   1      44.201  24.413  25.981  1.00  0.00    -0.014 A 
BRANCH  41  42
ATOM     42  C   UNL A   1      44.200  25.778  26.495  1.00  0.00     0.031 A 
ATOM     43  C   UNL A   1      42.897  26.463  26.724  1.00  0.00     0.074 A 
ATOM     44  C   UNL A   1      45.246  26.088  27.293  1.00  0.00     0.049 A 
ATOM     45  N   UNL A   1      42.771  27.656  27.203  1.00  0.00    -0.248 NA
ATOM     46  C   UNL A   1      41.611  25.815  26.454  1.00  0.00     0.031 C 
ATOM     47  C   UNL A   1      45.184  26.821  28.558  1.00  0.00     0.029 A 
ATOM     48  N   UNL A   1      46.596  25.796  27.169  1.00  0.00    -0.354 N 
ATOM     49  C   UNL A   1      41.458  27.801  27.593  1.00  0.00     0.074 A 
ATOM     50  C   UNL A   1      40.760  26.664  27.037  1.00  0.00     0.031 C 
ATOM     51  C   UNL A   1      46.434  27.113  28.953  1.00  0.00     0.029 A 
ATOM     52  C   UNL A   1      47.305  26.799  27.835  1.00  0.00     0.049 A 
ATOM     53  H   UNL A   1      46.983  25.023  26.696  1.00  0.00     0.167 HD
ATOM     54  C   UNL A   1      41.103  28.776  28.480  1.00  0.00     0.037 A 
ATOM     55  C   UNL A   1      48.116  27.712  27.220  1.00  0.00     0.037 A 
ATOM     56  C   UNL A   1      42.263  29.515  28.965  1.00  0.00     0.049 A 
ATOM     57  C   UNL A   1      47.715  29.153  27.463  1.00  0.00     0.074 A 
ATOM     58  C   UNL A   1      43.010  29.406  30.127  1.00  0.00     0.029 A 
ATOM     59  N   UNL A   1      43.002  30.306  28.094  1.00  0.00    -0.354 N 
ATOM     60  N   UNL A   1      46.558  29.513  27.936  1.00  0.00    -0.248 NA
ATOM     61  C   UNL A   1      48.536  30.297  27.068  1.00  0.00     0.031 C 
ATOM     62  C   UNL A   1      44.216  30.122  29.945  1.00  0.00     0.029 A 
ATOM     63  C   UNL A   1      44.208  30.664  28.672  1.00  0.00     0.049 A 
ATOM     64  H   UNL A   1      42.710  30.574  27.194  1.00  0.00     0.167 HD
ATOM     65  C   UNL A   1      46.400  30.859  27.768  1.00  0.00     0.074 A 
ATOM     66  C   UNL A   1      47.691  31.317  27.294  1.00  0.00     0.031 C 
ATOM     67  C   UNL A   1      45.187  31.457  27.943  1.00  0.00     0.037 A 
BRANCH  54  68
ATOM     68  C   UNL A   1      39.734  28.865  29.110  1.00  0.00     0.064 A 
ATOM     69  C   UNL A   1      38.630  29.402  28.413  1.00  0.00     0.173 A 
ATOM     70  C   UNL A   1      39.455  28.424  30.417  1.00  0.00     0.173 A 
ATOM     71  F   UNL A   1      38.725  29.792  27.137  1.00  0.00    -0.203 F 
ATOM     72  C   UNL A   1      37.376  29.566  29.007  1.00  0.00     0.198 A 
ATOM     73  C   UNL A   1      38.214  28.635  31.028  1.00  0.00     0.198 A 
ATOM     74  F   UNL A   1      40.371  27.748  31.127  1.00  0.00    -0.203 F 
ATOM     75  F   UNL A   1      36.365  30.084  28.294  1.00  0.00    -0.200 F 
ATOM     76  C   UNL A   1      37.175  29.212  30.325  1.00  0.00     0.200 A 
ATOM     77  F   UNL A   1      38.032  28.273  32.308  1.00  0.00    -0.200 F 
ATOM     78  F   UNL A   1      35.985  29.409  30.907  1.00  0.00    -0.200 F 
ENDBRANCH  54  68
BRANCH  55  79
ATOM     79  C   UNL A   1      48.620  27.257  25.900  1.00  0.00     0.064 A 
ATOM     80  C   UNL A   1      47.895  27.586  24.747  1.00  0.00     0.173 A 
ATOM     81  C   UNL A   1      49.970  26.901  25.756  1.00  0.00     0.173 A 
ATOM     82  F   UNL A   1      46.604  27.943  24.840  1.00  0.00    -0.203 F 
ATOM     83  C   UNL A   1      48.532  27.681  23.514  1.00  0.00     0.198 A 
ATOM     84  C   UNL A   1      50.607  27.025  24.525  1.00  0.00     0.198 A 
ATOM     85  F   UNL A   1      50.701  26.567  26.829  1.00  0.00    -0.203 F 
ATOM     86  F   UNL A   1      47.840  28.085  22.442  1.00  0.00    -0.200 F 
ATOM     87  C   UNL A   1      49.896  27.449  23.414  1.00  0.00     0.200 A 
ATOM     88  F   UNL A   1      51.929  26.826  24.435  1.00  0.00    -0.200 F 
ATOM     89  F   UNL A   1      50.532  27.686  22.259  1.00  0.00    -0.200 F 
ENDBRANCH  55  79
BRANCH  67  90
ATOM     90  C   UNL A   1      44.843  32.849  27.489  1.00  0.00     0.064 A 
ATOM     91  C   UNL A   1      44.185  33.132  26.281  1.00  0.00     0.173 A 
ATOM     92  C   UNL A   1      45.059  33.955  28.342  1.00  0.00     0.173 A 
ATOM     93  F   UNL A   1      43.791  32.153  25.455  1.00  0.00    -0.203 F 
ATOM     94  C   UNL A   1      43.859  34.436  25.905  1.00  0.00     0.198 A 
ATOM     95  C   UNL A   1      44.675  35.249  27.991  1.00  0.00     0.198 A 
ATOM     96  F   UNL A   1      45.627  33.806  29.549  1.00  0.00    -0.203 F 
ATOM     97  F   UNL A   1      43.286  34.658  24.713  1.00  0.00    -0.200 F 
ATOM     98  C   UNL A   1      44.097  35.493  26.762  1.00  0.00     0.200 A 
ATOM     99  F   UNL A   1      44.853  36.255  28.860  1.00  0.00    -0.200 F 
ATOM    100  F   UNL A   1      43.751  36.739  26.412  1.00  0.00    -0.200 F 
ENDBRANCH  67  90
ENDBRANCH  41  42
ENDBRANCH  33  36
ENDBRANCH  31  32
ENDBRANCH  30  31
ENDBRANCH  29  30
ENDBRANCH   1  29
TORSDOF 16
ENDMDL
