MODEL 1
REMARK VINA RESULT:     -11.6      0.000      0.000
REMARK SMILES CCC[NH2+][C@]1(C(=O)NCCCCNC(=O)c2ccc(-c3c4nc(c(-c5c(F)c(F)c(F)c(F)c5F)c5ccc([nH]5)c(-c5c(F)c(F)c(F)c(F)c5F)c5nc(c(-c6c(F)c(F)c(F)c(F)c6F)c6ccc3[nH]6)C=C5)C=C4)cc2)CCC[C@H](OC(C)(C)C)C1
REMARK SMILES IDX 10 1 9 2 8 3 6 4 7 5 5 7 79 8 88 9 80 10 82 11 81 12 4 13
REMARK SMILES IDX 3 16 2 17 1 18 83 19 84 20 85 21 86 22 87 23 11 24 12 25
REMARK SMILES IDX 13 26 14 27 15 29 16 30 17 31 78 32 18 33 77 34 19 35 20 36
REMARK SMILES IDX 21 37 71 38 22 39 76 40 70 41 72 42 23 43 75 44 69 45 68 46
REMARK SMILES IDX 24 48 56 49 36 50 55 51 37 52 40 53 54 54 73 55 38 56 39 57
REMARK SMILES IDX 53 59 74 60 41 61 25 62 26 63 34 64 27 65 28 66 32 67 35 68
REMARK SMILES IDX 29 69 30 70 33 71 31 72 57 73 58 74 66 75 59 76 60 77 64 78
REMARK SMILES IDX 67 79 61 80 62 81 65 82 63 83 42 84 43 85 51 86 44 87 45 88
REMARK SMILES IDX 49 89 52 90 46 91 47 92 50 93 48 94
REMARK H PARENT 8 6 4 14 4 15 13 28 72 47 40 58
REMARK Flexibility Score: inf
ROOT
ATOM      1  C   UNL A   1      32.144  30.306  26.878  1.00  0.00     0.023 C 
ENDROOT
BRANCH   1   2
ATOM      2  C   UNL A   1      31.745  29.586  25.596  1.00  0.00     0.116 C 
BRANCH   2   3
ATOM      3  N   UNL A   1      32.797  29.582  24.598  1.00  0.00    -0.351 N 
ATOM      4  C   UNL A   1      33.277  28.664  23.715  1.00  0.00     0.281 C 
ATOM      5  O   UNL A   1      34.099  29.127  22.907  1.00  0.00    -0.268 OA
ATOM      6  H   UNL A   1      33.273  30.442  24.545  1.00  0.00     0.163 HD
BRANCH   4   7
ATOM      7  C   UNL A   1      32.920  27.123  23.686  1.00  0.00     0.178 C 
ATOM      8  C   UNL A   1      33.494  26.393  22.452  1.00  0.00     0.079 C 
ATOM      9  C   UNL A   1      33.568  26.499  24.969  1.00  0.00     0.111 C 
ATOM     10  C   UNL A   1      33.530  24.871  22.528  1.00  0.00     0.010 C 
ATOM     11  C   UNL A   1      33.606  24.960  25.028  1.00  0.00     0.125 C 
ATOM     12  C   UNL A   1      34.291  24.435  23.767  1.00  0.00     0.032 C 
BRANCH   7  13
ATOM     13  N   UNL A   1      31.432  26.968  23.620  1.00  0.00    -0.334 N 
ATOM     14  H   UNL A   1      31.217  25.972  23.683  1.00  0.00     0.347 HD
ATOM     15  H   UNL A   1      31.056  27.516  24.393  1.00  0.00     0.347 HD
BRANCH  13  16
ATOM     16  C   UNL A   1      30.802  27.493  22.402  1.00  0.00     0.261 C 
BRANCH  16  17
ATOM     17  C   UNL A   1      29.688  28.506  22.712  1.00  0.00     0.058 C 
ATOM     18  C   UNL A   1      29.822  29.837  21.988  1.00  0.00     0.010 C 
ENDBRANCH  16  17
ENDBRANCH  13  16
ENDBRANCH   7  13
BRANCH  11  19
ATOM     19  O   UNL A   1      32.267  24.472  25.128  1.00  0.00    -0.372 OA
BRANCH  19  20
ATOM     20  C   UNL A   1      32.002  23.322  25.949  1.00  0.00     0.060 C 
ATOM     21  C   UNL A   1      31.850  22.034  25.137  1.00  0.00     0.042 C 
ATOM     22  C   UNL A   1      33.062  23.154  27.044  1.00  0.00     0.042 C 
ATOM     23  C   UNL A   1      30.655  23.619  26.624  1.00  0.00     0.042 C 
ENDBRANCH  19  20
ENDBRANCH  11  19
ENDBRANCH   4   7
ENDBRANCH   2   3
ENDBRANCH   1   2
BRANCH   1  24
ATOM     24  C   UNL A   1      31.811  31.801  26.883  1.00  0.00     0.023 C 
BRANCH  24  25
ATOM     25  C   UNL A   1      32.933  32.727  27.351  1.00  0.00     0.116 C 
BRANCH  25  26
ATOM     26  N   UNL A   1      32.500  34.081  27.663  1.00  0.00    -0.352 N 
ATOM     27  C   UNL A   1      33.019  34.945  28.603  1.00  0.00     0.251 C 
ATOM     28  H   UNL A   1      31.741  34.423  27.137  1.00  0.00     0.163 HD
ATOM     29  O   UNL A   1      32.507  36.033  28.809  1.00  0.00    -0.269 OA
BRANCH  27  30
ATOM     30  C   UNL A   1      34.187  34.508  29.396  1.00  0.00     0.039 A 
ATOM     31  C   UNL A   1      33.969  33.916  30.641  1.00  0.00     0.014 A 
ATOM     32  C   UNL A   1      35.480  34.629  28.881  1.00  0.00     0.014 A 
ATOM     33  C   UNL A   1      35.047  33.368  31.339  1.00  0.00     0.010 A 
ATOM     34  C   UNL A   1      36.541  34.023  29.545  1.00  0.00     0.010 A 
ATOM     35  C   UNL A   1      36.334  33.381  30.776  1.00  0.00    -0.014 A 
BRANCH  35  36
ATOM     36  C   UNL A   1      37.474  32.715  31.450  1.00  0.00     0.031 A 
ATOM     37  C   UNL A   1      38.172  31.562  30.789  1.00  0.00     0.074 A 
ATOM     38  C   UNL A   1      37.829  33.100  32.692  1.00  0.00     0.049 A 
ATOM     39  N   UNL A   1      39.140  30.807  31.244  1.00  0.00    -0.248 NA
ATOM     40  C   UNL A   1      37.696  31.187  29.449  1.00  0.00     0.031 C 
ATOM     41  C   UNL A   1      37.191  34.169  33.461  1.00  0.00     0.029 A 
ATOM     42  N   UNL A   1      38.806  32.625  33.530  1.00  0.00    -0.354 N 
ATOM     43  C   UNL A   1      39.376  29.862  30.257  1.00  0.00     0.074 A 
ATOM     44  C   UNL A   1      38.414  30.101  29.202  1.00  0.00     0.031 C 
ATOM     45  C   UNL A   1      37.810  34.287  34.646  1.00  0.00     0.029 A 
ATOM     46  C   UNL A   1      38.863  33.280  34.735  1.00  0.00     0.049 A 
ATOM     47  H   UNL A   1      39.410  31.885  33.290  1.00  0.00     0.167 HD
ATOM     48  C   UNL A   1      40.324  28.895  30.222  1.00  0.00     0.037 A 
ATOM     49  C   UNL A   1      39.675  33.090  35.792  1.00  0.00     0.037 A 
ATOM     50  C   UNL A   1      41.294  28.677  31.262  1.00  0.00     0.049 A 
ATOM     51  C   UNL A   1      40.722  32.012  35.729  1.00  0.00     0.074 A 
ATOM     52  C   UNL A   1      42.341  27.773  31.291  1.00  0.00     0.029 A 
ATOM     53  N   UNL A   1      41.334  29.374  32.461  1.00  0.00    -0.354 N 
ATOM     54  N   UNL A   1      40.988  31.172  34.758  1.00  0.00    -0.248 NA
ATOM     55  C   UNL A   1      41.588  31.861  36.907  1.00  0.00     0.031 C 
ATOM     56  C   UNL A   1      42.987  27.892  32.526  1.00  0.00     0.029 A 
ATOM     57  C   UNL A   1      42.373  28.902  33.248  1.00  0.00     0.049 A 
ATOM     58  H   UNL A   1      40.715  30.096  32.716  1.00  0.00     0.167 HD
ATOM     59  C   UNL A   1      42.065  30.412  35.194  1.00  0.00     0.074 A 
ATOM     60  C   UNL A   1      42.412  30.899  36.513  1.00  0.00     0.031 C 
ATOM     61  C   UNL A   1      42.708  29.402  34.557  1.00  0.00     0.037 A 
BRANCH  48  62
ATOM     62  C   UNL A   1      40.352  28.002  29.016  1.00  0.00     0.064 A 
ATOM     63  C   UNL A   1      41.094  28.333  27.872  1.00  0.00     0.173 A 
ATOM     64  C   UNL A   1      39.639  26.794  29.007  1.00  0.00     0.173 A 
ATOM     65  F   UNL A   1      41.785  29.483  27.825  1.00  0.00    -0.203 F 
ATOM     66  C   UNL A   1      41.089  27.508  26.750  1.00  0.00     0.198 A 
ATOM     67  C   UNL A   1      39.661  25.956  27.895  1.00  0.00     0.198 A 
ATOM     68  F   UNL A   1      38.917  26.426  30.076  1.00  0.00    -0.203 F 
ATOM     69  F   UNL A   1      41.758  27.875  25.648  1.00  0.00    -0.200 F 
ATOM     70  C   UNL A   1      40.378  26.318  26.764  1.00  0.00     0.200 A 
ATOM     71  F   UNL A   1      38.982  24.801  27.913  1.00  0.00    -0.200 F 
ATOM     72  F   UNL A   1      40.373  25.526  25.684  1.00  0.00    -0.200 F 
ENDBRANCH  48  62
BRANCH  49  73
ATOM     73  C   UNL A   1      39.553  33.967  36.985  1.00  0.00     0.064 A 
ATOM     74  C   UNL A   1      40.193  35.213  37.023  1.00  0.00     0.173 A 
ATOM     75  C   UNL A   1      38.790  33.590  38.098  1.00  0.00     0.173 A 
ATOM     76  F   UNL A   1      40.952  35.608  35.989  1.00  0.00    -0.203 F 
ATOM     77  C   UNL A   1      40.085  36.044  38.135  1.00  0.00     0.198 A 
ATOM     78  C   UNL A   1      38.662  34.432  39.201  1.00  0.00     0.198 A 
ATOM     79  F   UNL A   1      38.154  32.409  38.108  1.00  0.00    -0.203 F 
ATOM     80  F   UNL A   1      40.737  37.215  38.161  1.00  0.00    -0.200 F 
ATOM     81  C   UNL A   1      39.314  35.656  39.220  1.00  0.00     0.200 A 
ATOM     82  F   UNL A   1      37.906  34.060  40.242  1.00  0.00    -0.200 F 
ATOM     83  F   UNL A   1      39.204  36.459  40.288  1.00  0.00    -0.200 F 
ENDBRANCH  49  73
BRANCH  61  84
ATOM     84  C   UNL A   1      43.873  28.776  35.266  1.00  0.00     0.064 A 
ATOM     85  C   UNL A   1      43.711  27.674  36.118  1.00  0.00     0.173 A 
ATOM     86  C   UNL A   1      45.173  29.260  35.057  1.00  0.00     0.173 A 
ATOM     87  F   UNL A   1      42.485  27.185  36.363  1.00  0.00    -0.203 F 
ATOM     88  C   UNL A   1      44.805  27.093  36.752  1.00  0.00     0.198 A 
ATOM     89  C   UNL A   1      46.269  28.660  35.670  1.00  0.00     0.198 A 
ATOM     90  F   UNL A   1      45.382  30.310  34.247  1.00  0.00    -0.203 F 
ATOM     91  F   UNL A   1      44.623  26.069  37.596  1.00  0.00    -0.200 F 
ATOM     92  C   UNL A   1      46.084  27.582  36.522  1.00  0.00     0.200 A 
ATOM     93  F   UNL A   1      47.504  29.125  35.436  1.00  0.00    -0.200 F 
ATOM     94  F   UNL A   1      47.137  27.015  37.126  1.00  0.00    -0.200 F 
ENDBRANCH  61  84
ENDBRANCH  35  36
ENDBRANCH  27  30
ENDBRANCH  25  26
ENDBRANCH  24  25
ENDBRANCH   1  24
TORSDOF 16
ENDMDL
MODEL 2
REMARK VINA RESULT:     -11.6      0.096      1.604
REMARK SMILES CCC[NH2+][C@]1(C(=O)NCCCCNC(=O)c2ccc(-c3c4nc(c(-c5c(F)c(F)c(F)c(F)c5F)c5ccc([nH]5)c(-c5c(F)c(F)c(F)c(F)c5F)c5nc(c(-c6c(F)c(F)c(F)c(F)c6F)c6ccc3[nH]6)C=C5)C=C4)cc2)CCC[C@H](OC(C)(C)C)C1
REMARK SMILES IDX 10 1 9 2 8 3 6 4 7 5 5 7 79 8 88 9 80 10 82 11 81 12 4 13
REMARK SMILES IDX 3 16 2 17 1 18 83 19 84 20 85 21 86 22 87 23 11 24 12 25
REMARK SMILES IDX 13 26 14 27 15 29 16 30 17 31 78 32 18 33 77 34 19 35 20 36
REMARK SMILES IDX 21 37 71 38 22 39 76 40 70 41 72 42 23 43 75 44 69 45 68 46
REMARK SMILES IDX 24 48 56 49 36 50 55 51 37 52 40 53 54 54 73 55 38 56 39 57
REMARK SMILES IDX 53 59 74 60 41 61 25 62 26 63 34 64 27 65 28 66 32 67 35 68
REMARK SMILES IDX 29 69 30 70 33 71 31 72 57 73 58 74 66 75 59 76 60 77 64 78
REMARK SMILES IDX 67 79 61 80 62 81 65 82 63 83 42 84 43 85 51 86 44 87 45 88
REMARK SMILES IDX 49 89 52 90 46 91 47 92 50 93 48 94
REMARK H PARENT 8 6 4 14 4 15 13 28 72 47 40 58
REMARK Flexibility Score: inf
ROOT
ATOM      1  C   UNL A   1      32.143  30.365  26.864  1.00  0.00     0.023 C 
ENDROOT
BRANCH   1   2
ATOM      2  C   UNL A   1      31.725  29.642  25.590  1.00  0.00     0.116 C 
BRANCH   2   3
ATOM      3  N   UNL A   1      32.764  29.631  24.578  1.00  0.00    -0.351 N 
ATOM      4  C   UNL A   1      33.223  28.711  23.686  1.00  0.00     0.281 C 
ATOM      5  O   UNL A   1      34.039  29.169  22.870  1.00  0.00    -0.268 OA
ATOM      6  H   UNL A   1      33.248  30.486  24.523  1.00  0.00     0.163 HD
BRANCH   4   7
ATOM      7  C   UNL A   1      32.849  27.175  23.655  1.00  0.00     0.178 C 
ATOM      8  C   UNL A   1      33.324  26.463  22.369  1.00  0.00     0.079 C 
ATOM      9  C   UNL A   1      33.582  26.520  24.876  1.00  0.00     0.111 C 
ATOM     10  C   UNL A   1      33.350  24.939  22.415  1.00  0.00     0.010 C 
ATOM     11  C   UNL A   1      33.608  24.980  24.904  1.00  0.00     0.125 C 
ATOM     12  C   UNL A   1      34.194  24.473  23.587  1.00  0.00     0.032 C 
BRANCH   7  13
ATOM     13  N   UNL A   1      31.358  27.034  23.694  1.00  0.00    -0.334 N 
ATOM     14  H   UNL A   1      31.140  26.057  23.894  1.00  0.00     0.347 HD
ATOM     15  H   UNL A   1      31.033  27.679  24.414  1.00  0.00     0.347 HD
BRANCH  13  16
ATOM     16  C   UNL A   1      30.661  27.413  22.459  1.00  0.00     0.261 C 
BRANCH  16  17
ATOM     17  C   UNL A   1      29.629  28.527  22.691  1.00  0.00     0.058 C 
ATOM     18  C   UNL A   1      29.936  29.836  21.977  1.00  0.00     0.010 C 
ENDBRANCH  16  17
ENDBRANCH  13  16
ENDBRANCH   7  13
BRANCH  11  19
ATOM     19  O   UNL A   1      32.275  24.502  25.093  1.00  0.00    -0.372 OA
BRANCH  19  20
ATOM     20  C   UNL A   1      32.057  23.342  25.912  1.00  0.00     0.060 C 
ATOM     21  C   UNL A   1      31.842  22.067  25.093  1.00  0.00     0.042 C 
ATOM     22  C   UNL A   1      33.188  23.150  26.930  1.00  0.00     0.042 C 
ATOM     23  C   UNL A   1      30.761  23.636  26.681  1.00  0.00     0.042 C 
ENDBRANCH  19  20
ENDBRANCH  11  19
ENDBRANCH   4   7
ENDBRANCH   2   3
ENDBRANCH   1   2
BRANCH   1  24
ATOM     24  C   UNL A   1      31.788  31.855  26.881  1.00  0.00     0.023 C 
BRANCH  24  25
ATOM     25  C   UNL A   1      32.907  32.796  27.324  1.00  0.00     0.116 C 
BRANCH  25  26
ATOM     26  N   UNL A   1      32.460  34.141  27.658  1.00  0.00    -0.352 N 
ATOM     27  C   UNL A   1      32.973  34.995  28.610  1.00  0.00     0.251 C 
ATOM     28  H   UNL A   1      31.697  34.483  27.139  1.00  0.00     0.163 HD
ATOM     29  O   UNL A   1      32.450  36.075  28.834  1.00  0.00    -0.269 OA
BRANCH  27  30
ATOM     30  C   UNL A   1      34.147  34.559  29.394  1.00  0.00     0.039 A 
ATOM     31  C   UNL A   1      33.945  34.048  30.677  1.00  0.00     0.014 A 
ATOM     32  C   UNL A   1      35.427  34.598  28.836  1.00  0.00     0.014 A 
ATOM     33  C   UNL A   1      35.022  33.498  31.375  1.00  0.00     0.010 A 
ATOM     34  C   UNL A   1      36.484  33.990  29.504  1.00  0.00     0.010 A 
ATOM     35  C   UNL A   1      36.291  33.429  30.776  1.00  0.00    -0.014 A 
BRANCH  35  36
ATOM     36  C   UNL A   1      37.425  32.757  31.455  1.00  0.00     0.031 A 
ATOM     37  C   UNL A   1      38.116  31.598  30.800  1.00  0.00     0.074 A 
ATOM     38  C   UNL A   1      37.779  33.144  32.696  1.00  0.00     0.049 A 
ATOM     39  N   UNL A   1      39.079  30.838  31.261  1.00  0.00    -0.248 NA
ATOM     40  C   UNL A   1      37.641  31.220  29.461  1.00  0.00     0.031 C 
ATOM     41  C   UNL A   1      37.147  34.221  33.460  1.00  0.00     0.029 A 
ATOM     42  N   UNL A   1      38.752  32.667  33.538  1.00  0.00    -0.354 N 
ATOM     43  C   UNL A   1      39.310  29.887  30.277  1.00  0.00     0.074 A 
ATOM     44  C   UNL A   1      38.353  30.129  29.219  1.00  0.00     0.031 C 
ATOM     45  C   UNL A   1      37.764  34.339  34.646  1.00  0.00     0.029 A 
ATOM     46  C   UNL A   1      38.810  33.326  34.742  1.00  0.00     0.049 A 
ATOM     47  H   UNL A   1      39.351  31.922  33.303  1.00  0.00     0.167 HD
ATOM     48  C   UNL A   1      40.252  28.913  30.248  1.00  0.00     0.037 A 
ATOM     49  C   UNL A   1      39.618  33.134  35.801  1.00  0.00     0.037 A 
ATOM     50  C   UNL A   1      41.219  28.694  31.292  1.00  0.00     0.049 A 
ATOM     51  C   UNL A   1      40.659  32.049  35.744  1.00  0.00     0.074 A 
ATOM     52  C   UNL A   1      42.259  27.783  31.326  1.00  0.00     0.029 A 
ATOM     53  N   UNL A   1      41.260  29.395  32.488  1.00  0.00    -0.354 N 
ATOM     54  N   UNL A   1      40.921  31.204  34.778  1.00  0.00    -0.248 NA
ATOM     55  C   UNL A   1      41.521  31.896  36.925  1.00  0.00     0.031 C 
ATOM     56  C   UNL A   1      42.903  27.902  32.562  1.00  0.00     0.029 A 
ATOM     57  C   UNL A   1      42.294  28.919  33.279  1.00  0.00     0.049 A 
ATOM     58  H   UNL A   1      40.646  30.121  32.739  1.00  0.00     0.167 HD
ATOM     59  C   UNL A   1      41.992  30.438  35.218  1.00  0.00     0.074 A 
ATOM     60  C   UNL A   1      42.338  30.928  36.537  1.00  0.00     0.031 C 
ATOM     61  C   UNL A   1      42.629  29.422  34.587  1.00  0.00     0.037 A 
BRANCH  48  62
ATOM     62  C   UNL A   1      40.277  28.016  29.046  1.00  0.00     0.064 A 
ATOM     63  C   UNL A   1      39.573  26.802  29.019  1.00  0.00     0.173 A 
ATOM     64  C   UNL A   1      41.003  28.377  27.902  1.00  0.00     0.173 A 
ATOM     65  F   UNL A   1      38.871  26.404  30.092  1.00  0.00    -0.203 F 
ATOM     66  C   UNL A   1      39.627  25.966  27.907  1.00  0.00     0.198 A 
ATOM     67  C   UNL A   1      41.030  27.553  26.779  1.00  0.00     0.198 A 
ATOM     68  F   UNL A   1      41.690  29.528  27.872  1.00  0.00    -0.203 F 
ATOM     69  F   UNL A   1      38.994  24.784  27.928  1.00  0.00    -0.200 F 
ATOM     70  C   UNL A   1      40.350  26.344  26.786  1.00  0.00     0.200 A 
ATOM     71  F   UNL A   1      41.721  27.924  25.693  1.00  0.00    -0.200 F 
ATOM     72  F   UNL A   1      40.402  25.538  25.717  1.00  0.00    -0.200 F 
ENDBRANCH  48  62
BRANCH  49  73
ATOM     73  C   UNL A   1      39.499  34.017  36.990  1.00  0.00     0.064 A 
ATOM     74  C   UNL A   1      38.758  33.612  38.109  1.00  0.00     0.173 A 
ATOM     75  C   UNL A   1      40.128  35.269  37.039  1.00  0.00     0.173 A 
ATOM     76  F   UNL A   1      38.122  32.431  38.100  1.00  0.00    -0.203 F 
ATOM     77  C   UNL A   1      38.641  34.432  39.229  1.00  0.00     0.198 A 
ATOM     78  C   UNL A   1      40.030  36.077  38.170  1.00  0.00     0.198 A 
ATOM     79  F   UNL A   1      40.851  35.698  35.995  1.00  0.00    -0.203 F 
ATOM     80  F   UNL A   1      37.898  34.037  40.272  1.00  0.00    -0.200 F 
ATOM     81  C   UNL A   1      39.283  35.661  39.261  1.00  0.00     0.200 A 
ATOM     82  F   UNL A   1      40.662  37.259  38.203  1.00  0.00    -0.200 F 
ATOM     83  F   UNL A   1      39.176  36.446  40.342  1.00  0.00    -0.200 F 
ENDBRANCH  49  73
BRANCH  61  84
ATOM     84  C   UNL A   1      43.789  28.791  35.301  1.00  0.00     0.064 A 
ATOM     85  C   UNL A   1      43.611  27.724  36.194  1.00  0.00     0.173 A 
ATOM     86  C   UNL A   1      45.098  29.233  35.056  1.00  0.00     0.173 A 
ATOM     87  F   UNL A   1      42.378  27.276  36.474  1.00  0.00    -0.203 F 
ATOM     88  C   UNL A   1      44.700  27.138  36.833  1.00  0.00     0.198 A 
ATOM     89  C   UNL A   1      46.187  28.626  35.674  1.00  0.00     0.198 A 
ATOM     90  F   UNL A   1      45.321  30.247  34.206  1.00  0.00    -0.203 F 
ATOM     91  F   UNL A   1      44.504  26.149  37.715  1.00  0.00    -0.200 F 
ATOM     92  C   UNL A   1      45.987  27.583  36.567  1.00  0.00     0.200 A 
ATOM     93  F   UNL A   1      47.429  29.049  35.406  1.00  0.00    -0.200 F 
ATOM     94  F   UNL A   1      47.034  27.011  37.176  1.00  0.00    -0.200 F 
ENDBRANCH  61  84
ENDBRANCH  35  36
ENDBRANCH  27  30
ENDBRANCH  25  26
ENDBRANCH  24  25
ENDBRANCH   1  24
TORSDOF 16
ENDMDL
MODEL 3
REMARK VINA RESULT:     -11.5      0.521      7.278
REMARK SMILES CCC[NH2+][C@]1(C(=O)NCCCCNC(=O)c2ccc(-c3c4nc(c(-c5c(F)c(F)c(F)c(F)c5F)c5ccc([nH]5)c(-c5c(F)c(F)c(F)c(F)c5F)c5nc(c(-c6c(F)c(F)c(F)c(F)c6F)c6ccc3[nH]6)C=C5)C=C4)cc2)CCC[C@H](OC(C)(C)C)C1
REMARK SMILES IDX 10 1 9 2 8 3 6 4 7 5 5 7 79 8 88 9 80 10 82 11 81 12 4 13
REMARK SMILES IDX 3 16 2 17 1 18 83 19 84 20 85 21 86 22 87 23 11 24 12 25
REMARK SMILES IDX 13 26 14 27 15 29 16 30 17 31 78 32 18 33 77 34 19 35 20 36
REMARK SMILES IDX 21 37 71 38 22 39 76 40 70 41 72 42 23 43 75 44 69 45 68 46
REMARK SMILES IDX 24 48 56 49 36 50 55 51 37 52 40 53 54 54 73 55 38 56 39 57
REMARK SMILES IDX 53 59 74 60 41 61 25 62 26 63 34 64 27 65 28 66 32 67 35 68
REMARK SMILES IDX 29 69 30 70 33 71 31 72 57 73 58 74 66 75 59 76 60 77 64 78
REMARK SMILES IDX 67 79 61 80 62 81 65 82 63 83 42 84 43 85 51 86 44 87 45 88
REMARK SMILES IDX 49 89 52 90 46 91 47 92 50 93 48 94
REMARK H PARENT 8 6 4 14 4 15 13 28 72 47 40 58
REMARK Flexibility Score: inf
ROOT
ATOM      1  C   UNL A   1      32.106  30.420  26.816  1.00  0.00     0.023 C 
ENDROOT
BRANCH   1   2
ATOM      2  C   UNL A   1      31.670  29.728  25.531  1.00  0.00     0.116 C 
BRANCH   2   3
ATOM      3  N   UNL A   1      32.708  29.703  24.519  1.00  0.00    -0.351 N 
ATOM      4  C   UNL A   1      33.183  28.764  23.656  1.00  0.00     0.281 C 
ATOM      5  O   UNL A   1      33.992  29.209  22.826  1.00  0.00    -0.268 OA
ATOM      6  H   UNL A   1      33.178  30.564  24.437  1.00  0.00     0.163 HD
BRANCH   4   7
ATOM      7  C   UNL A   1      32.836  27.221  23.674  1.00  0.00     0.178 C 
ATOM      8  C   UNL A   1      33.337  26.474  22.418  1.00  0.00     0.079 C 
ATOM      9  C   UNL A   1      33.566  26.621  24.923  1.00  0.00     0.111 C 
ATOM     10  C   UNL A   1      33.388  24.954  22.516  1.00  0.00     0.010 C 
ATOM     11  C   UNL A   1      33.618  25.084  25.004  1.00  0.00     0.125 C 
ATOM     12  C   UNL A   1      34.227  24.542  23.711  1.00  0.00     0.032 C 
BRANCH   7  13
ATOM     13  N   UNL A   1      31.348  27.056  23.703  1.00  0.00    -0.334 N 
ATOM     14  H   UNL A   1      31.143  26.070  23.871  1.00  0.00     0.347 HD
ATOM     15  H   UNL A   1      31.009  27.674  24.440  1.00  0.00     0.347 HD
BRANCH  13  16
ATOM     16  C   UNL A   1      30.649  27.462  22.476  1.00  0.00     0.261 C 
BRANCH  16  17
ATOM     17  C   UNL A   1      29.542  28.492  22.750  1.00  0.00     0.058 C 
ATOM     18  C   UNL A   1      29.802  29.874  22.167  1.00  0.00     0.010 C 
ENDBRANCH  16  17
ENDBRANCH  13  16
ENDBRANCH   7  13
BRANCH  11  19
ATOM     19  O   UNL A   1      32.291  24.589  25.195  1.00  0.00    -0.372 OA
BRANCH  19  20
ATOM     20  C   UNL A   1      32.099  23.366  25.923  1.00  0.00     0.060 C 
ATOM     21  C   UNL A   1      31.837  22.165  25.011  1.00  0.00     0.042 C 
ATOM     22  C   UNL A   1      33.271  23.083  26.871  1.00  0.00     0.042 C 
ATOM     23  C   UNL A   1      30.840  23.601  26.771  1.00  0.00     0.042 C 
ENDBRANCH  19  20
ENDBRANCH  11  19
ENDBRANCH   4   7
ENDBRANCH   2   3
ENDBRANCH   1   2
BRANCH   1  24
ATOM     24  C   UNL A   1      31.746  31.907  26.876  1.00  0.00     0.023 C 
BRANCH  24  25
ATOM     25  C   UNL A   1      32.905  32.855  27.182  1.00  0.00     0.116 C 
BRANCH  25  26
ATOM     26  N   UNL A   1      32.494  34.179  27.627  1.00  0.00    -0.352 N 
ATOM     27  C   UNL A   1      33.021  34.934  28.652  1.00  0.00     0.251 C 
ATOM     28  H   UNL A   1      31.744  34.586  27.135  1.00  0.00     0.163 HD
ATOM     29  O   UNL A   1      32.527  36.005  28.965  1.00  0.00    -0.269 OA
BRANCH  27  30
ATOM     30  C   UNL A   1      34.176  34.398  29.403  1.00  0.00     0.039 A 
ATOM     31  C   UNL A   1      33.938  33.661  30.565  1.00  0.00     0.014 A 
ATOM     32  C   UNL A   1      35.477  34.573  28.925  1.00  0.00     0.014 A 
ATOM     33  C   UNL A   1      35.003  33.026  31.206  1.00  0.00     0.010 A 
ATOM     34  C   UNL A   1      36.526  33.886  29.525  1.00  0.00     0.010 A 
ATOM     35  C   UNL A   1      36.298  33.101  30.667  1.00  0.00    -0.014 A 
BRANCH  35  36
ATOM     36  C   UNL A   1      37.426  32.352  31.272  1.00  0.00     0.031 A 
ATOM     37  C   UNL A   1      37.917  32.708  32.644  1.00  0.00     0.074 A 
ATOM     38  C   UNL A   1      38.057  31.404  30.551  1.00  0.00     0.049 A 
ATOM     39  N   UNL A   1      38.931  32.219  33.315  1.00  0.00    -0.248 NA
ATOM     40  C   UNL A   1      37.193  33.779  33.345  1.00  0.00     0.031 C 
ATOM     41  C   UNL A   1      37.709  31.008  29.186  1.00  0.00     0.029 A 
ATOM     42  N   UNL A   1      39.132  30.611  30.863  1.00  0.00    -0.354 N 
ATOM     43  C   UNL A   1      38.973  32.933  34.504  1.00  0.00     0.074 A 
ATOM     44  C   UNL A   1      37.921  33.924  34.442  1.00  0.00     0.031 C 
ATOM     45  C   UNL A   1      38.537  30.029  28.788  1.00  0.00     0.029 A 
ATOM     46  C   UNL A   1      39.495  29.753  29.854  1.00  0.00     0.049 A 
ATOM     47  H   UNL A   1      39.599  30.652  31.729  1.00  0.00     0.167 HD
ATOM     48  C   UNL A   1      39.801  32.762  35.563  1.00  0.00     0.037 A 
ATOM     49  C   UNL A   1      40.488  28.846  29.797  1.00  0.00     0.037 A 
ATOM     50  C   UNL A   1      40.829  31.757  35.630  1.00  0.00     0.049 A 
ATOM     51  C   UNL A   1      41.391  28.671  30.987  1.00  0.00     0.074 A 
ATOM     52  C   UNL A   1      41.672  31.454  36.684  1.00  0.00     0.029 A 
ATOM     53  N   UNL A   1      41.154  30.891  34.596  1.00  0.00    -0.354 N 
ATOM     54  N   UNL A   1      41.376  29.299  32.137  1.00  0.00    -0.248 NA
ATOM     55  C   UNL A   1      42.449  27.656  30.872  1.00  0.00     0.031 C 
ATOM     56  C   UNL A   1      42.537  30.434  36.273  1.00  0.00     0.029 A 
ATOM     57  C   UNL A   1      42.203  30.070  34.979  1.00  0.00     0.049 A 
ATOM     58  H   UNL A   1      40.708  30.866  33.720  1.00  0.00     0.167 HD
ATOM     59  C   UNL A   1      42.398  28.739  32.893  1.00  0.00     0.074 A 
ATOM     60  C   UNL A   1      43.007  27.712  32.073  1.00  0.00     0.031 C 
ATOM     61  C   UNL A   1      42.794  29.049  34.151  1.00  0.00     0.037 A 
BRANCH  48  62
ATOM     62  C   UNL A   1      39.622  33.685  36.732  1.00  0.00     0.064 A 
ATOM     63  C   UNL A   1      40.278  34.924  36.798  1.00  0.00     0.173 A 
ATOM     64  C   UNL A   1      38.777  33.334  37.795  1.00  0.00     0.173 A 
ATOM     65  F   UNL A   1      41.107  35.303  35.813  1.00  0.00    -0.203 F 
ATOM     66  C   UNL A   1      40.125  35.760  37.902  1.00  0.00     0.198 A 
ATOM     67  C   UNL A   1      38.601  34.186  38.883  1.00  0.00     0.198 A 
ATOM     68  F   UNL A   1      38.122  32.164  37.781  1.00  0.00    -0.203 F 
ATOM     69  F   UNL A   1      40.808  36.911  37.969  1.00  0.00    -0.200 F 
ATOM     70  C   UNL A   1      39.282  35.392  38.940  1.00  0.00     0.200 A 
ATOM     71  F   UNL A   1      37.778  33.835  39.881  1.00  0.00    -0.200 F 
ATOM     72  F   UNL A   1      39.136  36.196  40.002  1.00  0.00    -0.200 F 
ENDBRANCH  48  62
BRANCH  49  73
ATOM     73  C   UNL A   1      40.652  28.006  28.583  1.00  0.00     0.064 A 
ATOM     74  C   UNL A   1      41.442  28.446  27.512  1.00  0.00     0.173 A 
ATOM     75  C   UNL A   1      40.039  26.751  28.471  1.00  0.00     0.173 A 
ATOM     76  F   UNL A   1      42.032  29.650  27.565  1.00  0.00    -0.203 F 
ATOM     77  C   UNL A   1      41.603  27.666  26.369  1.00  0.00     0.198 A 
ATOM     78  C   UNL A   1      40.221  25.961  27.338  1.00  0.00     0.198 A 
ATOM     79  F   UNL A   1      39.278  26.284  29.471  1.00  0.00    -0.203 F 
ATOM     80  F   UNL A   1      42.336  28.125  25.344  1.00  0.00    -0.200 F 
ATOM     81  C   UNL A   1      40.999  26.421  26.286  1.00  0.00     0.200 A 
ATOM     82  F   UNL A   1      39.646  24.753  27.266  1.00  0.00    -0.200 F 
ATOM     83  F   UNL A   1      41.160  25.668  25.189  1.00  0.00    -0.200 F 
ENDBRANCH  49  73
BRANCH  61  84
ATOM     84  C   UNL A   1      43.922  28.246  34.733  1.00  0.00     0.064 A 
ATOM     85  C   UNL A   1      43.694  27.036  35.403  1.00  0.00     0.173 A 
ATOM     86  C   UNL A   1      45.249  28.675  34.580  1.00  0.00     0.173 A 
ATOM     87  F   UNL A   1      42.441  26.592  35.589  1.00  0.00    -0.203 F 
ATOM     88  C   UNL A   1      44.753  26.295  35.919  1.00  0.00     0.198 A 
ATOM     89  C   UNL A   1      46.307  27.917  35.073  1.00  0.00     0.198 A 
ATOM     90  F   UNL A   1      45.520  29.824  33.942  1.00  0.00    -0.203 F 
ATOM     91  F   UNL A   1      44.510  25.163  36.594  1.00  0.00    -0.200 F 
ATOM     92  C   UNL A   1      46.059  26.732  35.747  1.00  0.00     0.200 A 
ATOM     93  F   UNL A   1      47.568  28.335  34.894  1.00  0.00    -0.200 F 
ATOM     94  F   UNL A   1      47.077  26.012  36.237  1.00  0.00    -0.200 F 
ENDBRANCH  61  84
ENDBRANCH  35  36
ENDBRANCH  27  30
ENDBRANCH  25  26
ENDBRANCH  24  25
ENDBRANCH   1  24
TORSDOF 16
ENDMDL
