MODEL 1
REMARK VINA RESULT:     -12.4      0.000      0.000
REMARK SMILES CCOC(=O)C1=NN(c2ccc([N+](=O)[O-])cc2C(F)(F)F)[C@@](C)(C(=O)NCCCCNC(=O)c2ccc(-c3c4nc(c(-c5c(F)c(F)c(F)c(F)c5F)c5ccc([nH]5)c(-c5c(F)c(F)c(F)c(F)c5F)c5nc(c(-c6c(F)c(F)c(F)c(F)c6F)c6ccc3[nH]6)C=C5)C=C4)cc2)C1
REMARK SMILES IDX 28 1 27 2 26 3 24 4 25 5 22 7 6 8 7 9 97 10 8 11 23 12 4 13
REMARK SMILES IDX 5 14 3 15 2 16 1 17 9 18 10 19 17 20 11 21 16 22 12 23 18 24
REMARK SMILES IDX 19 25 20 26 21 27 13 28 14 29 15 30 29 31 30 32 31 33 32 34
REMARK SMILES IDX 33 36 34 37 35 38 96 39 36 40 95 41 37 42 38 43 39 44 89 45
REMARK SMILES IDX 40 46 94 47 88 48 90 49 41 50 93 51 87 52 86 53 42 55 74 56
REMARK SMILES IDX 54 57 73 58 55 59 58 60 72 61 91 62 56 63 57 64 71 66 92 67
REMARK SMILES IDX 59 68 43 69 44 70 52 71 45 72 46 73 50 74 53 75 47 76 48 77
REMARK SMILES IDX 51 78 49 79 75 80 76 81 84 82 77 83 78 84 82 85 85 86 79 87
REMARK SMILES IDX 80 88 83 89 81 90 60 91 61 92 69 93 62 94 63 95 67 96 70 97
REMARK SMILES IDX 64 98 65 99 68 100 66 101
REMARK H PARENT 26 6 31 35 90 54 58 65
REMARK Flexibility Score: inf
ROOT
ATOM      1  C   UNL A   1      35.416  23.720  23.889  1.00  0.00     0.023 C 
ENDROOT
BRANCH   1   2
ATOM      2  C   UNL A   1      34.755  24.822  24.717  1.00  0.00     0.116 C 
BRANCH   2   3
ATOM      3  N   UNL A   1      34.234  25.883  23.877  1.00  0.00    -0.354 N 
ATOM      4  C   UNL A   1      33.039  26.536  23.850  1.00  0.00     0.248 C 
ATOM      5  O   UNL A   1      32.914  27.332  22.908  1.00  0.00    -0.272 OA
ATOM      6  H   UNL A   1      34.869  26.191  23.191  1.00  0.00     0.163 HD
BRANCH   4   7
ATOM      7  C   UNL A   1      31.891  26.324  24.885  1.00  0.00     0.144 C 
ATOM      8  C   UNL A   1      29.921  26.949  23.839  1.00  0.00     0.149 C 
ATOM      9  N   UNL A   1      29.933  25.655  23.731  1.00  0.00    -0.169 NA
ATOM     10  C   UNL A   1      30.927  27.536  24.770  1.00  0.00     0.106 C 
ATOM     11  N   UNL A   1      30.975  25.211  24.505  1.00  0.00    -0.249 N 
ATOM     12  C   UNL A   1      32.372  26.261  26.332  1.00  0.00     0.048 C 
BRANCH   8  13
ATOM     13  C   UNL A   1      28.947  27.853  23.127  1.00  0.00     0.354 C 
ATOM     14  O   UNL A   1      27.762  27.856  23.410  1.00  0.00    -0.245 OA
BRANCH  13  15
ATOM     15  O   UNL A   1      29.570  28.576  22.179  1.00  0.00    -0.461 OA
BRANCH  15  16
ATOM     16  C   UNL A   1      29.407  29.997  22.273  1.00  0.00     0.230 C 
ATOM     17  C   UNL A   1      28.403  30.493  21.249  1.00  0.00     0.049 C 
ENDBRANCH  15  16
ENDBRANCH  13  15
ENDBRANCH   8  13
BRANCH  11  18
ATOM     18  C   UNL A   1      31.344  23.885  24.315  1.00  0.00     0.073 A 
ATOM     19  C   UNL A   1      31.873  23.488  23.069  1.00  0.00     0.036 A 
ATOM     20  C   UNL A   1      31.153  22.902  25.305  1.00  0.00     0.088 A 
ATOM     21  C   UNL A   1      32.283  22.176  22.824  1.00  0.00     0.088 A 
ATOM     22  C   UNL A   1      31.595  21.579  25.068  1.00  0.00     0.101 A 
ATOM     23  C   UNL A   1      32.163  21.227  23.837  1.00  0.00     0.270 A 
BRANCH  20  24
ATOM     24  C   UNL A   1      30.495  23.197  26.633  1.00  0.00     0.418 C 
ATOM     25  F   UNL A   1      29.646  22.202  27.024  1.00  0.00    -0.166 F 
ATOM     26  F   UNL A   1      31.417  23.294  27.634  1.00  0.00    -0.166 F 
ATOM     27  F   UNL A   1      29.761  24.340  26.691  1.00  0.00    -0.166 F 
ENDBRANCH  20  24
BRANCH  23  28
ATOM     28  N   UNL A   1      32.646  19.857  23.617  1.00  0.00     0.062 N 
ATOM     29  O   UNL A   1      33.506  19.420  24.392  1.00  0.00    -0.258 OA
ATOM     30  O   UNL A   1      32.144  19.215  22.684  1.00  0.00    -0.258 OA
ENDBRANCH  23  28
ENDBRANCH  11  18
ENDBRANCH   4   7
ENDBRANCH   2   3
ENDBRANCH   1   2
BRANCH   1  31
ATOM     31  C   UNL A   1      35.528  22.354  24.572  1.00  0.00     0.023 C 
BRANCH  31  32
ATOM     32  C   UNL A   1      36.391  22.316  25.830  1.00  0.00     0.116 C 
BRANCH  32  33
ATOM     33  N   UNL A   1      37.350  21.224  25.816  1.00  0.00    -0.352 N 
ATOM     34  C   UNL A   1      38.704  21.243  26.042  1.00  0.00     0.251 C 
ATOM     35  H   UNL A   1      36.971  20.337  25.615  1.00  0.00     0.163 HD
ATOM     36  O   UNL A   1      39.373  20.233  25.850  1.00  0.00    -0.269 OA
BRANCH  34  37
ATOM     37  C   UNL A   1      39.367  22.481  26.498  1.00  0.00     0.039 A 
ATOM     38  C   UNL A   1      40.403  22.382  27.432  1.00  0.00     0.014 A 
ATOM     39  C   UNL A   1      38.953  23.734  26.035  1.00  0.00     0.014 A 
ATOM     40  C   UNL A   1      41.070  23.533  27.856  1.00  0.00     0.010 A 
ATOM     41  C   UNL A   1      39.636  24.880  26.435  1.00  0.00     0.010 A 
ATOM     42  C   UNL A   1      40.705  24.785  27.340  1.00  0.00    -0.014 A 
BRANCH  42  43
ATOM     43  C   UNL A   1      41.440  26.013  27.721  1.00  0.00     0.031 A 
ATOM     44  C   UNL A   1      40.752  27.092  28.500  1.00  0.00     0.074 A 
ATOM     45  C   UNL A   1      42.700  26.188  27.288  1.00  0.00     0.049 A 
ATOM     46  N   UNL A   1      41.174  28.297  28.787  1.00  0.00    -0.248 NA
ATOM     47  C   UNL A   1      39.406  26.784  29.005  1.00  0.00     0.031 C 
ATOM     48  C   UNL A   1      43.465  25.228  26.492  1.00  0.00     0.029 A 
ATOM     49  N   UNL A   1      43.553  27.252  27.440  1.00  0.00    -0.354 N 
ATOM     50  C   UNL A   1      40.125  28.910  29.457  1.00  0.00     0.074 A 
ATOM     51  C   UNL A   1      39.058  27.937  29.559  1.00  0.00     0.031 C 
ATOM     52  C   UNL A   1      44.675  25.747  26.224  1.00  0.00     0.029 A 
ATOM     53  C   UNL A   1      44.759  27.081  26.812  1.00  0.00     0.049 A 
ATOM     54  H   UNL A   1      43.320  28.061  27.952  1.00  0.00     0.167 HD
ATOM     55  C   UNL A   1      40.057  30.177  29.928  1.00  0.00     0.037 A 
ATOM     56  C   UNL A   1      45.811  27.914  26.711  1.00  0.00     0.037 A 
ATOM     57  C   UNL A   1      41.130  31.131  29.879  1.00  0.00     0.049 A 
ATOM     58  C   UNL A   1      45.750  29.272  27.342  1.00  0.00     0.074 A 
ATOM     59  C   UNL A   1      41.162  32.426  30.368  1.00  0.00     0.029 A 
ATOM     60  N   UNL A   1      42.374  30.883  29.319  1.00  0.00    -0.354 N 
ATOM     61  N   UNL A   1      44.752  29.844  27.968  1.00  0.00    -0.248 NA
ATOM     62  C   UNL A   1      46.961  30.100  27.251  1.00  0.00     0.031 C 
ATOM     63  C   UNL A   1      42.430  32.961  30.106  1.00  0.00     0.029 A 
ATOM     64  C   UNL A   1      43.184  31.998  29.457  1.00  0.00     0.049 A 
ATOM     65  H   UNL A   1      42.640  30.040  28.886  1.00  0.00     0.167 HD
ATOM     66  C   UNL A   1      45.208  31.097  28.342  1.00  0.00     0.074 A 
ATOM     67  C   UNL A   1      46.578  31.202  27.882  1.00  0.00     0.031 C 
ATOM     68  C   UNL A   1      44.544  32.078  29.000  1.00  0.00     0.037 A 
BRANCH  55  69
ATOM     69  C   UNL A   1      38.755  30.609  30.519  1.00  0.00     0.064 A 
ATOM     70  C   UNL A   1      37.703  31.064  29.713  1.00  0.00     0.173 A 
ATOM     71  C   UNL A   1      38.556  30.552  31.905  1.00  0.00     0.173 A 
ATOM     72  F   UNL A   1      37.859  31.149  28.384  1.00  0.00    -0.203 F 
ATOM     73  C   UNL A   1      36.493  31.454  30.280  1.00  0.00     0.198 A 
ATOM     74  C   UNL A   1      37.343  30.937  32.466  1.00  0.00     0.198 A 
ATOM     75  F   UNL A   1      39.542  30.131  32.712  1.00  0.00    -0.203 F 
ATOM     76  F   UNL A   1      35.503  31.904  29.497  1.00  0.00    -0.200 F 
ATOM     77  C   UNL A   1      36.313  31.388  31.654  1.00  0.00     0.200 A 
ATOM     78  F   UNL A   1      37.171  30.878  33.795  1.00  0.00    -0.200 F 
ATOM     79  F   UNL A   1      35.149  31.769  32.198  1.00  0.00    -0.200 F 
ENDBRANCH  55  69
BRANCH  56  80
ATOM     80  C   UNL A   1      47.015  27.475  25.973  1.00  0.00     0.064 A 
ATOM     81  C   UNL A   1      47.107  27.647  24.587  1.00  0.00     0.173 A 
ATOM     82  C   UNL A   1      48.103  26.903  26.645  1.00  0.00     0.173 A 
ATOM     83  F   UNL A   1      46.079  28.178  23.909  1.00  0.00    -0.203 F 
ATOM     84  C   UNL A   1      48.250  27.258  23.893  1.00  0.00     0.198 A 
ATOM     85  C   UNL A   1      49.248  26.521  25.950  1.00  0.00     0.198 A 
ATOM     86  F   UNL A   1      48.052  26.722  27.971  1.00  0.00    -0.203 F 
ATOM     87  F   UNL A   1      48.313  27.422  22.565  1.00  0.00    -0.200 F 
ATOM     88  C   UNL A   1      49.320  26.698  24.576  1.00  0.00     0.200 A 
ATOM     89  F   UNL A   1      50.281  25.981  26.611  1.00  0.00    -0.200 F 
ATOM     90  F   UNL A   1      50.421  26.326  23.908  1.00  0.00    -0.200 F 
ENDBRANCH  56  80
BRANCH  68  91
ATOM     91  C   UNL A   1      45.295  33.342  29.263  1.00  0.00     0.064 A 
ATOM     92  C   UNL A   1      45.262  34.400  28.346  1.00  0.00     0.173 A 
ATOM     93  C   UNL A   1      46.024  33.509  30.448  1.00  0.00     0.173 A 
ATOM     94  F   UNL A   1      44.587  34.275  27.194  1.00  0.00    -0.203 F 
ATOM     95  C   UNL A   1      45.940  35.588  28.606  1.00  0.00     0.198 A 
ATOM     96  C   UNL A   1      46.699  34.698  30.706  1.00  0.00     0.198 A 
ATOM     97  F   UNL A   1      46.087  32.515  31.347  1.00  0.00    -0.203 F 
ATOM     98  F   UNL A   1      45.910  36.586  27.712  1.00  0.00    -0.200 F 
ATOM     99  C   UNL A   1      46.655  35.736  29.786  1.00  0.00     0.200 A 
ATOM    100  F   UNL A   1      47.396  34.838  31.841  1.00  0.00    -0.200 F 
ATOM    101  F   UNL A   1      47.312  36.878  30.033  1.00  0.00    -0.200 F 
ENDBRANCH  68  91
ENDBRANCH  42  43
ENDBRANCH  34  37
ENDBRANCH  32  33
ENDBRANCH  31  32
ENDBRANCH   1  31
TORSDOF 17
ENDMDL
MODEL 2
REMARK VINA RESULT:     -12.4      4.805     10.126
REMARK SMILES CCOC(=O)C1=NN(c2ccc([N+](=O)[O-])cc2C(F)(F)F)[C@@](C)(C(=O)NCCCCNC(=O)c2ccc(-c3c4nc(c(-c5c(F)c(F)c(F)c(F)c5F)c5ccc([nH]5)c(-c5c(F)c(F)c(F)c(F)c5F)c5nc(c(-c6c(F)c(F)c(F)c(F)c6F)c6ccc3[nH]6)C=C5)C=C4)cc2)C1
REMARK SMILES IDX 28 1 27 2 26 3 24 4 25 5 22 7 6 8 7 9 97 10 8 11 23 12 4 13
REMARK SMILES IDX 5 14 3 15 2 16 1 17 9 18 10 19 17 20 11 21 16 22 12 23 18 24
REMARK SMILES IDX 19 25 20 26 21 27 13 28 14 29 15 30 29 31 30 32 31 33 32 34
REMARK SMILES IDX 33 36 34 37 35 38 96 39 36 40 95 41 37 42 38 43 39 44 89 45
REMARK SMILES IDX 40 46 94 47 88 48 90 49 41 50 93 51 87 52 86 53 42 55 74 56
REMARK SMILES IDX 54 57 73 58 55 59 58 60 72 61 91 62 56 63 57 64 71 66 92 67
REMARK SMILES IDX 59 68 43 69 44 70 52 71 45 72 46 73 50 74 53 75 47 76 48 77
REMARK SMILES IDX 51 78 49 79 75 80 76 81 84 82 77 83 78 84 82 85 85 86 79 87
REMARK SMILES IDX 80 88 83 89 81 90 60 91 61 92 69 93 62 94 63 95 67 96 70 97
REMARK SMILES IDX 64 98 65 99 68 100 66 101
REMARK H PARENT 26 6 31 35 90 54 58 65
REMARK Flexibility Score: inf
ROOT
ATOM      1  C   UNL A   1      31.548  30.441  26.168  1.00  0.00     0.023 C 
ENDROOT
BRANCH   1   2
ATOM      2  C   UNL A   1      32.247  29.594  27.232  1.00  0.00     0.116 C 
BRANCH   2   3
ATOM      3  N   UNL A   1      31.577  28.324  27.430  1.00  0.00    -0.354 N 
ATOM      4  C   UNL A   1      31.705  27.109  26.827  1.00  0.00     0.248 C 
ATOM      5  O   UNL A   1      30.878  26.266  27.200  1.00  0.00    -0.272 OA
ATOM      6  H   UNL A   1      30.896  28.343  28.140  1.00  0.00     0.163 HD
BRANCH   4   7
ATOM      7  C   UNL A   1      32.777  26.766  25.746  1.00  0.00     0.144 C 
ATOM      8  C   UNL A   1      32.407  24.569  25.111  1.00  0.00     0.149 C 
ATOM      9  N   UNL A   1      31.828  25.264  24.179  1.00  0.00    -0.169 NA
ATOM     10  C   UNL A   1      33.293  25.330  26.038  1.00  0.00     0.106 C 
ATOM     11  N   UNL A   1      32.183  26.572  24.392  1.00  0.00    -0.249 N 
ATOM     12  C   UNL A   1      33.986  27.696  25.763  1.00  0.00     0.048 C 
BRANCH   8  13
ATOM     13  C   UNL A   1      32.267  23.076  25.270  1.00  0.00     0.354 C 
ATOM     14  O   UNL A   1      31.216  22.572  25.622  1.00  0.00    -0.245 OA
BRANCH  13  15
ATOM     15  O   UNL A   1      33.431  22.456  25.005  1.00  0.00    -0.461 OA
BRANCH  15  16
ATOM     16  C   UNL A   1      33.796  22.385  23.621  1.00  0.00     0.230 C 
ATOM     17  C   UNL A   1      35.129  23.066  23.379  1.00  0.00     0.049 C 
ENDBRANCH  15  16
ENDBRANCH  13  15
ENDBRANCH   8  13
BRANCH  11  18
ATOM     18  C   UNL A   1      31.453  27.518  23.683  1.00  0.00     0.073 A 
ATOM     19  C   UNL A   1      30.061  27.611  23.889  1.00  0.00     0.036 A 
ATOM     20  C   UNL A   1      32.044  28.351  22.715  1.00  0.00     0.088 A 
ATOM     21  C   UNL A   1      29.276  28.556  23.224  1.00  0.00     0.088 A 
ATOM     22  C   UNL A   1      31.256  29.328  22.062  1.00  0.00     0.101 A 
ATOM     23  C   UNL A   1      29.883  29.430  22.325  1.00  0.00     0.270 A 
BRANCH  20  24
ATOM     24  C   UNL A   1      33.505  28.258  22.338  1.00  0.00     0.418 C 
ATOM     25  F   UNL A   1      33.723  28.568  21.027  1.00  0.00    -0.166 F 
ATOM     26  F   UNL A   1      34.259  29.149  23.046  1.00  0.00    -0.166 F 
ATOM     27  F   UNL A   1      34.089  27.045  22.524  1.00  0.00    -0.166 F 
ENDBRANCH  20  24
BRANCH  23  28
ATOM     28  N   UNL A   1      29.085  30.469  21.662  1.00  0.00     0.062 N 
ATOM     29  O   UNL A   1      28.211  30.101  20.865  1.00  0.00    -0.258 OA
ATOM     30  O   UNL A   1      29.318  31.649  21.959  1.00  0.00    -0.258 OA
ENDBRANCH  23  28
ENDBRANCH  11  18
ENDBRANCH   4   7
ENDBRANCH   2   3
ENDBRANCH   1   2
BRANCH   1  31
ATOM     31  C   UNL A   1      31.403  31.930  26.495  1.00  0.00     0.023 C 
BRANCH  31  32
ATOM     32  C   UNL A   1      32.588  32.564  27.218  1.00  0.00     0.116 C 
BRANCH  32  33
ATOM     33  N   UNL A   1      32.349  33.954  27.568  1.00  0.00    -0.352 N 
ATOM     34  C   UNL A   1      32.981  34.745  28.495  1.00  0.00     0.251 C 
ATOM     35  H   UNL A   1      31.626  34.394  27.066  1.00  0.00     0.163 HD
ATOM     36  O   UNL A   1      32.544  35.863  28.748  1.00  0.00    -0.269 OA
BRANCH  34  37
ATOM     37  C   UNL A   1      34.177  34.250  29.207  1.00  0.00     0.039 A 
ATOM     38  C   UNL A   1      34.001  33.543  30.401  1.00  0.00     0.014 A 
ATOM     39  C   UNL A   1      35.463  34.508  28.723  1.00  0.00     0.014 A 
ATOM     40  C   UNL A   1      35.111  33.035  31.078  1.00  0.00     0.010 A 
ATOM     41  C   UNL A   1      36.569  33.977  29.383  1.00  0.00     0.010 A 
ATOM     42  C   UNL A   1      36.399  33.229  30.559  1.00  0.00    -0.014 A 
BRANCH  42  43
ATOM     43  C   UNL A   1      37.587  32.644  31.220  1.00  0.00     0.031 A 
ATOM     44  C   UNL A   1      38.347  31.534  30.562  1.00  0.00     0.074 A 
ATOM     45  C   UNL A   1      37.926  33.059  32.454  1.00  0.00     0.049 A 
ATOM     46  N   UNL A   1      39.308  30.790  31.049  1.00  0.00    -0.248 NA
ATOM     47  C   UNL A   1      37.962  31.200  29.182  1.00  0.00     0.031 C 
ATOM     48  C   UNL A   1      37.244  34.106  33.214  1.00  0.00     0.029 A 
ATOM     49  N   UNL A   1      38.922  32.629  33.294  1.00  0.00    -0.354 N 
ATOM     50  C   UNL A   1      39.605  29.866  30.058  1.00  0.00     0.074 A 
ATOM     51  C   UNL A   1      38.743  30.158  28.931  1.00  0.00     0.031 C 
ATOM     52  C   UNL A   1      37.841  34.237  34.410  1.00  0.00     0.029 A 
ATOM     53  C   UNL A   1      38.930  33.270  34.505  1.00  0.00     0.049 A 
ATOM     54  H   UNL A   1      39.568  31.927  33.050  1.00  0.00     0.167 HD
ATOM     55  C   UNL A   1      40.504  28.856  30.095  1.00  0.00     0.037 A 
ATOM     56  C   UNL A   1      39.722  33.088  35.578  1.00  0.00     0.037 A 
ATOM     57  C   UNL A   1      41.401  28.594  31.187  1.00  0.00     0.049 A 
ATOM     58  C   UNL A   1      40.788  32.036  35.548  1.00  0.00     0.074 A 
ATOM     59  C   UNL A   1      42.373  27.614  31.295  1.00  0.00     0.029 A 
ATOM     60  N   UNL A   1      41.443  29.331  32.360  1.00  0.00    -0.354 N 
ATOM     61  N   UNL A   1      41.057  31.164  34.608  1.00  0.00    -0.248 NA
ATOM     62  C   UNL A   1      41.659  31.940  36.728  1.00  0.00     0.031 C 
ATOM     63  C   UNL A   1      43.009  27.763  32.534  1.00  0.00     0.029 A 
ATOM     64  C   UNL A   1      42.431  28.835  33.194  1.00  0.00     0.049 A 
ATOM     65  H   UNL A   1      40.857  30.094  32.570  1.00  0.00     0.167 HD
ATOM     66  C   UNL A   1      42.122  30.414  35.081  1.00  0.00     0.074 A 
ATOM     67  C   UNL A   1      42.460  30.938  36.389  1.00  0.00     0.031 C 
ATOM     68  C   UNL A   1      42.755  29.375  34.486  1.00  0.00     0.037 A 
BRANCH  55  69
ATOM     69  C   UNL A   1      40.541  27.940  28.916  1.00  0.00     0.064 A 
ATOM     70  C   UNL A   1      41.355  28.208  27.808  1.00  0.00     0.173 A 
ATOM     71  C   UNL A   1      39.764  26.773  28.906  1.00  0.00     0.173 A 
ATOM     72  F   UNL A   1      42.100  29.322  27.773  1.00  0.00    -0.203 F 
ATOM     73  C   UNL A   1      41.383  27.338  26.722  1.00  0.00     0.198 A 
ATOM     74  C   UNL A   1      39.800  25.904  27.821  1.00  0.00     0.198 A 
ATOM     75  F   UNL A   1      38.964  26.485  29.943  1.00  0.00    -0.203 F 
ATOM     76  F   UNL A   1      42.153  27.619  25.661  1.00  0.00    -0.200 F 
ATOM     77  C   UNL A   1      40.610  26.187  26.730  1.00  0.00     0.200 A 
ATOM     78  F   UNL A   1      39.048  24.794  27.826  1.00  0.00    -0.200 F 
ATOM     79  F   UNL A   1      40.634  25.354  25.680  1.00  0.00    -0.200 F 
ENDBRANCH  55  69
BRANCH  56  80
ATOM     80  C   UNL A   1      39.525  33.933  36.776  1.00  0.00     0.064 A 
ATOM     81  C   UNL A   1      38.744  33.483  37.847  1.00  0.00     0.173 A 
ATOM     82  C   UNL A   1      40.136  35.189  36.880  1.00  0.00     0.173 A 
ATOM     83  F   UNL A   1      38.133  32.292  37.776  1.00  0.00    -0.203 F 
ATOM     84  C   UNL A   1      38.578  34.266  38.987  1.00  0.00     0.198 A 
ATOM     85  C   UNL A   1      39.974  35.967  38.024  1.00  0.00     0.198 A 
ATOM     86  F   UNL A   1      40.890  35.654  35.875  1.00  0.00    -0.203 F 
ATOM     87  F   UNL A   1      37.818  33.821  39.997  1.00  0.00    -0.200 F 
ATOM     88  C   UNL A   1      39.195  35.505  39.075  1.00  0.00     0.200 A 
ATOM     89  F   UNL A   1      40.571  37.163  38.108  1.00  0.00    -0.200 F 
ATOM     90  F   UNL A   1      39.036  36.257  40.174  1.00  0.00    -0.200 F 
ENDBRANCH  56  80
BRANCH  68  91
ATOM     91  C   UNL A   1      43.879  28.746  35.243  1.00  0.00     0.064 A 
ATOM     92  C   UNL A   1      45.202  29.156  35.034  1.00  0.00     0.173 A 
ATOM     93  C   UNL A   1      43.631  27.755  36.201  1.00  0.00     0.173 A 
ATOM     94  F   UNL A   1      45.483  30.092  34.116  1.00  0.00    -0.203 F 
ATOM     95  C   UNL A   1      46.245  28.588  35.760  1.00  0.00     0.198 A 
ATOM     96  C   UNL A   1      44.676  27.191  36.928  1.00  0.00     0.198 A 
ATOM     97  F   UNL A   1      42.378  27.330  36.424  1.00  0.00    -0.203 F 
ATOM     98  F   UNL A   1      47.507  28.981  35.539  1.00  0.00    -0.200 F 
ATOM     99  C   UNL A   1      45.980  27.609  36.707  1.00  0.00     0.200 A 
ATOM    100  F   UNL A   1      44.421  26.240  37.836  1.00  0.00    -0.200 F 
ATOM    101  F   UNL A   1      46.986  27.059  37.402  1.00  0.00    -0.200 F 
ENDBRANCH  68  91
ENDBRANCH  42  43
ENDBRANCH  34  37
ENDBRANCH  32  33
ENDBRANCH  31  32
ENDBRANCH   1  31
TORSDOF 17
ENDMDL
MODEL 3
REMARK VINA RESULT:     -12.2      4.177      7.245
REMARK SMILES CCOC(=O)C1=NN(c2ccc([N+](=O)[O-])cc2C(F)(F)F)[C@@](C)(C(=O)NCCCCNC(=O)c2ccc(-c3c4nc(c(-c5c(F)c(F)c(F)c(F)c5F)c5ccc([nH]5)c(-c5c(F)c(F)c(F)c(F)c5F)c5nc(c(-c6c(F)c(F)c(F)c(F)c6F)c6ccc3[nH]6)C=C5)C=C4)cc2)C1
REMARK SMILES IDX 28 1 27 2 26 3 24 4 25 5 22 7 6 8 7 9 97 10 8 11 23 12 4 13
REMARK SMILES IDX 5 14 3 15 2 16 1 17 9 18 10 19 17 20 11 21 16 22 12 23 18 24
REMARK SMILES IDX 19 25 20 26 21 27 13 28 14 29 15 30 29 31 30 32 31 33 32 34
REMARK SMILES IDX 33 36 34 37 35 38 96 39 36 40 95 41 37 42 38 43 39 44 89 45
REMARK SMILES IDX 40 46 94 47 88 48 90 49 41 50 93 51 87 52 86 53 42 55 74 56
REMARK SMILES IDX 54 57 73 58 55 59 58 60 72 61 91 62 56 63 57 64 71 66 92 67
REMARK SMILES IDX 59 68 43 69 44 70 52 71 45 72 46 73 50 74 53 75 47 76 48 77
REMARK SMILES IDX 51 78 49 79 75 80 76 81 84 82 77 83 78 84 82 85 85 86 79 87
REMARK SMILES IDX 80 88 83 89 81 90 60 91 61 92 69 93 62 94 63 95 67 96 70 97
REMARK SMILES IDX 64 98 65 99 68 100 66 101
REMARK H PARENT 26 6 31 35 90 54 58 65
REMARK Flexibility Score: inf
ROOT
ATOM      1  C   UNL A   1      31.248  28.033  26.592  1.00  0.00     0.023 C 
ENDROOT
BRANCH   1   2
ATOM      2  C   UNL A   1      32.299  27.032  27.073  1.00  0.00     0.116 C 
BRANCH   2   3
ATOM      3  N   UNL A   1      31.753  25.693  27.179  1.00  0.00    -0.354 N 
ATOM      4  C   UNL A   1      31.897  24.575  26.414  1.00  0.00     0.248 C 
ATOM      5  O   UNL A   1      31.185  23.623  26.764  1.00  0.00    -0.272 OA
ATOM      6  H   UNL A   1      31.163  25.567  27.956  1.00  0.00     0.163 HD
BRANCH   4   7
ATOM      7  C   UNL A   1      32.854  24.459  25.187  1.00  0.00     0.144 C 
ATOM      8  C   UNL A   1      32.358  22.454  24.139  1.00  0.00     0.149 C 
ATOM      9  N   UNL A   1      31.719  23.338  23.436  1.00  0.00    -0.169 NA
ATOM     10  C   UNL A   1      33.348  22.988  25.116  1.00  0.00     0.106 C 
ATOM     11  N   UNL A   1      32.133  24.566  23.886  1.00  0.00    -0.249 N 
ATOM     12  C   UNL A   1      34.089  25.350  25.284  1.00  0.00     0.048 C 
BRANCH   8  13
ATOM     13  C   UNL A   1      32.186  20.963  23.991  1.00  0.00     0.354 C 
ATOM     14  O   UNL A   1      32.118  20.438  22.894  1.00  0.00    -0.245 OA
BRANCH  13  15
ATOM     15  O   UNL A   1      32.098  20.370  25.195  1.00  0.00    -0.461 OA
BRANCH  15  16
ATOM     16  C   UNL A   1      33.092  19.375  25.473  1.00  0.00     0.230 C 
ATOM     17  C   UNL A   1      32.497  17.982  25.391  1.00  0.00     0.049 C 
ENDBRANCH  15  16
ENDBRANCH  13  15
ENDBRANCH   8  13
BRANCH  11  18
ATOM     18  C   UNL A   1      31.371  25.650  23.468  1.00  0.00     0.073 A 
ATOM     19  C   UNL A   1      30.078  25.832  24.000  1.00  0.00     0.036 A 
ATOM     20  C   UNL A   1      31.821  26.547  22.479  1.00  0.00     0.088 A 
ATOM     21  C   UNL A   1      29.274  26.914  23.636  1.00  0.00     0.088 A 
ATOM     22  C   UNL A   1      31.019  27.659  22.131  1.00  0.00     0.101 A 
ATOM     23  C   UNL A   1      29.758  27.841  22.716  1.00  0.00     0.270 A 
BRANCH  20  24
ATOM     24  C   UNL A   1      33.143  26.381  21.766  1.00  0.00     0.418 C 
ATOM     25  F   UNL A   1      32.985  26.128  20.434  1.00  0.00    -0.166 F 
ATOM     26  F   UNL A   1      33.887  27.524  21.827  1.00  0.00    -0.166 F 
ATOM     27  F   UNL A   1      33.947  25.388  22.229  1.00  0.00    -0.166 F 
ENDBRANCH  20  24
BRANCH  23  28
ATOM     28  N   UNL A   1      28.950  29.017  22.367  1.00  0.00     0.062 N 
ATOM     29  O   UNL A   1      29.348  29.731  21.437  1.00  0.00    -0.258 OA
ATOM     30  O   UNL A   1      27.909  29.208  23.009  1.00  0.00    -0.258 OA
ENDBRANCH  23  28
ENDBRANCH  11  18
ENDBRANCH   4   7
ENDBRANCH   2   3
ENDBRANCH   1   2
BRANCH   1  31
ATOM     31  C   UNL A   1      31.739  29.077  25.585  1.00  0.00     0.023 C 
BRANCH  31  32
ATOM     32  C   UNL A   1      33.044  29.780  25.949  1.00  0.00     0.116 C 
BRANCH  32  33
ATOM     33  N   UNL A   1      32.839  31.158  26.363  1.00  0.00    -0.352 N 
ATOM     34  C   UNL A   1      33.504  31.897  27.309  1.00  0.00     0.251 C 
ATOM     35  H   UNL A   1      32.115  31.633  25.894  1.00  0.00     0.163 HD
ATOM     36  O   UNL A   1      33.094  33.012  27.617  1.00  0.00    -0.269 OA
BRANCH  34  37
ATOM     37  C   UNL A   1      34.703  31.351  27.976  1.00  0.00     0.039 A 
ATOM     38  C   UNL A   1      35.807  32.190  28.163  1.00  0.00     0.014 A 
ATOM     39  C   UNL A   1      34.756  30.015  28.385  1.00  0.00     0.014 A 
ATOM     40  C   UNL A   1      36.941  31.710  28.820  1.00  0.00     0.010 A 
ATOM     41  C   UNL A   1      35.876  29.544  29.066  1.00  0.00     0.010 A 
ATOM     42  C   UNL A   1      36.971  30.391  29.296  1.00  0.00    -0.014 A 
BRANCH  42  43
ATOM     43  C   UNL A   1      38.134  29.877  30.055  1.00  0.00     0.031 A 
ATOM     44  C   UNL A   1      38.381  30.337  31.459  1.00  0.00     0.074 A 
ATOM     45  C   UNL A   1      39.012  29.063  29.444  1.00  0.00     0.049 A 
ATOM     46  N   UNL A   1      39.423  30.127  32.223  1.00  0.00    -0.248 NA
ATOM     47  C   UNL A   1      37.330  31.158  32.078  1.00  0.00     0.031 C 
ATOM     48  C   UNL A   1      38.901  28.573  28.070  1.00  0.00     0.029 A 
ATOM     49  N   UNL A   1      40.187  28.521  29.899  1.00  0.00    -0.354 N 
ATOM     50  C   UNL A   1      39.178  30.834  33.391  1.00  0.00     0.074 A 
ATOM     51  C   UNL A   1      37.878  31.457  33.248  1.00  0.00     0.031 C 
ATOM     52  C   UNL A   1      39.967  27.804  27.792  1.00  0.00     0.029 A 
ATOM     53  C   UNL A   1      40.841  27.764  28.961  1.00  0.00     0.049 A 
ATOM     54  H   UNL A   1      40.529  28.662  30.812  1.00  0.00     0.167 HD
ATOM     55  C   UNL A   1      39.975  30.964  34.476  1.00  0.00     0.037 A 
ATOM     56  C   UNL A   1      42.021  27.122  29.032  1.00  0.00     0.037 A 
ATOM     57  C   UNL A   1      41.241  30.306  34.649  1.00  0.00     0.049 A 
ATOM     58  C   UNL A   1      42.831  27.189  30.291  1.00  0.00     0.074 A 
ATOM     59  C   UNL A   1      42.100  30.350  35.734  1.00  0.00     0.029 A 
ATOM     60  N   UNL A   1      41.823  29.468  33.711  1.00  0.00    -0.354 N 
ATOM     61  N   UNL A   1      42.593  27.865  31.388  1.00  0.00    -0.248 NA
ATOM     62  C   UNL A   1      44.075  26.407  30.322  1.00  0.00     0.031 C 
ATOM     63  C   UNL A   1      43.202  29.531  35.453  1.00  0.00     0.029 A 
ATOM     64  C   UNL A   1      43.025  28.980  34.195  1.00  0.00     0.049 A 
ATOM     65  H   UNL A   1      41.439  29.252  32.831  1.00  0.00     0.167 HD
ATOM     66  C   UNL A   1      43.655  27.596  32.236  1.00  0.00     0.074 A 
ATOM     67  C   UNL A   1      44.536  26.686  31.534  1.00  0.00     0.031 C 
ATOM     68  C   UNL A   1      43.882  28.071  33.484  1.00  0.00     0.037 A 
BRANCH  55  69
ATOM     69  C   UNL A   1      39.503  31.881  35.557  1.00  0.00     0.064 A 
ATOM     70  C   UNL A   1      39.946  33.208  35.634  1.00  0.00     0.173 A 
ATOM     71  C   UNL A   1      38.585  31.428  36.514  1.00  0.00     0.173 A 
ATOM     72  F   UNL A   1      40.837  33.674  34.747  1.00  0.00    -0.203 F 
ATOM     73  C   UNL A   1      39.488  34.051  36.642  1.00  0.00     0.198 A 
ATOM     74  C   UNL A   1      38.125  32.276  37.517  1.00  0.00     0.198 A 
ATOM     75  F   UNL A   1      38.144  30.162  36.481  1.00  0.00    -0.203 F 
ATOM     76  F   UNL A   1      39.936  35.312  36.713  1.00  0.00    -0.200 F 
ATOM     77  C   UNL A   1      38.577  33.586  37.580  1.00  0.00     0.200 A 
ATOM     78  F   UNL A   1      37.250  31.825  38.426  1.00  0.00    -0.200 F 
ATOM     79  F   UNL A   1      38.142  34.398  38.554  1.00  0.00    -0.200 F 
ENDBRANCH  55  69
BRANCH  56  80
ATOM     80  C   UNL A   1      42.502  26.356  27.862  1.00  0.00     0.064 A 
ATOM     81  C   UNL A   1      42.081  25.039  27.647  1.00  0.00     0.173 A 
ATOM     82  C   UNL A   1      43.367  26.938  26.926  1.00  0.00     0.173 A 
ATOM     83  F   UNL A   1      41.264  24.445  28.529  1.00  0.00    -0.203 F 
ATOM     84  C   UNL A   1      42.512  24.324  26.532  1.00  0.00     0.198 A 
ATOM     85  C   UNL A   1      43.792  26.224  25.809  1.00  0.00     0.198 A 
ATOM     86  F   UNL A   1      43.792  28.197  27.099  1.00  0.00    -0.203 F 
ATOM     87  F   UNL A   1      42.105  23.061  26.351  1.00  0.00    -0.200 F 
ATOM     88  C   UNL A   1      43.365  24.919  25.613  1.00  0.00     0.200 A 
ATOM     89  F   UNL A   1      44.614  26.800  24.922  1.00  0.00    -0.200 F 
ATOM     90  F   UNL A   1      43.778  24.231  24.540  1.00  0.00    -0.200 F 
ENDBRANCH  56  80
BRANCH  68  91
ATOM     91  C   UNL A   1      45.128  27.609  34.166  1.00  0.00     0.064 A 
ATOM     92  C   UNL A   1      46.322  28.331  34.045  1.00  0.00     0.173 A 
ATOM     93  C   UNL A   1      45.121  26.460  34.967  1.00  0.00     0.173 A 
ATOM     94  F   UNL A   1      46.373  29.429  33.277  1.00  0.00    -0.203 F 
ATOM     95  C   UNL A   1      47.475  27.913  34.704  1.00  0.00     0.198 A 
ATOM     96  C   UNL A   1      46.275  26.046  35.626  1.00  0.00     0.198 A 
ATOM     97  F   UNL A   1      44.000  25.736  35.100  1.00  0.00    -0.203 F 
ATOM     98  F   UNL A   1      48.613  28.608  34.567  1.00  0.00    -0.200 F 
ATOM     99  C   UNL A   1      47.450  26.773  35.495  1.00  0.00     0.200 A 
ATOM    100  F   UNL A   1      46.253  24.941  36.383  1.00  0.00    -0.200 F 
ATOM    101  F   UNL A   1      48.562  26.369  36.123  1.00  0.00    -0.200 F 
ENDBRANCH  68  91
ENDBRANCH  42  43
ENDBRANCH  34  37
ENDBRANCH  32  33
ENDBRANCH  31  32
ENDBRANCH   1  31
TORSDOF 17
ENDMDL
