MODEL 1
REMARK VINA RESULT:     -13.4      0.000      0.000
REMARK SMILES Cc1cccc(C[N@@H+]2CCn3nc(CCC(=O)NCCCCNC(=O)c4ccc(-c5c6nc(c(-c7c(F)c(F)c(F)c(F)c7F)c7ccc([nH]7)c(-c7c(F)c(F)c(F)c(F)c7F)c7nc(c(-c8c(F)c(F)c(F)c(F)c8F)c8ccc5[nH]8)C=C7)C=C6)cc4)cc3C2)c1
REMARK SMILES IDX 19 1 18 2 16 3 17 4 15 6 14 7 13 8 8 9 9 10 91 11 10 13
REMARK SMILES IDX 90 14 11 15 89 16 12 17 7 18 6 19 1 20 2 21 3 22 92 23 4 24
REMARK SMILES IDX 5 25 20 26 21 27 22 28 23 29 24 30 25 32 26 33 27 34 88 35
REMARK SMILES IDX 28 36 87 37 29 38 30 39 31 40 81 41 32 42 86 43 80 44 82 45
REMARK SMILES IDX 33 46 85 47 79 48 78 49 34 51 66 52 46 53 65 54 47 55 50 56
REMARK SMILES IDX 64 57 83 58 48 59 49 60 63 62 84 63 51 64 35 65 36 66 44 67
REMARK SMILES IDX 37 68 38 69 42 70 45 71 39 72 40 73 43 74 41 75 67 76 68 77
REMARK SMILES IDX 76 78 69 79 70 80 74 81 77 82 71 83 72 84 75 85 73 86 52 87
REMARK SMILES IDX 53 88 61 89 54 90 55 91 59 92 62 93 56 94 57 95 60 96 58 97
REMARK H PARENT 18 5 8 12 23 31 82 50 50 61
REMARK Flexibility Score: inf
ROOT
ATOM      1  C   UNL A   1      31.319  29.731  24.967  1.00  0.00     0.116 C 
ENDROOT
BRANCH   1   2
ATOM      2  N   UNL A   1      30.674  30.028  23.706  1.00  0.00    -0.356 N 
ATOM      3  C   UNL A   1      30.158  29.157  22.791  1.00  0.00     0.220 C 
ATOM      4  O   UNL A   1      29.791  29.606  21.703  1.00  0.00    -0.275 OA
ATOM      5  H   UNL A   1      30.596  30.983  23.478  1.00  0.00     0.163 HD
BRANCH   3   6
ATOM      6  C   UNL A   1      30.003  27.681  23.113  1.00  0.00     0.106 C 
BRANCH   6   7
ATOM      7  C   UNL A   1      31.145  26.828  22.559  1.00  0.00     0.068 C 
BRANCH   7   8
ATOM      8  C   UNL A   1      31.986  26.187  23.621  1.00  0.00     0.063 A 
ATOM      9  N   UNL A   1      34.602  23.457  26.048  1.00  0.00    -0.325 N 
ATOM     10  C   UNL A   1      33.349  23.279  26.787  1.00  0.00     0.286 C 
ATOM     11  C   UNL A   1      34.844  24.773  25.480  1.00  0.00     0.319 C 
ATOM     12  H   UNL A   1      35.267  23.459  26.822  1.00  0.00     0.348 HD
ATOM     13  C   UNL A   1      32.184  24.251  26.514  1.00  0.00     0.206 C 
ATOM     14  C   UNL A   1      33.641  25.299  24.802  1.00  0.00     0.093 A 
ATOM     15  N   UNL A   1      32.427  25.118  25.385  1.00  0.00    -0.258 N 
ATOM     16  C   UNL A   1      33.389  25.963  23.623  1.00  0.00     0.055 A 
ATOM     17  N   UNL A   1      31.427  25.760  24.761  1.00  0.00    -0.177 NA
BRANCH   9  18
ATOM     18  C   UNL A   1      35.098  22.312  25.295  1.00  0.00     0.299 C 
BRANCH  18  19
ATOM     19  C   UNL A   1      34.071  21.471  24.569  1.00  0.00     0.006 A 
ATOM     20  C   UNL A   1      32.716  17.902  24.668  1.00  0.00     0.044 C 
ATOM     21  C   UNL A   1      32.904  19.339  24.283  1.00  0.00    -0.051 A 
ATOM     22  C   UNL A   1      32.154  19.898  23.248  1.00  0.00     0.003 A 
ATOM     23  C   UNL A   1      33.864  20.128  24.928  1.00  0.00     0.013 A 
ATOM     24  C   UNL A   1      32.338  21.232  22.890  1.00  0.00     0.001 A 
ATOM     25  C   UNL A   1      33.290  22.013  23.546  1.00  0.00     0.009 A 
ENDBRANCH  18  19
ENDBRANCH   9  18
ENDBRANCH   7   8
ENDBRANCH   6   7
ENDBRANCH   3   6
ENDBRANCH   1   2
BRANCH   1  26
ATOM     26  C   UNL A   1      32.818  29.510  24.781  1.00  0.00     0.023 C 
BRANCH  26  27
ATOM     27  C   UNL A   1      33.608  29.150  26.034  1.00  0.00     0.023 C 
BRANCH  27  28
ATOM     28  C   UNL A   1      33.201  29.962  27.255  1.00  0.00     0.116 C 
BRANCH  28  29
ATOM     29  N   UNL A   1      33.959  31.197  27.473  1.00  0.00    -0.352 N 
ATOM     30  C   UNL A   1      35.243  31.388  27.977  1.00  0.00     0.251 C 
ATOM     31  H   UNL A   1      33.485  32.023  27.225  1.00  0.00     0.163 HD
ATOM     32  O   UNL A   1      35.689  32.511  28.105  1.00  0.00    -0.269 OA
BRANCH  30  33
ATOM     33  C   UNL A   1      36.118  30.208  28.225  1.00  0.00     0.039 A 
ATOM     34  C   UNL A   1      36.245  29.702  29.528  1.00  0.00     0.014 A 
ATOM     35  C   UNL A   1      36.970  29.764  27.230  1.00  0.00     0.014 A 
ATOM     36  C   UNL A   1      37.377  28.957  29.873  1.00  0.00     0.010 A 
ATOM     37  C   UNL A   1      38.162  29.191  27.603  1.00  0.00     0.010 A 
ATOM     38  C   UNL A   1      38.390  28.803  28.930  1.00  0.00    -0.014 A 
BRANCH  38  39
ATOM     39  C   UNL A   1      39.765  28.383  29.212  1.00  0.00     0.031 A 
ATOM     40  C   UNL A   1      40.267  27.065  28.738  1.00  0.00     0.074 A 
ATOM     41  C   UNL A   1      40.643  29.313  29.649  1.00  0.00     0.049 A 
ATOM     42  N   UNL A   1      41.427  26.574  29.018  1.00  0.00    -0.248 NA
ATOM     43  C   UNL A   1      39.465  26.166  27.912  1.00  0.00     0.031 C 
ATOM     44  C   UNL A   1      42.085  29.344  29.412  1.00  0.00     0.029 A 
ATOM     45  N   UNL A   1      40.414  30.396  30.490  1.00  0.00    -0.354 N 
ATOM     46  C   UNL A   1      41.625  25.458  28.234  1.00  0.00     0.074 A 
ATOM     47  C   UNL A   1      40.365  25.242  27.566  1.00  0.00     0.031 C 
ATOM     48  C   UNL A   1      42.643  30.280  30.197  1.00  0.00     0.029 A 
ATOM     49  C   UNL A   1      41.617  30.743  31.116  1.00  0.00     0.049 A 
ATOM     50  H   UNL A   1      39.548  30.844  30.624  1.00  0.00     0.167 HD
ATOM     51  C   UNL A   1      42.870  24.904  28.155  1.00  0.00     0.037 A 
ATOM     52  C   UNL A   1      41.737  30.691  32.474  1.00  0.00     0.037 A 
ATOM     53  C   UNL A   1      43.805  25.592  29.041  1.00  0.00     0.049 A 
ATOM     54  C   UNL A   1      42.729  29.657  32.942  1.00  0.00     0.074 A 
ATOM     55  C   UNL A   1      44.731  26.598  28.817  1.00  0.00     0.029 A 
ATOM     56  N   UNL A   1      43.640  25.509  30.422  1.00  0.00    -0.354 N 
ATOM     57  N   UNL A   1      43.134  28.655  32.212  1.00  0.00    -0.248 NA
ATOM     58  C   UNL A   1      43.300  29.646  34.284  1.00  0.00     0.031 C 
ATOM     59  C   UNL A   1      45.080  27.159  30.069  1.00  0.00     0.029 A 
ATOM     60  C   UNL A   1      44.386  26.484  31.059  1.00  0.00     0.049 A 
ATOM     61  H   UNL A   1      43.071  24.849  30.880  1.00  0.00     0.167 HD
ATOM     62  C   UNL A   1      43.918  27.836  32.972  1.00  0.00     0.074 A 
ATOM     63  C   UNL A   1      44.025  28.515  34.249  1.00  0.00     0.031 C 
ATOM     64  C   UNL A   1      44.367  26.636  32.507  1.00  0.00     0.037 A 
BRANCH  51  65
ATOM     65  C   UNL A   1      43.297  23.932  27.071  1.00  0.00     0.064 A 
ATOM     66  C   UNL A   1      42.903  22.576  27.119  1.00  0.00     0.173 A 
ATOM     67  C   UNL A   1      44.143  24.254  25.994  1.00  0.00     0.173 A 
ATOM     68  F   UNL A   1      42.007  22.138  28.011  1.00  0.00    -0.203 F 
ATOM     69  C   UNL A   1      43.416  21.610  26.247  1.00  0.00     0.198 A 
ATOM     70  C   UNL A   1      44.707  23.280  25.161  1.00  0.00     0.198 A 
ATOM     71  F   UNL A   1      44.402  25.526  25.669  1.00  0.00    -0.203 F 
ATOM     72  F   UNL A   1      43.006  20.338  26.347  1.00  0.00    -0.200 F 
ATOM     73  C   UNL A   1      44.353  21.955  25.296  1.00  0.00     0.200 A 
ATOM     74  F   UNL A   1      45.596  23.641  24.223  1.00  0.00    -0.200 F 
ATOM     75  F   UNL A   1      44.886  21.022  24.495  1.00  0.00    -0.200 F 
ENDBRANCH  51  65
BRANCH  52  76
ATOM     76  C   UNL A   1      40.470  30.994  33.191  1.00  0.00     0.064 A 
ATOM     77  C   UNL A   1      40.112  32.337  33.389  1.00  0.00     0.173 A 
ATOM     78  C   UNL A   1      39.464  30.023  33.309  1.00  0.00     0.173 A 
ATOM     79  F   UNL A   1      41.039  33.301  33.290  1.00  0.00    -0.203 F 
ATOM     80  C   UNL A   1      38.783  32.701  33.599  1.00  0.00     0.198 A 
ATOM     81  C   UNL A   1      38.133  30.395  33.499  1.00  0.00     0.198 A 
ATOM     82  F   UNL A   1      39.744  28.728  33.104  1.00  0.00    -0.203 F 
ATOM     83  F   UNL A   1      38.453  33.996  33.711  1.00  0.00    -0.200 F 
ATOM     84  C   UNL A   1      37.791  31.733  33.616  1.00  0.00     0.200 A 
ATOM     85  F   UNL A   1      37.169  29.463  33.473  1.00  0.00    -0.200 F 
ATOM     86  F   UNL A   1      36.502  32.093  33.701  1.00  0.00    -0.200 F 
ENDBRANCH  52  76
BRANCH  64  87
ATOM     87  C   UNL A   1      44.897  25.548  33.397  1.00  0.00     0.064 A 
ATOM     88  C   UNL A   1      44.068  24.753  34.209  1.00  0.00     0.173 A 
ATOM     89  C   UNL A   1      46.256  25.172  33.348  1.00  0.00     0.173 A 
ATOM     90  F   UNL A   1      42.739  24.933  34.235  1.00  0.00    -0.203 F 
ATOM     91  C   UNL A   1      44.574  23.710  34.982  1.00  0.00     0.198 A 
ATOM     92  C   UNL A   1      46.749  24.092  34.079  1.00  0.00     0.198 A 
ATOM     93  F   UNL A   1      47.131  25.824  32.569  1.00  0.00    -0.203 F 
ATOM     94  F   UNL A   1      43.749  23.015  35.777  1.00  0.00    -0.200 F 
ATOM     95  C   UNL A   1      45.912  23.373  34.911  1.00  0.00     0.200 A 
ATOM     96  F   UNL A   1      48.035  23.738  33.957  1.00  0.00    -0.200 F 
ATOM     97  F   UNL A   1      46.388  22.345  35.625  1.00  0.00    -0.200 F 
ENDBRANCH  64  87
ENDBRANCH  38  39
ENDBRANCH  30  33
ENDBRANCH  28  29
ENDBRANCH  27  28
ENDBRANCH  26  27
ENDBRANCH   1  26
TORSDOF 15
ENDMDL
MODEL 2
REMARK VINA RESULT:     -12.7      1.424      2.634
REMARK SMILES Cc1cccc(C[N@@H+]2CCn3nc(CCC(=O)NCCCCNC(=O)c4ccc(-c5c6nc(c(-c7c(F)c(F)c(F)c(F)c7F)c7ccc([nH]7)c(-c7c(F)c(F)c(F)c(F)c7F)c7nc(c(-c8c(F)c(F)c(F)c(F)c8F)c8ccc5[nH]8)C=C7)C=C6)cc4)cc3C2)c1
REMARK SMILES IDX 19 1 18 2 16 3 17 4 15 6 14 7 13 8 8 9 9 10 91 11 10 13
REMARK SMILES IDX 90 14 11 15 89 16 12 17 7 18 6 19 1 20 2 21 3 22 92 23 4 24
REMARK SMILES IDX 5 25 20 26 21 27 22 28 23 29 24 30 25 32 26 33 27 34 88 35
REMARK SMILES IDX 28 36 87 37 29 38 30 39 31 40 81 41 32 42 86 43 80 44 82 45
REMARK SMILES IDX 33 46 85 47 79 48 78 49 34 51 66 52 46 53 65 54 47 55 50 56
REMARK SMILES IDX 64 57 83 58 48 59 49 60 63 62 84 63 51 64 35 65 36 66 44 67
REMARK SMILES IDX 37 68 38 69 42 70 45 71 39 72 40 73 43 74 41 75 67 76 68 77
REMARK SMILES IDX 76 78 69 79 70 80 74 81 77 82 71 83 72 84 75 85 73 86 52 87
REMARK SMILES IDX 53 88 61 89 54 90 55 91 59 92 62 93 56 94 57 95 60 96 58 97
REMARK H PARENT 18 5 8 12 23 31 82 50 50 61
REMARK Flexibility Score: inf
ROOT
ATOM      1  C   UNL A   1      31.490  29.332  24.223  1.00  0.00     0.116 C 
ENDROOT
BRANCH   1   2
ATOM      2  N   UNL A   1      32.626  29.390  23.328  1.00  0.00    -0.356 N 
ATOM      3  C   UNL A   1      33.204  28.374  22.625  1.00  0.00     0.220 C 
ATOM      4  O   UNL A   1      34.265  28.602  22.040  1.00  0.00    -0.275 OA
ATOM      5  H   UNL A   1      33.035  30.278  23.211  1.00  0.00     0.163 HD
BRANCH   3   6
ATOM      6  C   UNL A   1      32.544  27.010  22.529  1.00  0.00     0.106 C 
BRANCH   6   7
ATOM      7  C   UNL A   1      33.548  25.858  22.591  1.00  0.00     0.068 C 
BRANCH   7   8
ATOM      8  C   UNL A   1      32.976  24.592  23.152  1.00  0.00     0.063 A 
ATOM      9  N   UNL A   1      32.288  20.676  25.246  1.00  0.00    -0.325 N 
ATOM     10  C   UNL A   1      32.265  20.195  23.862  1.00  0.00     0.286 C 
ATOM     11  C   UNL A   1      31.750  22.006  25.484  1.00  0.00     0.319 C 
ATOM     12  H   UNL A   1      31.549  20.099  25.648  1.00  0.00     0.348 HD
ATOM     13  C   UNL A   1      32.170  21.227  22.721  1.00  0.00     0.206 C 
ATOM     14  C   UNL A   1      32.238  22.975  24.479  1.00  0.00     0.093 A 
ATOM     15  N   UNL A   1      32.315  22.589  23.179  1.00  0.00    -0.258 N 
ATOM     16  C   UNL A   1      32.701  24.270  24.508  1.00  0.00     0.055 A 
ATOM     17  N   UNL A   1      32.630  23.585  22.337  1.00  0.00    -0.177 NA
BRANCH   9  18
ATOM     18  C   UNL A   1      33.410  20.260  26.077  1.00  0.00     0.299 C 
BRANCH  18  19
ATOM     19  C   UNL A   1      34.789  20.702  25.639  1.00  0.00     0.006 A 
ATOM     20  C   UNL A   1      36.952  23.848  25.755  1.00  0.00     0.044 C 
ATOM     21  C   UNL A   1      36.511  22.437  25.505  1.00  0.00    -0.051 A 
ATOM     22  C   UNL A   1      37.355  21.537  24.853  1.00  0.00     0.003 A 
ATOM     23  C   UNL A   1      35.231  22.014  25.883  1.00  0.00     0.013 A 
ATOM     24  C   UNL A   1      36.937  20.228  24.617  1.00  0.00     0.001 A 
ATOM     25  C   UNL A   1      35.663  19.814  25.007  1.00  0.00     0.009 A 
ENDBRANCH  18  19
ENDBRANCH   9  18
ENDBRANCH   7   8
ENDBRANCH   6   7
ENDBRANCH   3   6
ENDBRANCH   1   2
BRANCH   1  26
ATOM     26  C   UNL A   1      31.772  30.080  25.524  1.00  0.00     0.023 C 
BRANCH  26  27
ATOM     27  C   UNL A   1      33.117  29.802  26.184  1.00  0.00     0.023 C 
BRANCH  27  28
ATOM     28  C   UNL A   1      33.219  30.357  27.597  1.00  0.00     0.116 C 
BRANCH  28  29
ATOM     29  N   UNL A   1      34.083  31.530  27.754  1.00  0.00    -0.352 N 
ATOM     30  C   UNL A   1      35.421  31.618  28.131  1.00  0.00     0.251 C 
ATOM     31  H   UNL A   1      33.649  32.393  27.563  1.00  0.00     0.163 HD
ATOM     32  O   UNL A   1      35.959  32.704  28.227  1.00  0.00    -0.269 OA
BRANCH  30  33
ATOM     33  C   UNL A   1      36.227  30.374  28.277  1.00  0.00     0.039 A 
ATOM     34  C   UNL A   1      36.383  29.796  29.548  1.00  0.00     0.014 A 
ATOM     35  C   UNL A   1      36.998  29.926  27.220  1.00  0.00     0.014 A 
ATOM     36  C   UNL A   1      37.479  28.964  29.798  1.00  0.00     0.010 A 
ATOM     37  C   UNL A   1      38.166  29.261  27.503  1.00  0.00     0.010 A 
ATOM     38  C   UNL A   1      38.433  28.793  28.797  1.00  0.00    -0.014 A 
BRANCH  38  39
ATOM     39  C   UNL A   1      39.788  28.273  28.987  1.00  0.00     0.031 A 
ATOM     40  C   UNL A   1      40.101  26.847  28.693  1.00  0.00     0.074 A 
ATOM     41  C   UNL A   1      40.797  29.156  29.153  1.00  0.00     0.049 A 
ATOM     42  N   UNL A   1      41.239  26.281  28.919  1.00  0.00    -0.248 NA
ATOM     43  C   UNL A   1      39.118  25.923  28.133  1.00  0.00     0.031 C 
ATOM     44  C   UNL A   1      42.192  28.987  28.750  1.00  0.00     0.029 A 
ATOM     45  N   UNL A   1      40.781  30.378  29.815  1.00  0.00    -0.354 N 
ATOM     46  C   UNL A   1      41.228  25.039  28.321  1.00  0.00     0.074 A 
ATOM     47  C   UNL A   1      39.876  24.862  27.850  1.00  0.00     0.031 C 
ATOM     48  C   UNL A   1      42.932  29.968  29.292  1.00  0.00     0.029 A 
ATOM     49  C   UNL A   1      42.083  30.684  30.229  1.00  0.00     0.049 A 
ATOM     50  H   UNL A   1      39.985  30.936  29.968  1.00  0.00     0.167 HD
ATOM     51  C   UNL A   1      42.396  24.344  28.197  1.00  0.00     0.037 A 
ATOM     52  C   UNL A   1      42.376  30.838  31.553  1.00  0.00     0.037 A 
ATOM     53  C   UNL A   1      43.499  25.055  28.837  1.00  0.00     0.049 A 
ATOM     54  C   UNL A   1      43.323  29.786  32.075  1.00  0.00     0.074 A 
ATOM     55  C   UNL A   1      44.475  25.902  28.338  1.00  0.00     0.029 A 
ATOM     56  N   UNL A   1      43.511  25.214  30.221  1.00  0.00    -0.354 N 
ATOM     57  N   UNL A   1      43.535  28.642  31.488  1.00  0.00    -0.248 NA
ATOM     58  C   UNL A   1      44.063  29.926  33.324  1.00  0.00     0.031 C 
ATOM     59  C   UNL A   1      45.036  26.615  29.426  1.00  0.00     0.029 A 
ATOM     60  C   UNL A   1      44.421  26.188  30.590  1.00  0.00     0.049 A 
ATOM     61  H   UNL A   1      42.951  24.703  30.849  1.00  0.00     0.167 HD
ATOM     62  C   UNL A   1      44.335  27.873  32.281  1.00  0.00     0.074 A 
ATOM     63  C   UNL A   1      44.671  28.731  33.401  1.00  0.00     0.031 C 
ATOM     64  C   UNL A   1      44.607  26.571  31.983  1.00  0.00     0.037 A 
BRANCH  51  65
ATOM     65  C   UNL A   1      42.586  23.169  27.255  1.00  0.00     0.064 A 
ATOM     66  C   UNL A   1      42.016  21.909  27.546  1.00  0.00     0.173 A 
ATOM     67  C   UNL A   1      43.366  23.198  26.084  1.00  0.00     0.173 A 
ATOM     68  F   UNL A   1      41.155  21.747  28.557  1.00  0.00    -0.203 F 
ATOM     69  C   UNL A   1      42.312  20.759  26.806  1.00  0.00     0.198 A 
ATOM     70  C   UNL A   1      43.714  22.039  25.380  1.00  0.00     0.198 A 
ATOM     71  F   UNL A   1      43.766  24.355  25.543  1.00  0.00    -0.203 F 
ATOM     72  F   UNL A   1      41.742  19.591  27.137  1.00  0.00    -0.200 F 
ATOM     73  C   UNL A   1      43.196  20.816  25.750  1.00  0.00     0.200 A 
ATOM     74  F   UNL A   1      44.554  22.120  24.338  1.00  0.00    -0.200 F 
ATOM     75  F   UNL A   1      43.521  19.706  25.073  1.00  0.00    -0.200 F 
ENDBRANCH  51  65
BRANCH  52  76
ATOM     76  C   UNL A   1      41.248  31.391  32.347  1.00  0.00     0.064 A 
ATOM     77  C   UNL A   1      40.453  30.507  33.094  1.00  0.00     0.173 A 
ATOM     78  C   UNL A   1      41.209  32.752  32.684  1.00  0.00     0.173 A 
ATOM     79  F   UNL A   1      40.453  29.196  32.808  1.00  0.00    -0.203 F 
ATOM     80  C   UNL A   1      39.724  30.953  34.195  1.00  0.00     0.198 A 
ATOM     81  C   UNL A   1      40.494  33.190  33.800  1.00  0.00     0.198 A 
ATOM     82  F   UNL A   1      41.968  33.636  32.023  1.00  0.00    -0.203 F 
ATOM     83  F   UNL A   1      39.031  30.079  34.938  1.00  0.00    -0.200 F 
ATOM     84  C   UNL A   1      39.776  32.287  34.569  1.00  0.00     0.200 A 
ATOM     85  F   UNL A   1      40.579  34.471  34.186  1.00  0.00    -0.200 F 
ATOM     86  F   UNL A   1      39.171  32.694  35.694  1.00  0.00    -0.200 F 
ENDBRANCH  52  76
BRANCH  64  87
ATOM     87  C   UNL A   1      45.149  25.588  32.980  1.00  0.00     0.064 A 
ATOM     88  C   UNL A   1      46.506  25.220  33.033  1.00  0.00     0.173 A 
ATOM     89  C   UNL A   1      44.335  25.092  34.021  1.00  0.00     0.173 A 
ATOM     90  F   UNL A   1      47.400  25.733  32.175  1.00  0.00    -0.203 F 
ATOM     91  C   UNL A   1      46.997  24.351  34.005  1.00  0.00     0.198 A 
ATOM     92  C   UNL A   1      44.842  24.268  35.024  1.00  0.00     0.198 A 
ATOM     93  F   UNL A   1      43.036  25.416  34.104  1.00  0.00    -0.203 F 
ATOM     94  F   UNL A   1      48.289  23.993  33.980  1.00  0.00    -0.200 F 
ATOM     95  C   UNL A   1      46.169  23.881  35.005  1.00  0.00     0.200 A 
ATOM     96  F   UNL A   1      44.043  23.866  36.022  1.00  0.00    -0.200 F 
ATOM     97  F   UNL A   1      46.653  23.078  35.961  1.00  0.00    -0.200 F 
ENDBRANCH  64  87
ENDBRANCH  38  39
ENDBRANCH  30  33
ENDBRANCH  28  29
ENDBRANCH  27  28
ENDBRANCH  26  27
ENDBRANCH   1  26
TORSDOF 15
ENDMDL
MODEL 3
REMARK VINA RESULT:     -12.7      1.777      2.619
REMARK SMILES Cc1cccc(C[N@@H+]2CCn3nc(CCC(=O)NCCCCNC(=O)c4ccc(-c5c6nc(c(-c7c(F)c(F)c(F)c(F)c7F)c7ccc([nH]7)c(-c7c(F)c(F)c(F)c(F)c7F)c7nc(c(-c8c(F)c(F)c(F)c(F)c8F)c8ccc5[nH]8)C=C7)C=C6)cc4)cc3C2)c1
REMARK SMILES IDX 19 1 18 2 16 3 17 4 15 6 14 7 13 8 8 9 9 10 91 11 10 13
REMARK SMILES IDX 90 14 11 15 89 16 12 17 7 18 6 19 1 20 2 21 3 22 92 23 4 24
REMARK SMILES IDX 5 25 20 26 21 27 22 28 23 29 24 30 25 32 26 33 27 34 88 35
REMARK SMILES IDX 28 36 87 37 29 38 30 39 31 40 81 41 32 42 86 43 80 44 82 45
REMARK SMILES IDX 33 46 85 47 79 48 78 49 34 51 66 52 46 53 65 54 47 55 50 56
REMARK SMILES IDX 64 57 83 58 48 59 49 60 63 62 84 63 51 64 35 65 36 66 44 67
REMARK SMILES IDX 37 68 38 69 42 70 45 71 39 72 40 73 43 74 41 75 67 76 68 77
REMARK SMILES IDX 76 78 69 79 70 80 74 81 77 82 71 83 72 84 75 85 73 86 52 87
REMARK SMILES IDX 53 88 61 89 54 90 55 91 59 92 62 93 56 94 57 95 60 96 58 97
REMARK H PARENT 18 5 8 12 23 31 82 50 50 61
REMARK Flexibility Score: inf
ROOT
ATOM      1  C   UNL A   1      31.957  29.382  25.801  1.00  0.00     0.116 C 
ENDROOT
BRANCH   1   2
ATOM      2  N   UNL A   1      31.646  29.720  24.429  1.00  0.00    -0.356 N 
ATOM      3  C   UNL A   1      30.975  28.976  23.503  1.00  0.00     0.220 C 
ATOM      4  O   UNL A   1      30.952  29.380  22.338  1.00  0.00    -0.275 OA
ATOM      5  H   UNL A   1      31.957  30.603  24.123  1.00  0.00     0.163 HD
BRANCH   3   6
ATOM      6  C   UNL A   1      30.244  27.704  23.897  1.00  0.00     0.106 C 
BRANCH   6   7
ATOM      7  C   UNL A   1      30.721  26.478  23.118  1.00  0.00     0.068 C 
BRANCH   7   8
ATOM      8  C   UNL A   1      30.857  25.246  23.960  1.00  0.00     0.063 A 
ATOM      9  N   UNL A   1      32.269  21.978  26.701  1.00  0.00    -0.325 N 
ATOM     10  C   UNL A   1      32.320  21.243  25.434  1.00  0.00     0.286 C 
ATOM     11  C   UNL A   1      31.212  22.967  26.841  1.00  0.00     0.319 C 
ATOM     12  H   UNL A   1      31.925  21.244  27.321  1.00  0.00     0.348 HD
ATOM     13  C   UNL A   1      31.639  21.857  24.195  1.00  0.00     0.206 C 
ATOM     14  C   UNL A   1      31.090  23.804  25.629  1.00  0.00     0.093 A 
ATOM     15  N   UNL A   1      31.194  23.214  24.411  1.00  0.00    -0.258 N 
ATOM     16  C   UNL A   1      30.908  25.144  25.376  1.00  0.00     0.055 A 
ATOM     17  N   UNL A   1      30.923  24.037  23.386  1.00  0.00    -0.177 NA
BRANCH   9  18
ATOM     18  C   UNL A   1      33.540  22.276  27.349  1.00  0.00     0.299 C 
BRANCH  18  19
ATOM     19  C   UNL A   1      34.699  22.646  26.449  1.00  0.00     0.006 A 
ATOM     20  C   UNL A   1      37.865  21.025  25.058  1.00  0.00     0.044 C 
ATOM     21  C   UNL A   1      36.782  22.029  25.322  1.00  0.00    -0.051 A 
ATOM     22  C   UNL A   1      36.848  23.304  24.762  1.00  0.00     0.003 A 
ATOM     23  C   UNL A   1      35.713  21.714  26.170  1.00  0.00     0.013 A 
ATOM     24  C   UNL A   1      35.842  24.235  25.017  1.00  0.00     0.001 A 
ATOM     25  C   UNL A   1      34.775  23.908  25.855  1.00  0.00     0.009 A 
ENDBRANCH  18  19
ENDBRANCH   9  18
ENDBRANCH   7   8
ENDBRANCH   6   7
ENDBRANCH   3   6
ENDBRANCH   1   2
BRANCH   1  26
ATOM     26  C   UNL A   1      33.357  28.784  25.918  1.00  0.00     0.023 C 
BRANCH  26  27
ATOM     27  C   UNL A   1      34.038  28.921  27.274  1.00  0.00     0.023 C 
BRANCH  27  28
ATOM     28  C   UNL A   1      34.878  30.184  27.400  1.00  0.00     0.116 C 
BRANCH  28  29
ATOM     29  N   UNL A   1      34.132  31.410  27.699  1.00  0.00    -0.352 N 
ATOM     30  C   UNL A   1      34.422  32.446  28.583  1.00  0.00     0.251 C 
ATOM     31  H   UNL A   1      33.293  31.518  27.195  1.00  0.00     0.163 HD
ATOM     32  O   UNL A   1      33.651  33.379  28.705  1.00  0.00    -0.269 OA
BRANCH  30  33
ATOM     33  C   UNL A   1      35.742  32.478  29.271  1.00  0.00     0.039 A 
ATOM     34  C   UNL A   1      36.847  33.052  28.621  1.00  0.00     0.014 A 
ATOM     35  C   UNL A   1      35.930  31.750  30.432  1.00  0.00     0.014 A 
ATOM     36  C   UNL A   1      38.141  32.676  28.998  1.00  0.00     0.010 A 
ATOM     37  C   UNL A   1      37.181  31.242  30.685  1.00  0.00     0.010 A 
ATOM     38  C   UNL A   1      38.296  31.679  29.958  1.00  0.00    -0.014 A 
BRANCH  38  39
ATOM     39  C   UNL A   1      39.522  30.919  30.210  1.00  0.00     0.031 A 
ATOM     40  C   UNL A   1      39.746  29.602  29.551  1.00  0.00     0.074 A 
ATOM     41  C   UNL A   1      40.556  31.548  30.809  1.00  0.00     0.049 A 
ATOM     42  N   UNL A   1      40.748  28.823  29.784  1.00  0.00    -0.248 NA
ATOM     43  C   UNL A   1      38.816  29.041  28.574  1.00  0.00     0.031 C 
ATOM     44  C   UNL A   1      41.981  31.280  30.620  1.00  0.00     0.029 A 
ATOM     45  N   UNL A   1      40.523  32.521  31.801  1.00  0.00    -0.354 N 
ATOM     46  C   UNL A   1      40.739  27.817  28.842  1.00  0.00     0.074 A 
ATOM     47  C   UNL A   1      39.507  27.995  28.114  1.00  0.00     0.031 C 
ATOM     48  C   UNL A   1      42.684  31.939  31.555  1.00  0.00     0.029 A 
ATOM     49  C   UNL A   1      41.732  32.488  32.507  1.00  0.00     0.049 A 
ATOM     50  H   UNL A   1      39.772  33.133  31.978  1.00  0.00     0.167 HD
ATOM     51  C   UNL A   1      41.832  27.008  28.713  1.00  0.00     0.037 A 
ATOM     52  C   UNL A   1      41.752  32.215  33.843  1.00  0.00     0.037 A 
ATOM     53  C   UNL A   1      42.840  27.327  29.721  1.00  0.00     0.049 A 
ATOM     54  C   UNL A   1      42.458  30.923  34.172  1.00  0.00     0.074 A 
ATOM     55  C   UNL A   1      43.980  28.114  29.681  1.00  0.00     0.029 A 
ATOM     56  N   UNL A   1      42.575  27.086  31.067  1.00  0.00    -0.354 N 
ATOM     57  N   UNL A   1      42.673  29.971  33.308  1.00  0.00    -0.248 NA
ATOM     58  C   UNL A   1      42.927  30.587  35.512  1.00  0.00     0.031 C 
ATOM     59  C   UNL A   1      44.366  28.394  31.014  1.00  0.00     0.029 A 
ATOM     60  C   UNL A   1      43.479  27.760  31.868  1.00  0.00     0.049 A 
ATOM     61  H   UNL A   1      41.846  26.515  31.401  1.00  0.00     0.167 HD
ATOM     62  C   UNL A   1      43.207  28.893  33.953  1.00  0.00     0.074 A 
ATOM     63  C   UNL A   1      43.383  29.338  35.322  1.00  0.00     0.031 C 
ATOM     64  C   UNL A   1      43.404  27.702  33.320  1.00  0.00     0.037 A 
BRANCH  51  65
ATOM     65  C   UNL A   1      42.098  26.131  27.504  1.00  0.00     0.064 A 
ATOM     66  C   UNL A   1      41.436  24.892  27.349  1.00  0.00     0.173 A 
ATOM     67  C   UNL A   1      43.035  26.420  26.494  1.00  0.00     0.173 A 
ATOM     68  F   UNL A   1      40.435  24.527  28.158  1.00  0.00    -0.203 F 
ATOM     69  C   UNL A   1      41.779  23.973  26.351  1.00  0.00     0.198 A 
ATOM     70  C   UNL A   1      43.425  25.477  25.535  1.00  0.00     0.198 A 
ATOM     71  F   UNL A   1      43.559  27.644  26.362  1.00  0.00    -0.203 F 
ATOM     72  F   UNL A   1      41.116  22.812  26.261  1.00  0.00    -0.200 F 
ATOM     73  C   UNL A   1      42.805  24.248  25.471  1.00  0.00     0.200 A 
ATOM     74  F   UNL A   1      44.406  25.776  24.670  1.00  0.00    -0.200 F 
ATOM     75  F   UNL A   1      43.171  23.347  24.549  1.00  0.00    -0.200 F 
ENDBRANCH  51  65
BRANCH  52  76
ATOM     76  C   UNL A   1      40.543  32.694  34.562  1.00  0.00     0.064 A 
ATOM     77  C   UNL A   1      40.484  34.039  34.960  1.00  0.00     0.173 A 
ATOM     78  C   UNL A   1      39.340  31.976  34.498  1.00  0.00     0.173 A 
ATOM     79  F   UNL A   1      41.608  34.767  35.040  1.00  0.00    -0.203 F 
ATOM     80  C   UNL A   1      39.260  34.667  35.187  1.00  0.00     0.198 A 
ATOM     81  C   UNL A   1      38.117  32.614  34.707  1.00  0.00     0.198 A 
ATOM     82  F   UNL A   1      39.334  30.696  34.099  1.00  0.00    -0.203 F 
ATOM     83  F   UNL A   1      39.223  35.971  35.492  1.00  0.00    -0.200 F 
ATOM     84  C   UNL A   1      38.077  33.963  35.023  1.00  0.00     0.200 A 
ATOM     85  F   UNL A   1      36.972  31.945  34.507  1.00  0.00    -0.200 F 
ATOM     86  F   UNL A   1      36.899  34.596  35.128  1.00  0.00    -0.200 F 
ENDBRANCH  52  76
BRANCH  64  87
ATOM     87  C   UNL A   1      43.621  26.405  34.046  1.00  0.00     0.064 A 
ATOM     88  C   UNL A   1      42.590  25.721  34.714  1.00  0.00     0.173 A 
ATOM     89  C   UNL A   1      44.857  25.729  33.964  1.00  0.00     0.173 A 
ATOM     90  F   UNL A   1      41.339  26.203  34.743  1.00  0.00    -0.203 F 
ATOM     91  C   UNL A   1      42.801  24.488  35.330  1.00  0.00     0.198 A 
ATOM     92  C   UNL A   1      45.048  24.471  34.532  1.00  0.00     0.198 A 
ATOM     93  F   UNL A   1      45.899  26.261  33.307  1.00  0.00    -0.203 F 
ATOM     94  F   UNL A   1      41.797  23.902  35.997  1.00  0.00    -0.200 F 
ATOM     95  C   UNL A   1      44.026  23.859  35.232  1.00  0.00     0.200 A 
ATOM     96  F   UNL A   1      46.223  23.844  34.381  1.00  0.00    -0.200 F 
ATOM     97  F   UNL A   1      44.214  22.657  35.791  1.00  0.00    -0.200 F 
ENDBRANCH  64  87
ENDBRANCH  38  39
ENDBRANCH  30  33
ENDBRANCH  28  29
ENDBRANCH  27  28
ENDBRANCH  26  27
ENDBRANCH   1  26
TORSDOF 15
ENDMDL
