MODEL 1
REMARK VINA RESULT:     -13.7      0.000      0.000
REMARK SMILES O=C(NCCCCNC(=O)[C@@H](Cc1c[nH]c2ccccc12)NC(=O)c1ccc(F)cc1F)c1ccc(-c2c3nc(c(-c4c(F)c(F)c(F)c(F)c4F)c4ccc([nH]4)c(-c4c(F)c(F)c(F)c(F)c4F)c4nc(c(-c5c(F)c(F)c(F)c(F)c5F)c5ccc2[nH]5)C=C4)C=C3)cc1
REMARK SMILES IDX 5 1 4 2 3 3 1 4 2 5 33 7 34 8 95 9 35 10 94 11 36 12 37 13
REMARK SMILES IDX 38 14 88 15 39 16 93 17 87 18 89 19 40 20 92 21 86 22 85 23
REMARK SMILES IDX 41 25 73 26 53 27 72 28 54 29 57 30 71 31 90 32 55 33 56 34
REMARK SMILES IDX 70 36 91 37 58 38 42 39 43 40 51 41 44 42 45 43 49 44 52 45
REMARK SMILES IDX 46 46 47 47 50 48 48 49 74 50 75 51 83 52 76 53 77 54 81 55
REMARK SMILES IDX 84 56 78 57 79 58 82 59 80 60 59 61 60 62 68 63 61 64 62 65
REMARK SMILES IDX 66 66 69 67 63 68 64 69 67 70 65 71 6 72 7 73 8 74 9 75
REMARK SMILES IDX 10 77 11 78 12 79 13 80 14 81 21 82 15 83 16 84 20 85 17 87
REMARK SMILES IDX 19 88 18 89 22 90 23 91 24 93 25 94 26 95 31 96 27 97 30 98
REMARK SMILES IDX 32 99 28 100 29 101
REMARK H PARENT 3 6 89 24 57 35 8 76 15 86 22 92
REMARK Flexibility Score: inf
ROOT
ATOM      1  C   UNL A   1      32.017  28.242  24.932  1.00  0.00     0.023 C 
ENDROOT
BRANCH   1   2
ATOM      2  C   UNL A   1      33.113  29.181  25.400  1.00  0.00     0.116 C 
BRANCH   2   3
ATOM      3  N   UNL A   1      32.612  30.449  25.924  1.00  0.00    -0.352 N 
ATOM      4  O   UNL A   1      32.500  32.237  27.301  1.00  0.00    -0.269 OA
ATOM      5  C   UNL A   1      33.129  31.262  26.904  1.00  0.00     0.251 C 
ATOM      6  H   UNL A   1      31.778  30.771  25.512  1.00  0.00     0.163 HD
BRANCH   5   7
ATOM      7  C   UNL A   1      34.436  30.923  27.502  1.00  0.00     0.039 A 
ATOM      8  C   UNL A   1      34.690  29.620  27.930  1.00  0.00     0.014 A 
ATOM      9  C   UNL A   1      35.387  31.928  27.690  1.00  0.00     0.014 A 
ATOM     10  C   UNL A   1      35.794  29.367  28.726  1.00  0.00     0.010 A 
ATOM     11  C   UNL A   1      36.563  31.639  28.386  1.00  0.00     0.010 A 
ATOM     12  C   UNL A   1      36.756  30.365  28.942  1.00  0.00    -0.014 A 
BRANCH  12  13
ATOM     13  C   UNL A   1      37.984  30.032  29.701  1.00  0.00     0.031 A 
ATOM     14  C   UNL A   1      39.066  29.189  29.091  1.00  0.00     0.074 A 
ATOM     15  C   UNL A   1      38.128  30.542  30.940  1.00  0.00     0.049 A 
ATOM     16  N   UNL A   1      40.155  28.720  29.648  1.00  0.00    -0.248 NA
ATOM     17  C   UNL A   1      38.914  28.819  27.674  1.00  0.00     0.031 C 
ATOM     18  C   UNL A   1      37.153  31.406  31.614  1.00  0.00     0.029 A 
ATOM     19  N   UNL A   1      39.149  30.431  31.846  1.00  0.00    -0.354 N 
ATOM     20  C   UNL A   1      40.799  27.981  28.665  1.00  0.00     0.074 A 
ATOM     21  C   UNL A   1      39.980  28.055  27.474  1.00  0.00     0.031 C 
ATOM     22  C   UNL A   1      37.648  31.791  32.797  1.00  0.00     0.029 A 
ATOM     23  C   UNL A   1      38.924  31.123  33.009  1.00  0.00     0.049 A 
ATOM     24  H   UNL A   1      39.965  29.905  31.678  1.00  0.00     0.167 HD
ATOM     25  C   UNL A   1      41.969  27.305  28.760  1.00  0.00     0.037 A 
ATOM     26  C   UNL A   1      39.646  31.181  34.142  1.00  0.00     0.037 A 
ATOM     27  C   UNL A   1      42.782  27.258  29.949  1.00  0.00     0.049 A 
ATOM     28  C   UNL A   1      40.910  30.380  34.228  1.00  0.00     0.074 A 
ATOM     29  C   UNL A   1      43.968  26.577  30.159  1.00  0.00     0.029 A 
ATOM     30  N   UNL A   1      42.497  27.936  31.126  1.00  0.00    -0.354 N 
ATOM     31  N   UNL A   1      41.476  29.629  33.315  1.00  0.00    -0.248 NA
ATOM     32  C   UNL A   1      41.625  30.417  35.509  1.00  0.00     0.031 C 
ATOM     33  C   UNL A   1      44.388  26.821  31.471  1.00  0.00     0.029 A 
ATOM     34  C   UNL A   1      43.485  27.687  32.066  1.00  0.00     0.049 A 
ATOM     35  H   UNL A   1      41.711  28.510  31.271  1.00  0.00     0.167 HD
ATOM     36  C   UNL A   1      42.615  29.107  33.906  1.00  0.00     0.074 A 
ATOM     37  C   UNL A   1      42.676  29.653  35.247  1.00  0.00     0.031 C 
ATOM     38  C   UNL A   1      43.523  28.243  33.392  1.00  0.00     0.037 A 
BRANCH  25  39
ATOM     39  C   UNL A   1      42.449  26.546  27.559  1.00  0.00     0.064 A 
ATOM     40  C   UNL A   1      42.054  25.214  27.357  1.00  0.00     0.173 A 
ATOM     41  C   UNL A   1      43.378  27.097  26.666  1.00  0.00     0.173 A 
ATOM     42  F   UNL A   1      41.170  24.639  28.185  1.00  0.00    -0.203 F 
ATOM     43  C   UNL A   1      42.591  24.456  26.319  1.00  0.00     0.198 A 
ATOM     44  C   UNL A   1      43.898  26.342  25.617  1.00  0.00     0.198 A 
ATOM     45  F   UNL A   1      43.777  28.370  26.809  1.00  0.00    -0.203 F 
ATOM     46  F   UNL A   1      42.226  23.174  26.168  1.00  0.00    -0.200 F 
ATOM     47  C   UNL A   1      43.513  25.020  25.452  1.00  0.00     0.200 A 
ATOM     48  F   UNL A   1      44.777  26.893  24.767  1.00  0.00    -0.200 F 
ATOM     49  F   UNL A   1      44.032  24.289  24.455  1.00  0.00    -0.200 F 
ENDBRANCH  25  39
BRANCH  26  50
ATOM     50  C   UNL A   1      39.165  31.997  35.285  1.00  0.00     0.064 A 
ATOM     51  C   UNL A   1      38.418  31.425  36.326  1.00  0.00     0.173 A 
ATOM     52  C   UNL A   1      39.433  33.370  35.352  1.00  0.00     0.173 A 
ATOM     53  F   UNL A   1      38.131  30.115  36.306  1.00  0.00    -0.203 F 
ATOM     54  C   UNL A   1      37.939  32.199  37.379  1.00  0.00     0.198 A 
ATOM     55  C   UNL A   1      38.981  34.138  36.423  1.00  0.00     0.198 A 
ATOM     56  F   UNL A   1      40.160  33.958  34.391  1.00  0.00    -0.203 F 
ATOM     57  F   UNL A   1      37.195  31.635  38.339  1.00  0.00    -0.200 F 
ATOM     58  C   UNL A   1      38.228  33.554  37.431  1.00  0.00     0.200 A 
ATOM     59  F   UNL A   1      39.285  35.442  36.483  1.00  0.00    -0.200 F 
ATOM     60  F   UNL A   1      37.785  34.296  38.455  1.00  0.00    -0.200 F 
ENDBRANCH  26  50
BRANCH  38  61
ATOM     61  C   UNL A   1      44.664  27.858  34.282  1.00  0.00     0.064 A 
ATOM     62  C   UNL A   1      45.840  28.620  34.298  1.00  0.00     0.173 A 
ATOM     63  C   UNL A   1      44.596  26.728  35.109  1.00  0.00     0.173 A 
ATOM     64  F   UNL A   1      45.953  29.708  33.521  1.00  0.00    -0.203 F 
ATOM     65  C   UNL A   1      46.910  28.265  35.115  1.00  0.00     0.198 A 
ATOM     66  C   UNL A   1      45.656  26.391  35.944  1.00  0.00     0.198 A 
ATOM     67  F   UNL A   1      43.483  25.980  35.139  1.00  0.00    -0.203 F 
ATOM     68  F   UNL A   1      48.030  29.000  35.106  1.00  0.00    -0.200 F 
ATOM     69  C   UNL A   1      46.813  27.157  35.943  1.00  0.00     0.200 A 
ATOM     70  F   UNL A   1      45.551  25.338  36.766  1.00  0.00    -0.200 F 
ATOM     71  F   UNL A   1      47.833  26.832  36.750  1.00  0.00    -0.200 F 
ENDBRANCH  38  61
ENDBRANCH  12  13
ENDBRANCH   5   7
ENDBRANCH   2   3
ENDBRANCH   1   2
BRANCH   1  72
ATOM     72  C   UNL A   1      31.503  27.319  26.018  1.00  0.00     0.023 C 
BRANCH  72  73
ATOM     73  C   UNL A   1      30.540  26.226  25.577  1.00  0.00     0.116 C 
BRANCH  73  74
ATOM     74  N   UNL A   1      30.597  25.126  26.514  1.00  0.00    -0.354 N 
ATOM     75  C   UNL A   1      30.971  23.834  26.313  1.00  0.00     0.242 C 
ATOM     76  H   UNL A   1      30.325  25.345  27.434  1.00  0.00     0.163 HD
ATOM     77  O   UNL A   1      30.460  22.994  27.064  1.00  0.00    -0.273 OA
BRANCH  75  78
ATOM     78  C   UNL A   1      31.914  23.364  25.177  1.00  0.00     0.176 C 
BRANCH  78  79
ATOM     79  C   UNL A   1      31.710  21.916  24.691  1.00  0.00     0.072 C 
BRANCH  79  80
ATOM     80  C   UNL A   1      32.821  20.927  24.897  1.00  0.00    -0.020 A 
ATOM     81  C   UNL A   1      33.892  21.029  25.767  1.00  0.00     0.087 A 
ATOM     82  C   UNL A   1      32.942  19.645  24.256  1.00  0.00     0.003 A 
ATOM     83  N   UNL A   1      34.674  19.910  25.631  1.00  0.00    -0.361 N 
ATOM     84  C   UNL A   1      34.143  19.073  24.679  1.00  0.00     0.046 A 
ATOM     85  C   UNL A   1      32.175  18.956  23.290  1.00  0.00     0.010 A 
ATOM     86  H   UNL A   1      35.496  19.732  26.141  1.00  0.00     0.166 HD
ATOM     87  C   UNL A   1      34.645  17.881  24.141  1.00  0.00     0.026 A 
ATOM     88  C   UNL A   1      32.664  17.765  22.741  1.00  0.00     0.001 A 
ATOM     89  C   UNL A   1      33.888  17.245  23.153  1.00  0.00     0.002 A 
ENDBRANCH  79  80
ENDBRANCH  78  79
BRANCH  78  90
ATOM     90  N   UNL A   1      32.166  24.321  24.094  1.00  0.00    -0.340 N 
ATOM     91  C   UNL A   1      33.360  24.780  23.595  1.00  0.00     0.254 C 
ATOM     92  H   UNL A   1      31.362  24.687  23.662  1.00  0.00     0.164 HD
ATOM     93  O   UNL A   1      33.367  25.703  22.785  1.00  0.00    -0.269 OA
BRANCH  91  94
ATOM     94  C   UNL A   1      34.630  24.139  23.985  1.00  0.00     0.075 A 
ATOM     95  C   UNL A   1      35.265  23.231  23.125  1.00  0.00     0.020 A 
ATOM     96  C   UNL A   1      35.226  24.473  25.202  1.00  0.00     0.138 A 
ATOM     97  C   UNL A   1      36.448  22.611  23.525  1.00  0.00     0.040 A 
ATOM     98  C   UNL A   1      36.420  23.873  25.592  1.00  0.00     0.079 A 
ATOM     99  F   UNL A   1      34.651  25.353  26.034  1.00  0.00    -0.206 F 
ATOM    100  C   UNL A   1      37.013  22.936  24.755  1.00  0.00     0.126 A 
ATOM    101  F   UNL A   1      38.149  22.338  25.132  1.00  0.00    -0.207 F 
ENDBRANCH  91  94
ENDBRANCH  78  90
ENDBRANCH  75  78
ENDBRANCH  73  74
ENDBRANCH  72  73
ENDBRANCH   1  72
TORSDOF 15
ENDMDL
MODEL 2
REMARK VINA RESULT:     -13.5      2.421      4.120
REMARK SMILES O=C(NCCCCNC(=O)[C@@H](Cc1c[nH]c2ccccc12)NC(=O)c1ccc(F)cc1F)c1ccc(-c2c3nc(c(-c4c(F)c(F)c(F)c(F)c4F)c4ccc([nH]4)c(-c4c(F)c(F)c(F)c(F)c4F)c4nc(c(-c5c(F)c(F)c(F)c(F)c5F)c5ccc2[nH]5)C=C4)C=C3)cc1
REMARK SMILES IDX 5 1 4 2 3 3 1 4 2 5 33 7 34 8 95 9 35 10 94 11 36 12 37 13
REMARK SMILES IDX 38 14 88 15 39 16 93 17 87 18 89 19 40 20 92 21 86 22 85 23
REMARK SMILES IDX 41 25 73 26 53 27 72 28 54 29 57 30 71 31 90 32 55 33 56 34
REMARK SMILES IDX 70 36 91 37 58 38 42 39 43 40 51 41 44 42 45 43 49 44 52 45
REMARK SMILES IDX 46 46 47 47 50 48 48 49 74 50 75 51 83 52 76 53 77 54 81 55
REMARK SMILES IDX 84 56 78 57 79 58 82 59 80 60 59 61 60 62 68 63 61 64 62 65
REMARK SMILES IDX 66 66 69 67 63 68 64 69 67 70 65 71 6 72 7 73 8 74 9 75
REMARK SMILES IDX 10 77 11 78 12 79 13 80 14 81 21 82 15 83 16 84 20 85 17 87
REMARK SMILES IDX 19 88 18 89 22 90 23 91 24 93 25 94 26 95 31 96 27 97 30 98
REMARK SMILES IDX 32 99 28 100 29 101
REMARK H PARENT 3 6 89 24 57 35 8 76 15 86 22 92
REMARK Flexibility Score: inf
ROOT
ATOM      1  C   UNL A   1      31.542  32.182  26.899  1.00  0.00     0.023 C 
ENDROOT
BRANCH   1   2
ATOM      2  C   UNL A   1      32.759  32.952  27.378  1.00  0.00     0.116 C 
BRANCH   2   3
ATOM      3  N   UNL A   1      32.465  34.331  27.759  1.00  0.00    -0.352 N 
ATOM      4  O   UNL A   1      32.565  36.217  28.998  1.00  0.00    -0.269 OA
ATOM      5  C   UNL A   1      33.029  35.112  28.740  1.00  0.00     0.251 C 
ATOM      6  H   UNL A   1      31.756  34.767  27.235  1.00  0.00     0.163 HD
BRANCH   5   7
ATOM      7  C   UNL A   1      34.177  34.586  29.504  1.00  0.00     0.039 A 
ATOM      8  C   UNL A   1      35.468  34.696  28.988  1.00  0.00     0.014 A 
ATOM      9  C   UNL A   1      33.953  33.925  30.714  1.00  0.00     0.014 A 
ATOM     10  C   UNL A   1      36.498  33.973  29.565  1.00  0.00     0.010 A 
ATOM     11  C   UNL A   1      35.020  33.301  31.364  1.00  0.00     0.010 A 
ATOM     12  C   UNL A   1      36.292  33.289  30.773  1.00  0.00    -0.014 A 
BRANCH  12  13
ATOM     13  C   UNL A   1      37.441  32.621  31.428  1.00  0.00     0.031 A 
ATOM     14  C   UNL A   1      38.203  31.530  30.733  1.00  0.00     0.074 A 
ATOM     15  C   UNL A   1      37.815  33.047  32.651  1.00  0.00     0.049 A 
ATOM     16  N   UNL A   1      39.165  30.774  31.199  1.00  0.00    -0.248 NA
ATOM     17  C   UNL A   1      37.844  31.245  29.333  1.00  0.00     0.031 C 
ATOM     18  C   UNL A   1      37.167  34.127  33.402  1.00  0.00     0.029 A 
ATOM     19  N   UNL A   1      38.837  32.645  33.470  1.00  0.00    -0.354 N 
ATOM     20  C   UNL A   1      39.505  29.909  30.167  1.00  0.00     0.074 A 
ATOM     21  C   UNL A   1      38.645  30.227  29.047  1.00  0.00     0.031 C 
ATOM     22  C   UNL A   1      37.840  34.339  34.540  1.00  0.00     0.029 A 
ATOM     23  C   UNL A   1      38.901  33.347  34.647  1.00  0.00     0.049 A 
ATOM     24  H   UNL A   1      39.465  31.922  33.236  1.00  0.00     0.167 HD
ATOM     25  C   UNL A   1      40.453  28.941  30.166  1.00  0.00     0.037 A 
ATOM     26  C   UNL A   1      39.699  33.184  35.717  1.00  0.00     0.037 A 
ATOM     27  C   UNL A   1      41.314  28.651  31.285  1.00  0.00     0.049 A 
ATOM     28  C   UNL A   1      40.702  32.071  35.700  1.00  0.00     0.074 A 
ATOM     29  C   UNL A   1      42.285  27.672  31.396  1.00  0.00     0.029 A 
ATOM     30  N   UNL A   1      41.318  29.356  32.479  1.00  0.00    -0.354 N 
ATOM     31  N   UNL A   1      40.969  31.215  34.744  1.00  0.00    -0.248 NA
ATOM     32  C   UNL A   1      41.499  31.886  36.918  1.00  0.00     0.031 C 
ATOM     33  C   UNL A   1      42.857  27.765  32.669  1.00  0.00     0.029 A 
ATOM     34  C   UNL A   1      42.272  28.829  33.335  1.00  0.00     0.049 A 
ATOM     35  H   UNL A   1      40.730  30.117  32.689  1.00  0.00     0.167 HD
ATOM     36  C   UNL A   1      41.968  30.392  35.240  1.00  0.00     0.074 A 
ATOM     37  C   UNL A   1      42.280  30.873  36.571  1.00  0.00     0.031 C 
ATOM     38  C   UNL A   1      42.564  29.326  34.654  1.00  0.00     0.037 A 
BRANCH  25  39
ATOM     39  C   UNL A   1      40.612  28.106  28.931  1.00  0.00     0.064 A 
ATOM     40  C   UNL A   1      41.432  28.544  27.878  1.00  0.00     0.173 A 
ATOM     41  C   UNL A   1      39.876  26.928  28.742  1.00  0.00     0.173 A 
ATOM     42  F   UNL A   1      42.154  29.667  28.008  1.00  0.00    -0.203 F 
ATOM     43  C   UNL A   1      41.489  27.846  26.675  1.00  0.00     0.198 A 
ATOM     44  C   UNL A   1      39.951  26.221  27.544  1.00  0.00     0.198 A 
ATOM     45  F   UNL A   1      39.088  26.462  29.722  1.00  0.00    -0.203 F 
ATOM     46  F   UNL A   1      42.252  28.303  25.671  1.00  0.00    -0.200 F 
ATOM     47  C   UNL A   1      40.749  26.686  26.509  1.00  0.00     0.200 A 
ATOM     48  F   UNL A   1      39.248  25.090  27.389  1.00  0.00    -0.200 F 
ATOM     49  F   UNL A   1      40.802  26.016  25.348  1.00  0.00    -0.200 F 
ENDBRANCH  25  39
BRANCH  26  50
ATOM     50  C   UNL A   1      39.549  34.075  36.895  1.00  0.00     0.064 A 
ATOM     51  C   UNL A   1      40.185  35.325  36.951  1.00  0.00     0.173 A 
ATOM     52  C   UNL A   1      38.776  33.686  37.996  1.00  0.00     0.173 A 
ATOM     53  F   UNL A   1      40.940  35.741  35.924  1.00  0.00    -0.203 F 
ATOM     54  C   UNL A   1      40.070  36.142  38.071  1.00  0.00     0.198 A 
ATOM     55  C   UNL A   1      38.635  34.519  39.104  1.00  0.00     0.198 A 
ATOM     56  F   UNL A   1      38.134  32.509  37.982  1.00  0.00    -0.203 F 
ATOM     57  F   UNL A   1      40.718  37.313  38.114  1.00  0.00    -0.200 F 
ATOM     58  C   UNL A   1      39.288  35.742  39.144  1.00  0.00     0.200 A 
ATOM     59  F   UNL A   1      37.857  34.141  40.127  1.00  0.00    -0.200 F 
ATOM     60  F   UNL A   1      39.159  36.537  40.214  1.00  0.00    -0.200 F 
ENDBRANCH  26  50
BRANCH  38  61
ATOM     61  C   UNL A   1      43.626  28.629  35.447  1.00  0.00     0.064 A 
ATOM     62  C   UNL A   1      43.283  27.637  36.375  1.00  0.00     0.173 A 
ATOM     63  C   UNL A   1      44.982  28.955  35.296  1.00  0.00     0.173 A 
ATOM     64  F   UNL A   1      41.998  27.295  36.557  1.00  0.00    -0.203 F 
ATOM     65  C   UNL A   1      44.262  26.991  37.124  1.00  0.00     0.198 A 
ATOM     66  C   UNL A   1      45.960  28.288  36.027  1.00  0.00     0.198 A 
ATOM     67  F   UNL A   1      45.358  29.886  34.407  1.00  0.00    -0.203 F 
ATOM     68  F   UNL A   1      43.912  26.054  38.016  1.00  0.00    -0.200 F 
ATOM     69  C   UNL A   1      45.599  27.311  36.942  1.00  0.00     0.200 A 
ATOM     70  F   UNL A   1      47.254  28.577  35.829  1.00  0.00    -0.200 F 
ATOM     71  F   UNL A   1      46.544  26.668  37.644  1.00  0.00    -0.200 F 
ENDBRANCH  38  61
ENDBRANCH  12  13
ENDBRANCH   5   7
ENDBRANCH   2   3
ENDBRANCH   1   2
BRANCH   1  72
ATOM     72  C   UNL A   1      31.808  30.708  26.668  1.00  0.00     0.023 C 
BRANCH  72  73
ATOM     73  C   UNL A   1      31.506  30.176  25.275  1.00  0.00     0.116 C 
BRANCH  73  74
ATOM     74  N   UNL A   1      32.731  29.718  24.658  1.00  0.00    -0.354 N 
ATOM     75  C   UNL A   1      33.137  28.451  24.373  1.00  0.00     0.242 C 
ATOM     76  H   UNL A   1      33.364  30.427  24.408  1.00  0.00     0.163 HD
ATOM     77  O   UNL A   1      34.360  28.262  24.350  1.00  0.00    -0.273 OA
BRANCH  75  78
ATOM     78  C   UNL A   1      32.179  27.253  24.159  1.00  0.00     0.176 C 
BRANCH  78  79
ATOM     79  C   UNL A   1      31.145  27.013  25.276  1.00  0.00     0.072 C 
BRANCH  79  80
ATOM     80  C   UNL A   1      31.087  25.658  25.921  1.00  0.00    -0.020 A 
ATOM     81  C   UNL A   1      29.961  24.966  26.331  1.00  0.00     0.087 A 
ATOM     82  C   UNL A   1      32.208  24.796  26.181  1.00  0.00     0.003 A 
ATOM     83  N   UNL A   1      30.357  23.771  26.877  1.00  0.00    -0.361 N 
ATOM     84  C   UNL A   1      31.727  23.665  26.843  1.00  0.00     0.046 A 
ATOM     85  C   UNL A   1      33.602  24.915  25.984  1.00  0.00     0.010 A 
ATOM     86  H   UNL A   1      29.749  23.088  27.240  1.00  0.00     0.166 HD
ATOM     87  C   UNL A   1      32.572  22.680  27.371  1.00  0.00     0.026 A 
ATOM     88  C   UNL A   1      34.459  23.941  26.508  1.00  0.00     0.001 A 
ATOM     89  C   UNL A   1      33.950  22.848  27.203  1.00  0.00     0.002 A 
ENDBRANCH  79  80
ENDBRANCH  78  79
BRANCH  78  90
ATOM     90  N   UNL A   1      31.638  27.077  22.805  1.00  0.00    -0.340 N 
ATOM     91  C   UNL A   1      31.728  25.996  21.964  1.00  0.00     0.254 C 
ATOM     92  H   UNL A   1      31.138  27.846  22.450  1.00  0.00     0.164 HD
ATOM     93  O   UNL A   1      31.342  26.095  20.803  1.00  0.00    -0.269 OA
BRANCH  91  94
ATOM     94  C   UNL A   1      32.237  24.703  22.459  1.00  0.00     0.075 A 
ATOM     95  C   UNL A   1      33.612  24.423  22.439  1.00  0.00     0.020 A 
ATOM     96  C   UNL A   1      31.348  23.769  22.991  1.00  0.00     0.138 A 
ATOM     97  C   UNL A   1      34.072  23.183  22.882  1.00  0.00     0.040 A 
ATOM     98  C   UNL A   1      31.808  22.540  23.456  1.00  0.00     0.079 A 
ATOM     99  F   UNL A   1      30.032  24.019  23.041  1.00  0.00    -0.206 F 
ATOM    100  C   UNL A   1      33.165  22.253  23.384  1.00  0.00     0.126 A 
ATOM    101  F   UNL A   1      33.613  21.065  23.807  1.00  0.00    -0.207 F 
ENDBRANCH  91  94
ENDBRANCH  78  90
ENDBRANCH  75  78
ENDBRANCH  73  74
ENDBRANCH  72  73
ENDBRANCH   1  72
TORSDOF 15
ENDMDL
MODEL 3
REMARK VINA RESULT:     -13.5      2.327      7.810
REMARK SMILES O=C(NCCCCNC(=O)[C@@H](Cc1c[nH]c2ccccc12)NC(=O)c1ccc(F)cc1F)c1ccc(-c2c3nc(c(-c4c(F)c(F)c(F)c(F)c4F)c4ccc([nH]4)c(-c4c(F)c(F)c(F)c(F)c4F)c4nc(c(-c5c(F)c(F)c(F)c(F)c5F)c5ccc2[nH]5)C=C4)C=C3)cc1
REMARK SMILES IDX 5 1 4 2 3 3 1 4 2 5 33 7 34 8 95 9 35 10 94 11 36 12 37 13
REMARK SMILES IDX 38 14 88 15 39 16 93 17 87 18 89 19 40 20 92 21 86 22 85 23
REMARK SMILES IDX 41 25 73 26 53 27 72 28 54 29 57 30 71 31 90 32 55 33 56 34
REMARK SMILES IDX 70 36 91 37 58 38 42 39 43 40 51 41 44 42 45 43 49 44 52 45
REMARK SMILES IDX 46 46 47 47 50 48 48 49 74 50 75 51 83 52 76 53 77 54 81 55
REMARK SMILES IDX 84 56 78 57 79 58 82 59 80 60 59 61 60 62 68 63 61 64 62 65
REMARK SMILES IDX 66 66 69 67 63 68 64 69 67 70 65 71 6 72 7 73 8 74 9 75
REMARK SMILES IDX 10 77 11 78 12 79 13 80 14 81 21 82 15 83 16 84 20 85 17 87
REMARK SMILES IDX 19 88 18 89 22 90 23 91 24 93 25 94 26 95 31 96 27 97 30 98
REMARK SMILES IDX 32 99 28 100 29 101
REMARK H PARENT 3 6 89 24 57 35 8 76 15 86 22 92
REMARK Flexibility Score: inf
ROOT
ATOM      1  C   UNL A   1      31.528  32.241  26.851  1.00  0.00     0.023 C 
ENDROOT
BRANCH   1   2
ATOM      2  C   UNL A   1      32.766  33.019  27.257  1.00  0.00     0.116 C 
BRANCH   2   3
ATOM      3  N   UNL A   1      32.479  34.374  27.720  1.00  0.00    -0.352 N 
ATOM      4  O   UNL A   1      32.584  36.180  29.074  1.00  0.00    -0.269 OA
ATOM      5  C   UNL A   1      33.041  35.089  28.751  1.00  0.00     0.251 C 
ATOM      6  H   UNL A   1      31.777  34.847  27.219  1.00  0.00     0.163 HD
BRANCH   5   7
ATOM      7  C   UNL A   1      34.179  34.508  29.489  1.00  0.00     0.039 A 
ATOM      8  C   UNL A   1      35.469  34.597  28.966  1.00  0.00     0.014 A 
ATOM      9  C   UNL A   1      33.946  33.818  30.681  1.00  0.00     0.014 A 
ATOM     10  C   UNL A   1      36.482  33.828  29.512  1.00  0.00     0.010 A 
ATOM     11  C   UNL A   1      35.000  33.146  31.303  1.00  0.00     0.010 A 
ATOM     12  C   UNL A   1      36.267  33.115  30.701  1.00  0.00    -0.014 A 
BRANCH  12  13
ATOM     13  C   UNL A   1      37.402  32.396  31.326  1.00  0.00     0.031 A 
ATOM     14  C   UNL A   1      37.890  32.763  32.698  1.00  0.00     0.074 A 
ATOM     15  C   UNL A   1      37.960  31.372  30.650  1.00  0.00     0.049 A 
ATOM     16  N   UNL A   1      38.931  32.306  33.349  1.00  0.00    -0.248 NA
ATOM     17  C   UNL A   1      37.117  33.772  33.440  1.00  0.00     0.031 C 
ATOM     18  C   UNL A   1      37.537  30.907  29.325  1.00  0.00     0.029 A 
ATOM     19  N   UNL A   1      38.982  30.524  30.985  1.00  0.00    -0.354 N 
ATOM     20  C   UNL A   1      38.954  32.988  34.558  1.00  0.00     0.074 A 
ATOM     21  C   UNL A   1      37.827  33.896  34.554  1.00  0.00     0.031 C 
ATOM     22  C   UNL A   1      38.253  29.827  28.987  1.00  0.00     0.029 A 
ATOM     23  C   UNL A   1      39.249  29.585  30.021  1.00  0.00     0.049 A 
ATOM     24  H   UNL A   1      39.477  30.583  31.834  1.00  0.00     0.167 HD
ATOM     25  C   UNL A   1      39.841  32.859  35.573  1.00  0.00     0.037 A 
ATOM     26  C   UNL A   1      40.218  28.654  29.955  1.00  0.00     0.037 A 
ATOM     27  C   UNL A   1      40.947  31.935  35.568  1.00  0.00     0.049 A 
ATOM     28  C   UNL A   1      41.212  28.575  31.074  1.00  0.00     0.074 A 
ATOM     29  C   UNL A   1      41.922  31.748  36.533  1.00  0.00     0.029 A 
ATOM     30  N   UNL A   1      41.213  31.029  34.551  1.00  0.00    -0.354 N 
ATOM     31  N   UNL A   1      41.265  29.272  32.182  1.00  0.00    -0.248 NA
ATOM     32  C   UNL A   1      42.294  27.595  30.922  1.00  0.00     0.031 C 
ATOM     33  C   UNL A   1      42.793  30.748  36.088  1.00  0.00     0.029 A 
ATOM     34  C   UNL A   1      42.338  30.284  34.865  1.00  0.00     0.049 A 
ATOM     35  H   UNL A   1      40.681  30.931  33.729  1.00  0.00     0.167 HD
ATOM     36  C   UNL A   1      42.381  28.814  32.865  1.00  0.00     0.074 A 
ATOM     37  C   UNL A   1      42.957  27.756  32.058  1.00  0.00     0.031 C 
ATOM     38  C   UNL A   1      42.891  29.237  34.046  1.00  0.00     0.037 A 
BRANCH  25  39
ATOM     39  C   UNL A   1      39.676  33.739  36.775  1.00  0.00     0.064 A 
ATOM     40  C   UNL A   1      38.855  33.338  37.842  1.00  0.00     0.173 A 
ATOM     41  C   UNL A   1      40.242  35.020  36.830  1.00  0.00     0.173 A 
ATOM     42  F   UNL A   1      38.286  32.123  37.836  1.00  0.00    -0.203 F 
ATOM     43  C   UNL A   1      38.589  34.197  38.905  1.00  0.00     0.198 A 
ATOM     44  C   UNL A   1      39.990  35.870  37.905  1.00  0.00     0.198 A 
ATOM     45  F   UNL A   1      41.044  35.446  35.842  1.00  0.00    -0.203 F 
ATOM     46  F   UNL A   1      37.772  33.805  39.894  1.00  0.00    -0.200 F 
ATOM     47  C   UNL A   1      39.155  35.462  38.935  1.00  0.00     0.200 A 
ATOM     48  F   UNL A   1      40.552  37.087  37.943  1.00  0.00    -0.200 F 
ATOM     49  F   UNL A   1      38.895  36.289  39.957  1.00  0.00    -0.200 F 
ENDBRANCH  25  39
BRANCH  26  50
ATOM     50  C   UNL A   1      40.307  27.761  28.773  1.00  0.00     0.064 A 
ATOM     51  C   UNL A   1      41.047  28.125  27.637  1.00  0.00     0.173 A 
ATOM     52  C   UNL A   1      39.642  26.529  28.750  1.00  0.00     0.173 A 
ATOM     53  F   UNL A   1      41.698  29.296  27.606  1.00  0.00    -0.203 F 
ATOM     54  C   UNL A   1      41.100  27.300  26.517  1.00  0.00     0.198 A 
ATOM     55  C   UNL A   1      39.722  25.689  27.642  1.00  0.00     0.198 A 
ATOM     56  F   UNL A   1      38.938  26.129  29.820  1.00  0.00    -0.203 F 
ATOM     57  F   UNL A   1      41.782  27.689  25.432  1.00  0.00    -0.200 F 
ATOM     58  C   UNL A   1      40.444  26.079  26.523  1.00  0.00     0.200 A 
ATOM     59  F   UNL A   1      39.109  24.498  27.662  1.00  0.00    -0.200 F 
ATOM     60  F   UNL A   1      40.512  25.275  25.454  1.00  0.00    -0.200 F 
ENDBRANCH  26  50
BRANCH  38  61
ATOM     61  C   UNL A   1      44.121  28.537  34.537  1.00  0.00     0.064 A 
ATOM     62  C   UNL A   1      45.393  29.028  34.216  1.00  0.00     0.173 A 
ATOM     63  C   UNL A   1      44.036  27.373  35.315  1.00  0.00     0.173 A 
ATOM     64  F   UNL A   1      45.523  30.136  33.470  1.00  0.00    -0.203 F 
ATOM     65  C   UNL A   1      46.541  28.379  34.659  1.00  0.00     0.198 A 
ATOM     66  C   UNL A   1      45.186  26.742  35.779  1.00  0.00     0.198 A 
ATOM     67  F   UNL A   1      42.839  26.878  35.661  1.00  0.00    -0.203 F 
ATOM     68  F   UNL A   1      47.749  28.857  34.330  1.00  0.00    -0.200 F 
ATOM     69  C   UNL A   1      46.436  27.243  35.447  1.00  0.00     0.200 A 
ATOM     70  F   UNL A   1      45.083  25.662  36.565  1.00  0.00    -0.200 F 
ATOM     71  F   UNL A   1      47.543  26.634  35.898  1.00  0.00    -0.200 F 
ENDBRANCH  38  61
ENDBRANCH  12  13
ENDBRANCH   5   7
ENDBRANCH   2   3
ENDBRANCH   1   2
BRANCH   1  72
ATOM     72  C   UNL A   1      31.773  30.756  26.675  1.00  0.00     0.023 C 
BRANCH  72  73
ATOM     73  C   UNL A   1      31.541  30.192  25.281  1.00  0.00     0.116 C 
BRANCH  73  74
ATOM     74  N   UNL A   1      32.791  29.703  24.744  1.00  0.00    -0.354 N 
ATOM     75  C   UNL A   1      33.190  28.425  24.502  1.00  0.00     0.242 C 
ATOM     76  H   UNL A   1      33.452  30.396  24.523  1.00  0.00     0.163 HD
ATOM     77  O   UNL A   1      34.408  28.213  24.556  1.00  0.00    -0.273 OA
BRANCH  75  78
ATOM     78  C   UNL A   1      32.223  27.241  24.249  1.00  0.00     0.176 C 
BRANCH  78  79
ATOM     79  C   UNL A   1      31.175  26.982  25.349  1.00  0.00     0.072 C 
BRANCH  79  80
ATOM     80  C   UNL A   1      31.104  25.614  25.963  1.00  0.00    -0.020 A 
ATOM     81  C   UNL A   1      29.971  24.924  26.358  1.00  0.00     0.087 A 
ATOM     82  C   UNL A   1      32.216  24.735  26.204  1.00  0.00     0.003 A 
ATOM     83  N   UNL A   1      30.355  23.713  26.877  1.00  0.00    -0.361 N 
ATOM     84  C   UNL A   1      31.723  23.594  26.840  1.00  0.00     0.046 A 
ATOM     85  C   UNL A   1      33.610  24.844  26.009  1.00  0.00     0.010 A 
ATOM     86  H   UNL A   1      29.739  23.030  27.225  1.00  0.00     0.166 HD
ATOM     87  C   UNL A   1      32.558  22.589  27.346  1.00  0.00     0.026 A 
ATOM     88  C   UNL A   1      34.458  23.849  26.510  1.00  0.00     0.001 A 
ATOM     89  C   UNL A   1      33.937  22.746  27.181  1.00  0.00     0.002 A 
ENDBRANCH  79  80
ENDBRANCH  78  79
BRANCH  78  90
ATOM     90  N   UNL A   1      31.695  27.104  22.886  1.00  0.00    -0.340 N 
ATOM     91  C   UNL A   1      31.772  26.038  22.024  1.00  0.00     0.254 C 
ATOM     92  H   UNL A   1      31.216  27.891  22.540  1.00  0.00     0.164 HD
ATOM     93  O   UNL A   1      31.401  26.169  20.861  1.00  0.00    -0.269 OA
BRANCH  91  94
ATOM     94  C   UNL A   1      32.247  24.725  22.498  1.00  0.00     0.075 A 
ATOM     95  C   UNL A   1      33.612  24.402  22.454  1.00  0.00     0.020 A 
ATOM     96  C   UNL A   1      31.337  23.814  23.034  1.00  0.00     0.138 A 
ATOM     97  C   UNL A   1      34.039  23.144  22.877  1.00  0.00     0.040 A 
ATOM     98  C   UNL A   1      31.765  22.566  23.480  1.00  0.00     0.079 A 
ATOM     99  F   UNL A   1      30.030  24.104  23.106  1.00  0.00    -0.206 F 
ATOM    100  C   UNL A   1      33.111  22.238  23.384  1.00  0.00     0.126 A 
ATOM    101  F   UNL A   1      33.528  21.032  23.788  1.00  0.00    -0.207 F 
ENDBRANCH  91  94
ENDBRANCH  78  90
ENDBRANCH  75  78
ENDBRANCH  73  74
ENDBRANCH  72  73
ENDBRANCH   1  72
TORSDOF 15
ENDMDL
