MODEL 1
REMARK VINA RESULT:     -12.7      0.000      0.000
REMARK SMILES O=C(CC[C@@H]1CN(c2ccncc2)CC[C@@H]1[NH+]1CCOCC1)NCCCCNC(=O)c1ccc(-c2c3nc(c(-c4c(F)c(F)c(F)c(F)c4F)c4ccc([nH]4)c(-c4c(F)c(F)c(F)c(F)c4F)c4nc(c(-c5c(F)c(F)c(F)c(F)c5F)c5ccc2[nH]5)C=C4)C=C3)cc1
REMARK SMILES IDX 25 1 24 2 23 3 1 4 2 5 3 7 4 8 5 9 6 10 16 11 7 12 15 13
REMARK SMILES IDX 14 14 17 15 18 16 22 17 19 19 21 20 20 21 8 22 9 23 13 24
REMARK SMILES IDX 10 25 12 26 11 27 26 28 27 29 28 30 29 31 30 33 31 34 32 35
REMARK SMILES IDX 93 36 33 37 92 38 34 39 35 40 36 41 86 42 37 43 91 44 85 45
REMARK SMILES IDX 87 46 38 47 90 48 84 49 83 50 39 52 71 53 51 54 70 55 52 56
REMARK SMILES IDX 55 57 69 58 88 59 53 60 54 61 68 63 89 64 56 65 40 66 41 67
REMARK SMILES IDX 49 68 42 69 43 70 47 71 50 72 44 73 45 74 48 75 46 76 72 77
REMARK SMILES IDX 73 78 81 79 74 80 75 81 79 82 82 83 76 84 77 85 80 86 78 87
REMARK SMILES IDX 57 88 58 89 66 90 59 91 60 92 64 93 67 94 61 95 62 96 65 97
REMARK SMILES IDX 63 98
REMARK H PARENT 23 6 17 18 28 32 87 51 55 62
REMARK Flexibility Score: inf
ROOT
ATOM      1  C   UNL A   1      37.243  21.191  24.635  1.00  0.00     0.023 C 
ENDROOT
BRANCH   1   2
ATOM      2  C   UNL A   1      36.829  22.126  25.783  1.00  0.00     0.116 C 
BRANCH   2   3
ATOM      3  N   UNL A   1      35.594  21.841  26.481  1.00  0.00    -0.356 N 
ATOM      4  O   UNL A   1      34.732  23.950  26.151  1.00  0.00    -0.275 OA
ATOM      5  C   UNL A   1      34.628  22.824  26.630  1.00  0.00     0.220 C 
ATOM      6  H   UNL A   1      35.438  20.943  26.853  1.00  0.00     0.163 HD
BRANCH   5   7
ATOM      7  C   UNL A   1      33.381  22.387  27.382  1.00  0.00     0.100 C 
BRANCH   7   8
ATOM      8  C   UNL A   1      32.062  22.721  26.657  1.00  0.00     0.021 C 
BRANCH   8   9
ATOM      9  C   UNL A   1      31.824  21.845  25.410  1.00  0.00     0.067 C 
ATOM     10  C   UNL A   1      32.728  20.605  25.403  1.00  0.00     0.126 C 
ATOM     11  C   UNL A   1      31.826  22.608  24.051  1.00  0.00     0.190 C 
ATOM     12  N   UNL A   1      32.369  19.720  24.285  1.00  0.00    -0.371 N 
ATOM     13  C   UNL A   1      31.456  21.593  22.958  1.00  0.00     0.087 C 
ATOM     14  C   UNL A   1      32.306  20.328  22.958  1.00  0.00     0.122 C 
BRANCH  11  15
ATOM     15  N   UNL A   1      32.921  23.554  23.774  1.00  0.00    -0.328 N 
ATOM     16  C   UNL A   1      32.510  24.975  23.687  1.00  0.00     0.291 C 
ATOM     17  C   UNL A   1      33.951  23.277  22.767  1.00  0.00     0.291 C 
ATOM     18  H   UNL A   1      33.419  23.353  24.642  1.00  0.00     0.348 HD
ATOM     19  C   UNL A   1      32.286  25.509  22.261  1.00  0.00     0.221 C 
ATOM     20  C   UNL A   1      33.710  23.877  21.370  1.00  0.00     0.221 C 
ATOM     21  O   UNL A   1      33.430  25.277  21.435  1.00  0.00    -0.370 OA
ENDBRANCH  11  15
BRANCH  12  22
ATOM     22  C   UNL A   1      32.764  18.384  24.408  1.00  0.00     0.040 A 
ATOM     23  C   UNL A   1      32.579  17.629  25.565  1.00  0.00     0.046 A 
ATOM     24  C   UNL A   1      33.424  17.747  23.354  1.00  0.00     0.046 A 
ATOM     25  C   UNL A   1      33.052  16.323  25.609  1.00  0.00     0.113 A 
ATOM     26  C   UNL A   1      33.885  16.449  23.489  1.00  0.00     0.113 A 
ATOM     27  N   UNL A   1      33.707  15.717  24.600  1.00  0.00    -0.265 NA
ENDBRANCH  12  22
ENDBRANCH   8   9
ENDBRANCH   7   8
ENDBRANCH   5   7
ENDBRANCH   2   3
ENDBRANCH   1   2
BRANCH   1  28
ATOM     28  C   UNL A   1      38.169  19.988  24.874  1.00  0.00     0.023 C 
BRANCH  28  29
ATOM     29  C   UNL A   1      39.292  20.098  25.911  1.00  0.00     0.116 C 
BRANCH  29  30
ATOM     30  N   UNL A   1      40.312  19.063  25.832  1.00  0.00    -0.352 N 
ATOM     31  C   UNL A   1      41.668  19.129  26.065  1.00  0.00     0.251 C 
ATOM     32  H   UNL A   1      39.980  18.175  25.569  1.00  0.00     0.163 HD
ATOM     33  O   UNL A   1      42.359  18.126  25.893  1.00  0.00    -0.269 OA
BRANCH  31  34
ATOM     34  C   UNL A   1      42.332  20.401  26.446  1.00  0.00     0.039 A 
ATOM     35  C   UNL A   1      43.002  21.122  25.449  1.00  0.00     0.014 A 
ATOM     36  C   UNL A   1      42.317  20.893  27.752  1.00  0.00     0.014 A 
ATOM     37  C   UNL A   1      43.552  22.377  25.735  1.00  0.00     0.010 A 
ATOM     38  C   UNL A   1      42.830  22.166  28.031  1.00  0.00     0.010 A 
ATOM     39  C   UNL A   1      43.420  22.936  27.016  1.00  0.00    -0.014 A 
BRANCH  39  40
ATOM     40  C   UNL A   1      43.791  24.357  27.260  1.00  0.00     0.031 A 
ATOM     41  C   UNL A   1      42.786  25.367  27.734  1.00  0.00     0.074 A 
ATOM     42  C   UNL A   1      45.054  24.751  26.998  1.00  0.00     0.049 A 
ATOM     43  N   UNL A   1      42.950  26.646  27.970  1.00  0.00    -0.248 NA
ATOM     44  C   UNL A   1      41.417  24.885  27.957  1.00  0.00     0.031 C 
ATOM     45  C   UNL A   1      46.118  23.883  26.490  1.00  0.00     0.029 A 
ATOM     46  N   UNL A   1      45.658  25.980  27.114  1.00  0.00    -0.354 N 
ATOM     47  C   UNL A   1      41.709  27.122  28.373  1.00  0.00     0.074 A 
ATOM     48  C   UNL A   1      40.792  26.002  28.305  1.00  0.00     0.031 C 
ATOM     49  C   UNL A   1      47.245  24.598  26.356  1.00  0.00     0.029 A 
ATOM     50  C   UNL A   1      46.979  25.983  26.735  1.00  0.00     0.049 A 
ATOM     51  H   UNL A   1      45.189  26.782  27.438  1.00  0.00     0.167 HD
ATOM     52  C   UNL A   1      41.372  28.372  28.778  1.00  0.00     0.037 A 
ATOM     53  C   UNL A   1      47.879  26.984  26.693  1.00  0.00     0.037 A 
ATOM     54  C   UNL A   1      42.284  29.486  28.854  1.00  0.00     0.049 A 
ATOM     55  C   UNL A   1      47.474  28.362  27.138  1.00  0.00     0.074 A 
ATOM     56  C   UNL A   1      42.038  30.776  29.294  1.00  0.00     0.029 A 
ATOM     57  N   UNL A   1      43.617  29.446  28.474  1.00  0.00    -0.354 N 
ATOM     58  N   UNL A   1      46.314  28.781  27.579  1.00  0.00    -0.248 NA
ATOM     59  C   UNL A   1      48.508  29.406  27.086  1.00  0.00     0.031 C 
ATOM     60  C   UNL A   1      43.208  31.527  29.141  1.00  0.00     0.029 A 
ATOM     61  C   UNL A   1      44.198  30.694  28.648  1.00  0.00     0.049 A 
ATOM     62  H   UNL A   1      44.083  28.650  28.130  1.00  0.00     0.167 HD
ATOM     63  C   UNL A   1      46.483  30.125  27.881  1.00  0.00     0.074 A 
ATOM     64  C   UNL A   1      47.863  30.450  27.588  1.00  0.00     0.031 C 
ATOM     65  C   UNL A   1      45.574  31.009  28.357  1.00  0.00     0.037 A 
BRANCH  52  66
ATOM     66  C   UNL A   1      39.944  28.609  29.181  1.00  0.00     0.064 A 
ATOM     67  C   UNL A   1      39.510  28.398  30.498  1.00  0.00     0.173 A 
ATOM     68  C   UNL A   1      39.014  29.103  28.254  1.00  0.00     0.173 A 
ATOM     69  F   UNL A   1      40.361  27.922  31.420  1.00  0.00    -0.203 F 
ATOM     70  C   UNL A   1      38.191  28.650  30.867  1.00  0.00     0.198 A 
ATOM     71  C   UNL A   1      37.702  29.380  28.633  1.00  0.00     0.198 A 
ATOM     72  F   UNL A   1      39.380  29.332  26.984  1.00  0.00    -0.203 F 
ATOM     73  F   UNL A   1      37.791  28.403  32.122  1.00  0.00    -0.200 F 
ATOM     74  C   UNL A   1      37.291  29.146  29.937  1.00  0.00     0.200 A 
ATOM     75  F   UNL A   1      36.836  29.872  27.737  1.00  0.00    -0.200 F 
ATOM     76  F   UNL A   1      36.023  29.396  30.296  1.00  0.00    -0.200 F 
ENDBRANCH  52  66
BRANCH  53  77
ATOM     77  C   UNL A   1      49.263  26.714  26.228  1.00  0.00     0.064 A 
ATOM     78  C   UNL A   1      50.244  26.251  27.115  1.00  0.00     0.173 A 
ATOM     79  C   UNL A   1      49.634  26.917  24.891  1.00  0.00     0.173 A 
ATOM     80  F   UNL A   1      49.942  26.063  28.408  1.00  0.00    -0.203 F 
ATOM     81  C   UNL A   1      51.550  26.019  26.687  1.00  0.00     0.198 A 
ATOM     82  C   UNL A   1      50.932  26.658  24.457  1.00  0.00     0.198 A 
ATOM     83  F   UNL A   1      48.731  27.355  24.002  1.00  0.00    -0.203 F 
ATOM     84  F   UNL A   1      52.480  25.620  27.565  1.00  0.00    -0.200 F 
ATOM     85  C   UNL A   1      51.891  26.217  25.357  1.00  0.00     0.200 A 
ATOM     86  F   UNL A   1      51.255  26.838  23.170  1.00  0.00    -0.200 F 
ATOM     87  F   UNL A   1      53.146  25.991  24.945  1.00  0.00    -0.200 F 
ENDBRANCH  53  77
BRANCH  65  88
ATOM     88  C   UNL A   1      46.047  32.409  28.619  1.00  0.00     0.064 A 
ATOM     89  C   UNL A   1      46.580  32.785  29.861  1.00  0.00     0.173 A 
ATOM     90  C   UNL A   1      45.996  33.380  27.606  1.00  0.00     0.173 A 
ATOM     91  F   UNL A   1      46.635  31.900  30.867  1.00  0.00    -0.203 F 
ATOM     92  C   UNL A   1      47.024  34.087  30.086  1.00  0.00     0.198 A 
ATOM     93  C   UNL A   1      46.464  34.672  27.825  1.00  0.00     0.198 A 
ATOM     94  F   UNL A   1      45.497  33.071  26.400  1.00  0.00    -0.203 F 
ATOM     95  F   UNL A   1      47.488  34.435  31.294  1.00  0.00    -0.200 F 
ATOM     96  C   UNL A   1      46.972  35.026  29.067  1.00  0.00     0.200 A 
ATOM     97  F   UNL A   1      46.422  35.576  26.837  1.00  0.00    -0.200 F 
ATOM     98  F   UNL A   1      47.404  36.276  29.284  1.00  0.00    -0.200 F 
ENDBRANCH  65  88
ENDBRANCH  39  40
ENDBRANCH  31  34
ENDBRANCH  29  30
ENDBRANCH  28  29
ENDBRANCH   1  28
TORSDOF 15
ENDMDL
MODEL 2
REMARK VINA RESULT:     -12.5      3.897      9.244
REMARK SMILES O=C(CC[C@@H]1CN(c2ccncc2)CC[C@@H]1[NH+]1CCOCC1)NCCCCNC(=O)c1ccc(-c2c3nc(c(-c4c(F)c(F)c(F)c(F)c4F)c4ccc([nH]4)c(-c4c(F)c(F)c(F)c(F)c4F)c4nc(c(-c5c(F)c(F)c(F)c(F)c5F)c5ccc2[nH]5)C=C4)C=C3)cc1
REMARK SMILES IDX 25 1 24 2 23 3 1 4 2 5 3 7 4 8 5 9 6 10 16 11 7 12 15 13
REMARK SMILES IDX 14 14 17 15 18 16 22 17 19 19 21 20 20 21 8 22 9 23 13 24
REMARK SMILES IDX 10 25 12 26 11 27 26 28 27 29 28 30 29 31 30 33 31 34 32 35
REMARK SMILES IDX 93 36 33 37 92 38 34 39 35 40 36 41 86 42 37 43 91 44 85 45
REMARK SMILES IDX 87 46 38 47 90 48 84 49 83 50 39 52 71 53 51 54 70 55 52 56
REMARK SMILES IDX 55 57 69 58 88 59 53 60 54 61 68 63 89 64 56 65 40 66 41 67
REMARK SMILES IDX 49 68 42 69 43 70 47 71 50 72 44 73 45 74 48 75 46 76 72 77
REMARK SMILES IDX 73 78 81 79 74 80 75 81 79 82 82 83 76 84 77 85 80 86 78 87
REMARK SMILES IDX 57 88 58 89 66 90 59 91 60 92 64 93 67 94 61 95 62 96 65 97
REMARK SMILES IDX 63 98
REMARK H PARENT 23 6 17 18 28 32 87 51 55 62
REMARK Flexibility Score: inf
ROOT
ATOM      1  C   UNL A   1      35.400  21.918  24.228  1.00  0.00     0.023 C 
ENDROOT
BRANCH   1   2
ATOM      2  C   UNL A   1      35.064  21.396  25.635  1.00  0.00     0.116 C 
BRANCH   2   3
ATOM      3  N   UNL A   1      34.209  22.206  26.476  1.00  0.00    -0.356 N 
ATOM      4  O   UNL A   1      32.262  21.364  25.583  1.00  0.00    -0.275 OA
ATOM      5  C   UNL A   1      32.830  22.133  26.353  1.00  0.00     0.220 C 
ATOM      6  H   UNL A   1      34.610  22.814  27.139  1.00  0.00     0.163 HD
BRANCH   5   7
ATOM      7  C   UNL A   1      32.056  23.037  27.298  1.00  0.00     0.100 C 
BRANCH   7   8
ATOM      8  C   UNL A   1      31.457  24.286  26.621  1.00  0.00     0.021 C 
BRANCH   8   9
ATOM      9  C   UNL A   1      32.534  25.251  26.083  1.00  0.00     0.067 C 
ATOM     10  C   UNL A   1      32.154  26.719  26.320  1.00  0.00     0.126 C 
ATOM     11  C   UNL A   1      33.006  24.973  24.623  1.00  0.00     0.190 C 
ATOM     12  N   UNL A   1      33.266  27.601  25.934  1.00  0.00    -0.371 N 
ATOM     13  C   UNL A   1      34.151  25.953  24.321  1.00  0.00     0.087 C 
ATOM     14  C   UNL A   1      33.819  27.415  24.595  1.00  0.00     0.122 C 
BRANCH  11  15
ATOM     15  N   UNL A   1      31.989  24.755  23.581  1.00  0.00    -0.328 N 
ATOM     16  C   UNL A   1      32.526  24.358  22.259  1.00  0.00     0.291 C 
ATOM     17  C   UNL A   1      30.856  25.669  23.398  1.00  0.00     0.291 C 
ATOM     18  H   UNL A   1      31.547  23.972  24.065  1.00  0.00     0.348 HD
ATOM     19  C   UNL A   1      32.681  25.502  21.241  1.00  0.00     0.221 C 
ATOM     20  C   UNL A   1      31.037  26.764  22.330  1.00  0.00     0.221 C 
ATOM     21  O   UNL A   1      31.455  26.219  21.077  1.00  0.00    -0.370 OA
ENDBRANCH  11  15
BRANCH  12  22
ATOM     22  C   UNL A   1      33.261  28.879  26.501  1.00  0.00     0.040 A 
ATOM     23  C   UNL A   1      32.188  29.764  26.398  1.00  0.00     0.046 A 
ATOM     24  C   UNL A   1      34.387  29.351  27.179  1.00  0.00     0.046 A 
ATOM     25  C   UNL A   1      32.296  31.034  26.953  1.00  0.00     0.113 A 
ATOM     26  C   UNL A   1      34.422  30.640  27.681  1.00  0.00     0.113 A 
ATOM     27  N   UNL A   1      33.392  31.495  27.588  1.00  0.00    -0.265 NA
ENDBRANCH  12  22
ENDBRANCH   8   9
ENDBRANCH   7   8
ENDBRANCH   5   7
ENDBRANCH   2   3
ENDBRANCH   1   2
BRANCH   1  28
ATOM     28  C   UNL A   1      36.508  22.957  24.001  1.00  0.00     0.023 C 
BRANCH  28  29
ATOM     29  C   UNL A   1      37.313  23.472  25.200  1.00  0.00     0.116 C 
BRANCH  29  30
ATOM     30  N   UNL A   1      38.492  22.689  25.537  1.00  0.00    -0.352 N 
ATOM     31  C   UNL A   1      39.600  23.024  26.284  1.00  0.00     0.251 C 
ATOM     32  H   UNL A   1      38.499  21.775  25.174  1.00  0.00     0.163 HD
ATOM     33  O   UNL A   1      40.513  22.208  26.407  1.00  0.00    -0.269 OA
BRANCH  31  34
ATOM     34  C   UNL A   1      39.758  24.373  26.884  1.00  0.00     0.039 A 
ATOM     35  C   UNL A   1      39.260  24.585  28.176  1.00  0.00     0.014 A 
ATOM     36  C   UNL A   1      40.374  25.427  26.207  1.00  0.00     0.014 A 
ATOM     37  C   UNL A   1      39.477  25.806  28.825  1.00  0.00     0.010 A 
ATOM     38  C   UNL A   1      40.630  26.634  26.869  1.00  0.00     0.010 A 
ATOM     39  C   UNL A   1      40.216  26.822  28.198  1.00  0.00    -0.014 A 
BRANCH  39  40
ATOM     40  C   UNL A   1      40.649  28.021  28.966  1.00  0.00     0.031 A 
ATOM     41  C   UNL A   1      42.036  28.140  29.531  1.00  0.00     0.074 A 
ATOM     42  C   UNL A   1      39.753  29.001  29.200  1.00  0.00     0.049 A 
ATOM     43  N   UNL A   1      42.557  29.111  30.241  1.00  0.00    -0.248 NA
ATOM     44  C   UNL A   1      42.951  27.020  29.281  1.00  0.00     0.031 C 
ATOM     45  C   UNL A   1      38.360  28.991  28.747  1.00  0.00     0.029 A 
ATOM     46  N   UNL A   1      39.871  30.189  29.879  1.00  0.00    -0.354 N 
ATOM     47  C   UNL A   1      43.861  28.723  30.520  1.00  0.00     0.074 A 
ATOM     48  C   UNL A   1      44.036  27.406  29.940  1.00  0.00     0.031 C 
ATOM     49  C   UNL A   1      37.759  30.123  29.143  1.00  0.00     0.029 A 
ATOM     50  C   UNL A   1      38.711  30.927  29.905  1.00  0.00     0.049 A 
ATOM     51  H   UNL A   1      40.707  30.485  30.305  1.00  0.00     0.167 HD
ATOM     52  C   UNL A   1      44.825  29.408  31.183  1.00  0.00     0.037 A 
ATOM     53  C   UNL A   1      38.438  32.114  30.481  1.00  0.00     0.037 A 
ATOM     54  C   UNL A   1      44.656  30.721  31.754  1.00  0.00     0.049 A 
ATOM     55  C   UNL A   1      39.524  32.846  31.218  1.00  0.00     0.074 A 
ATOM     56  C   UNL A   1      45.592  31.507  32.405  1.00  0.00     0.029 A 
ATOM     57  N   UNL A   1      43.470  31.441  31.751  1.00  0.00    -0.354 N 
ATOM     58  N   UNL A   1      40.770  32.495  31.417  1.00  0.00    -0.248 NA
ATOM     59  C   UNL A   1      39.166  34.145  31.806  1.00  0.00     0.031 C 
ATOM     60  C   UNL A   1      44.964  32.683  32.832  1.00  0.00     0.029 A 
ATOM     61  C   UNL A   1      43.647  32.650  32.407  1.00  0.00     0.049 A 
ATOM     62  H   UNL A   1      42.628  31.137  31.342  1.00  0.00     0.167 HD
ATOM     63  C   UNL A   1      41.351  33.537  32.127  1.00  0.00     0.074 A 
ATOM     64  C   UNL A   1      40.326  34.541  32.313  1.00  0.00     0.031 C 
ATOM     65  C   UNL A   1      42.622  33.647  32.584  1.00  0.00     0.037 A 
BRANCH  52  66
ATOM     66  C   UNL A   1      46.168  28.751  31.327  1.00  0.00     0.064 A 
ATOM     67  C   UNL A   1      46.468  27.933  32.427  1.00  0.00     0.173 A 
ATOM     68  C   UNL A   1      47.145  28.895  30.331  1.00  0.00     0.173 A 
ATOM     69  F   UNL A   1      45.569  27.767  33.409  1.00  0.00    -0.203 F 
ATOM     70  C   UNL A   1      47.706  27.304  32.535  1.00  0.00     0.198 A 
ATOM     71  C   UNL A   1      48.372  28.243  30.429  1.00  0.00     0.198 A 
ATOM     72  F   UNL A   1      46.905  29.657  29.253  1.00  0.00    -0.203 F 
ATOM     73  F   UNL A   1      47.984  26.560  33.615  1.00  0.00    -0.200 F 
ATOM     74  C   UNL A   1      48.654  27.454  31.535  1.00  0.00     0.200 A 
ATOM     75  F   UNL A   1      49.281  28.378  29.454  1.00  0.00    -0.200 F 
ATOM     76  F   UNL A   1      49.842  26.842  31.637  1.00  0.00    -0.200 F 
ENDBRANCH  52  66
BRANCH  53  77
ATOM     77  C   UNL A   1      37.076  32.695  30.364  1.00  0.00     0.064 A 
ATOM     78  C   UNL A   1      36.108  32.467  31.352  1.00  0.00     0.173 A 
ATOM     79  C   UNL A   1      36.714  33.484  29.263  1.00  0.00     0.173 A 
ATOM     80  F   UNL A   1      36.402  31.700  32.412  1.00  0.00    -0.203 F 
ATOM     81  C   UNL A   1      34.823  32.991  31.234  1.00  0.00     0.198 A 
ATOM     82  C   UNL A   1      35.437  34.031  29.159  1.00  0.00     0.198 A 
ATOM     83  F   UNL A   1      37.605  33.734  28.293  1.00  0.00    -0.203 F 
ATOM     84  F   UNL A   1      33.903  32.721  32.169  1.00  0.00    -0.200 F 
ATOM     85  C   UNL A   1      34.489  33.778  30.141  1.00  0.00     0.200 A 
ATOM     86  F   UNL A   1      35.123  34.800  28.109  1.00  0.00    -0.200 F 
ATOM     87  F   UNL A   1      33.254  34.284  30.029  1.00  0.00    -0.200 F 
ENDBRANCH  53  77
BRANCH  65  88
ATOM     88  C   UNL A   1      42.985  34.911  33.308  1.00  0.00     0.064 A 
ATOM     89  C   UNL A   1      43.428  36.050  32.620  1.00  0.00     0.173 A 
ATOM     90  C   UNL A   1      42.859  34.995  34.703  1.00  0.00     0.173 A 
ATOM     91  F   UNL A   1      43.583  36.017  31.288  1.00  0.00    -0.203 F 
ATOM     92  C   UNL A   1      43.754  37.220  33.305  1.00  0.00     0.198 A 
ATOM     93  C   UNL A   1      43.159  36.172  35.382  1.00  0.00     0.198 A 
ATOM     94  F   UNL A   1      42.436  33.934  35.408  1.00  0.00    -0.203 F 
ATOM     95  F   UNL A   1      44.218  38.281  32.631  1.00  0.00    -0.200 F 
ATOM     96  C   UNL A   1      43.612  37.282  34.683  1.00  0.00     0.200 A 
ATOM     97  F   UNL A   1      43.013  36.235  36.712  1.00  0.00    -0.200 F 
ATOM     98  F   UNL A   1      43.921  38.409  35.339  1.00  0.00    -0.200 F 
ENDBRANCH  65  88
ENDBRANCH  39  40
ENDBRANCH  31  34
ENDBRANCH  29  30
ENDBRANCH  28  29
ENDBRANCH   1  28
TORSDOF 15
ENDMDL
MODEL 3
REMARK VINA RESULT:     -12.5      6.621     11.246
REMARK SMILES O=C(CC[C@@H]1CN(c2ccncc2)CC[C@@H]1[NH+]1CCOCC1)NCCCCNC(=O)c1ccc(-c2c3nc(c(-c4c(F)c(F)c(F)c(F)c4F)c4ccc([nH]4)c(-c4c(F)c(F)c(F)c(F)c4F)c4nc(c(-c5c(F)c(F)c(F)c(F)c5F)c5ccc2[nH]5)C=C4)C=C3)cc1
REMARK SMILES IDX 25 1 24 2 23 3 1 4 2 5 3 7 4 8 5 9 6 10 16 11 7 12 15 13
REMARK SMILES IDX 14 14 17 15 18 16 22 17 19 19 21 20 20 21 8 22 9 23 13 24
REMARK SMILES IDX 10 25 12 26 11 27 26 28 27 29 28 30 29 31 30 33 31 34 32 35
REMARK SMILES IDX 93 36 33 37 92 38 34 39 35 40 36 41 86 42 37 43 91 44 85 45
REMARK SMILES IDX 87 46 38 47 90 48 84 49 83 50 39 52 71 53 51 54 70 55 52 56
REMARK SMILES IDX 55 57 69 58 88 59 53 60 54 61 68 63 89 64 56 65 40 66 41 67
REMARK SMILES IDX 49 68 42 69 43 70 47 71 50 72 44 73 45 74 48 75 46 76 72 77
REMARK SMILES IDX 73 78 81 79 74 80 75 81 79 82 82 83 76 84 77 85 80 86 78 87
REMARK SMILES IDX 57 88 58 89 66 90 59 91 60 92 64 93 67 94 61 95 62 96 65 97
REMARK SMILES IDX 63 98
REMARK H PARENT 23 6 17 18 28 32 87 51 55 62
REMARK Flexibility Score: inf
ROOT
ATOM      1  C   UNL A   1      34.867  33.040  29.183  1.00  0.00     0.023 C 
ENDROOT
BRANCH   1   2
ATOM      2  C   UNL A   1      35.238  31.831  28.307  1.00  0.00     0.116 C 
BRANCH   2   3
ATOM      3  N   UNL A   1      34.181  30.922  27.918  1.00  0.00    -0.356 N 
ATOM      4  O   UNL A   1      35.631  29.256  27.273  1.00  0.00    -0.275 OA
ATOM      5  C   UNL A   1      34.484  29.676  27.392  1.00  0.00     0.220 C 
ATOM      6  H   UNL A   1      33.240  31.191  28.028  1.00  0.00     0.163 HD
BRANCH   5   7
ATOM      7  C   UNL A   1      33.278  28.825  27.029  1.00  0.00     0.100 C 
BRANCH   7   8
ATOM      8  C   UNL A   1      33.613  27.609  26.142  1.00  0.00     0.021 C 
BRANCH   8   9
ATOM      9  C   UNL A   1      32.987  27.703  24.735  1.00  0.00     0.067 C 
ATOM     10  C   UNL A   1      31.471  27.936  24.799  1.00  0.00     0.126 C 
ATOM     11  C   UNL A   1      33.387  26.560  23.752  1.00  0.00     0.190 C 
ATOM     12  N   UNL A   1      30.936  28.170  23.449  1.00  0.00    -0.371 N 
ATOM     13  C   UNL A   1      32.766  26.896  22.387  1.00  0.00     0.087 C 
ATOM     14  C   UNL A   1      31.269  27.181  22.427  1.00  0.00     0.122 C 
BRANCH  11  15
ATOM     15  N   UNL A   1      33.311  25.166  24.222  1.00  0.00    -0.328 N 
ATOM     16  C   UNL A   1      34.090  24.195  23.420  1.00  0.00     0.291 C 
ATOM     17  C   UNL A   1      32.045  24.555  24.642  1.00  0.00     0.291 C 
ATOM     18  H   UNL A   1      33.755  25.362  25.120  1.00  0.00     0.348 HD
ATOM     19  C   UNL A   1      33.283  23.414  22.367  1.00  0.00     0.221 C 
ATOM     20  C   UNL A   1      31.300  23.738  23.569  1.00  0.00     0.221 C 
ATOM     21  O   UNL A   1      32.152  22.768  22.955  1.00  0.00    -0.370 OA
ENDBRANCH  11  15
BRANCH  12  22
ATOM     22  C   UNL A   1      29.707  28.835  23.384  1.00  0.00     0.040 A 
ATOM     23  C   UNL A   1      28.497  28.194  23.124  1.00  0.00     0.046 A 
ATOM     24  C   UNL A   1      29.650  30.222  23.539  1.00  0.00     0.046 A 
ATOM     25  C   UNL A   1      27.333  28.947  23.029  1.00  0.00     0.113 A 
ATOM     26  C   UNL A   1      28.451  30.900  23.404  1.00  0.00     0.113 A 
ATOM     27  N   UNL A   1      27.283  30.288  23.157  1.00  0.00    -0.265 NA
ENDBRANCH  12  22
ENDBRANCH   8   9
ENDBRANCH   7   8
ENDBRANCH   5   7
ENDBRANCH   2   3
ENDBRANCH   1   2
BRANCH   1  28
ATOM     28  C   UNL A   1      33.652  33.922  28.859  1.00  0.00     0.023 C 
BRANCH  28  29
ATOM     29  C   UNL A   1      33.585  35.347  29.419  1.00  0.00     0.116 C 
BRANCH  29  30
ATOM     30  N   UNL A   1      32.604  35.553  30.473  1.00  0.00    -0.352 N 
ATOM     31  C   UNL A   1      32.701  35.353  31.833  1.00  0.00     0.251 C 
ATOM     32  H   UNL A   1      31.731  35.889  30.167  1.00  0.00     0.163 HD
ATOM     33  O   UNL A   1      31.718  35.554  32.544  1.00  0.00    -0.269 OA
BRANCH  31  34
ATOM     34  C   UNL A   1      33.941  34.826  32.457  1.00  0.00     0.039 A 
ATOM     35  C   UNL A   1      33.880  33.589  33.111  1.00  0.00     0.014 A 
ATOM     36  C   UNL A   1      35.153  35.519  32.418  1.00  0.00     0.014 A 
ATOM     37  C   UNL A   1      35.043  33.002  33.622  1.00  0.00     0.010 A 
ATOM     38  C   UNL A   1      36.324  34.916  32.891  1.00  0.00     0.010 A 
ATOM     39  C   UNL A   1      36.287  33.634  33.464  1.00  0.00    -0.014 A 
BRANCH  39  40
ATOM     40  C   UNL A   1      37.546  32.912  33.791  1.00  0.00     0.031 A 
ATOM     41  C   UNL A   1      38.321  33.200  35.045  1.00  0.00     0.074 A 
ATOM     42  C   UNL A   1      38.025  32.011  32.909  1.00  0.00     0.049 A 
ATOM     43  N   UNL A   1      39.447  32.672  35.460  1.00  0.00    -0.248 NA
ATOM     44  C   UNL A   1      37.771  34.225  35.942  1.00  0.00     0.031 C 
ATOM     45  C   UNL A   1      37.396  31.668  31.632  1.00  0.00     0.029 A 
ATOM     46  N   UNL A   1      39.151  31.225  32.944  1.00  0.00    -0.354 N 
ATOM     47  C   UNL A   1      39.739  33.295  36.666  1.00  0.00     0.074 A 
ATOM     48  C   UNL A   1      38.694  34.274  36.893  1.00  0.00     0.031 C 
ATOM     49  C   UNL A   1      38.132  30.731  31.016  1.00  0.00     0.029 A 
ATOM     50  C   UNL A   1      39.302  30.427  31.835  1.00  0.00     0.049 A 
ATOM     51  H   UNL A   1      39.789  31.230  33.694  1.00  0.00     0.167 HD
ATOM     52  C   UNL A   1      40.772  33.059  37.512  1.00  0.00     0.037 A 
ATOM     53  C   UNL A   1      40.272  29.553  31.507  1.00  0.00     0.037 A 
ATOM     54  C   UNL A   1      41.809  32.082  37.292  1.00  0.00     0.049 A 
ATOM     55  C   UNL A   1      41.412  29.320  32.460  1.00  0.00     0.074 A 
ATOM     56  C   UNL A   1      42.870  31.746  38.117  1.00  0.00     0.029 A 
ATOM     57  N   UNL A   1      41.921  31.285  36.162  1.00  0.00    -0.354 N 
ATOM     58  N   UNL A   1      41.638  29.869  33.627  1.00  0.00    -0.248 NA
ATOM     59  C   UNL A   1      42.427  28.338  32.051  1.00  0.00     0.031 C 
ATOM     60  C   UNL A   1      43.646  30.779  37.470  1.00  0.00     0.029 A 
ATOM     61  C   UNL A   1      43.044  30.478  36.260  1.00  0.00     0.049 A 
ATOM     62  H   UNL A   1      41.295  31.292  35.403  1.00  0.00     0.167 HD
ATOM     63  C   UNL A   1      42.804  29.283  34.103  1.00  0.00     0.074 A 
ATOM     64  C   UNL A   1      43.230  28.325  33.106  1.00  0.00     0.031 C 
ATOM     65  C   UNL A   1      43.460  29.522  35.264  1.00  0.00     0.037 A 
BRANCH  52  66
ATOM     66  C   UNL A   1      40.837  33.876  38.772  1.00  0.00     0.064 A 
ATOM     67  C   UNL A   1      40.143  33.492  39.929  1.00  0.00     0.173 A 
ATOM     68  C   UNL A   1      41.644  35.021  38.839  1.00  0.00     0.173 A 
ATOM     69  F   UNL A   1      39.354  32.407  39.913  1.00  0.00    -0.203 F 
ATOM     70  C   UNL A   1      40.235  34.240  41.100  1.00  0.00     0.198 A 
ATOM     71  C   UNL A   1      41.755  35.752  40.020  1.00  0.00     0.198 A 
ATOM     72  F   UNL A   1      42.337  35.425  37.764  1.00  0.00    -0.203 F 
ATOM     73  F   UNL A   1      39.531  33.877  42.181  1.00  0.00    -0.200 F 
ATOM     74  C   UNL A   1      41.045  35.365  41.147  1.00  0.00     0.200 A 
ATOM     75  F   UNL A   1      42.549  36.830  40.068  1.00  0.00    -0.200 F 
ATOM     76  F   UNL A   1      41.138  36.079  42.278  1.00  0.00    -0.200 F 
ENDBRANCH  52  66
BRANCH  53  77
ATOM     77  C   UNL A   1      40.197  28.814  30.220  1.00  0.00     0.064 A 
ATOM     78  C   UNL A   1      39.541  27.579  30.135  1.00  0.00     0.173 A 
ATOM     79  C   UNL A   1      40.781  29.326  29.053  1.00  0.00     0.173 A 
ATOM     80  F   UNL A   1      38.986  27.039  31.231  1.00  0.00    -0.203 F 
ATOM     81  C   UNL A   1      39.488  26.873  28.936  1.00  0.00     0.198 A 
ATOM     82  C   UNL A   1      40.705  28.633  27.847  1.00  0.00     0.198 A 
ATOM     83  F   UNL A   1      41.416  30.506  29.081  1.00  0.00    -0.203 F 
ATOM     84  F   UNL A   1      38.894  25.673  28.892  1.00  0.00    -0.200 F 
ATOM     85  C   UNL A   1      40.065  27.403  27.791  1.00  0.00     0.200 A 
ATOM     86  F   UNL A   1      41.251  29.154  26.741  1.00  0.00    -0.200 F 
ATOM     87  F   UNL A   1      40.011  26.725  26.636  1.00  0.00    -0.200 F 
ENDBRANCH  53  77
BRANCH  65  88
ATOM     88  C   UNL A   1      44.696  28.715  35.535  1.00  0.00     0.064 A 
ATOM     89  C   UNL A   1      44.639  27.488  36.212  1.00  0.00     0.173 A 
ATOM     90  C   UNL A   1      45.950  29.157  35.084  1.00  0.00     0.173 A 
ATOM     91  F   UNL A   1      43.469  27.029  36.679  1.00  0.00    -0.203 F 
ATOM     92  C   UNL A   1      45.795  26.745  36.447  1.00  0.00     0.198 A 
ATOM     93  C   UNL A   1      47.098  28.401  35.297  1.00  0.00     0.198 A 
ATOM     94  F   UNL A   1      46.058  30.323  34.428  1.00  0.00    -0.203 F 
ATOM     95  F   UNL A   1      45.722  25.598  37.136  1.00  0.00    -0.200 F 
ATOM     96  C   UNL A   1      47.020  27.198  35.984  1.00  0.00     0.200 A 
ATOM     97  F   UNL A   1      48.281  28.835  34.840  1.00  0.00    -0.200 F 
ATOM     98  F   UNL A   1      48.129  26.480  36.207  1.00  0.00    -0.200 F 
ENDBRANCH  65  88
ENDBRANCH  39  40
ENDBRANCH  31  34
ENDBRANCH  29  30
ENDBRANCH  28  29
ENDBRANCH   1  28
TORSDOF 15
ENDMDL
