MODEL 1
REMARK VINA RESULT:     -12.3      0.000      0.000
REMARK SMILES C[C@]1(C(=O)NCc2ccc(C(=O)NCCCCNC(=O)c3ccc(-c4c5nc(c(-c6c(F)c(F)c(F)c(F)c6F)c6ccc([nH]6)c(-c6c(F)c(F)c(F)c(F)c6F)c6nc(c(-c7c(F)c(F)c(F)c(F)c7F)c7ccc4[nH]7)C=C6)C=C5)cc3)o2)CCC[NH2+]C1
REMARK SMILES IDX 15 1 14 2 13 3 11 4 12 5 10 7 7 8 8 9 84 10 9 11 6 12 5 13
REMARK SMILES IDX 3 14 4 15 2 17 1 18 85 19 89 20 86 21 88 22 87 23 16 26
REMARK SMILES IDX 17 27 18 28 19 29 20 31 21 32 22 33 83 34 23 35 82 36 24 37
REMARK SMILES IDX 25 38 26 39 76 40 27 41 81 42 75 43 77 44 28 45 80 46 74 47
REMARK SMILES IDX 73 48 29 50 61 51 41 52 60 53 42 54 45 55 59 56 78 57 43 58
REMARK SMILES IDX 44 59 58 61 79 62 46 63 30 64 31 65 39 66 32 67 33 68 37 69
REMARK SMILES IDX 40 70 34 71 35 72 38 73 36 74 62 75 63 76 71 77 64 78 65 79
REMARK SMILES IDX 69 80 72 81 66 82 67 83 70 84 68 85 47 86 48 87 56 88 49 89
REMARK SMILES IDX 50 90 54 91 57 92 51 93 52 94 55 95 53 96
REMARK H PARENT 13 6 5 16 88 24 88 25 18 30 77 49 45 60
REMARK Flexibility Score: inf
ROOT
ATOM      1  C   UNL A   1      31.636  30.796  26.125  1.00  0.00     0.023 C 
ENDROOT
BRANCH   1   2
ATOM      2  C   UNL A   1      31.894  29.802  27.259  1.00  0.00     0.116 C 
BRANCH   2   3
ATOM      3  N   UNL A   1      33.308  29.636  27.511  1.00  0.00    -0.349 N 
ATOM      4  C   UNL A   1      34.254  28.831  26.914  1.00  0.00     0.286 C 
ATOM      5  O   UNL A   1      35.402  28.961  27.350  1.00  0.00    -0.266 OA
ATOM      6  H   UNL A   1      33.658  30.200  28.238  1.00  0.00     0.163 HD
BRANCH   4   7
ATOM      7  C   UNL A   1      33.919  27.900  25.848  1.00  0.00     0.191 A 
ATOM      8  C   UNL A   1      33.198  25.926  25.120  1.00  0.00     0.124 A 
ATOM      9  C   UNL A   1      33.480  26.679  24.002  1.00  0.00     0.048 A 
ATOM     10  O   UNL A   1      33.470  26.653  26.238  1.00  0.00    -0.454 OA
ATOM     11  C   UNL A   1      33.911  27.941  24.465  1.00  0.00     0.056 A 
BRANCH   8  12
ATOM     12  C   UNL A   1      32.655  24.551  25.323  1.00  0.00     0.191 C 
BRANCH  12  13
ATOM     13  N   UNL A   1      33.614  23.793  26.103  1.00  0.00    -0.348 N 
ATOM     14  C   UNL A   1      33.975  22.482  26.002  1.00  0.00     0.232 C 
ATOM     15  O   UNL A   1      34.148  21.922  27.089  1.00  0.00    -0.274 OA
ATOM     16  H   UNL A   1      34.073  24.301  26.811  1.00  0.00     0.163 HD
BRANCH  14  17
ATOM     17  C   UNL A   1      34.251  21.782  24.646  1.00  0.00     0.095 C 
ATOM     18  C   UNL A   1      32.966  21.450  23.867  1.00  0.00     0.028 C 
ATOM     19  C   UNL A   1      35.157  22.693  23.789  1.00  0.00     0.028 C 
ATOM     20  C   UNL A   1      34.977  20.425  24.899  1.00  0.00     0.277 C 
ATOM     21  C   UNL A   1      36.587  22.751  24.329  1.00  0.00     0.063 C 
ATOM     22  N   UNL A   1      36.365  20.525  25.350  1.00  0.00    -0.345 N 
ATOM     23  C   UNL A   1      37.182  21.353  24.477  1.00  0.00     0.260 C 
ATOM     24  H   UNL A   1      36.375  20.930  26.287  1.00  0.00     0.346 HD
ATOM     25  H   UNL A   1      36.761  19.585  25.344  1.00  0.00     0.346 HD
ENDBRANCH  14  17
ENDBRANCH  12  13
ENDBRANCH   8  12
ENDBRANCH   4   7
ENDBRANCH   2   3
ENDBRANCH   1   2
BRANCH   1  26
ATOM     26  C   UNL A   1      31.398  32.235  26.598  1.00  0.00     0.023 C 
BRANCH  26  27
ATOM     27  C   UNL A   1      32.591  32.902  27.279  1.00  0.00     0.116 C 
BRANCH  27  28
ATOM     28  N   UNL A   1      32.336  34.271  27.695  1.00  0.00    -0.352 N 
ATOM     29  C   UNL A   1      32.991  35.015  28.651  1.00  0.00     0.251 C 
ATOM     30  H   UNL A   1      31.596  34.728  27.233  1.00  0.00     0.163 HD
ATOM     31  O   UNL A   1      32.594  36.129  28.952  1.00  0.00    -0.269 OA
BRANCH  29  32
ATOM     32  C   UNL A   1      34.158  34.430  29.345  1.00  0.00     0.039 A 
ATOM     33  C   UNL A   1      33.946  33.706  30.520  1.00  0.00     0.014 A 
ATOM     34  C   UNL A   1      35.448  34.572  28.826  1.00  0.00     0.014 A 
ATOM     35  C   UNL A   1      35.020  33.067  31.141  1.00  0.00     0.010 A 
ATOM     36  C   UNL A   1      36.505  33.878  29.406  1.00  0.00     0.010 A 
ATOM     37  C   UNL A   1      36.301  33.118  30.568  1.00  0.00    -0.014 A 
BRANCH  37  38
ATOM     38  C   UNL A   1      37.440  32.382  31.171  1.00  0.00     0.031 A 
ATOM     39  C   UNL A   1      37.937  32.754  32.541  1.00  0.00     0.074 A 
ATOM     40  C   UNL A   1      38.067  31.425  30.460  1.00  0.00     0.049 A 
ATOM     41  N   UNL A   1      38.956  32.275  33.210  1.00  0.00    -0.248 NA
ATOM     42  C   UNL A   1      37.212  33.827  33.239  1.00  0.00     0.031 C 
ATOM     43  C   UNL A   1      37.713  31.014  29.101  1.00  0.00     0.029 A 
ATOM     44  N   UNL A   1      39.141  30.633  30.777  1.00  0.00    -0.354 N 
ATOM     45  C   UNL A   1      39.001  32.997  34.395  1.00  0.00     0.074 A 
ATOM     46  C   UNL A   1      37.943  33.982  34.332  1.00  0.00     0.031 C 
ATOM     47  C   UNL A   1      38.542  30.032  28.709  1.00  0.00     0.029 A 
ATOM     48  C   UNL A   1      39.504  29.768  29.774  1.00  0.00     0.049 A 
ATOM     49  H   UNL A   1      39.608  30.679  31.643  1.00  0.00     0.167 HD
ATOM     50  C   UNL A   1      39.836  32.838  35.450  1.00  0.00     0.037 A 
ATOM     51  C   UNL A   1      40.503  28.866  29.720  1.00  0.00     0.037 A 
ATOM     52  C   UNL A   1      40.866  31.836  35.521  1.00  0.00     0.049 A 
ATOM     53  C   UNL A   1      41.403  28.697  30.914  1.00  0.00     0.074 A 
ATOM     54  C   UNL A   1      41.722  31.551  36.572  1.00  0.00     0.029 A 
ATOM     55  N   UNL A   1      41.180  30.952  34.499  1.00  0.00    -0.354 N 
ATOM     56  N   UNL A   1      41.389  29.335  32.058  1.00  0.00    -0.248 NA
ATOM     57  C   UNL A   1      42.451  27.673  30.812  1.00  0.00     0.031 C 
ATOM     58  C   UNL A   1      42.580  30.522  36.170  1.00  0.00     0.029 A 
ATOM     59  C   UNL A   1      42.226  30.132  34.888  1.00  0.00     0.049 A 
ATOM     60  H   UNL A   1      40.725  30.913  33.627  1.00  0.00     0.167 HD
ATOM     61  C   UNL A   1      42.401  28.770  32.823  1.00  0.00     0.074 A 
ATOM     62  C   UNL A   1      43.000  27.726  32.017  1.00  0.00     0.031 C 
ATOM     63  C   UNL A   1      42.799  29.087  34.079  1.00  0.00     0.037 A 
BRANCH  50  64
ATOM     64  C   UNL A   1      39.664  33.763  36.619  1.00  0.00     0.064 A 
ATOM     65  C   UNL A   1      40.278  35.024  36.654  1.00  0.00     0.173 A 
ATOM     66  C   UNL A   1      38.841  33.404  37.697  1.00  0.00     0.173 A 
ATOM     67  F   UNL A   1      41.084  35.412  35.654  1.00  0.00    -0.203 F 
ATOM     68  C   UNL A   1      40.094  35.881  37.737  1.00  0.00     0.198 A 
ATOM     69  C   UNL A   1      38.636  34.274  38.764  1.00  0.00     0.198 A 
ATOM     70  F   UNL A   1      38.227  32.211  37.711  1.00  0.00    -0.203 F 
ATOM     71  F   UNL A   1      40.728  37.061  37.770  1.00  0.00    -0.200 F 
ATOM     72  C   UNL A   1      39.268  35.508  38.787  1.00  0.00     0.200 A 
ATOM     73  F   UNL A   1      37.827  33.919  39.771  1.00  0.00    -0.200 F 
ATOM     74  F   UNL A   1      39.085  36.338  39.824  1.00  0.00    -0.200 F 
ENDBRANCH  50  64
BRANCH  51  75
ATOM     75  C   UNL A   1      40.688  28.030  28.504  1.00  0.00     0.064 A 
ATOM     76  C   UNL A   1      41.470  28.482  27.432  1.00  0.00     0.173 A 
ATOM     77  C   UNL A   1      40.076  26.774  28.381  1.00  0.00     0.173 A 
ATOM     78  F   UNL A   1      42.060  29.685  27.495  1.00  0.00    -0.203 F 
ATOM     79  C   UNL A   1      41.611  27.722  26.273  1.00  0.00     0.198 A 
ATOM     80  C   UNL A   1      40.241  26.003  27.233  1.00  0.00     0.198 A 
ATOM     81  F   UNL A   1      39.322  26.293  29.381  1.00  0.00    -0.203 F 
ATOM     82  F   UNL A   1      42.322  28.202  25.243  1.00  0.00    -0.200 F 
ATOM     83  C   UNL A   1      41.000  26.481  26.176  1.00  0.00     0.200 A 
ATOM     84  F   UNL A   1      39.661  24.798  27.149  1.00  0.00    -0.200 F 
ATOM     85  F   UNL A   1      41.136  25.751  25.061  1.00  0.00    -0.200 F 
ENDBRANCH  51  75
BRANCH  63  86
ATOM     86  C   UNL A   1      43.905  28.267  34.678  1.00  0.00     0.064 A 
ATOM     87  C   UNL A   1      45.249  28.660  34.586  1.00  0.00     0.173 A 
ATOM     88  C   UNL A   1      43.611  27.090  35.383  1.00  0.00     0.173 A 
ATOM     89  F   UNL A   1      45.582  29.771  33.910  1.00  0.00    -0.203 F 
ATOM     90  C   UNL A   1      46.259  27.889  35.154  1.00  0.00     0.198 A 
ATOM     91  C   UNL A   1      44.622  26.339  35.976  1.00  0.00     0.198 A 
ATOM     92  F   UNL A   1      42.341  26.675  35.506  1.00  0.00    -0.203 F 
ATOM     93  F   UNL A   1      47.540  28.257  35.010  1.00  0.00    -0.200 F 
ATOM     94  C   UNL A   1      45.944  26.734  35.854  1.00  0.00     0.200 A 
ATOM     95  F   UNL A   1      44.314  25.231  36.664  1.00  0.00    -0.200 F 
ATOM     96  F   UNL A   1      46.918  25.997  36.405  1.00  0.00    -0.200 F 
ENDBRANCH  63  86
ENDBRANCH  37  38
ENDBRANCH  29  32
ENDBRANCH  27  28
ENDBRANCH  26  27
ENDBRANCH   1  26
TORSDOF 14
ENDMDL
MODEL 2
REMARK VINA RESULT:     -12.1      1.377      7.425
REMARK SMILES C[C@]1(C(=O)NCc2ccc(C(=O)NCCCCNC(=O)c3ccc(-c4c5nc(c(-c6c(F)c(F)c(F)c(F)c6F)c6ccc([nH]6)c(-c6c(F)c(F)c(F)c(F)c6F)c6nc(c(-c7c(F)c(F)c(F)c(F)c7F)c7ccc4[nH]7)C=C6)C=C5)cc3)o2)CCC[NH2+]C1
REMARK SMILES IDX 15 1 14 2 13 3 11 4 12 5 10 7 7 8 8 9 84 10 9 11 6 12 5 13
REMARK SMILES IDX 3 14 4 15 2 17 1 18 85 19 89 20 86 21 88 22 87 23 16 26
REMARK SMILES IDX 17 27 18 28 19 29 20 31 21 32 22 33 83 34 23 35 82 36 24 37
REMARK SMILES IDX 25 38 26 39 76 40 27 41 81 42 75 43 77 44 28 45 80 46 74 47
REMARK SMILES IDX 73 48 29 50 61 51 41 52 60 53 42 54 45 55 59 56 78 57 43 58
REMARK SMILES IDX 44 59 58 61 79 62 46 63 30 64 31 65 39 66 32 67 33 68 37 69
REMARK SMILES IDX 40 70 34 71 35 72 38 73 36 74 62 75 63 76 71 77 64 78 65 79
REMARK SMILES IDX 69 80 72 81 66 82 67 83 70 84 68 85 47 86 48 87 56 88 49 89
REMARK SMILES IDX 50 90 54 91 57 92 51 93 52 94 55 95 53 96
REMARK H PARENT 13 6 5 16 88 24 88 25 18 30 77 49 45 60
REMARK Flexibility Score: inf
ROOT
ATOM      1  C   UNL A   1      31.741  30.474  26.757  1.00  0.00     0.023 C 
ENDROOT
BRANCH   1   2
ATOM      2  C   UNL A   1      32.252  29.843  25.461  1.00  0.00     0.116 C 
BRANCH   2   3
ATOM      3  N   UNL A   1      31.255  29.893  24.415  1.00  0.00    -0.349 N 
ATOM      4  C   UNL A   1      30.530  28.897  23.797  1.00  0.00     0.286 C 
ATOM      5  O   UNL A   1      29.716  29.288  22.954  1.00  0.00    -0.266 OA
ATOM      6  H   UNL A   1      31.057  30.799  24.087  1.00  0.00     0.163 HD
BRANCH   4   7
ATOM      7  C   UNL A   1      30.711  27.490  24.121  1.00  0.00     0.191 A 
ATOM      8  C   UNL A   1      31.504  25.460  23.676  1.00  0.00     0.124 A 
ATOM      9  C   UNL A   1      30.833  25.367  24.875  1.00  0.00     0.048 A 
ATOM     10  O   UNL A   1      31.426  26.737  23.209  1.00  0.00    -0.454 OA
ATOM     11  C   UNL A   1      30.355  26.662  25.170  1.00  0.00     0.056 A 
BRANCH   8  12
ATOM     12  C   UNL A   1      32.279  24.486  22.854  1.00  0.00     0.191 C 
BRANCH  12  13
ATOM     13  N   UNL A   1      32.116  23.167  23.435  1.00  0.00    -0.348 N 
ATOM     14  C   UNL A   1      33.054  22.220  23.720  1.00  0.00     0.232 C 
ATOM     15  O   UNL A   1      32.696  21.064  23.473  1.00  0.00    -0.274 OA
ATOM     16  H   UNL A   1      31.189  22.919  23.657  1.00  0.00     0.163 HD
BRANCH  14  17
ATOM     17  C   UNL A   1      34.411  22.549  24.396  1.00  0.00     0.095 C 
ATOM     18  C   UNL A   1      35.451  23.119  23.415  1.00  0.00     0.028 C 
ATOM     19  C   UNL A   1      34.168  23.559  25.539  1.00  0.00     0.028 C 
ATOM     20  C   UNL A   1      35.029  21.244  24.985  1.00  0.00     0.277 C 
ATOM     21  C   UNL A   1      33.452  22.917  26.729  1.00  0.00     0.063 C 
ATOM     22  N   UNL A   1      34.353  20.701  26.164  1.00  0.00    -0.345 N 
ATOM     23  C   UNL A   1      34.198  21.683  27.225  1.00  0.00     0.260 C 
ATOM     24  H   UNL A   1      33.428  20.371  25.886  1.00  0.00     0.346 HD
ATOM     25  H   UNL A   1      34.929  19.941  26.528  1.00  0.00     0.346 HD
ENDBRANCH  14  17
ENDBRANCH  12  13
ENDBRANCH   8  12
ENDBRANCH   4   7
ENDBRANCH   2   3
ENDBRANCH   1   2
BRANCH   1  26
ATOM     26  C   UNL A   1      31.574  31.996  26.688  1.00  0.00     0.023 C 
BRANCH  26  27
ATOM     27  C   UNL A   1      32.741  32.805  27.249  1.00  0.00     0.116 C 
BRANCH  27  28
ATOM     28  N   UNL A   1      32.387  34.166  27.616  1.00  0.00    -0.352 N 
ATOM     29  C   UNL A   1      32.953  34.972  28.578  1.00  0.00     0.251 C 
ATOM     30  H   UNL A   1      31.642  34.565  27.110  1.00  0.00     0.163 HD
ATOM     31  O   UNL A   1      32.476  36.067  28.831  1.00  0.00    -0.269 OA
BRANCH  29  32
ATOM     32  C   UNL A   1      34.121  34.477  29.337  1.00  0.00     0.039 A 
ATOM     33  C   UNL A   1      33.903  33.832  30.556  1.00  0.00     0.014 A 
ATOM     34  C   UNL A   1      35.417  34.624  28.837  1.00  0.00     0.014 A 
ATOM     35  C   UNL A   1      34.982  33.274  31.244  1.00  0.00     0.010 A 
ATOM     36  C   UNL A   1      36.481  34.009  29.487  1.00  0.00     0.010 A 
ATOM     37  C   UNL A   1      36.274  33.327  30.697  1.00  0.00    -0.014 A 
BRANCH  37  38
ATOM     38  C   UNL A   1      37.421  32.674  31.376  1.00  0.00     0.031 A 
ATOM     39  C   UNL A   1      38.132  31.524  30.718  1.00  0.00     0.074 A 
ATOM     40  C   UNL A   1      37.779  33.073  32.612  1.00  0.00     0.049 A 
ATOM     41  N   UNL A   1      39.110  30.783  31.176  1.00  0.00    -0.248 NA
ATOM     42  C   UNL A   1      37.661  31.135  29.379  1.00  0.00     0.031 C 
ATOM     43  C   UNL A   1      37.131  34.139  33.377  1.00  0.00     0.029 A 
ATOM     44  N   UNL A   1      38.769  32.620  33.447  1.00  0.00    -0.354 N 
ATOM     45  C   UNL A   1      39.358  29.836  30.192  1.00  0.00     0.074 A 
ATOM     46  C   UNL A   1      38.395  30.060  29.135  1.00  0.00     0.031 C 
ATOM     47  C   UNL A   1      37.753  34.272  34.560  1.00  0.00     0.029 A 
ATOM     48  C   UNL A   1      38.820  33.281  34.650  1.00  0.00     0.049 A 
ATOM     49  H   UNL A   1      39.385  31.891  33.207  1.00  0.00     0.167 HD
ATOM     50  C   UNL A   1      40.318  28.881  30.162  1.00  0.00     0.037 A 
ATOM     51  C   UNL A   1      39.635  33.103  35.708  1.00  0.00     0.037 A 
ATOM     52  C   UNL A   1      41.293  28.682  31.200  1.00  0.00     0.049 A 
ATOM     53  C   UNL A   1      40.704  32.046  35.640  1.00  0.00     0.074 A 
ATOM     54  C   UNL A   1      42.346  27.784  31.236  1.00  0.00     0.029 A 
ATOM     55  N   UNL A   1      41.337  29.396  32.390  1.00  0.00    -0.354 N 
ATOM     56  N   UNL A   1      40.977  31.205  34.673  1.00  0.00    -0.248 NA
ATOM     57  C   UNL A   1      41.587  31.922  36.808  1.00  0.00     0.031 C 
ATOM     58  C   UNL A   1      43.002  27.927  32.463  1.00  0.00     0.029 A 
ATOM     59  C   UNL A   1      42.389  28.948  33.171  1.00  0.00     0.049 A 
ATOM     60  H   UNL A   1      40.713  30.115  32.639  1.00  0.00     0.167 HD
ATOM     61  C   UNL A   1      42.079  30.477  35.099  1.00  0.00     0.074 A 
ATOM     62  C   UNL A   1      42.435  30.985  36.408  1.00  0.00     0.031 C 
ATOM     63  C   UNL A   1      42.738  29.476  34.465  1.00  0.00     0.037 A 
BRANCH  50  64
ATOM     64  C   UNL A   1      40.366  27.980  28.962  1.00  0.00     0.064 A 
ATOM     65  C   UNL A   1      41.134  28.303  27.833  1.00  0.00     0.173 A 
ATOM     66  C   UNL A   1      39.673  26.761  28.958  1.00  0.00     0.173 A 
ATOM     67  F   UNL A   1      41.806  29.463  27.781  1.00  0.00    -0.203 F 
ATOM     68  C   UNL A   1      41.186  27.449  26.733  1.00  0.00     0.198 A 
ATOM     69  C   UNL A   1      39.750  25.896  27.869  1.00  0.00     0.198 A 
ATOM     70  F   UNL A   1      38.928  26.403  30.014  1.00  0.00    -0.203 F 
ATOM     71  F   UNL A   1      41.888  27.800  25.647  1.00  0.00    -0.200 F 
ATOM     72  C   UNL A   1      40.500  26.243  26.756  1.00  0.00     0.200 A 
ATOM     73  F   UNL A   1      39.098  24.726  27.897  1.00  0.00    -0.200 F 
ATOM     74  F   UNL A   1      40.558  25.419  25.701  1.00  0.00    -0.200 F 
ENDBRANCH  50  64
BRANCH  51  75
ATOM     75  C   UNL A   1      39.493  33.964  36.912  1.00  0.00     0.064 A 
ATOM     76  C   UNL A   1      40.116  35.218  36.978  1.00  0.00     0.173 A 
ATOM     77  C   UNL A   1      38.748  33.546  38.025  1.00  0.00     0.173 A 
ATOM     78  F   UNL A   1      40.855  35.652  35.946  1.00  0.00    -0.203 F 
ATOM     79  C   UNL A   1      40.023  36.010  38.120  1.00  0.00     0.198 A 
ATOM     80  C   UNL A   1      38.632  34.352  39.155  1.00  0.00     0.198 A 
ATOM     81  F   UNL A   1      38.127  32.358  38.010  1.00  0.00    -0.203 F 
ATOM     82  F   UNL A   1      40.673  37.181  38.175  1.00  0.00    -0.200 F 
ATOM     83  C   UNL A   1      39.277  35.578  39.206  1.00  0.00     0.200 A 
ATOM     84  F   UNL A   1      37.898  33.938  40.198  1.00  0.00    -0.200 F 
ATOM     85  F   UNL A   1      39.188  36.340  40.305  1.00  0.00    -0.200 F 
ENDBRANCH  51  75
BRANCH  63  86
ATOM     86  C   UNL A   1      43.937  28.896  35.156  1.00  0.00     0.064 A 
ATOM     87  C   UNL A   1      45.229  29.397  34.939  1.00  0.00     0.173 A 
ATOM     88  C   UNL A   1      43.785  27.847  36.076  1.00  0.00     0.173 A 
ATOM     89  F   UNL A   1      45.429  30.390  34.058  1.00  0.00    -0.203 F 
ATOM     90  C   UNL A   1      46.328  28.849  35.595  1.00  0.00     0.198 A 
ATOM     91  C   UNL A   1      44.882  27.323  36.753  1.00  0.00     0.198 A 
ATOM     92  F   UNL A   1      42.569  27.337  36.325  1.00  0.00    -0.203 F 
ATOM     93  F   UNL A   1      47.559  29.310  35.335  1.00  0.00    -0.200 F 
ATOM     94  C   UNL A   1      46.152  27.818  36.507  1.00  0.00     0.200 A 
ATOM     95  F   UNL A   1      44.708  26.337  37.644  1.00  0.00    -0.200 F 
ATOM     96  F   UNL A   1      47.211  27.297  37.142  1.00  0.00    -0.200 F 
ENDBRANCH  63  86
ENDBRANCH  37  38
ENDBRANCH  29  32
ENDBRANCH  27  28
ENDBRANCH  26  27
ENDBRANCH   1  26
TORSDOF 14
ENDMDL
MODEL 3
REMARK VINA RESULT:     -12.0      3.482      8.988
REMARK SMILES C[C@]1(C(=O)NCc2ccc(C(=O)NCCCCNC(=O)c3ccc(-c4c5nc(c(-c6c(F)c(F)c(F)c(F)c6F)c6ccc([nH]6)c(-c6c(F)c(F)c(F)c(F)c6F)c6nc(c(-c7c(F)c(F)c(F)c(F)c7F)c7ccc4[nH]7)C=C6)C=C5)cc3)o2)CCC[NH2+]C1
REMARK SMILES IDX 15 1 14 2 13 3 11 4 12 5 10 7 7 8 8 9 84 10 9 11 6 12 5 13
REMARK SMILES IDX 3 14 4 15 2 17 1 18 85 19 89 20 86 21 88 22 87 23 16 26
REMARK SMILES IDX 17 27 18 28 19 29 20 31 21 32 22 33 83 34 23 35 82 36 24 37
REMARK SMILES IDX 25 38 26 39 76 40 27 41 81 42 75 43 77 44 28 45 80 46 74 47
REMARK SMILES IDX 73 48 29 50 61 51 41 52 60 53 42 54 45 55 59 56 78 57 43 58
REMARK SMILES IDX 44 59 58 61 79 62 46 63 30 64 31 65 39 66 32 67 33 68 37 69
REMARK SMILES IDX 40 70 34 71 35 72 38 73 36 74 62 75 63 76 71 77 64 78 65 79
REMARK SMILES IDX 69 80 72 81 66 82 67 83 70 84 68 85 47 86 48 87 56 88 49 89
REMARK SMILES IDX 50 90 54 91 57 92 51 93 52 94 55 95 53 96
REMARK H PARENT 13 6 5 16 88 24 88 25 18 30 77 49 45 60
REMARK Flexibility Score: inf
ROOT
ATOM      1  C   UNL A   1      35.549  21.672  25.903  1.00  0.00     0.023 C 
ENDROOT
BRANCH   1   2
ATOM      2  C   UNL A   1      35.479  20.495  24.929  1.00  0.00     0.116 C 
BRANCH   2   3
ATOM      3  N   UNL A   1      34.304  19.683  25.157  1.00  0.00    -0.349 N 
ATOM      4  C   UNL A   1      32.968  19.923  24.919  1.00  0.00     0.286 C 
ATOM      5  O   UNL A   1      32.211  18.988  25.199  1.00  0.00    -0.266 OA
ATOM      6  H   UNL A   1      34.492  18.801  25.553  1.00  0.00     0.163 HD
BRANCH   4   7
ATOM      7  C   UNL A   1      32.491  21.184  24.375  1.00  0.00     0.191 A 
ATOM      8  C   UNL A   1      31.777  23.279  24.607  1.00  0.00     0.124 A 
ATOM      9  C   UNL A   1      31.781  23.011  23.256  1.00  0.00     0.048 A 
ATOM     10  O   UNL A   1      32.195  22.176  25.289  1.00  0.00    -0.454 OA
ATOM     11  C   UNL A   1      32.261  21.691  23.108  1.00  0.00     0.056 A 
BRANCH   8  12
ATOM     12  C   UNL A   1      31.446  24.488  25.414  1.00  0.00     0.191 C 
BRANCH  12  13
ATOM     13  N   UNL A   1      32.625  25.331  25.477  1.00  0.00    -0.348 N 
ATOM     14  C   UNL A   1      32.837  26.571  24.953  1.00  0.00     0.232 C 
ATOM     15  O   UNL A   1      33.967  26.733  24.481  1.00  0.00    -0.274 OA
ATOM     16  H   UNL A   1      33.386  24.949  25.972  1.00  0.00     0.163 HD
BRANCH  14  17
ATOM     17  C   UNL A   1      31.793  27.715  25.036  1.00  0.00     0.095 C 
ATOM     18  C   UNL A   1      30.541  27.453  24.180  1.00  0.00     0.028 C 
ATOM     19  C   UNL A   1      31.380  27.908  26.512  1.00  0.00     0.028 C 
ATOM     20  C   UNL A   1      32.425  29.037  24.501  1.00  0.00     0.277 C 
ATOM     21  C   UNL A   1      32.501  28.539  27.343  1.00  0.00     0.063 C 
ATOM     22  N   UNL A   1      33.444  29.643  25.359  1.00  0.00    -0.345 N 
ATOM     23  C   UNL A   1      32.982  29.847  26.723  1.00  0.00     0.260 C 
ATOM     24  H   UNL A   1      34.259  29.030  25.379  1.00  0.00     0.346 HD
ATOM     25  H   UNL A   1      33.672  30.558  24.970  1.00  0.00     0.346 HD
ENDBRANCH  14  17
ENDBRANCH  12  13
ENDBRANCH   8  12
ENDBRANCH   4   7
ENDBRANCH   2   3
ENDBRANCH   1   2
BRANCH   1  26
ATOM     26  C   UNL A   1      35.657  23.041  25.222  1.00  0.00     0.023 C 
BRANCH  26  27
ATOM     27  C   UNL A   1      37.026  23.712  25.325  1.00  0.00     0.116 C 
BRANCH  27  28
ATOM     28  N   UNL A   1      38.119  22.779  25.545  1.00  0.00    -0.352 N 
ATOM     29  C   UNL A   1      39.313  22.994  26.195  1.00  0.00     0.251 C 
ATOM     30  H   UNL A   1      37.988  21.874  25.180  1.00  0.00     0.163 HD
ATOM     31  O   UNL A   1      40.174  22.129  26.214  1.00  0.00    -0.269 OA
BRANCH  29  32
ATOM     32  C   UNL A   1      39.562  24.304  26.832  1.00  0.00     0.039 A 
ATOM     33  C   UNL A   1      39.160  24.493  28.156  1.00  0.00     0.014 A 
ATOM     34  C   UNL A   1      40.211  25.329  26.138  1.00  0.00     0.014 A 
ATOM     35  C   UNL A   1      39.468  25.688  28.808  1.00  0.00     0.010 A 
ATOM     36  C   UNL A   1      40.579  26.491  26.809  1.00  0.00     0.010 A 
ATOM     37  C   UNL A   1      40.212  26.681  28.150  1.00  0.00    -0.014 A 
BRANCH  37  38
ATOM     38  C   UNL A   1      40.615  27.926  28.851  1.00  0.00     0.031 A 
ATOM     39  C   UNL A   1      42.015  28.077  29.375  1.00  0.00     0.074 A 
ATOM     40  C   UNL A   1      39.701  28.892  29.073  1.00  0.00     0.049 A 
ATOM     41  N   UNL A   1      42.540  29.057  30.067  1.00  0.00    -0.248 NA
ATOM     42  C   UNL A   1      42.943  26.965  29.112  1.00  0.00     0.031 C 
ATOM     43  C   UNL A   1      38.297  28.838  28.662  1.00  0.00     0.029 A 
ATOM     44  N   UNL A   1      39.815  30.102  29.708  1.00  0.00    -0.354 N 
ATOM     45  C   UNL A   1      43.847  28.673  30.334  1.00  0.00     0.074 A 
ATOM     46  C   UNL A   1      44.022  27.349  29.777  1.00  0.00     0.031 C 
ATOM     47  C   UNL A   1      37.685  29.972  29.039  1.00  0.00     0.029 A 
ATOM     48  C   UNL A   1      38.644  30.818  29.744  1.00  0.00     0.049 A 
ATOM     49  H   UNL A   1      40.656  30.428  30.101  1.00  0.00     0.167 HD
ATOM     50  C   UNL A   1      44.820  29.371  30.967  1.00  0.00     0.037 A 
ATOM     51  C   UNL A   1      38.372  32.021  30.288  1.00  0.00     0.037 A 
ATOM     52  C   UNL A   1      44.651  30.700  31.491  1.00  0.00     0.049 A 
ATOM     53  C   UNL A   1      39.478  32.782  30.968  1.00  0.00     0.074 A 
ATOM     54  C   UNL A   1      45.593  31.518  32.092  1.00  0.00     0.029 A 
ATOM     55  N   UNL A   1      43.458  31.409  31.475  1.00  0.00    -0.354 N 
ATOM     56  N   UNL A   1      40.730  32.440  31.149  1.00  0.00    -0.248 NA
ATOM     57  C   UNL A   1      39.134  34.104  31.510  1.00  0.00     0.031 C 
ATOM     58  C   UNL A   1      44.961  32.705  32.476  1.00  0.00     0.029 A 
ATOM     59  C   UNL A   1      43.637  32.647  32.070  1.00  0.00     0.049 A 
ATOM     60  H   UNL A   1      42.611  31.080  31.097  1.00  0.00     0.167 HD
ATOM     61  C   UNL A   1      41.329  33.513  31.794  1.00  0.00     0.074 A 
ATOM     62  C   UNL A   1      40.307  34.525  31.960  1.00  0.00     0.031 C 
ATOM     63  C   UNL A   1      42.612  33.648  32.212  1.00  0.00     0.037 A 
BRANCH  50  64
ATOM     64  C   UNL A   1      46.161  28.714  31.119  1.00  0.00     0.064 A 
ATOM     65  C   UNL A   1      46.474  27.936  32.245  1.00  0.00     0.173 A 
ATOM     66  C   UNL A   1      47.128  28.825  30.110  1.00  0.00     0.173 A 
ATOM     67  F   UNL A   1      45.588  27.807  33.244  1.00  0.00    -0.203 F 
ATOM     68  C   UNL A   1      47.715  27.316  32.365  1.00  0.00     0.198 A 
ATOM     69  C   UNL A   1      48.358  28.180  30.220  1.00  0.00     0.198 A 
ATOM     70  F   UNL A   1      46.879  29.553  29.011  1.00  0.00    -0.203 F 
ATOM     71  F   UNL A   1      48.008  26.616  33.470  1.00  0.00    -0.200 F 
ATOM     72  C   UNL A   1      48.652  27.432  31.349  1.00  0.00     0.200 A 
ATOM     73  F   UNL A   1      49.257  28.282  29.232  1.00  0.00    -0.200 F 
ATOM     74  F   UNL A   1      49.843  26.827  31.462  1.00  0.00    -0.200 F 
ENDBRANCH  50  64
BRANCH  51  75
ATOM     75  C   UNL A   1      37.005  32.594  30.186  1.00  0.00     0.064 A 
ATOM     76  C   UNL A   1      36.621  33.348  29.068  1.00  0.00     0.173 A 
ATOM     77  C   UNL A   1      36.061  32.418  31.209  1.00  0.00     0.173 A 
ATOM     78  F   UNL A   1      37.496  33.561  28.073  1.00  0.00    -0.203 F 
ATOM     79  C   UNL A   1      35.356  33.924  28.988  1.00  0.00     0.198 A 
ATOM     80  C   UNL A   1      34.786  32.970  31.114  1.00  0.00     0.198 A 
ATOM     81  F   UNL A   1      36.376  31.700  32.297  1.00  0.00    -0.203 F 
ATOM     82  F   UNL A   1      35.034  34.683  27.931  1.00  0.00    -0.200 F 
ATOM     83  C   UNL A   1      34.438  33.731  30.009  1.00  0.00     0.200 A 
ATOM     84  F   UNL A   1      33.896  32.770  32.096  1.00  0.00    -0.200 F 
ATOM     85  F   UNL A   1      33.221  34.287  29.931  1.00  0.00    -0.200 F 
ENDBRANCH  51  75
BRANCH  63  86
ATOM     86  C   UNL A   1      42.994  34.953  32.849  1.00  0.00     0.064 A 
ATOM     87  C   UNL A   1      43.490  36.026  32.093  1.00  0.00     0.173 A 
ATOM     88  C   UNL A   1      42.826  35.143  34.229  1.00  0.00     0.173 A 
ATOM     89  F   UNL A   1      43.681  35.889  30.772  1.00  0.00    -0.203 F 
ATOM     90  C   UNL A   1      43.832  37.231  32.701  1.00  0.00     0.198 A 
ATOM     91  C   UNL A   1      43.140  36.360  34.828  1.00  0.00     0.198 A 
ATOM     92  F   UNL A   1      42.348  34.151  34.995  1.00  0.00    -0.203 F 
ATOM     93  F   UNL A   1      44.351  38.225  31.968  1.00  0.00    -0.200 F 
ATOM     94  C   UNL A   1      43.649  37.398  34.066  1.00  0.00     0.200 A 
ATOM     95  F   UNL A   1      42.950  36.524  36.144  1.00  0.00    -0.200 F 
ATOM     96  F   UNL A   1      43.973  38.562  34.648  1.00  0.00    -0.200 F 
ENDBRANCH  63  86
ENDBRANCH  37  38
ENDBRANCH  29  32
ENDBRANCH  27  28
ENDBRANCH  26  27
ENDBRANCH   1  26
TORSDOF 14
ENDMDL
