MODEL 1
REMARK VINA RESULT:     -13.3      0.000      0.000
REMARK SMILES Cc1ccc(C(C)(C)C)c(OCC(=O)c2nc(C)c(C(=O)NCCCCNC(=O)c3ccc(-c4c5nc(c(-c6c(F)c(F)c(F)c(F)c6F)c6ccc([nH]6)c(-c6c(F)c(F)c(F)c(F)c6F)c6nc(c(-c7c(F)c(F)c(F)c(F)c7F)c7ccc4[nH]7)C=C6)C=C5)cc3)s2)c1
REMARK SMILES IDX 23 1 22 2 20 3 21 4 19 6 15 7 16 8 93 9 17 10 18 11 13 12
REMARK SMILES IDX 14 13 12 14 11 15 10 16 1 17 2 18 3 19 94 20 4 21 5 22 6 23
REMARK SMILES IDX 7 24 8 25 9 26 24 27 25 28 26 29 27 30 28 31 29 33 30 34
REMARK SMILES IDX 31 35 92 36 32 37 91 38 33 39 34 40 35 41 85 42 36 43 90 44
REMARK SMILES IDX 84 45 86 46 37 47 89 48 83 49 82 50 38 52 70 53 50 54 69 55
REMARK SMILES IDX 51 56 54 57 68 58 87 59 52 60 53 61 67 63 88 64 55 65 39 66
REMARK SMILES IDX 40 67 48 68 41 69 42 70 46 71 49 72 43 73 44 74 47 75 45 76
REMARK SMILES IDX 71 77 72 78 80 79 73 80 74 81 78 82 81 83 75 84 76 85 79 86
REMARK SMILES IDX 77 87 56 88 57 89 65 90 58 91 59 92 63 93 66 94 60 95 61 96
REMARK SMILES IDX 64 97 62 98
REMARK H PARENT 22 5 27 32 86 51 54 62
REMARK Flexibility Score: inf
ROOT
ATOM      1  C   UNL A   1      32.490  29.592  24.694  1.00  0.00     0.116 C 
ENDROOT
BRANCH   1   2
ATOM      2  N   UNL A   1      31.899  28.842  23.614  1.00  0.00    -0.351 N 
ATOM      3  C   UNL A   1      31.589  27.523  23.407  1.00  0.00     0.263 C 
ATOM      4  O   UNL A   1      31.067  27.351  22.297  1.00  0.00    -0.268 OA
ATOM      5  H   UNL A   1      31.664  29.410  22.845  1.00  0.00     0.163 HD
BRANCH   3   6
ATOM      6  C   UNL A   1      31.811  26.418  24.342  1.00  0.00     0.115 A 
ATOM      7  C   UNL A   1      31.441  24.183  25.342  1.00  0.00     0.164 A 
ATOM      8  N   UNL A   1      32.374  24.835  25.988  1.00  0.00    -0.237 NA
ATOM      9  S   UNL A   1      30.765  25.035  24.048  1.00  0.00    -0.105 S 
ATOM     10  C   UNL A   1      32.629  26.080  25.420  1.00  0.00     0.062 A 
ATOM     11  C   UNL A   1      33.745  26.764  26.116  1.00  0.00     0.068 C 
BRANCH   7  12
ATOM     12  C   UNL A   1      31.042  22.845  25.757  1.00  0.00     0.228 C 
ATOM     13  O   UNL A   1      30.081  22.639  26.509  1.00  0.00    -0.288 OA
BRANCH  12  14
ATOM     14  C   UNL A   1      31.915  21.648  25.356  1.00  0.00     0.313 C 
BRANCH  14  15
ATOM     15  O   UNL A   1      33.169  21.830  24.736  1.00  0.00    -0.485 OA
BRANCH  15  16
ATOM     16  C   UNL A   1      34.108  20.840  24.774  1.00  0.00     0.123 A 
ATOM     17  C   UNL A   1      34.396  17.049  24.353  1.00  0.00     0.044 C 
ATOM     18  C   UNL A   1      34.763  18.489  24.565  1.00  0.00    -0.047 A 
ATOM     19  C   UNL A   1      36.092  18.859  24.719  1.00  0.00     0.004 A 
ATOM     20  C   UNL A   1      33.779  19.480  24.625  1.00  0.00     0.050 A 
ATOM     21  C   UNL A   1      36.426  20.200  24.921  1.00  0.00     0.008 A 
ATOM     22  C   UNL A   1      35.454  21.230  24.953  1.00  0.00    -0.000 A 
BRANCH  22  23
ATOM     23  C   UNL A   1      35.953  22.680  25.196  1.00  0.00    -0.010 C 
ATOM     24  C   UNL A   1      37.498  22.658  25.301  1.00  0.00     0.016 C 
ATOM     25  C   UNL A   1      35.537  23.580  24.007  1.00  0.00     0.016 C 
ATOM     26  C   UNL A   1      35.454  23.398  26.471  1.00  0.00     0.016 C 
ENDBRANCH  22  23
ENDBRANCH  15  16
ENDBRANCH  14  15
ENDBRANCH  12  14
ENDBRANCH   7  12
ENDBRANCH   3   6
ENDBRANCH   1   2
BRANCH   1  27
ATOM     27  C   UNL A   1      31.431  30.075  25.699  1.00  0.00     0.023 C 
BRANCH  27  28
ATOM     28  C   UNL A   1      31.945  31.023  26.785  1.00  0.00     0.023 C 
BRANCH  28  29
ATOM     29  C   UNL A   1      33.338  30.658  27.274  1.00  0.00     0.116 C 
BRANCH  29  30
ATOM     30  N   UNL A   1      33.985  31.655  28.118  1.00  0.00    -0.352 N 
ATOM     31  C   UNL A   1      35.121  31.544  28.912  1.00  0.00     0.251 C 
ATOM     32  H   UNL A   1      33.552  32.539  28.129  1.00  0.00     0.163 HD
ATOM     33  O   UNL A   1      35.451  32.464  29.637  1.00  0.00    -0.269 OA
BRANCH  31  34
ATOM     34  C   UNL A   1      36.007  30.357  28.766  1.00  0.00     0.039 A 
ATOM     35  C   UNL A   1      36.391  29.671  29.927  1.00  0.00     0.014 A 
ATOM     36  C   UNL A   1      36.621  30.061  27.555  1.00  0.00     0.014 A 
ATOM     37  C   UNL A   1      37.556  28.905  29.915  1.00  0.00     0.010 A 
ATOM     38  C   UNL A   1      37.842  29.418  27.570  1.00  0.00     0.010 A 
ATOM     39  C   UNL A   1      38.342  28.893  28.763  1.00  0.00    -0.014 A 
BRANCH  39  40
ATOM     40  C   UNL A   1      39.743  28.484  28.752  1.00  0.00     0.031 A 
ATOM     41  C   UNL A   1      40.138  27.115  28.362  1.00  0.00     0.074 A 
ATOM     42  C   UNL A   1      40.706  29.402  29.000  1.00  0.00     0.049 A 
ATOM     43  N   UNL A   1      41.208  26.529  28.789  1.00  0.00    -0.248 NA
ATOM     44  C   UNL A   1      39.346  26.284  27.463  1.00  0.00     0.031 C 
ATOM     45  C   UNL A   1      42.140  29.263  28.754  1.00  0.00     0.029 A 
ATOM     46  N   UNL A   1      40.589  30.615  29.700  1.00  0.00    -0.354 N 
ATOM     47  C   UNL A   1      41.389  25.397  28.031  1.00  0.00     0.074 A 
ATOM     48  C   UNL A   1      40.172  25.252  27.264  1.00  0.00     0.031 C 
ATOM     49  C   UNL A   1      42.800  30.152  29.512  1.00  0.00     0.029 A 
ATOM     50  C   UNL A   1      41.821  30.792  30.372  1.00  0.00     0.049 A 
ATOM     51  H   UNL A   1      39.811  31.218  29.718  1.00  0.00     0.167 HD
ATOM     52  C   UNL A   1      42.603  24.774  28.013  1.00  0.00     0.037 A 
ATOM     53  C   UNL A   1      41.897  30.852  31.733  1.00  0.00     0.037 A 
ATOM     54  C   UNL A   1      43.576  25.464  28.852  1.00  0.00     0.049 A 
ATOM     55  C   UNL A   1      42.786  29.799  32.348  1.00  0.00     0.074 A 
ATOM     56  C   UNL A   1      44.565  26.387  28.553  1.00  0.00     0.029 A 
ATOM     57  N   UNL A   1      43.413  25.495  30.232  1.00  0.00    -0.354 N 
ATOM     58  N   UNL A   1      43.142  28.706  31.736  1.00  0.00    -0.248 NA
ATOM     59  C   UNL A   1      43.294  29.866  33.716  1.00  0.00     0.031 C 
ATOM     60  C   UNL A   1      44.988  26.990  29.759  1.00  0.00     0.029 A 
ATOM     61  C   UNL A   1      44.257  26.433  30.794  1.00  0.00     0.049 A 
ATOM     62  H   UNL A   1      42.785  24.929  30.737  1.00  0.00     0.167 HD
ATOM     63  C   UNL A   1      43.856  27.913  32.597  1.00  0.00     0.074 A 
ATOM     64  C   UNL A   1      43.948  28.696  33.815  1.00  0.00     0.031 C 
ATOM     65  C   UNL A   1      44.284  26.671  32.228  1.00  0.00     0.037 A 
BRANCH  52  66
ATOM     66  C   UNL A   1      42.967  23.739  26.977  1.00  0.00     0.064 A 
ATOM     67  C   UNL A   1      42.645  22.377  27.152  1.00  0.00     0.173 A 
ATOM     68  C   UNL A   1      43.687  24.034  25.806  1.00  0.00     0.173 A 
ATOM     69  F   UNL A   1      41.870  21.961  28.161  1.00  0.00    -0.203 F 
ATOM     70  C   UNL A   1      43.121  21.379  26.299  1.00  0.00     0.198 A 
ATOM     71  C   UNL A   1      44.209  23.033  24.980  1.00  0.00     0.198 A 
ATOM     72  F   UNL A   1      43.887  25.303  25.421  1.00  0.00    -0.203 F 
ATOM     73  F   UNL A   1      42.799  20.099  26.529  1.00  0.00    -0.200 F 
ATOM     74  C   UNL A   1      43.938  21.703  25.236  1.00  0.00     0.200 A 
ATOM     75  F   UNL A   1      44.988  23.366  23.940  1.00  0.00    -0.200 F 
ATOM     76  F   UNL A   1      44.445  20.742  24.453  1.00  0.00    -0.200 F 
ENDBRANCH  52  66
BRANCH  53  77
ATOM     77  C   UNL A   1      40.663  31.380  32.366  1.00  0.00     0.064 A 
ATOM     78  C   UNL A   1      40.409  32.762  32.291  1.00  0.00     0.173 A 
ATOM     79  C   UNL A   1      39.589  30.537  32.678  1.00  0.00     0.173 A 
ATOM     80  F   UNL A   1      41.404  33.610  31.984  1.00  0.00    -0.203 F 
ATOM     81  C   UNL A   1      39.116  33.267  32.405  1.00  0.00     0.198 A 
ATOM     82  C   UNL A   1      38.296  31.049  32.804  1.00  0.00     0.198 A 
ATOM     83  F   UNL A   1      39.763  29.210  32.739  1.00  0.00    -0.203 F 
ATOM     84  F   UNL A   1      38.890  34.574  32.209  1.00  0.00    -0.200 F 
ATOM     85  C   UNL A   1      38.057  32.406  32.634  1.00  0.00     0.200 A 
ATOM     86  F   UNL A   1      37.265  30.213  32.990  1.00  0.00    -0.200 F 
ATOM     87  F   UNL A   1      36.801  32.874  32.644  1.00  0.00    -0.200 F 
ENDBRANCH  53  77
BRANCH  65  88
ATOM     88  C   UNL A   1      44.858  25.608  33.135  1.00  0.00     0.064 A 
ATOM     89  C   UNL A   1      46.207  25.216  33.134  1.00  0.00     0.173 A 
ATOM     90  C   UNL A   1      44.063  25.038  34.161  1.00  0.00     0.173 A 
ATOM     91  F   UNL A   1      47.094  25.767  32.296  1.00  0.00    -0.203 F 
ATOM     92  C   UNL A   1      46.708  24.280  34.046  1.00  0.00     0.198 A 
ATOM     93  C   UNL A   1      44.579  24.152  35.106  1.00  0.00     0.198 A 
ATOM     94  F   UNL A   1      42.765  25.348  34.299  1.00  0.00    -0.203 F 
ATOM     95  F   UNL A   1      47.994  23.910  33.974  1.00  0.00    -0.200 F 
ATOM     96  C   UNL A   1      45.898  23.759  35.038  1.00  0.00     0.200 A 
ATOM     97  F   UNL A   1      43.794  23.699  36.093  1.00  0.00    -0.200 F 
ATOM     98  F   UNL A   1      46.395  22.900  35.937  1.00  0.00    -0.200 F 
ENDBRANCH  65  88
ENDBRANCH  39  40
ENDBRANCH  31  34
ENDBRANCH  29  30
ENDBRANCH  28  29
ENDBRANCH  27  28
ENDBRANCH   1  27
TORSDOF 16
ENDMDL
MODEL 2
REMARK VINA RESULT:     -13.3      3.124      9.900
REMARK SMILES Cc1ccc(C(C)(C)C)c(OCC(=O)c2nc(C)c(C(=O)NCCCCNC(=O)c3ccc(-c4c5nc(c(-c6c(F)c(F)c(F)c(F)c6F)c6ccc([nH]6)c(-c6c(F)c(F)c(F)c(F)c6F)c6nc(c(-c7c(F)c(F)c(F)c(F)c7F)c7ccc4[nH]7)C=C6)C=C5)cc3)s2)c1
REMARK SMILES IDX 23 1 22 2 20 3 21 4 19 6 15 7 16 8 93 9 17 10 18 11 13 12
REMARK SMILES IDX 14 13 12 14 11 15 10 16 1 17 2 18 3 19 94 20 4 21 5 22 6 23
REMARK SMILES IDX 7 24 8 25 9 26 24 27 25 28 26 29 27 30 28 31 29 33 30 34
REMARK SMILES IDX 31 35 92 36 32 37 91 38 33 39 34 40 35 41 85 42 36 43 90 44
REMARK SMILES IDX 84 45 86 46 37 47 89 48 83 49 82 50 38 52 70 53 50 54 69 55
REMARK SMILES IDX 51 56 54 57 68 58 87 59 52 60 53 61 67 63 88 64 55 65 39 66
REMARK SMILES IDX 40 67 48 68 41 69 42 70 46 71 49 72 43 73 44 74 47 75 45 76
REMARK SMILES IDX 71 77 72 78 80 79 73 80 74 81 78 82 81 83 75 84 76 85 79 86
REMARK SMILES IDX 77 87 56 88 57 89 65 90 58 91 59 92 63 93 66 94 60 95 61 96
REMARK SMILES IDX 64 97 62 98
REMARK H PARENT 22 5 27 32 86 51 54 62
REMARK Flexibility Score: inf
ROOT
ATOM      1  C   UNL A   1      35.792  21.135  25.698  1.00  0.00     0.116 C 
ENDROOT
BRANCH   1   2
ATOM      2  N   UNL A   1      34.573  20.718  25.049  1.00  0.00    -0.351 N 
ATOM      3  C   UNL A   1      33.582  21.354  24.349  1.00  0.00     0.263 C 
ATOM      4  O   UNL A   1      32.718  20.555  23.962  1.00  0.00    -0.268 OA
ATOM      5  H   UNL A   1      34.417  19.749  25.129  1.00  0.00     0.163 HD
BRANCH   3   6
ATOM      6  C   UNL A   1      33.504  22.787  24.055  1.00  0.00     0.115 A 
ATOM      7  C   UNL A   1      33.253  24.801  22.637  1.00  0.00     0.164 A 
ATOM      8  N   UNL A   1      33.447  25.132  23.888  1.00  0.00    -0.237 NA
ATOM      9  S   UNL A   1      33.240  23.136  22.352  1.00  0.00    -0.105 S 
ATOM     10  C   UNL A   1      33.551  24.016  24.713  1.00  0.00     0.062 A 
ATOM     11  C   UNL A   1      33.687  24.414  26.134  1.00  0.00     0.068 C 
BRANCH   7  12
ATOM     12  C   UNL A   1      33.089  25.823  21.612  1.00  0.00     0.228 C 
ATOM     13  O   UNL A   1      33.082  25.560  20.403  1.00  0.00    -0.288 OA
BRANCH  12  14
ATOM     14  C   UNL A   1      33.049  27.299  22.031  1.00  0.00     0.313 C 
BRANCH  14  15
ATOM     15  O   UNL A   1      31.895  27.867  22.610  1.00  0.00    -0.485 OA
BRANCH  15  16
ATOM     16  C   UNL A   1      31.986  28.588  23.765  1.00  0.00     0.123 A 
ATOM     17  C   UNL A   1      34.387  29.164  26.686  1.00  0.00     0.044 C 
ATOM     18  C   UNL A   1      33.198  29.280  25.778  1.00  0.00    -0.047 A 
ATOM     19  C   UNL A   1      32.193  30.198  26.051  1.00  0.00     0.004 A 
ATOM     20  C   UNL A   1      33.069  28.460  24.653  1.00  0.00     0.050 A 
ATOM     21  C   UNL A   1      31.086  30.297  25.205  1.00  0.00     0.008 A 
ATOM     22  C   UNL A   1      30.946  29.505  24.041  1.00  0.00    -0.000 A 
BRANCH  22  23
ATOM     23  C   UNL A   1      29.663  29.702  23.189  1.00  0.00    -0.010 C 
ATOM     24  C   UNL A   1      28.886  30.921  23.744  1.00  0.00     0.016 C 
ATOM     25  C   UNL A   1      30.053  29.975  21.716  1.00  0.00     0.016 C 
ATOM     26  C   UNL A   1      28.648  28.535  23.153  1.00  0.00     0.016 C 
ENDBRANCH  22  23
ENDBRANCH  15  16
ENDBRANCH  14  15
ENDBRANCH  12  14
ENDBRANCH   7  12
ENDBRANCH   3   6
ENDBRANCH   1   2
BRANCH   1  27
ATOM     27  C   UNL A   1      36.974  21.178  24.716  1.00  0.00     0.023 C 
BRANCH  27  28
ATOM     28  C   UNL A   1      38.361  21.116  25.361  1.00  0.00     0.023 C 
BRANCH  28  29
ATOM     29  C   UNL A   1      38.819  22.461  25.903  1.00  0.00     0.116 C 
BRANCH  29  30
ATOM     30  N   UNL A   1      40.245  22.568  26.184  1.00  0.00    -0.352 N 
ATOM     31  C   UNL A   1      41.000  23.681  26.537  1.00  0.00     0.251 C 
ATOM     32  H   UNL A   1      40.751  21.727  26.111  1.00  0.00     0.163 HD
ATOM     33  O   UNL A   1      42.211  23.595  26.628  1.00  0.00    -0.269 OA
BRANCH  31  34
ATOM     34  C   UNL A   1      40.312  24.938  26.941  1.00  0.00     0.039 A 
ATOM     35  C   UNL A   1      40.677  26.129  26.300  1.00  0.00     0.014 A 
ATOM     36  C   UNL A   1      39.496  24.982  28.066  1.00  0.00     0.014 A 
ATOM     37  C   UNL A   1      40.454  27.347  26.940  1.00  0.00     0.010 A 
ATOM     38  C   UNL A   1      39.394  26.168  28.764  1.00  0.00     0.010 A 
ATOM     39  C   UNL A   1      39.928  27.343  28.231  1.00  0.00    -0.014 A 
BRANCH  39  40
ATOM     40  C   UNL A   1      40.027  28.479  29.142  1.00  0.00     0.031 A 
ATOM     41  C   UNL A   1      38.985  29.527  29.174  1.00  0.00     0.074 A 
ATOM     42  C   UNL A   1      41.032  28.523  30.046  1.00  0.00     0.049 A 
ATOM     43  N   UNL A   1      39.210  30.750  29.527  1.00  0.00    -0.248 NA
ATOM     44  C   UNL A   1      37.599  29.283  28.793  1.00  0.00     0.031 C 
ATOM     45  C   UNL A   1      41.135  29.402  31.208  1.00  0.00     0.029 A 
ATOM     46  N   UNL A   1      42.275  27.871  29.993  1.00  0.00    -0.354 N 
ATOM     47  C   UNL A   1      37.990  31.363  29.690  1.00  0.00     0.074 A 
ATOM     48  C   UNL A   1      37.021  30.431  29.160  1.00  0.00     0.031 C 
ATOM     49  C   UNL A   1      42.420  29.473  31.589  1.00  0.00     0.029 A 
ATOM     50  C   UNL A   1      43.200  28.753  30.599  1.00  0.00     0.049 A 
ATOM     51  H   UNL A   1      42.465  26.982  29.613  1.00  0.00     0.167 HD
ATOM     52  C   UNL A   1      37.902  32.531  30.389  1.00  0.00     0.037 A 
ATOM     53  C   UNL A   1      44.259  29.270  29.912  1.00  0.00     0.037 A 
ATOM     54  C   UNL A   1      39.202  32.961  30.888  1.00  0.00     0.049 A 
ATOM     55  C   UNL A   1      44.284  30.778  29.860  1.00  0.00     0.074 A 
ATOM     56  C   UNL A   1      39.815  32.811  32.121  1.00  0.00     0.029 A 
ATOM     57  N   UNL A   1      40.196  33.360  30.001  1.00  0.00    -0.354 N 
ATOM     58  N   UNL A   1      43.242  31.526  30.085  1.00  0.00    -0.248 NA
ATOM     59  C   UNL A   1      45.463  31.557  29.495  1.00  0.00     0.031 C 
ATOM     60  C   UNL A   1      41.189  33.104  31.973  1.00  0.00     0.029 A 
ATOM     61  C   UNL A   1      41.414  33.435  30.648  1.00  0.00     0.049 A 
ATOM     62  H   UNL A   1      40.051  33.561  29.048  1.00  0.00     0.167 HD
ATOM     63  C   UNL A   1      43.564  32.839  29.856  1.00  0.00     0.074 A 
ATOM     64  C   UNL A   1      44.974  32.809  29.516  1.00  0.00     0.031 C 
ATOM     65  C   UNL A   1      42.625  33.826  29.946  1.00  0.00     0.037 A 
BRANCH  52  66
ATOM     66  C   UNL A   1      36.585  33.084  30.879  1.00  0.00     0.064 A 
ATOM     67  C   UNL A   1      35.711  33.777  30.015  1.00  0.00     0.173 A 
ATOM     68  C   UNL A   1      36.160  33.002  32.216  1.00  0.00     0.173 A 
ATOM     69  F   UNL A   1      35.929  33.842  28.697  1.00  0.00    -0.203 F 
ATOM     70  C   UNL A   1      34.576  34.447  30.479  1.00  0.00     0.198 A 
ATOM     71  C   UNL A   1      35.054  33.715  32.691  1.00  0.00     0.198 A 
ATOM     72  F   UNL A   1      36.794  32.210  33.094  1.00  0.00    -0.203 F 
ATOM     73  F   UNL A   1      33.795  35.107  29.614  1.00  0.00    -0.200 F 
ATOM     74  C   UNL A   1      34.271  34.450  31.824  1.00  0.00     0.200 A 
ATOM     75  F   UNL A   1      34.760  33.694  34.000  1.00  0.00    -0.200 F 
ATOM     76  F   UNL A   1      33.218  35.143  32.278  1.00  0.00    -0.200 F 
ENDBRANCH  52  66
BRANCH  53  77
ATOM     77  C   UNL A   1      44.736  28.387  28.819  1.00  0.00     0.064 A 
ATOM     78  C   UNL A   1      45.508  27.260  29.156  1.00  0.00     0.173 A 
ATOM     79  C   UNL A   1      44.139  28.411  27.552  1.00  0.00     0.173 A 
ATOM     80  F   UNL A   1      46.092  27.185  30.363  1.00  0.00    -0.203 F 
ATOM     81  C   UNL A   1      45.583  26.155  28.311  1.00  0.00     0.198 A 
ATOM     82  C   UNL A   1      44.226  27.307  26.703  1.00  0.00     0.198 A 
ATOM     83  F   UNL A   1      43.372  29.447  27.184  1.00  0.00    -0.203 F 
ATOM     84  F   UNL A   1      46.227  25.050  28.713  1.00  0.00    -0.200 F 
ATOM     85  C   UNL A   1      44.918  26.170  27.097  1.00  0.00     0.200 A 
ATOM     86  F   UNL A   1      43.554  27.305  25.543  1.00  0.00    -0.200 F 
ATOM     87  F   UNL A   1      44.903  25.072  26.327  1.00  0.00    -0.200 F 
ENDBRANCH  53  77
BRANCH  65  88
ATOM     88  C   UNL A   1      42.777  35.259  29.491  1.00  0.00     0.064 A 
ATOM     89  C   UNL A   1      42.093  35.815  28.397  1.00  0.00     0.173 A 
ATOM     90  C   UNL A   1      43.536  36.177  30.259  1.00  0.00     0.173 A 
ATOM     91  F   UNL A   1      41.246  35.086  27.660  1.00  0.00    -0.203 F 
ATOM     92  C   UNL A   1      42.209  37.168  28.060  1.00  0.00     0.198 A 
ATOM     93  C   UNL A   1      43.603  37.536  29.956  1.00  0.00     0.198 A 
ATOM     94  F   UNL A   1      44.216  35.788  31.349  1.00  0.00    -0.203 F 
ATOM     95  F   UNL A   1      41.568  37.638  26.982  1.00  0.00    -0.200 F 
ATOM     96  C   UNL A   1      42.952  38.029  28.846  1.00  0.00     0.200 A 
ATOM     97  F   UNL A   1      44.283  38.365  30.760  1.00  0.00    -0.200 F 
ATOM     98  F   UNL A   1      43.022  39.332  28.545  1.00  0.00    -0.200 F 
ENDBRANCH  65  88
ENDBRANCH  39  40
ENDBRANCH  31  34
ENDBRANCH  29  30
ENDBRANCH  28  29
ENDBRANCH  27  28
ENDBRANCH   1  27
TORSDOF 16
ENDMDL
MODEL 3
REMARK VINA RESULT:     -13.2      1.199      2.218
REMARK SMILES Cc1ccc(C(C)(C)C)c(OCC(=O)c2nc(C)c(C(=O)NCCCCNC(=O)c3ccc(-c4c5nc(c(-c6c(F)c(F)c(F)c(F)c6F)c6ccc([nH]6)c(-c6c(F)c(F)c(F)c(F)c6F)c6nc(c(-c7c(F)c(F)c(F)c(F)c7F)c7ccc4[nH]7)C=C6)C=C5)cc3)s2)c1
REMARK SMILES IDX 23 1 22 2 20 3 21 4 19 6 15 7 16 8 93 9 17 10 18 11 13 12
REMARK SMILES IDX 14 13 12 14 11 15 10 16 1 17 2 18 3 19 94 20 4 21 5 22 6 23
REMARK SMILES IDX 7 24 8 25 9 26 24 27 25 28 26 29 27 30 28 31 29 33 30 34
REMARK SMILES IDX 31 35 92 36 32 37 91 38 33 39 34 40 35 41 85 42 36 43 90 44
REMARK SMILES IDX 84 45 86 46 37 47 89 48 83 49 82 50 38 52 70 53 50 54 69 55
REMARK SMILES IDX 51 56 54 57 68 58 87 59 52 60 53 61 67 63 88 64 55 65 39 66
REMARK SMILES IDX 40 67 48 68 41 69 42 70 46 71 49 72 43 73 44 74 47 75 45 76
REMARK SMILES IDX 71 77 72 78 80 79 73 80 74 81 78 82 81 83 75 84 76 85 79 86
REMARK SMILES IDX 77 87 56 88 57 89 65 90 58 91 59 92 63 93 66 94 60 95 61 96
REMARK SMILES IDX 64 97 62 98
REMARK H PARENT 22 5 27 32 86 51 54 62
REMARK Flexibility Score: inf
ROOT
ATOM      1  C   UNL A   1      33.042  29.156  25.834  1.00  0.00     0.116 C 
ENDROOT
BRANCH   1   2
ATOM      2  N   UNL A   1      32.894  28.756  24.456  1.00  0.00    -0.351 N 
ATOM      3  C   UNL A   1      32.251  27.734  23.808  1.00  0.00     0.263 C 
ATOM      4  O   UNL A   1      32.401  27.812  22.581  1.00  0.00    -0.268 OA
ATOM      5  H   UNL A   1      33.366  29.358  23.837  1.00  0.00     0.163 HD
BRANCH   3   6
ATOM      6  C   UNL A   1      31.464  26.666  24.429  1.00  0.00     0.115 A 
ATOM      7  C   UNL A   1      31.064  24.667  25.834  1.00  0.00     0.164 A 
ATOM      8  N   UNL A   1      29.957  25.062  25.258  1.00  0.00    -0.237 NA
ATOM      9  S   UNL A   1      32.418  25.604  25.456  1.00  0.00    -0.105 S 
ATOM     10  C   UNL A   1      30.147  26.210  24.494  1.00  0.00     0.062 A 
ATOM     11  C   UNL A   1      28.867  26.687  23.920  1.00  0.00     0.068 C 
BRANCH   7  12
ATOM     12  C   UNL A   1      31.076  23.497  26.702  1.00  0.00     0.228 C 
ATOM     13  O   UNL A   1      30.137  23.219  27.459  1.00  0.00    -0.288 OA
BRANCH  12  14
ATOM     14  C   UNL A   1      32.348  22.641  26.783  1.00  0.00     0.313 C 
BRANCH  14  15
ATOM     15  O   UNL A   1      32.805  21.901  25.673  1.00  0.00    -0.485 OA
BRANCH  15  16
ATOM     16  C   UNL A   1      34.142  21.733  25.459  1.00  0.00     0.123 A 
ATOM     17  C   UNL A   1      37.429  23.665  25.763  1.00  0.00     0.044 C 
ATOM     18  C   UNL A   1      36.448  22.556  25.516  1.00  0.00    -0.047 A 
ATOM     19  C   UNL A   1      36.894  21.296  25.143  1.00  0.00     0.004 A 
ATOM     20  C   UNL A   1      35.073  22.772  25.640  1.00  0.00     0.050 A 
ATOM     21  C   UNL A   1      35.975  20.270  24.909  1.00  0.00     0.008 A 
ATOM     22  C   UNL A   1      34.579  20.450  25.060  1.00  0.00    -0.000 A 
BRANCH  22  23
ATOM     23  C   UNL A   1      33.662  19.233  24.758  1.00  0.00    -0.010 C 
ATOM     24  C   UNL A   1      32.667  19.632  23.642  1.00  0.00     0.016 C 
ATOM     25  C   UNL A   1      34.523  18.043  24.270  1.00  0.00     0.016 C 
ATOM     26  C   UNL A   1      32.799  18.689  25.920  1.00  0.00     0.016 C 
ENDBRANCH  22  23
ENDBRANCH  15  16
ENDBRANCH  14  15
ENDBRANCH  12  14
ENDBRANCH   7  12
ENDBRANCH   3   6
ENDBRANCH   1   2
BRANCH   1  27
ATOM     27  C   UNL A   1      32.264  30.447  26.139  1.00  0.00     0.023 C 
BRANCH  27  28
ATOM     28  C   UNL A   1      32.857  31.320  27.247  1.00  0.00     0.023 C 
BRANCH  28  29
ATOM     29  C   UNL A   1      34.150  30.754  27.815  1.00  0.00     0.116 C 
BRANCH  29  30
ATOM     30  N   UNL A   1      34.764  31.542  28.876  1.00  0.00    -0.352 N 
ATOM     31  C   UNL A   1      35.859  31.248  29.680  1.00  0.00     0.251 C 
ATOM     32  H   UNL A   1      34.338  32.412  29.051  1.00  0.00     0.163 HD
ATOM     33  O   UNL A   1      36.163  31.992  30.594  1.00  0.00    -0.269 OA
BRANCH  31  34
ATOM     34  C   UNL A   1      36.742  30.101  29.329  1.00  0.00     0.039 A 
ATOM     35  C   UNL A   1      37.022  29.154  30.323  1.00  0.00     0.014 A 
ATOM     36  C   UNL A   1      37.450  30.076  28.133  1.00  0.00     0.014 A 
ATOM     37  C   UNL A   1      38.176  28.378  30.223  1.00  0.00     0.010 A 
ATOM     38  C   UNL A   1      38.658  29.412  28.092  1.00  0.00     0.010 A 
ATOM     39  C   UNL A   1      39.054  28.610  29.165  1.00  0.00    -0.014 A 
BRANCH  39  40
ATOM     40  C   UNL A   1      40.447  28.174  29.166  1.00  0.00     0.031 A 
ATOM     41  C   UNL A   1      40.839  26.862  28.611  1.00  0.00     0.074 A 
ATOM     42  C   UNL A   1      41.410  29.026  29.586  1.00  0.00     0.049 A 
ATOM     43  N   UNL A   1      41.875  26.198  29.005  1.00  0.00    -0.248 NA
ATOM     44  C   UNL A   1      40.081  26.181  27.568  1.00  0.00     0.031 C 
ATOM     45  C   UNL A   1      42.852  28.888  29.395  1.00  0.00     0.029 A 
ATOM     46  N   UNL A   1      41.277  30.133  30.440  1.00  0.00    -0.354 N 
ATOM     47  C   UNL A   1      42.077  25.176  28.108  1.00  0.00     0.074 A 
ATOM     48  C   UNL A   1      40.900  25.167  27.269  1.00  0.00     0.031 C 
ATOM     49  C   UNL A   1      43.487  29.649  30.301  1.00  0.00     0.029 A 
ATOM     50  C   UNL A   1      42.475  30.188  31.191  1.00  0.00     0.049 A 
ATOM     51  H   UNL A   1      40.509  30.747  30.503  1.00  0.00     0.167 HD
ATOM     52  C   UNL A   1      43.279  24.534  28.064  1.00  0.00     0.037 A 
ATOM     53  C   UNL A   1      42.480  30.059  32.549  1.00  0.00     0.037 A 
ATOM     54  C   UNL A   1      44.218  25.079  29.037  1.00  0.00     0.049 A 
ATOM     55  C   UNL A   1      43.319  28.911  33.056  1.00  0.00     0.074 A 
ATOM     56  C   UNL A   1      45.237  26.011  28.919  1.00  0.00     0.029 A 
ATOM     57  N   UNL A   1      43.984  24.924  30.399  1.00  0.00    -0.354 N 
ATOM     58  N   UNL A   1      43.688  27.904  32.318  1.00  0.00    -0.248 NA
ATOM     59  C   UNL A   1      43.755  28.777  34.443  1.00  0.00     0.031 C 
ATOM     60  C   UNL A   1      45.606  26.433  30.215  1.00  0.00     0.029 A 
ATOM     61  C   UNL A   1      44.813  25.756  31.126  1.00  0.00     0.049 A 
ATOM     62  H   UNL A   1      43.321  24.309  30.789  1.00  0.00     0.167 HD
ATOM     63  C   UNL A   1      44.342  26.984  33.095  1.00  0.00     0.074 A 
ATOM     64  C   UNL A   1      44.383  27.590  34.412  1.00  0.00     0.031 C 
ATOM     65  C   UNL A   1      44.769  25.794  32.579  1.00  0.00     0.037 A 
BRANCH  52  66
ATOM     66  C   UNL A   1      43.680  23.642  26.914  1.00  0.00     0.064 A 
ATOM     67  C   UNL A   1      43.204  22.319  26.808  1.00  0.00     0.173 A 
ATOM     68  C   UNL A   1      44.582  24.033  25.908  1.00  0.00     0.173 A 
ATOM     69  F   UNL A   1      42.260  21.843  27.628  1.00  0.00    -0.203 F 
ATOM     70  C   UNL A   1      43.693  21.421  25.856  1.00  0.00     0.198 A 
ATOM     71  C   UNL A   1      45.112  23.122  24.988  1.00  0.00     0.198 A 
ATOM     72  F   UNL A   1      44.957  25.314  25.778  1.00  0.00    -0.203 F 
ATOM     73  F   UNL A   1      43.219  20.169  25.818  1.00  0.00    -0.200 F 
ATOM     74  C   UNL A   1      44.678  21.811  24.973  1.00  0.00     0.200 A 
ATOM     75  F   UNL A   1      46.057  23.522  24.124  1.00  0.00    -0.200 F 
ATOM     76  F   UNL A   1      45.192  20.934  24.101  1.00  0.00    -0.200 F 
ENDBRANCH  52  66
BRANCH  53  77
ATOM     77  C   UNL A   1      41.223  30.523  33.187  1.00  0.00     0.064 A 
ATOM     78  C   UNL A   1      41.005  31.908  33.309  1.00  0.00     0.173 A 
ATOM     79  C   UNL A   1      40.114  29.677  33.308  1.00  0.00     0.173 A 
ATOM     80  F   UNL A   1      42.036  32.762  33.189  1.00  0.00    -0.203 F 
ATOM     81  C   UNL A   1      39.720  32.431  33.429  1.00  0.00     0.198 A 
ATOM     82  C   UNL A   1      38.828  30.205  33.440  1.00  0.00     0.198 A 
ATOM     83  F   UNL A   1      40.255  28.351  33.177  1.00  0.00    -0.203 F 
ATOM     84  F   UNL A   1      39.535  33.759  33.421  1.00  0.00    -0.200 F 
ATOM     85  C   UNL A   1      38.630  31.578  33.466  1.00  0.00     0.200 A 
ATOM     86  F   UNL A   1      37.769  29.382  33.441  1.00  0.00    -0.200 F 
ATOM     87  F   UNL A   1      37.387  32.078  33.479  1.00  0.00    -0.200 F 
ENDBRANCH  53  77
BRANCH  65  88
ATOM     88  C   UNL A   1      45.277  24.603  33.358  1.00  0.00     0.064 A 
ATOM     89  C   UNL A   1      44.518  23.450  33.619  1.00  0.00     0.173 A 
ATOM     90  C   UNL A   1      46.637  24.535  33.753  1.00  0.00     0.173 A 
ATOM     91  F   UNL A   1      43.255  23.335  33.191  1.00  0.00    -0.203 F 
ATOM     92  C   UNL A   1      45.058  22.342  34.280  1.00  0.00     0.198 A 
ATOM     93  C   UNL A   1      47.187  23.406  34.358  1.00  0.00     0.198 A 
ATOM     94  F   UNL A   1      47.483  25.553  33.537  1.00  0.00    -0.203 F 
ATOM     95  F   UNL A   1      44.279  21.283  34.541  1.00  0.00    -0.200 F 
ATOM     96  C   UNL A   1      46.393  22.315  34.637  1.00  0.00     0.200 A 
ATOM     97  F   UNL A   1      48.496  23.377  34.648  1.00  0.00    -0.200 F 
ATOM     98  F   UNL A   1      46.916  21.232  35.227  1.00  0.00    -0.200 F 
ENDBRANCH  65  88
ENDBRANCH  39  40
ENDBRANCH  31  34
ENDBRANCH  29  30
ENDBRANCH  28  29
ENDBRANCH  27  28
ENDBRANCH   1  27
TORSDOF 16
ENDMDL
