MODEL 1
REMARK VINA RESULT:     -13.1      0.000      0.000
REMARK SMILES CC[C@@H]1CC[C@](C[C@@H]2CCCc3ccccc32)(C(=O)NCCCCNC(=O)c2ccc(-c3c4nc(c(-c5c(F)c(F)c(F)c(F)c5F)c5ccc([nH]5)c(-c5c(F)c(F)c(F)c(F)c5F)c5nc(c(-c6c(F)c(F)c(F)c(F)c6F)c6ccc3[nH]6)C=C5)C=C4)cc2)C1
REMARK SMILES IDX 22 1 21 2 20 3 18 4 19 5 6 7 3 8 4 9 91 10 5 11 2 12 1 13
REMARK SMILES IDX 7 14 8 15 9 16 17 17 10 18 12 19 16 20 11 21 13 22 15 23
REMARK SMILES IDX 14 24 23 25 24 26 25 27 26 28 27 30 28 31 29 32 90 33 30 34
REMARK SMILES IDX 89 35 31 36 32 37 33 38 83 39 34 40 88 41 82 42 84 43 35 44
REMARK SMILES IDX 87 45 81 46 80 47 36 49 68 50 48 51 67 52 49 53 52 54 66 55
REMARK SMILES IDX 85 56 50 57 51 58 65 60 86 61 53 62 37 63 38 64 46 65 39 66
REMARK SMILES IDX 40 67 44 68 47 69 41 70 42 71 45 72 43 73 69 74 70 75 78 76
REMARK SMILES IDX 71 77 72 78 76 79 79 80 73 81 74 82 77 83 75 84 54 85 55 86
REMARK SMILES IDX 63 87 56 88 57 89 61 90 64 91 58 92 59 93 62 94 60 95
REMARK H PARENT 20 6 25 29 84 48 52 59
REMARK Flexibility Score: inf
ROOT
ATOM      1  C   UNL A   1      34.771  21.537  26.150  1.00  0.00     0.023 C 
ENDROOT
BRANCH   1   2
ATOM      2  C   UNL A   1      33.326  21.243  25.733  1.00  0.00     0.116 C 
BRANCH   2   3
ATOM      3  N   UNL A   1      32.365  21.825  26.641  1.00  0.00    -0.356 N 
ATOM      4  C   UNL A   1      31.761  23.033  26.737  1.00  0.00     0.226 C 
ATOM      5  O   UNL A   1      30.896  23.075  27.624  1.00  0.00    -0.274 OA
ATOM      6  H   UNL A   1      32.084  21.202  27.350  1.00  0.00     0.163 HD
BRANCH   4   7
ATOM      7  C   UNL A   1      32.017  24.273  25.802  1.00  0.00     0.050 C 
ATOM      8  C   UNL A   1      33.494  24.434  23.814  1.00  0.00    -0.010 C 
ATOM      9  C   UNL A   1      34.329  24.775  25.034  1.00  0.00     0.005 C 
ATOM     10  C   UNL A   1      32.237  23.746  24.366  1.00  0.00     0.020 C 
ATOM     11  C   UNL A   1      33.313  25.020  26.143  1.00  0.00     0.017 C 
BRANCH   8  12
ATOM     12  C   UNL A   1      34.232  23.607  22.762  1.00  0.00     0.000 C 
ATOM     13  C   UNL A   1      33.277  22.989  21.748  1.00  0.00     0.004 C 
ENDBRANCH   8  12
BRANCH   7  14
ATOM     14  C   UNL A   1      30.694  25.142  25.974  1.00  0.00     0.025 C 
BRANCH  14  15
ATOM     15  C   UNL A   1      30.352  26.563  25.423  1.00  0.00     0.020 C 
ATOM     16  C   UNL A   1      29.756  26.641  24.014  1.00  0.00     0.009 C 
ATOM     17  C   UNL A   1      31.395  27.627  25.655  1.00  0.00    -0.042 A 
ATOM     18  C   UNL A   1      30.790  26.708  22.911  1.00  0.00     0.005 C 
ATOM     19  C   UNL A   1      32.180  28.104  24.592  1.00  0.00    -0.045 A 
ATOM     20  C   UNL A   1      31.659  28.061  26.968  1.00  0.00     0.004 A 
ATOM     21  C   UNL A   1      31.915  27.717  23.158  1.00  0.00     0.036 C 
ATOM     22  C   UNL A   1      33.266  28.948  24.879  1.00  0.00     0.004 A 
ATOM     23  C   UNL A   1      32.733  28.907  27.234  1.00  0.00     0.000 A 
ATOM     24  C   UNL A   1      33.548  29.334  26.191  1.00  0.00     0.000 A 
ENDBRANCH  14  15
ENDBRANCH   7  14
ENDBRANCH   4   7
ENDBRANCH   2   3
ENDBRANCH   1   2
BRANCH   1  25
ATOM     25  C   UNL A   1      35.844  21.172  25.142  1.00  0.00     0.023 C 
BRANCH  25  26
ATOM     26  C   UNL A   1      37.217  21.747  25.414  1.00  0.00     0.116 C 
BRANCH  26  27
ATOM     27  N   UNL A   1      38.305  20.781  25.482  1.00  0.00    -0.352 N 
ATOM     28  C   UNL A   1      39.516  20.955  26.125  1.00  0.00     0.251 C 
ATOM     29  H   UNL A   1      38.164  19.920  25.025  1.00  0.00     0.163 HD
ATOM     30  O   UNL A   1      40.381  20.093  26.122  1.00  0.00    -0.269 OA
BRANCH  28  31
ATOM     31  C   UNL A   1      39.752  22.266  26.765  1.00  0.00     0.039 A 
ATOM     32  C   UNL A   1      40.762  22.372  27.723  1.00  0.00     0.014 A 
ATOM     33  C   UNL A   1      39.138  23.402  26.235  1.00  0.00     0.014 A 
ATOM     34  C   UNL A   1      41.232  23.638  28.075  1.00  0.00     0.010 A 
ATOM     35  C   UNL A   1      39.688  24.648  26.500  1.00  0.00     0.010 A 
ATOM     36  C   UNL A   1      40.742  24.780  27.421  1.00  0.00    -0.014 A 
BRANCH  36  37
ATOM     37  C   UNL A   1      41.298  26.131  27.687  1.00  0.00     0.031 A 
ATOM     38  C   UNL A   1      42.685  26.462  27.210  1.00  0.00     0.074 A 
ATOM     39  C   UNL A   1      40.606  27.020  28.428  1.00  0.00     0.049 A 
ATOM     40  N   UNL A   1      43.408  27.529  27.433  1.00  0.00    -0.248 NA
ATOM     41  C   UNL A   1      43.370  25.430  26.416  1.00  0.00     0.031 C 
ATOM     42  C   UNL A   1      39.284  26.793  29.018  1.00  0.00     0.029 A 
ATOM     43  N   UNL A   1      40.926  28.296  28.823  1.00  0.00    -0.354 N 
ATOM     44  C   UNL A   1      44.639  27.275  26.845  1.00  0.00     0.074 A 
ATOM     45  C   UNL A   1      44.590  25.932  26.314  1.00  0.00     0.031 C 
ATOM     46  C   UNL A   1      38.893  27.903  29.666  1.00  0.00     0.029 A 
ATOM     47  C   UNL A   1      39.946  28.908  29.567  1.00  0.00     0.049 A 
ATOM     48  H   UNL A   1      41.779  28.730  28.594  1.00  0.00     0.167 HD
ATOM     49  C   UNL A   1      45.705  28.100  26.724  1.00  0.00     0.037 A 
ATOM     50  C   UNL A   1      39.906  30.144  30.101  1.00  0.00     0.037 A 
ATOM     51  C   UNL A   1      45.723  29.459  27.189  1.00  0.00     0.049 A 
ATOM     52  C   UNL A   1      41.077  31.067  29.894  1.00  0.00     0.074 A 
ATOM     53  C   UNL A   1      46.717  30.409  27.042  1.00  0.00     0.029 A 
ATOM     54  N   UNL A   1      44.684  30.066  27.880  1.00  0.00    -0.354 N 
ATOM     55  N   UNL A   1      42.209  30.843  29.274  1.00  0.00    -0.248 NA
ATOM     56  C   UNL A   1      40.960  32.422  30.456  1.00  0.00     0.031 C 
ATOM     57  C   UNL A   1      46.289  31.586  27.665  1.00  0.00     0.029 A 
ATOM     58  C   UNL A   1      45.015  31.378  28.171  1.00  0.00     0.049 A 
ATOM     59  H   UNL A   1      43.839  29.628  28.127  1.00  0.00     0.167 HD
ATOM     60  C   UNL A   1      42.927  32.028  29.344  1.00  0.00     0.074 A 
ATOM     61  C   UNL A   1      42.097  32.977  30.058  1.00  0.00     0.031 C 
ATOM     62  C   UNL A   1      44.163  32.308  28.865  1.00  0.00     0.037 A 
BRANCH  49  63
ATOM     63  C   UNL A   1      46.922  27.555  26.040  1.00  0.00     0.064 A 
ATOM     64  C   UNL A   1      47.080  27.635  24.648  1.00  0.00     0.173 A 
ATOM     65  C   UNL A   1      47.944  26.945  26.782  1.00  0.00     0.173 A 
ATOM     66  F   UNL A   1      46.122  28.191  23.891  1.00  0.00    -0.203 F 
ATOM     67  C   UNL A   1      48.197  27.090  24.020  1.00  0.00     0.198 A 
ATOM     68  C   UNL A   1      49.075  26.431  26.154  1.00  0.00     0.198 A 
ATOM     69  F   UNL A   1      47.844  26.844  28.116  1.00  0.00    -0.203 F 
ATOM     70  F   UNL A   1      48.294  27.122  22.684  1.00  0.00    -0.200 F 
ATOM     71  C   UNL A   1      49.196  26.494  24.774  1.00  0.00     0.200 A 
ATOM     72  F   UNL A   1      50.046  25.862  26.884  1.00  0.00    -0.200 F 
ATOM     73  F   UNL A   1      50.270  25.970  24.169  1.00  0.00    -0.200 F 
ENDBRANCH  49  63
BRANCH  50  74
ATOM     74  C   UNL A   1      38.698  30.602  30.836  1.00  0.00     0.064 A 
ATOM     75  C   UNL A   1      37.604  31.144  30.145  1.00  0.00     0.173 A 
ATOM     76  C   UNL A   1      38.610  30.519  32.232  1.00  0.00     0.173 A 
ATOM     77  F   UNL A   1      37.648  31.262  28.810  1.00  0.00    -0.203 F 
ATOM     78  C   UNL A   1      36.478  31.604  30.825  1.00  0.00     0.198 A 
ATOM     79  C   UNL A   1      37.474  30.959  32.910  1.00  0.00     0.198 A 
ATOM     80  F   UNL A   1      39.627  30.005  32.939  1.00  0.00    -0.203 F 
ATOM     81  F   UNL A   1      35.466  32.157  30.143  1.00  0.00    -0.200 F 
ATOM     82  C   UNL A   1      36.412  31.507  32.206  1.00  0.00     0.200 A 
ATOM     83  F   UNL A   1      37.409  30.854  34.244  1.00  0.00    -0.200 F 
ATOM     84  F   UNL A   1      35.330  31.950  32.860  1.00  0.00    -0.200 F 
ENDBRANCH  50  74
BRANCH  62  85
ATOM     85  C   UNL A   1      44.678  33.701  29.061  1.00  0.00     0.064 A 
ATOM     86  C   UNL A   1      45.455  34.044  30.176  1.00  0.00     0.173 A 
ATOM     87  C   UNL A   1      44.434  34.688  28.094  1.00  0.00     0.173 A 
ATOM     88  F   UNL A   1      45.701  33.137  31.133  1.00  0.00    -0.203 F 
ATOM     89  C   UNL A   1      45.957  35.334  30.326  1.00  0.00     0.198 A 
ATOM     90  C   UNL A   1      44.958  35.970  28.235  1.00  0.00     0.198 A 
ATOM     91  F   UNL A   1      43.701  34.405  27.008  1.00  0.00    -0.203 F 
ATOM     92  F   UNL A   1      46.667  35.653  31.416  1.00  0.00    -0.200 F 
ATOM     93  C   UNL A   1      45.714  36.293  29.352  1.00  0.00     0.200 A 
ATOM     94  F   UNL A   1      44.734  36.891  27.288  1.00  0.00    -0.200 F 
ATOM     95  F   UNL A   1      46.206  37.531  29.493  1.00  0.00    -0.200 F 
ENDBRANCH  62  85
ENDBRANCH  36  37
ENDBRANCH  28  31
ENDBRANCH  26  27
ENDBRANCH  25  26
ENDBRANCH   1  25
TORSDOF 14
ENDMDL
MODEL 2
REMARK VINA RESULT:     -13.1      0.250      1.947
REMARK SMILES CC[C@@H]1CC[C@](C[C@@H]2CCCc3ccccc32)(C(=O)NCCCCNC(=O)c2ccc(-c3c4nc(c(-c5c(F)c(F)c(F)c(F)c5F)c5ccc([nH]5)c(-c5c(F)c(F)c(F)c(F)c5F)c5nc(c(-c6c(F)c(F)c(F)c(F)c6F)c6ccc3[nH]6)C=C5)C=C4)cc2)C1
REMARK SMILES IDX 22 1 21 2 20 3 18 4 19 5 6 7 3 8 4 9 91 10 5 11 2 12 1 13
REMARK SMILES IDX 7 14 8 15 9 16 17 17 10 18 12 19 16 20 11 21 13 22 15 23
REMARK SMILES IDX 14 24 23 25 24 26 25 27 26 28 27 30 28 31 29 32 90 33 30 34
REMARK SMILES IDX 89 35 31 36 32 37 33 38 83 39 34 40 88 41 82 42 84 43 35 44
REMARK SMILES IDX 87 45 81 46 80 47 36 49 68 50 48 51 67 52 49 53 52 54 66 55
REMARK SMILES IDX 85 56 50 57 51 58 65 60 86 61 53 62 37 63 38 64 46 65 39 66
REMARK SMILES IDX 40 67 44 68 47 69 41 70 42 71 45 72 43 73 69 74 70 75 78 76
REMARK SMILES IDX 71 77 72 78 76 79 79 80 73 81 74 82 77 83 75 84 54 85 55 86
REMARK SMILES IDX 63 87 56 88 57 89 61 90 64 91 58 92 59 93 62 94 60 95
REMARK H PARENT 20 6 25 29 84 48 52 59
REMARK Flexibility Score: inf
ROOT
ATOM      1  C   UNL A   1      34.683  21.561  26.302  1.00  0.00     0.023 C 
ENDROOT
BRANCH   1   2
ATOM      2  C   UNL A   1      33.248  21.234  25.875  1.00  0.00     0.116 C 
BRANCH   2   3
ATOM      3  N   UNL A   1      32.266  21.848  26.739  1.00  0.00    -0.356 N 
ATOM      4  C   UNL A   1      31.604  23.029  26.736  1.00  0.00     0.226 C 
ATOM      5  O   UNL A   1      30.746  23.108  27.626  1.00  0.00    -0.274 OA
ATOM      6  H   UNL A   1      32.023  21.278  27.504  1.00  0.00     0.163 HD
BRANCH   4   7
ATOM      7  C   UNL A   1      31.791  24.191  25.691  1.00  0.00     0.050 C 
ATOM      8  C   UNL A   1      32.896  24.115  23.471  1.00  0.00    -0.010 C 
ATOM      9  C   UNL A   1      33.961  24.437  24.502  1.00  0.00     0.005 C 
ATOM     10  C   UNL A   1      31.706  23.575  24.276  1.00  0.00     0.020 C 
ATOM     11  C   UNL A   1      33.184  24.830  25.752  1.00  0.00     0.017 C 
BRANCH   8  12
ATOM     12  C   UNL A   1      33.364  23.171  22.363  1.00  0.00     0.000 C 
ATOM     13  C   UNL A   1      32.528  21.898  22.307  1.00  0.00     0.004 C 
ENDBRANCH   8  12
BRANCH   7  14
ATOM     14  C   UNL A   1      30.596  25.187  26.033  1.00  0.00     0.025 C 
BRANCH  14  15
ATOM     15  C   UNL A   1      30.309  26.626  25.497  1.00  0.00     0.020 C 
ATOM     16  C   UNL A   1      29.679  26.741  24.106  1.00  0.00     0.009 C 
ATOM     17  C   UNL A   1      31.410  27.636  25.704  1.00  0.00    -0.042 A 
ATOM     18  C   UNL A   1      30.684  26.763  22.975  1.00  0.00     0.005 C 
ATOM     19  C   UNL A   1      32.188  28.080  24.621  1.00  0.00    -0.045 A 
ATOM     20  C   UNL A   1      31.732  28.050  27.011  1.00  0.00     0.004 A 
ATOM     21  C   UNL A   1      31.864  27.714  23.194  1.00  0.00     0.036 C 
ATOM     22  C   UNL A   1      33.321  28.868  24.881  1.00  0.00     0.004 A 
ATOM     23  C   UNL A   1      32.853  28.840  27.249  1.00  0.00     0.000 A 
ATOM     24  C   UNL A   1      33.659  29.233  26.186  1.00  0.00     0.000 A 
ENDBRANCH  14  15
ENDBRANCH   7  14
ENDBRANCH   4   7
ENDBRANCH   2   3
ENDBRANCH   1   2
BRANCH   1  25
ATOM     25  C   UNL A   1      35.770  21.225  25.299  1.00  0.00     0.023 C 
BRANCH  25  26
ATOM     26  C   UNL A   1      37.131  21.820  25.590  1.00  0.00     0.116 C 
BRANCH  26  27
ATOM     27  N   UNL A   1      38.247  20.884  25.569  1.00  0.00    -0.352 N 
ATOM     28  C   UNL A   1      39.496  21.085  26.127  1.00  0.00     0.251 C 
ATOM     29  H   UNL A   1      38.098  20.024  25.113  1.00  0.00     0.163 HD
ATOM     30  O   UNL A   1      40.382  20.247  26.053  1.00  0.00    -0.269 OA
BRANCH  28  31
ATOM     31  C   UNL A   1      39.741  22.395  26.764  1.00  0.00     0.039 A 
ATOM     32  C   UNL A   1      40.747  22.496  27.726  1.00  0.00     0.014 A 
ATOM     33  C   UNL A   1      39.140  23.536  26.228  1.00  0.00     0.014 A 
ATOM     34  C   UNL A   1      41.228  23.759  28.076  1.00  0.00     0.010 A 
ATOM     35  C   UNL A   1      39.700  24.777  26.491  1.00  0.00     0.010 A 
ATOM     36  C   UNL A   1      40.751  24.903  27.416  1.00  0.00    -0.014 A 
BRANCH  36  37
ATOM     37  C   UNL A   1      41.317  26.250  27.681  1.00  0.00     0.031 A 
ATOM     38  C   UNL A   1      42.708  26.567  27.207  1.00  0.00     0.074 A 
ATOM     39  C   UNL A   1      40.632  27.146  28.418  1.00  0.00     0.049 A 
ATOM     40  N   UNL A   1      43.440  27.629  27.429  1.00  0.00    -0.248 NA
ATOM     41  C   UNL A   1      43.387  25.527  26.417  1.00  0.00     0.031 C 
ATOM     42  C   UNL A   1      39.306  26.932  29.005  1.00  0.00     0.029 A 
ATOM     43  N   UNL A   1      40.962  28.420  28.811  1.00  0.00    -0.354 N 
ATOM     44  C   UNL A   1      44.671  27.363  26.845  1.00  0.00     0.074 A 
ATOM     45  C   UNL A   1      44.611  26.019  26.316  1.00  0.00     0.031 C 
ATOM     46  C   UNL A   1      38.923  28.047  29.649  1.00  0.00     0.029 A 
ATOM     47  C   UNL A   1      39.985  29.042  29.551  1.00  0.00     0.049 A 
ATOM     48  H   UNL A   1      41.820  28.847  28.584  1.00  0.00     0.167 HD
ATOM     49  C   UNL A   1      45.744  28.178  26.724  1.00  0.00     0.037 A 
ATOM     50  C   UNL A   1      39.955  30.280  30.082  1.00  0.00     0.037 A 
ATOM     51  C   UNL A   1      45.773  29.538  27.186  1.00  0.00     0.049 A 
ATOM     52  C   UNL A   1      41.134  31.193  29.876  1.00  0.00     0.074 A 
ATOM     53  C   UNL A   1      46.776  30.479  27.040  1.00  0.00     0.029 A 
ATOM     54  N   UNL A   1      44.738  30.155  27.873  1.00  0.00    -0.354 N 
ATOM     55  N   UNL A   1      42.266  30.957  29.259  1.00  0.00    -0.248 NA
ATOM     56  C   UNL A   1      41.028  32.549  30.435  1.00  0.00     0.031 C 
ATOM     57  C   UNL A   1      46.356  31.661  27.659  1.00  0.00     0.029 A 
ATOM     58  C   UNL A   1      45.079  31.465  28.162  1.00  0.00     0.049 A 
ATOM     59  H   UNL A   1      43.888  29.726  28.119  1.00  0.00     0.167 HD
ATOM     60  C   UNL A   1      42.994  32.136  29.329  1.00  0.00     0.074 A 
ATOM     61  C   UNL A   1      42.170  33.094  30.038  1.00  0.00     0.031 C 
ATOM     62  C   UNL A   1      44.234  32.404  28.852  1.00  0.00     0.037 A 
BRANCH  49  63
ATOM     63  C   UNL A   1      46.958  27.620  26.045  1.00  0.00     0.064 A 
ATOM     64  C   UNL A   1      48.004  27.036  26.775  1.00  0.00     0.173 A 
ATOM     65  C   UNL A   1      47.079  27.667  24.649  1.00  0.00     0.173 A 
ATOM     66  F   UNL A   1      47.945  26.983  28.115  1.00  0.00    -0.203 F 
ATOM     67  C   UNL A   1      49.145  26.555  26.136  1.00  0.00     0.198 A 
ATOM     68  C   UNL A   1      48.206  27.157  24.010  1.00  0.00     0.198 A 
ATOM     69  F   UNL A   1      46.107  28.213  23.903  1.00  0.00    -0.203 F 
ATOM     70  F   UNL A   1      50.158  26.061  26.860  1.00  0.00    -0.200 F 
ATOM     71  C   UNL A   1      49.241  26.611  24.754  1.00  0.00     0.200 A 
ATOM     72  F   UNL A   1      48.296  27.202  22.673  1.00  0.00    -0.200 F 
ATOM     73  F   UNL A   1      50.339  26.149  24.140  1.00  0.00    -0.200 F 
ENDBRANCH  49  63
BRANCH  50  74
ATOM     74  C   UNL A   1      38.748  30.750  30.813  1.00  0.00     0.064 A 
ATOM     75  C   UNL A   1      38.672  30.639  32.209  1.00  0.00     0.173 A 
ATOM     76  C   UNL A   1      37.652  31.307  30.142  1.00  0.00     0.173 A 
ATOM     77  F   UNL A   1      39.688  30.094  32.894  1.00  0.00    -0.203 F 
ATOM     78  C   UNL A   1      37.534  31.048  32.903  1.00  0.00     0.198 A 
ATOM     79  C   UNL A   1      36.524  31.737  30.839  1.00  0.00     0.198 A 
ATOM     80  F   UNL A   1      37.678  31.439  28.808  1.00  0.00    -0.203 F 
ATOM     81  F   UNL A   1      37.471  30.890  34.233  1.00  0.00    -0.200 F 
ATOM     82  C   UNL A   1      36.463  31.601  32.218  1.00  0.00     0.200 A 
ATOM     83  F   UNL A   1      35.494  32.281  30.176  1.00  0.00    -0.200 F 
ATOM     84  F   UNL A   1      35.370  31.994  32.886  1.00  0.00    -0.200 F 
ENDBRANCH  50  74
BRANCH  62  85
ATOM     85  C   UNL A   1      44.760  33.793  29.047  1.00  0.00     0.064 A 
ATOM     86  C   UNL A   1      44.500  34.811  28.119  1.00  0.00     0.173 A 
ATOM     87  C   UNL A   1      45.487  34.119  30.201  1.00  0.00     0.173 A 
ATOM     88  F   UNL A   1      43.821  34.542  26.993  1.00  0.00    -0.203 F 
ATOM     89  C   UNL A   1      44.964  36.105  28.332  1.00  0.00     0.198 A 
ATOM     90  C   UNL A   1      45.929  35.420  30.422  1.00  0.00     0.198 A 
ATOM     91  F   UNL A   1      45.755  33.180  31.119  1.00  0.00    -0.203 F 
ATOM     92  F   UNL A   1      44.737  37.057  27.416  1.00  0.00    -0.200 F 
ATOM     93  C   UNL A   1      45.672  36.411  29.487  1.00  0.00     0.200 A 
ATOM     94  F   UNL A   1      46.601  35.716  31.543  1.00  0.00    -0.200 F 
ATOM     95  F   UNL A   1      46.110  37.659  29.694  1.00  0.00    -0.200 F 
ENDBRANCH  62  85
ENDBRANCH  36  37
ENDBRANCH  28  31
ENDBRANCH  26  27
ENDBRANCH  25  26
ENDBRANCH   1  25
TORSDOF 14
ENDMDL
MODEL 3
REMARK VINA RESULT:     -13.0      4.264      9.814
REMARK SMILES CC[C@@H]1CC[C@](C[C@@H]2CCCc3ccccc32)(C(=O)NCCCCNC(=O)c2ccc(-c3c4nc(c(-c5c(F)c(F)c(F)c(F)c5F)c5ccc([nH]5)c(-c5c(F)c(F)c(F)c(F)c5F)c5nc(c(-c6c(F)c(F)c(F)c(F)c6F)c6ccc3[nH]6)C=C5)C=C4)cc2)C1
REMARK SMILES IDX 22 1 21 2 20 3 18 4 19 5 6 7 3 8 4 9 91 10 5 11 2 12 1 13
REMARK SMILES IDX 7 14 8 15 9 16 17 17 10 18 12 19 16 20 11 21 13 22 15 23
REMARK SMILES IDX 14 24 23 25 24 26 25 27 26 28 27 30 28 31 29 32 90 33 30 34
REMARK SMILES IDX 89 35 31 36 32 37 33 38 83 39 34 40 88 41 82 42 84 43 35 44
REMARK SMILES IDX 87 45 81 46 80 47 36 49 68 50 48 51 67 52 49 53 52 54 66 55
REMARK SMILES IDX 85 56 50 57 51 58 65 60 86 61 53 62 37 63 38 64 46 65 39 66
REMARK SMILES IDX 40 67 44 68 47 69 41 70 42 71 45 72 43 73 69 74 70 75 78 76
REMARK SMILES IDX 71 77 72 78 76 79 79 80 73 81 74 82 77 83 75 84 54 85 55 86
REMARK SMILES IDX 63 87 56 88 57 89 61 90 64 91 58 92 59 93 62 94 60 95
REMARK H PARENT 20 6 25 29 84 48 52 59
REMARK Flexibility Score: inf
ROOT
ATOM      1  C   UNL A   1      31.915  28.435  26.957  1.00  0.00     0.023 C 
ENDROOT
BRANCH   1   2
ATOM      2  C   UNL A   1      30.917  27.488  26.283  1.00  0.00     0.116 C 
BRANCH   2   3
ATOM      3  N   UNL A   1      30.972  26.153  26.831  1.00  0.00    -0.356 N 
ATOM      4  C   UNL A   1      31.541  24.988  26.439  1.00  0.00     0.226 C 
ATOM      5  O   UNL A   1      31.435  24.086  27.283  1.00  0.00    -0.274 OA
ATOM      6  H   UNL A   1      30.488  26.070  27.684  1.00  0.00     0.163 HD
BRANCH   4   7
ATOM      7  C   UNL A   1      32.341  24.753  25.104  1.00  0.00     0.050 C 
ATOM      8  C   UNL A   1      33.434  26.430  23.638  1.00  0.00    -0.010 C 
ATOM      9  C   UNL A   1      31.996  26.287  23.178  1.00  0.00     0.005 C 
ATOM     10  C   UNL A   1      33.473  25.804  25.039  1.00  0.00     0.020 C 
ATOM     11  C   UNL A   1      31.499  25.012  23.850  1.00  0.00     0.017 C 
BRANCH   8  12
ATOM     12  C   UNL A   1      33.965  27.863  23.594  1.00  0.00     0.000 C 
ATOM     13  C   UNL A   1      32.892  28.857  23.166  1.00  0.00     0.004 C 
ENDBRANCH   8  12
BRANCH   7  14
ATOM     14  C   UNL A   1      32.861  23.254  25.247  1.00  0.00     0.025 C 
BRANCH  14  15
ATOM     15  C   UNL A   1      33.383  22.268  24.155  1.00  0.00     0.020 C 
ATOM     16  C   UNL A   1      32.471  21.096  23.779  1.00  0.00     0.009 C 
ATOM     17  C   UNL A   1      34.824  21.843  24.287  1.00  0.00    -0.042 A 
ATOM     18  C   UNL A   1      32.651  19.872  24.650  1.00  0.00     0.005 C 
ATOM     19  C   UNL A   1      35.152  20.542  24.707  1.00  0.00    -0.045 A 
ATOM     20  C   UNL A   1      35.845  22.793  24.097  1.00  0.00     0.004 A 
ATOM     21  C   UNL A   1      34.110  19.465  24.879  1.00  0.00     0.036 C 
ATOM     22  C   UNL A   1      36.492  20.245  25.004  1.00  0.00     0.004 A 
ATOM     23  C   UNL A   1      37.171  22.478  24.385  1.00  0.00     0.000 A 
ATOM     24  C   UNL A   1      37.492  21.210  24.857  1.00  0.00     0.000 A 
ENDBRANCH  14  15
ENDBRANCH   7  14
ENDBRANCH   4   7
ENDBRANCH   2   3
ENDBRANCH   1   2
BRANCH   1  25
ATOM     25  C   UNL A   1      31.615  29.917  26.836  1.00  0.00     0.023 C 
BRANCH  25  26
ATOM     26  C   UNL A   1      32.813  30.806  26.583  1.00  0.00     0.116 C 
BRANCH  26  27
ATOM     27  N   UNL A   1      32.709  32.167  27.092  1.00  0.00    -0.352 N 
ATOM     28  C   UNL A   1      33.696  32.872  27.754  1.00  0.00     0.251 C 
ATOM     29  H   UNL A   1      31.852  32.630  26.950  1.00  0.00     0.163 HD
ATOM     30  O   UNL A   1      33.519  34.011  28.159  1.00  0.00    -0.269 OA
BRANCH  28  31
ATOM     31  C   UNL A   1      34.965  32.162  28.017  1.00  0.00     0.039 A 
ATOM     32  C   UNL A   1      36.136  32.909  28.156  1.00  0.00     0.014 A 
ATOM     33  C   UNL A   1      34.929  30.808  28.356  1.00  0.00     0.014 A 
ATOM     34  C   UNL A   1      37.254  32.314  28.741  1.00  0.00     0.010 A 
ATOM     35  C   UNL A   1      36.002  30.259  29.042  1.00  0.00     0.010 A 
ATOM     36  C   UNL A   1      37.176  31.005  29.244  1.00  0.00    -0.014 A 
BRANCH  36  37
ATOM     37  C   UNL A   1      38.309  30.379  29.973  1.00  0.00     0.031 A 
ATOM     38  C   UNL A   1      38.548  30.746  31.411  1.00  0.00     0.074 A 
ATOM     39  C   UNL A   1      39.168  29.565  29.329  1.00  0.00     0.049 A 
ATOM     40  N   UNL A   1      39.539  30.415  32.200  1.00  0.00    -0.248 NA
ATOM     41  C   UNL A   1      37.565  31.648  32.032  1.00  0.00     0.031 C 
ATOM     42  C   UNL A   1      39.094  29.194  27.913  1.00  0.00     0.029 A 
ATOM     43  N   UNL A   1      40.286  28.908  29.782  1.00  0.00    -0.354 N 
ATOM     44  C   UNL A   1      39.316  31.101  33.386  1.00  0.00     0.074 A 
ATOM     45  C   UNL A   1      38.138  31.915  33.194  1.00  0.00     0.031 C 
ATOM     46  C   UNL A   1      40.097  28.348  27.625  1.00  0.00     0.029 A 
ATOM     47  C   UNL A   1      40.905  28.143  28.822  1.00  0.00     0.049 A 
ATOM     48  H   UNL A   1      40.613  28.979  30.708  1.00  0.00     0.167 HD
ATOM     49  C   UNL A   1      40.009  31.031  34.546  1.00  0.00     0.037 A 
ATOM     50  C   UNL A   1      41.998  27.360  28.909  1.00  0.00     0.037 A 
ATOM     51  C   UNL A   1      41.136  30.165  34.755  1.00  0.00     0.049 A 
ATOM     52  C   UNL A   1      42.713  27.246  30.228  1.00  0.00     0.074 A 
ATOM     53  C   UNL A   1      41.858  29.951  35.915  1.00  0.00     0.029 A 
ATOM     54  N   UNL A   1      41.694  29.354  33.777  1.00  0.00    -0.354 N 
ATOM     55  N   UNL A   1      42.453  27.844  31.366  1.00  0.00    -0.248 NA
ATOM     56  C   UNL A   1      43.871  26.340  30.279  1.00  0.00     0.031 C 
ATOM     57  C   UNL A   1      42.869  29.027  35.633  1.00  0.00     0.029 A 
ATOM     58  C   UNL A   1      42.755  28.640  34.307  1.00  0.00     0.049 A 
ATOM     59  H   UNL A   1      41.382  29.295  32.846  1.00  0.00     0.167 HD
ATOM     60  C   UNL A   1      43.391  27.369  32.272  1.00  0.00     0.074 A 
ATOM     61  C   UNL A   1      44.221  26.422  31.555  1.00  0.00     0.031 C 
ATOM     62  C   UNL A   1      43.554  27.689  33.578  1.00  0.00     0.037 A 
BRANCH  49  63
ATOM     63  C   UNL A   1      39.546  31.898  35.677  1.00  0.00     0.064 A 
ATOM     64  C   UNL A   1      38.559  31.466  36.577  1.00  0.00     0.173 A 
ATOM     65  C   UNL A   1      40.092  33.175  35.867  1.00  0.00     0.173 A 
ATOM     66  F   UNL A   1      37.991  30.260  36.427  1.00  0.00    -0.203 F 
ATOM     67  C   UNL A   1      38.109  32.296  37.601  1.00  0.00     0.198 A 
ATOM     68  C   UNL A   1      39.664  33.990  36.912  1.00  0.00     0.198 A 
ATOM     69  F   UNL A   1      41.040  33.636  35.037  1.00  0.00    -0.203 F 
ATOM     70  F   UNL A   1      37.120  31.885  38.407  1.00  0.00    -0.200 F 
ATOM     71  C   UNL A   1      38.666  33.554  37.770  1.00  0.00     0.200 A 
ATOM     72  F   UNL A   1      40.208  35.203  37.082  1.00  0.00    -0.200 F 
ATOM     73  F   UNL A   1      38.231  34.351  38.756  1.00  0.00    -0.200 F 
ENDBRANCH  49  63
BRANCH  50  74
ATOM     74  C   UNL A   1      42.455  26.582  27.727  1.00  0.00     0.064 A 
ATOM     75  C   UNL A   1      41.928  25.309  27.464  1.00  0.00     0.173 A 
ATOM     76  C   UNL A   1      43.425  27.080  26.847  1.00  0.00     0.173 A 
ATOM     77  F   UNL A   1      41.012  24.780  28.289  1.00  0.00    -0.203 F 
ATOM     78  C   UNL A   1      42.370  24.556  26.377  1.00  0.00     0.198 A 
ATOM     79  C   UNL A   1      43.849  26.337  25.747  1.00  0.00     0.198 A 
ATOM     80  F   UNL A   1      43.957  28.294  27.053  1.00  0.00    -0.203 F 
ATOM     81  F   UNL A   1      41.881  23.325  26.174  1.00  0.00    -0.200 F 
ATOM     82  C   UNL A   1      43.327  25.073  25.517  1.00  0.00     0.200 A 
ATOM     83  F   UNL A   1      44.767  26.843  24.912  1.00  0.00    -0.200 F 
ATOM     84  F   UNL A   1      43.752  24.349  24.472  1.00  0.00    -0.200 F 
ENDBRANCH  50  74
BRANCH  62  85
ATOM     85  C   UNL A   1      44.644  26.985  34.328  1.00  0.00     0.064 A 
ATOM     86  C   UNL A   1      45.926  27.537  34.443  1.00  0.00     0.173 A 
ATOM     87  C   UNL A   1      44.383  25.771  34.981  1.00  0.00     0.173 A 
ATOM     88  F   UNL A   1      46.225  28.689  33.823  1.00  0.00    -0.203 F 
ATOM     89  C   UNL A   1      46.918  26.889  35.174  1.00  0.00     0.198 A 
ATOM     90  C   UNL A   1      45.370  25.139  35.731  1.00  0.00     0.198 A 
ATOM     91  F   UNL A   1      43.169  25.208  34.903  1.00  0.00    -0.203 F 
ATOM     92  F   UNL A   1      48.149  27.414  35.243  1.00  0.00    -0.200 F 
ATOM     93  C   UNL A   1      46.637  25.694  35.824  1.00  0.00     0.200 A 
ATOM     94  F   UNL A   1      45.093  23.992  36.367  1.00  0.00    -0.200 F 
ATOM     95  F   UNL A   1      47.590  25.077  36.534  1.00  0.00    -0.200 F 
ENDBRANCH  62  85
ENDBRANCH  36  37
ENDBRANCH  28  31
ENDBRANCH  26  27
ENDBRANCH  25  26
ENDBRANCH   1  25
TORSDOF 14
ENDMDL
