MODEL 1
REMARK VINA RESULT:     -12.4      0.000      0.000
REMARK SMILES CCn1cccc1C(=O)N(C)c1snc(C)c1C(=O)NCCCCNC(=O)c1ccc(-c2c3nc(c(-c4c(F)c(F)c(F)c(F)c4F)c4ccc([nH]4)c(-c4c(F)c(F)c(F)c(F)c4F)c4nc(c(-c5c(F)c(F)c(F)c(F)c5F)c5ccc2[nH]5)C=C4)C=C3)cc1
REMARK SMILES IDX 21 1 20 2 18 3 19 4 17 6 12 7 13 8 14 9 15 10 16 11 10 12
REMARK SMILES IDX 11 13 8 14 9 15 7 16 3 17 4 18 5 19 6 20 2 21 1 22 22 23
REMARK SMILES IDX 23 24 24 25 25 26 26 27 27 29 28 30 29 31 90 32 30 33 89 34
REMARK SMILES IDX 31 35 32 36 33 37 83 38 34 39 88 40 82 41 84 42 35 43 87 44
REMARK SMILES IDX 81 45 80 46 36 48 68 49 48 50 67 51 49 52 52 53 66 54 85 55
REMARK SMILES IDX 50 56 51 57 65 59 86 60 53 61 37 62 38 63 46 64 39 65 40 66
REMARK SMILES IDX 44 67 47 68 41 69 42 70 45 71 43 72 69 73 70 74 78 75 71 76
REMARK SMILES IDX 72 77 76 78 79 79 73 80 74 81 77 82 75 83 54 84 55 85 63 86
REMARK SMILES IDX 56 87 57 88 61 89 64 90 58 91 59 92 62 93 60 94
REMARK H PARENT 20 5 25 28 84 47 52 58
REMARK Flexibility Score: inf
ROOT
ATOM      1  C   UNL A   1      32.101  30.174  25.730  1.00  0.00     0.116 C 
ENDROOT
BRANCH   1   2
ATOM      2  N   UNL A   1      32.771  29.682  24.561  1.00  0.00    -0.352 N 
ATOM      3  C   UNL A   1      32.263  28.916  23.525  1.00  0.00     0.256 C 
ATOM      4  O   UNL A   1      32.926  28.954  22.484  1.00  0.00    -0.269 OA
ATOM      5  H   UNL A   1      33.723  29.922  24.484  1.00  0.00     0.163 HD
BRANCH   3   6
ATOM      6  C   UNL A   1      31.145  27.958  23.666  1.00  0.00     0.097 A 
ATOM      7  C   UNL A   1      31.082  26.606  24.059  1.00  0.00     0.131 A 
ATOM      8  S   UNL A   1      29.442  26.085  23.894  1.00  0.00    -0.017 S 
ATOM      9  N   UNL A   1      28.795  27.522  23.500  1.00  0.00    -0.195 NA
ATOM     10  C   UNL A   1      29.766  28.425  23.403  1.00  0.00     0.066 A 
ATOM     11  C   UNL A   1      29.307  29.795  23.009  1.00  0.00     0.069 C 
BRANCH   7  12
ATOM     12  N   UNL A   1      31.976  25.606  24.562  1.00  0.00    -0.300 N 
ATOM     13  C   UNL A   1      32.279  25.479  25.989  1.00  0.00     0.154 C 
BRANCH  12  14
ATOM     14  C   UNL A   1      32.778  24.939  23.630  1.00  0.00     0.275 C 
ATOM     15  O   UNL A   1      33.212  25.558  22.652  1.00  0.00    -0.267 OA
BRANCH  14  16
ATOM     16  C   UNL A   1      33.136  23.509  23.762  1.00  0.00     0.107 A 
ATOM     17  N   UNL A   1      34.274  22.793  24.155  1.00  0.00    -0.344 N 
ATOM     18  C   UNL A   1      33.939  21.449  24.253  1.00  0.00     0.086 A 
ATOM     19  C   UNL A   1      32.639  21.268  23.876  1.00  0.00     0.020 A 
ATOM     20  C   UNL A   1      32.133  22.545  23.606  1.00  0.00     0.033 A 
BRANCH  17  21
ATOM     21  C   UNL A   1      35.680  23.144  24.304  1.00  0.00     0.119 C 
ATOM     22  C   UNL A   1      36.652  22.950  23.160  1.00  0.00     0.027 C 
ENDBRANCH  17  21
ENDBRANCH  14  16
ENDBRANCH  12  14
ENDBRANCH   7  12
ENDBRANCH   3   6
ENDBRANCH   1   2
BRANCH   1  23
ATOM     23  C   UNL A   1      32.554  29.650  27.087  1.00  0.00     0.023 C 
BRANCH  23  24
ATOM     24  C   UNL A   1      33.548  28.486  27.106  1.00  0.00     0.023 C 
BRANCH  24  25
ATOM     25  C   UNL A   1      35.026  28.870  27.191  1.00  0.00     0.116 C 
BRANCH  25  26
ATOM     26  N   UNL A   1      35.276  30.092  27.941  1.00  0.00    -0.352 N 
ATOM     27  C   UNL A   1      36.332  30.389  28.781  1.00  0.00     0.251 C 
ATOM     28  H   UNL A   1      34.601  30.802  27.837  1.00  0.00     0.163 HD
ATOM     29  O   UNL A   1      36.235  31.313  29.574  1.00  0.00    -0.269 OA
BRANCH  27  30
ATOM     30  C   UNL A   1      37.585  29.597  28.735  1.00  0.00     0.039 A 
ATOM     31  C   UNL A   1      38.433  29.717  27.627  1.00  0.00     0.014 A 
ATOM     32  C   UNL A   1      37.880  28.666  29.736  1.00  0.00     0.014 A 
ATOM     33  C   UNL A   1      39.603  28.963  27.573  1.00  0.00     0.010 A 
ATOM     34  C   UNL A   1      39.034  27.906  29.689  1.00  0.00     0.010 A 
ATOM     35  C   UNL A   1      39.910  28.083  28.622  1.00  0.00    -0.014 A 
BRANCH  35  36
ATOM     36  C   UNL A   1      41.269  27.524  28.720  1.00  0.00     0.031 A 
ATOM     37  C   UNL A   1      41.279  26.093  28.130  1.00  0.00     0.074 A 
ATOM     38  C   UNL A   1      42.218  28.315  29.313  1.00  0.00     0.049 A 
ATOM     39  N   UNL A   1      41.886  25.026  28.545  1.00  0.00    -0.248 NA
ATOM     40  C   UNL A   1      40.397  25.771  26.970  1.00  0.00     0.031 C 
ATOM     41  C   UNL A   1      42.009  29.722  29.728  1.00  0.00     0.029 A 
ATOM     42  N   UNL A   1      43.532  28.125  29.693  1.00  0.00    -0.354 N 
ATOM     43  C   UNL A   1      41.613  23.978  27.631  1.00  0.00     0.074 A 
ATOM     44  C   UNL A   1      40.585  24.464  26.765  1.00  0.00     0.031 C 
ATOM     45  C   UNL A   1      43.091  30.207  30.378  1.00  0.00     0.029 A 
ATOM     46  C   UNL A   1      44.108  29.179  30.462  1.00  0.00     0.049 A 
ATOM     47  H   UNL A   1      44.038  27.317  29.448  1.00  0.00     0.167 HD
ATOM     48  C   UNL A   1      42.376  22.841  27.566  1.00  0.00     0.037 A 
ATOM     49  C   UNL A   1      45.281  29.181  31.177  1.00  0.00     0.037 A 
ATOM     50  C   UNL A   1      43.436  22.949  28.510  1.00  0.00     0.049 A 
ATOM     51  C   UNL A   1      45.892  27.878  30.881  1.00  0.00     0.074 A 
ATOM     52  C   UNL A   1      43.453  22.894  29.878  1.00  0.00     0.029 A 
ATOM     53  N   UNL A   1      44.578  23.568  28.061  1.00  0.00    -0.354 N 
ATOM     54  N   UNL A   1      46.438  27.550  29.748  1.00  0.00    -0.248 NA
ATOM     55  C   UNL A   1      45.749  26.809  31.878  1.00  0.00     0.031 C 
ATOM     56  C   UNL A   1      44.323  23.950  30.212  1.00  0.00     0.029 A 
ATOM     57  C   UNL A   1      45.021  24.376  29.074  1.00  0.00     0.049 A 
ATOM     58  H   UNL A   1      44.997  23.455  27.178  1.00  0.00     0.167 HD
ATOM     59  C   UNL A   1      46.386  26.178  29.796  1.00  0.00     0.074 A 
ATOM     60  C   UNL A   1      46.281  25.804  31.191  1.00  0.00     0.031 C 
ATOM     61  C   UNL A   1      45.872  25.491  28.745  1.00  0.00     0.037 A 
BRANCH  48  62
ATOM     62  C   UNL A   1      42.506  21.714  26.574  1.00  0.00     0.064 A 
ATOM     63  C   UNL A   1      42.072  20.424  26.984  1.00  0.00     0.173 A 
ATOM     64  C   UNL A   1      43.350  21.751  25.460  1.00  0.00     0.173 A 
ATOM     65  F   UNL A   1      41.206  20.280  28.002  1.00  0.00    -0.203 F 
ATOM     66  C   UNL A   1      42.592  19.255  26.434  1.00  0.00     0.198 A 
ATOM     67  C   UNL A   1      43.825  20.573  24.872  1.00  0.00     0.198 A 
ATOM     68  F   UNL A   1      43.813  22.912  24.981  1.00  0.00    -0.203 F 
ATOM     69  F   UNL A   1      42.280  18.066  26.969  1.00  0.00    -0.200 F 
ATOM     70  C   UNL A   1      43.488  19.331  25.389  1.00  0.00     0.200 A 
ATOM     71  F   UNL A   1      44.684  20.647  23.846  1.00  0.00    -0.200 F 
ATOM     72  F   UNL A   1      44.052  18.217  24.903  1.00  0.00    -0.200 F 
ENDBRANCH  48  62
BRANCH  49  73
ATOM     73  C   UNL A   1      45.968  30.022  32.240  1.00  0.00     0.064 A 
ATOM     74  C   UNL A   1      45.469  30.323  33.511  1.00  0.00     0.173 A 
ATOM     75  C   UNL A   1      47.286  30.524  32.009  1.00  0.00     0.173 A 
ATOM     76  F   UNL A   1      44.195  30.066  33.828  1.00  0.00    -0.203 F 
ATOM     77  C   UNL A   1      46.268  30.932  34.504  1.00  0.00     0.198 A 
ATOM     78  C   UNL A   1      48.097  31.068  33.004  1.00  0.00     0.198 A 
ATOM     79  F   UNL A   1      47.845  30.506  30.792  1.00  0.00    -0.203 F 
ATOM     80  F   UNL A   1      45.746  31.193  35.710  1.00  0.00    -0.200 F 
ATOM     81  C   UNL A   1      47.594  31.254  34.266  1.00  0.00     0.200 A 
ATOM     82  F   UNL A   1      49.370  31.386  32.723  1.00  0.00    -0.200 F 
ATOM     83  F   UNL A   1      48.372  31.758  35.233  1.00  0.00    -0.200 F 
ENDBRANCH  49  73
BRANCH  61  84
ATOM     84  C   UNL A   1      45.966  26.206  27.411  1.00  0.00     0.064 A 
ATOM     85  C   UNL A   1      47.228  26.530  26.890  1.00  0.00     0.173 A 
ATOM     86  C   UNL A   1      44.864  26.670  26.673  1.00  0.00     0.173 A 
ATOM     87  F   UNL A   1      48.336  26.109  27.518  1.00  0.00    -0.203 F 
ATOM     88  C   UNL A   1      47.375  27.280  25.719  1.00  0.00     0.198 A 
ATOM     89  C   UNL A   1      45.005  27.417  25.499  1.00  0.00     0.198 A 
ATOM     90  F   UNL A   1      43.622  26.407  27.072  1.00  0.00    -0.203 F 
ATOM     91  F   UNL A   1      48.602  27.562  25.258  1.00  0.00    -0.200 F 
ATOM     92  C   UNL A   1      46.264  27.726  25.024  1.00  0.00     0.200 A 
ATOM     93  F   UNL A   1      43.916  27.828  24.829  1.00  0.00    -0.200 F 
ATOM     94  F   UNL A   1      46.406  28.429  23.892  1.00  0.00    -0.200 F 
ENDBRANCH  61  84
ENDBRANCH  35  36
ENDBRANCH  27  30
ENDBRANCH  25  26
ENDBRANCH  24  25
ENDBRANCH  23  24
ENDBRANCH   1  23
TORSDOF 15
ENDMDL
MODEL 2
REMARK VINA RESULT:     -12.4      4.681      9.714
REMARK SMILES CCn1cccc1C(=O)N(C)c1snc(C)c1C(=O)NCCCCNC(=O)c1ccc(-c2c3nc(c(-c4c(F)c(F)c(F)c(F)c4F)c4ccc([nH]4)c(-c4c(F)c(F)c(F)c(F)c4F)c4nc(c(-c5c(F)c(F)c(F)c(F)c5F)c5ccc2[nH]5)C=C4)C=C3)cc1
REMARK SMILES IDX 21 1 20 2 18 3 19 4 17 6 12 7 13 8 14 9 15 10 16 11 10 12
REMARK SMILES IDX 11 13 8 14 9 15 7 16 3 17 4 18 5 19 6 20 2 21 1 22 22 23
REMARK SMILES IDX 23 24 24 25 25 26 26 27 27 29 28 30 29 31 90 32 30 33 89 34
REMARK SMILES IDX 31 35 32 36 33 37 83 38 34 39 88 40 82 41 84 42 35 43 87 44
REMARK SMILES IDX 81 45 80 46 36 48 68 49 48 50 67 51 49 52 52 53 66 54 85 55
REMARK SMILES IDX 50 56 51 57 65 59 86 60 53 61 37 62 38 63 46 64 39 65 40 66
REMARK SMILES IDX 44 67 47 68 41 69 42 70 45 71 43 72 69 73 70 74 78 75 71 76
REMARK SMILES IDX 72 77 76 78 79 79 73 80 74 81 77 82 75 83 54 84 55 85 63 86
REMARK SMILES IDX 56 87 57 88 61 89 64 90 58 91 59 92 62 93 60 94
REMARK H PARENT 20 5 25 28 84 47 52 58
REMARK Flexibility Score: inf
ROOT
ATOM      1  C   UNL A   1      36.385  21.118  25.366  1.00  0.00     0.116 C 
ENDROOT
BRANCH   1   2
ATOM      2  N   UNL A   1      35.542  21.455  26.478  1.00  0.00    -0.352 N 
ATOM      3  C   UNL A   1      34.163  21.561  26.522  1.00  0.00     0.256 C 
ATOM      4  O   UNL A   1      33.677  21.485  27.655  1.00  0.00    -0.269 OA
ATOM      5  H   UNL A   1      36.010  21.635  27.326  1.00  0.00     0.163 HD
BRANCH   3   6
ATOM      6  C   UNL A   1      33.316  21.938  25.369  1.00  0.00     0.097 A 
ATOM      7  C   UNL A   1      32.776  23.166  24.935  1.00  0.00     0.131 A 
ATOM      8  S   UNL A   1      31.792  22.846  23.550  1.00  0.00    -0.017 S 
ATOM      9  N   UNL A   1      32.143  21.269  23.391  1.00  0.00    -0.195 NA
ATOM     10  C   UNL A   1      32.939  20.897  24.388  1.00  0.00     0.066 A 
ATOM     11  C   UNL A   1      33.314  19.447  24.381  1.00  0.00     0.069 C 
BRANCH   7  12
ATOM     12  N   UNL A   1      32.847  24.546  25.309  1.00  0.00    -0.300 N 
ATOM     13  C   UNL A   1      34.123  25.223  25.548  1.00  0.00     0.154 C 
BRANCH  12  14
ATOM     14  C   UNL A   1      31.660  25.158  25.724  1.00  0.00     0.275 C 
ATOM     15  O   UNL A   1      31.229  24.936  26.861  1.00  0.00    -0.267 OA
BRANCH  14  16
ATOM     16  C   UNL A   1      30.886  26.072  24.855  1.00  0.00     0.107 A 
ATOM     17  N   UNL A   1      31.195  27.045  23.897  1.00  0.00    -0.344 N 
ATOM     18  C   UNL A   1      30.019  27.444  23.274  1.00  0.00     0.086 A 
ATOM     19  C   UNL A   1      28.956  26.804  23.843  1.00  0.00     0.020 A 
ATOM     20  C   UNL A   1      29.494  25.931  24.796  1.00  0.00     0.033 A 
BRANCH  17  21
ATOM     21  C   UNL A   1      32.407  27.786  23.573  1.00  0.00     0.119 C 
ATOM     22  C   UNL A   1      32.353  29.007  22.680  1.00  0.00     0.027 C 
ENDBRANCH  17  21
ENDBRANCH  14  16
ENDBRANCH  12  14
ENDBRANCH   7  12
ENDBRANCH   3   6
ENDBRANCH   1   2
BRANCH   1  23
ATOM     23  C   UNL A   1      37.387  22.162  24.887  1.00  0.00     0.023 C 
BRANCH  23  24
ATOM     24  C   UNL A   1      37.092  23.630  25.202  1.00  0.00     0.023 C 
BRANCH  24  25
ATOM     25  C   UNL A   1      37.879  24.236  26.366  1.00  0.00     0.116 C 
BRANCH  25  26
ATOM     26  N   UNL A   1      39.291  23.880  26.371  1.00  0.00    -0.352 N 
ATOM     27  C   UNL A   1      40.380  24.673  26.677  1.00  0.00     0.251 C 
ATOM     28  H   UNL A   1      39.497  22.949  26.124  1.00  0.00     0.163 HD
ATOM     29  O   UNL A   1      41.499  24.327  26.328  1.00  0.00    -0.269 OA
BRANCH  27  30
ATOM     30  C   UNL A   1      40.209  25.945  27.420  1.00  0.00     0.039 A 
ATOM     31  C   UNL A   1      39.711  25.913  28.729  1.00  0.00     0.014 A 
ATOM     32  C   UNL A   1      40.449  27.175  26.799  1.00  0.00     0.014 A 
ATOM     33  C   UNL A   1      39.535  27.107  29.425  1.00  0.00     0.010 A 
ATOM     34  C   UNL A   1      40.269  28.366  27.477  1.00  0.00     0.010 A 
ATOM     35  C   UNL A   1      39.844  28.325  28.802  1.00  0.00    -0.014 A 
BRANCH  35  36
ATOM     36  C   UNL A   1      39.953  29.546  29.619  1.00  0.00     0.031 A 
ATOM     37  C   UNL A   1      38.661  30.384  29.466  1.00  0.00     0.074 A 
ATOM     38  C   UNL A   1      41.127  29.726  30.302  1.00  0.00     0.049 A 
ATOM     39  N   UNL A   1      38.507  31.665  29.360  1.00  0.00    -0.248 NA
ATOM     40  C   UNL A   1      37.351  29.687  29.293  1.00  0.00     0.031 C 
ATOM     41  C   UNL A   1      42.220  28.728  30.386  1.00  0.00     0.029 A 
ATOM     42  N   UNL A   1      41.657  30.754  31.057  1.00  0.00    -0.354 N 
ATOM     43  C   UNL A   1      37.118  31.941  29.288  1.00  0.00     0.074 A 
ATOM     44  C   UNL A   1      36.472  30.678  29.114  1.00  0.00     0.031 C 
ATOM     45  C   UNL A   1      43.291  29.230  31.040  1.00  0.00     0.029 A 
ATOM     46  C   UNL A   1      43.020  30.594  31.443  1.00  0.00     0.049 A 
ATOM     47  H   UNL A   1      41.129  31.545  31.311  1.00  0.00     0.167 HD
ATOM     48  C   UNL A   1      36.601  33.185  29.536  1.00  0.00     0.037 A 
ATOM     49  C   UNL A   1      43.879  31.526  31.973  1.00  0.00     0.037 A 
ATOM     50  C   UNL A   1      37.667  34.060  29.891  1.00  0.00     0.049 A 
ATOM     51  C   UNL A   1      43.047  32.720  32.171  1.00  0.00     0.074 A 
ATOM     52  C   UNL A   1      38.678  34.616  29.154  1.00  0.00     0.029 A 
ATOM     53  N   UNL A   1      38.000  34.089  31.224  1.00  0.00    -0.354 N 
ATOM     54  N   UNL A   1      42.140  32.852  33.092  1.00  0.00    -0.248 NA
ATOM     55  C   UNL A   1      43.133  33.792  31.171  1.00  0.00     0.031 C 
ATOM     56  C   UNL A   1      39.791  34.461  30.003  1.00  0.00     0.029 A 
ATOM     57  C   UNL A   1      39.367  34.125  31.295  1.00  0.00     0.049 A 
ATOM     58  H   UNL A   1      37.375  34.084  31.984  1.00  0.00     0.167 HD
ATOM     59  C   UNL A   1      41.350  33.847  32.569  1.00  0.00     0.074 A 
ATOM     60  C   UNL A   1      42.159  34.578  31.618  1.00  0.00     0.031 C 
ATOM     61  C   UNL A   1      40.006  33.669  32.503  1.00  0.00     0.037 A 
BRANCH  48  62
ATOM     62  C   UNL A   1      35.215  33.718  29.792  1.00  0.00     0.064 A 
ATOM     63  C   UNL A   1      34.650  34.579  28.812  1.00  0.00     0.173 A 
ATOM     64  C   UNL A   1      34.614  33.749  31.054  1.00  0.00     0.173 A 
ATOM     65  F   UNL A   1      35.110  34.579  27.549  1.00  0.00    -0.203 F 
ATOM     66  C   UNL A   1      33.680  35.528  29.126  1.00  0.00     0.198 A 
ATOM     67  C   UNL A   1      33.597  34.666  31.350  1.00  0.00     0.198 A 
ATOM     68  F   UNL A   1      35.057  32.975  32.052  1.00  0.00    -0.203 F 
ATOM     69  F   UNL A   1      33.303  36.430  28.208  1.00  0.00    -0.200 F 
ATOM     70  C   UNL A   1      33.168  35.586  30.405  1.00  0.00     0.200 A 
ATOM     71  F   UNL A   1      33.089  34.711  32.589  1.00  0.00    -0.200 F 
ATOM     72  F   UNL A   1      32.292  36.543  30.738  1.00  0.00    -0.200 F 
ENDBRANCH  48  62
BRANCH  49  73
ATOM     73  C   UNL A   1      45.370  31.693  32.218  1.00  0.00     0.064 A 
ATOM     74  C   UNL A   1      46.360  31.846  31.242  1.00  0.00     0.173 A 
ATOM     75  C   UNL A   1      45.865  31.785  33.555  1.00  0.00     0.173 A 
ATOM     76  F   UNL A   1      46.091  31.628  29.950  1.00  0.00    -0.203 F 
ATOM     77  C   UNL A   1      47.686  32.206  31.571  1.00  0.00     0.198 A 
ATOM     78  C   UNL A   1      47.156  32.202  33.880  1.00  0.00     0.198 A 
ATOM     79  F   UNL A   1      45.107  31.470  34.613  1.00  0.00    -0.203 F 
ATOM     80  F   UNL A   1      48.597  32.349  30.599  1.00  0.00    -0.200 F 
ATOM     81  C   UNL A   1      48.067  32.436  32.883  1.00  0.00     0.200 A 
ATOM     82  F   UNL A   1      47.489  32.390  35.166  1.00  0.00    -0.200 F 
ATOM     83  F   UNL A   1      49.303  32.855  33.185  1.00  0.00    -0.200 F 
ENDBRANCH  49  73
BRANCH  61  84
ATOM     84  C   UNL A   1      39.442  32.704  33.528  1.00  0.00     0.064 A 
ATOM     85  C   UNL A   1      39.551  33.006  34.894  1.00  0.00     0.173 A 
ATOM     86  C   UNL A   1      38.886  31.450  33.224  1.00  0.00     0.173 A 
ATOM     87  F   UNL A   1      40.050  34.192  35.276  1.00  0.00    -0.203 F 
ATOM     88  C   UNL A   1      39.144  32.108  35.886  1.00  0.00     0.198 A 
ATOM     89  C   UNL A   1      38.474  30.549  34.211  1.00  0.00     0.198 A 
ATOM     90  F   UNL A   1      38.726  31.068  31.959  1.00  0.00    -0.203 F 
ATOM     91  F   UNL A   1      39.264  32.444  37.178  1.00  0.00    -0.200 F 
ATOM     92  C   UNL A   1      38.608  30.878  35.545  1.00  0.00     0.200 A 
ATOM     93  F   UNL A   1      37.942  29.367  33.863  1.00  0.00    -0.200 F 
ATOM     94  F   UNL A   1      38.202  30.026  36.496  1.00  0.00    -0.200 F 
ENDBRANCH  61  84
ENDBRANCH  35  36
ENDBRANCH  27  30
ENDBRANCH  25  26
ENDBRANCH  24  25
ENDBRANCH  23  24
ENDBRANCH   1  23
TORSDOF 15
ENDMDL
MODEL 3
REMARK VINA RESULT:     -12.3      4.091      6.377
REMARK SMILES CCn1cccc1C(=O)N(C)c1snc(C)c1C(=O)NCCCCNC(=O)c1ccc(-c2c3nc(c(-c4c(F)c(F)c(F)c(F)c4F)c4ccc([nH]4)c(-c4c(F)c(F)c(F)c(F)c4F)c4nc(c(-c5c(F)c(F)c(F)c(F)c5F)c5ccc2[nH]5)C=C4)C=C3)cc1
REMARK SMILES IDX 21 1 20 2 18 3 19 4 17 6 12 7 13 8 14 9 15 10 16 11 10 12
REMARK SMILES IDX 11 13 8 14 9 15 7 16 3 17 4 18 5 19 6 20 2 21 1 22 22 23
REMARK SMILES IDX 23 24 24 25 25 26 26 27 27 29 28 30 29 31 90 32 30 33 89 34
REMARK SMILES IDX 31 35 32 36 33 37 83 38 34 39 88 40 82 41 84 42 35 43 87 44
REMARK SMILES IDX 81 45 80 46 36 48 68 49 48 50 67 51 49 52 52 53 66 54 85 55
REMARK SMILES IDX 50 56 51 57 65 59 86 60 53 61 37 62 38 63 46 64 39 65 40 66
REMARK SMILES IDX 44 67 47 68 41 69 42 70 45 71 43 72 69 73 70 74 78 75 71 76
REMARK SMILES IDX 72 77 76 78 79 79 73 80 74 81 77 82 75 83 54 84 55 85 63 86
REMARK SMILES IDX 56 87 57 88 61 89 64 90 58 91 59 92 62 93 60 94
REMARK H PARENT 20 5 25 28 84 47 52 58
REMARK Flexibility Score: inf
ROOT
ATOM      1  C   UNL A   1      32.762  29.761  25.867  1.00  0.00     0.116 C 
ENDROOT
BRANCH   1   2
ATOM      2  N   UNL A   1      33.221  29.627  24.514  1.00  0.00    -0.352 N 
ATOM      3  C   UNL A   1      32.645  28.930  23.466  1.00  0.00     0.256 C 
ATOM      4  O   UNL A   1      33.021  29.284  22.344  1.00  0.00    -0.269 OA
ATOM      5  H   UNL A   1      34.060  30.096  24.302  1.00  0.00     0.163 HD
BRANCH   3   6
ATOM      6  C   UNL A   1      31.805  27.722  23.627  1.00  0.00     0.097 A 
ATOM      7  C   UNL A   1      32.108  26.370  23.883  1.00  0.00     0.131 A 
ATOM      8  S   UNL A   1      30.624  25.483  23.843  1.00  0.00    -0.017 S 
ATOM      9  N   UNL A   1      29.619  26.746  23.672  1.00  0.00    -0.195 NA
ATOM     10  C   UNL A   1      30.334  27.862  23.565  1.00  0.00     0.066 A 
ATOM     11  C   UNL A   1      29.525  29.106  23.366  1.00  0.00     0.069 C 
BRANCH   7  12
ATOM     12  N   UNL A   1      33.265  25.581  24.180  1.00  0.00    -0.300 N 
ATOM     13  C   UNL A   1      33.891  24.710  23.183  1.00  0.00     0.154 C 
BRANCH  12  14
ATOM     14  C   UNL A   1      33.614  25.440  25.527  1.00  0.00     0.275 C 
ATOM     15  O   UNL A   1      33.832  26.449  26.205  1.00  0.00    -0.267 OA
BRANCH  14  16
ATOM     16  C   UNL A   1      33.733  24.120  26.187  1.00  0.00     0.107 A 
ATOM     17  N   UNL A   1      34.754  23.180  26.372  1.00  0.00    -0.344 N 
ATOM     18  C   UNL A   1      34.304  22.202  27.249  1.00  0.00     0.086 A 
ATOM     19  C   UNL A   1      33.004  22.449  27.587  1.00  0.00     0.020 A 
ATOM     20  C   UNL A   1      32.661  23.652  26.958  1.00  0.00     0.033 A 
BRANCH  17  21
ATOM     21  C   UNL A   1      36.045  22.960  25.732  1.00  0.00     0.119 C 
ATOM     22  C   UNL A   1      37.252  23.788  26.117  1.00  0.00     0.027 C 
ENDBRANCH  17  21
ENDBRANCH  14  16
ENDBRANCH  12  14
ENDBRANCH   7  12
ENDBRANCH   3   6
ENDBRANCH   1   2
BRANCH   1  23
ATOM     23  C   UNL A   1      31.421  30.446  26.103  1.00  0.00     0.023 C 
BRANCH  23  24
ATOM     24  C   UNL A   1      31.423  31.960  26.324  1.00  0.00     0.023 C 
BRANCH  24  25
ATOM     25  C   UNL A   1      32.506  32.497  27.261  1.00  0.00     0.116 C 
BRANCH  25  26
ATOM     26  N   UNL A   1      32.393  33.923  27.536  1.00  0.00    -0.352 N 
ATOM     27  C   UNL A   1      33.029  34.667  28.511  1.00  0.00     0.251 C 
ATOM     28  H   UNL A   1      31.782  34.423  26.948  1.00  0.00     0.163 HD
ATOM     29  O   UNL A   1      32.593  35.767  28.815  1.00  0.00    -0.269 OA
BRANCH  27  30
ATOM     30  C   UNL A   1      34.235  34.145  29.200  1.00  0.00     0.039 A 
ATOM     31  C   UNL A   1      34.088  33.434  30.397  1.00  0.00     0.014 A 
ATOM     32  C   UNL A   1      35.515  34.433  28.717  1.00  0.00     0.014 A 
ATOM     33  C   UNL A   1      35.219  32.955  31.054  1.00  0.00     0.010 A 
ATOM     34  C   UNL A   1      36.646  33.970  29.365  1.00  0.00     0.010 A 
ATOM     35  C   UNL A   1      36.491  33.202  30.515  1.00  0.00    -0.014 A 
BRANCH  35  36
ATOM     36  C   UNL A   1      37.649  32.449  31.026  1.00  0.00     0.031 A 
ATOM     37  C   UNL A   1      37.896  31.214  30.126  1.00  0.00     0.074 A 
ATOM     38  C   UNL A   1      38.244  32.932  32.161  1.00  0.00     0.049 A 
ATOM     39  N   UNL A   1      38.230  30.004  30.446  1.00  0.00    -0.248 NA
ATOM     40  C   UNL A   1      37.624  31.308  28.661  1.00  0.00     0.031 C 
ATOM     41  C   UNL A   1      37.898  34.214  32.820  1.00  0.00     0.029 A 
ATOM     42  N   UNL A   1      39.243  32.473  32.998  1.00  0.00    -0.354 N 
ATOM     43  C   UNL A   1      38.377  29.255  29.252  1.00  0.00     0.074 A 
ATOM     44  C   UNL A   1      37.859  30.075  28.202  1.00  0.00     0.031 C 
ATOM     45  C   UNL A   1      38.580  34.370  33.976  1.00  0.00     0.029 A 
ATOM     46  C   UNL A   1      39.431  33.219  34.198  1.00  0.00     0.049 A 
ATOM     47  H   UNL A   1      39.789  31.683  32.780  1.00  0.00     0.167 HD
ATOM     48  C   UNL A   1      39.065  28.071  29.206  1.00  0.00     0.037 A 
ATOM     49  C   UNL A   1      40.156  32.883  35.316  1.00  0.00     0.037 A 
ATOM     50  C   UNL A   1      39.589  27.797  30.503  1.00  0.00     0.049 A 
ATOM     51  C   UNL A   1      40.809  31.616  34.961  1.00  0.00     0.074 A 
ATOM     52  C   UNL A   1      38.987  27.415  31.671  1.00  0.00     0.029 A 
ATOM     53  N   UNL A   1      40.822  28.338  30.776  1.00  0.00    -0.354 N 
ATOM     54  N   UNL A   1      41.800  31.495  34.129  1.00  0.00    -0.248 NA
ATOM     55  C   UNL A   1      40.211  30.371  35.461  1.00  0.00     0.031 C 
ATOM     56  C   UNL A   1      39.633  28.226  32.624  1.00  0.00     0.029 A 
ATOM     57  C   UNL A   1      40.777  28.808  32.062  1.00  0.00     0.049 A 
ATOM     58  H   UNL A   1      41.592  28.381  30.165  1.00  0.00     0.167 HD
ATOM     59  C   UNL A   1      41.705  30.173  33.768  1.00  0.00     0.074 A 
ATOM     60  C   UNL A   1      40.976  29.495  34.818  1.00  0.00     0.031 C 
ATOM     61  C   UNL A   1      41.706  29.838  32.453  1.00  0.00     0.037 A 
BRANCH  48  62
ATOM     62  C   UNL A   1      39.606  27.207  28.096  1.00  0.00     0.064 A 
ATOM     63  C   UNL A   1      39.610  25.800  28.300  1.00  0.00     0.173 A 
ATOM     64  C   UNL A   1      40.437  27.681  27.076  1.00  0.00     0.173 A 
ATOM     65  F   UNL A   1      38.799  25.235  29.210  1.00  0.00    -0.203 F 
ATOM     66  C   UNL A   1      40.513  24.959  27.656  1.00  0.00     0.198 A 
ATOM     67  C   UNL A   1      41.303  26.821  26.389  1.00  0.00     0.198 A 
ATOM     68  F   UNL A   1      40.507  28.987  26.791  1.00  0.00    -0.203 F 
ATOM     69  F   UNL A   1      40.593  23.667  28.006  1.00  0.00    -0.200 F 
ATOM     70  C   UNL A   1      41.377  25.475  26.713  1.00  0.00     0.200 A 
ATOM     71  F   UNL A   1      42.132  27.321  25.462  1.00  0.00    -0.200 F 
ATOM     72  F   UNL A   1      42.301  24.689  26.143  1.00  0.00    -0.200 F 
ENDBRANCH  48  62
BRANCH  49  73
ATOM     73  C   UNL A   1      40.306  33.340  36.757  1.00  0.00     0.064 A 
ATOM     74  C   UNL A   1      41.437  33.935  37.327  1.00  0.00     0.173 A 
ATOM     75  C   UNL A   1      39.195  33.250  37.652  1.00  0.00     0.173 A 
ATOM     76  F   UNL A   1      42.606  33.950  36.677  1.00  0.00    -0.203 F 
ATOM     77  C   UNL A   1      41.408  34.517  38.613  1.00  0.00     0.198 A 
ATOM     78  C   UNL A   1      39.144  33.878  38.896  1.00  0.00     0.198 A 
ATOM     79  F   UNL A   1      38.102  32.538  37.350  1.00  0.00    -0.203 F 
ATOM     80  F   UNL A   1      42.516  35.083  39.112  1.00  0.00    -0.200 F 
ATOM     81  C   UNL A   1      40.249  34.535  39.372  1.00  0.00     0.200 A 
ATOM     82  F   UNL A   1      38.007  33.851  39.607  1.00  0.00    -0.200 F 
ATOM     83  F   UNL A   1      40.203  35.158  40.557  1.00  0.00    -0.200 F 
ENDBRANCH  49  73
BRANCH  61  84
ATOM     84  C   UNL A   1      42.406  30.830  31.544  1.00  0.00     0.064 A 
ATOM     85  C   UNL A   1      43.802  30.959  31.607  1.00  0.00     0.173 A 
ATOM     86  C   UNL A   1      41.749  31.728  30.685  1.00  0.00     0.173 A 
ATOM     87  F   UNL A   1      44.512  30.129  32.385  1.00  0.00    -0.203 F 
ATOM     88  C   UNL A   1      44.490  31.929  30.872  1.00  0.00     0.198 A 
ATOM     89  C   UNL A   1      42.432  32.697  29.944  1.00  0.00     0.198 A 
ATOM     90  F   UNL A   1      40.427  31.684  30.541  1.00  0.00    -0.203 F 
ATOM     91  F   UNL A   1      45.825  32.010  30.962  1.00  0.00    -0.200 F 
ATOM     92  C   UNL A   1      43.805  32.800  30.041  1.00  0.00     0.200 A 
ATOM     93  F   UNL A   1      41.754  33.524  29.131  1.00  0.00    -0.200 F 
ATOM     94  F   UNL A   1      44.468  33.717  29.323  1.00  0.00    -0.200 F 
ENDBRANCH  61  84
ENDBRANCH  35  36
ENDBRANCH  27  30
ENDBRANCH  25  26
ENDBRANCH  24  25
ENDBRANCH  23  24
ENDBRANCH   1  23
TORSDOF 15
ENDMDL
