MODEL 1
REMARK VINA RESULT:     -10.7      0.000      0.000
REMARK SMILES C[C@H]([NH2+][C@@H]1CCOC2(CCC2)C1)C(=O)NCCCCNC(=O)c1ccc(-c2c3nc(c(-c4c(F)c(F)c(F)c(F)c4F)c4ccc([nH]4)c(-c4c(F)c(F)c(F)c(F)c4F)c4nc(c(-c5c(F)c(F)c(F)c(F)c5F)c5ccc2[nH]5)C=C4)C=C3)cc1
REMARK SMILES IDX 17 1 16 2 15 3 13 4 14 5 2 7 1 8 3 9 4 12 5 13 12 14 6 15
REMARK SMILES IDX 8 16 7 17 9 18 11 19 10 20 18 21 19 22 20 23 21 24 22 26
REMARK SMILES IDX 23 27 24 28 85 29 25 30 84 31 26 32 27 33 28 34 78 35 29 36
REMARK SMILES IDX 83 37 77 38 79 39 30 40 82 41 76 42 75 43 31 45 63 46 43 47
REMARK SMILES IDX 62 48 44 49 47 50 61 51 80 52 45 53 46 54 60 56 81 57 48 58
REMARK SMILES IDX 32 59 33 60 41 61 34 62 35 63 39 64 42 65 36 66 37 67 40 68
REMARK SMILES IDX 38 69 64 70 65 71 73 72 66 73 67 74 71 75 74 76 68 77 69 78
REMARK SMILES IDX 72 79 70 80 49 81 50 82 58 83 51 84 52 85 56 86 59 87 53 88
REMARK SMILES IDX 54 89 57 90 55 91
REMARK H PARENT 15 6 3 10 3 11 20 25 79 44 47 55
REMARK Flexibility Score: inf
ROOT
ATOM      1  C   UNL A   1      34.049  34.890  28.661  1.00  0.00     0.023 C 
ENDROOT
BRANCH   1   2
ATOM      2  C   UNL A   1      32.924  35.855  29.043  1.00  0.00     0.116 C 
BRANCH   2   3
ATOM      3  N   UNL A   1      33.382  36.877  29.970  1.00  0.00    -0.351 N 
ATOM      4  C   UNL A   1      33.380  36.855  31.342  1.00  0.00     0.277 C 
ATOM      5  O   UNL A   1      33.756  37.868  31.939  1.00  0.00    -0.268 OA
ATOM      6  H   UNL A   1      33.741  37.695  29.557  1.00  0.00     0.163 HD
BRANCH   4   7
ATOM      7  C   UNL A   1      32.958  35.574  32.119  1.00  0.00     0.269 C 
ATOM      8  C   UNL A   1      31.541  35.801  32.655  1.00  0.00     0.086 C 
BRANCH   7   9
ATOM      9  N   UNL A   1      34.033  35.250  33.072  1.00  0.00    -0.334 N 
ATOM     10  H   UNL A   1      33.838  35.775  33.924  1.00  0.00     0.347 HD
ATOM     11  H   UNL A   1      34.880  35.486  32.557  1.00  0.00     0.347 HD
BRANCH   9  12
ATOM     12  C   UNL A   1      34.262  33.866  33.474  1.00  0.00     0.188 C 
ATOM     13  C   UNL A   1      35.214  33.883  34.679  1.00  0.00     0.093 C 
ATOM     14  C   UNL A   1      34.852  32.967  32.377  1.00  0.00     0.100 C 
ATOM     15  C   UNL A   1      36.608  34.324  34.265  1.00  0.00     0.167 C 
ATOM     16  C   UNL A   1      36.326  33.272  32.073  1.00  0.00     0.074 C 
ATOM     17  O   UNL A   1      37.100  33.409  33.294  1.00  0.00    -0.375 OA
ATOM     18  C   UNL A   1      36.959  32.236  31.092  1.00  0.00     0.036 C 
ATOM     19  C   UNL A   1      36.595  34.335  30.964  1.00  0.00     0.036 C 
ATOM     20  C   UNL A   1      37.695  33.407  30.419  1.00  0.00     0.006 C 
ENDBRANCH   9  12
ENDBRANCH   7   9
ENDBRANCH   4   7
ENDBRANCH   2   3
ENDBRANCH   1   2
BRANCH   1  21
ATOM     21  C   UNL A   1      33.706  33.413  28.806  1.00  0.00     0.023 C 
BRANCH  21  22
ATOM     22  C   UNL A   1      34.692  32.462  28.140  1.00  0.00     0.116 C 
BRANCH  22  23
ATOM     23  N   UNL A   1      34.126  31.177  27.747  1.00  0.00    -0.352 N 
ATOM     24  C   UNL A   1      34.731  29.939  27.765  1.00  0.00     0.251 C 
ATOM     25  H   UNL A   1      33.195  31.197  27.430  1.00  0.00     0.163 HD
ATOM     26  O   UNL A   1      34.151  28.946  27.352  1.00  0.00    -0.269 OA
BRANCH  24  27
ATOM     27  C   UNL A   1      36.125  29.842  28.247  1.00  0.00     0.039 A 
ATOM     28  C   UNL A   1      36.367  29.322  29.519  1.00  0.00     0.014 A 
ATOM     29  C   UNL A   1      37.186  30.170  27.399  1.00  0.00     0.014 A 
ATOM     30  C   UNL A   1      37.677  29.037  29.905  1.00  0.00     0.010 A 
ATOM     31  C   UNL A   1      38.478  29.801  27.748  1.00  0.00     0.010 A 
ATOM     32  C   UNL A   1      38.736  29.224  29.001  1.00  0.00    -0.014 A 
BRANCH  32  33
ATOM     33  C   UNL A   1      40.123  28.816  29.333  1.00  0.00     0.031 A 
ATOM     34  C   UNL A   1      40.997  29.734  30.141  1.00  0.00     0.074 A 
ATOM     35  C   UNL A   1      40.625  27.671  28.831  1.00  0.00     0.049 A 
ATOM     36  N   UNL A   1      42.266  29.618  30.442  1.00  0.00    -0.248 NA
ATOM     37  C   UNL A   1      40.370  30.967  30.645  1.00  0.00     0.031 C 
ATOM     38  C   UNL A   1      39.897  26.728  27.978  1.00  0.00     0.029 A 
ATOM     39  N   UNL A   1      41.872  27.112  28.952  1.00  0.00    -0.354 N 
ATOM     40  C   UNL A   1      42.590  30.771  31.144  1.00  0.00     0.074 A 
ATOM     41  C   UNL A   1      41.406  31.599  31.175  1.00  0.00     0.031 C 
ATOM     42  C   UNL A   1      40.702  25.697  27.675  1.00  0.00     0.029 A 
ATOM     43  C   UNL A   1      42.012  25.922  28.279  1.00  0.00     0.049 A 
ATOM     44  H   UNL A   1      42.599  27.525  29.472  1.00  0.00     0.167 HD
ATOM     45  C   UNL A   1      43.765  31.098  31.734  1.00  0.00     0.037 A 
ATOM     46  C   UNL A   1      43.077  25.108  28.162  1.00  0.00     0.037 A 
ATOM     47  C   UNL A   1      44.928  30.252  31.739  1.00  0.00     0.049 A 
ATOM     48  C   UNL A   1      44.361  25.478  28.854  1.00  0.00     0.074 A 
ATOM     49  C   UNL A   1      46.143  30.458  32.367  1.00  0.00     0.029 A 
ATOM     50  N   UNL A   1      45.016  29.031  31.086  1.00  0.00    -0.354 N 
ATOM     51  N   UNL A   1      44.638  26.539  29.572  1.00  0.00    -0.248 NA
ATOM     52  C   UNL A   1      45.480  24.534  28.723  1.00  0.00     0.031 C 
ATOM     53  C   UNL A   1      46.978  29.376  32.067  1.00  0.00     0.029 A 
ATOM     54  C   UNL A   1      46.269  28.478  31.286  1.00  0.00     0.049 A 
ATOM     55  H   UNL A   1      44.294  28.619  30.558  1.00  0.00     0.167 HD
ATOM     56  C   UNL A   1      45.948  26.379  30.001  1.00  0.00     0.074 A 
ATOM     57  C   UNL A   1      46.408  25.112  29.474  1.00  0.00     0.031 C 
ATOM     58  C   UNL A   1      46.703  27.208  30.763  1.00  0.00     0.037 A 
BRANCH  45  59
ATOM     59  C   UNL A   1      43.839  32.421  32.437  1.00  0.00     0.064 A 
ATOM     60  C   UNL A   1      43.495  32.554  33.791  1.00  0.00     0.173 A 
ATOM     61  C   UNL A   1      44.282  33.566  31.757  1.00  0.00     0.173 A 
ATOM     62  F   UNL A   1      43.051  31.492  34.482  1.00  0.00    -0.203 F 
ATOM     63  C   UNL A   1      43.558  33.789  34.428  1.00  0.00     0.198 A 
ATOM     64  C   UNL A   1      44.373  34.794  32.406  1.00  0.00     0.198 A 
ATOM     65  F   UNL A   1      44.627  33.493  30.463  1.00  0.00    -0.203 F 
ATOM     66  F   UNL A   1      43.171  33.901  35.707  1.00  0.00    -0.200 F 
ATOM     67  C   UNL A   1      44.003  34.907  33.738  1.00  0.00     0.200 A 
ATOM     68  F   UNL A   1      44.813  35.871  31.742  1.00  0.00    -0.200 F 
ATOM     69  F   UNL A   1      44.067  36.095  34.356  1.00  0.00    -0.200 F 
ENDBRANCH  45  59
BRANCH  46  70
ATOM     70  C   UNL A   1      42.967  23.843  27.389  1.00  0.00     0.064 A 
ATOM     71  C   UNL A   1      42.495  22.672  27.996  1.00  0.00     0.173 A 
ATOM     72  C   UNL A   1      43.328  23.779  26.036  1.00  0.00     0.173 A 
ATOM     73  F   UNL A   1      42.156  22.681  29.294  1.00  0.00    -0.203 F 
ATOM     74  C   UNL A   1      42.409  21.476  27.286  1.00  0.00     0.198 A 
ATOM     75  C   UNL A   1      43.218  22.588  25.319  1.00  0.00     0.198 A 
ATOM     76  F   UNL A   1      43.780  24.874  25.408  1.00  0.00    -0.203 F 
ATOM     77  F   UNL A   1      41.997  20.360  27.903  1.00  0.00    -0.200 F 
ATOM     78  C   UNL A   1      42.766  21.436  25.947  1.00  0.00     0.200 A 
ATOM     79  F   UNL A   1      43.552  22.556  24.022  1.00  0.00    -0.200 F 
ATOM     80  F   UNL A   1      42.682  20.288  25.263  1.00  0.00    -0.200 F 
ENDBRANCH  46  70
BRANCH  58  81
ATOM     81  C   UNL A   1      48.092  26.755  31.100  1.00  0.00     0.064 A 
ATOM     82  C   UNL A   1      49.197  27.138  30.328  1.00  0.00     0.173 A 
ATOM     83  C   UNL A   1      48.323  25.967  32.237  1.00  0.00     0.173 A 
ATOM     84  F   UNL A   1      49.025  27.879  29.223  1.00  0.00    -0.203 F 
ATOM     85  C   UNL A   1      50.484  26.730  30.670  1.00  0.00     0.198 A 
ATOM     86  C   UNL A   1      49.613  25.583  32.592  1.00  0.00     0.198 A 
ATOM     87  F   UNL A   1      47.298  25.580  33.012  1.00  0.00    -0.203 F 
ATOM     88  F   UNL A   1      51.521  27.072  29.895  1.00  0.00    -0.200 F 
ATOM     89  C   UNL A   1      50.691  25.960  31.805  1.00  0.00     0.200 A 
ATOM     90  F   UNL A   1      49.813  24.850  33.696  1.00  0.00    -0.200 F 
ATOM     91  F   UNL A   1      51.930  25.575  32.137  1.00  0.00    -0.200 F 
ENDBRANCH  58  81
ENDBRANCH  32  33
ENDBRANCH  24  27
ENDBRANCH  22  23
ENDBRANCH  21  22
ENDBRANCH   1  21
TORSDOF 13
ENDMDL
MODEL 2
REMARK VINA RESULT:     -10.5      4.120      7.589
REMARK SMILES C[C@H]([NH2+][C@@H]1CCOC2(CCC2)C1)C(=O)NCCCCNC(=O)c1ccc(-c2c3nc(c(-c4c(F)c(F)c(F)c(F)c4F)c4ccc([nH]4)c(-c4c(F)c(F)c(F)c(F)c4F)c4nc(c(-c5c(F)c(F)c(F)c(F)c5F)c5ccc2[nH]5)C=C4)C=C3)cc1
REMARK SMILES IDX 17 1 16 2 15 3 13 4 14 5 2 7 1 8 3 9 4 12 5 13 12 14 6 15
REMARK SMILES IDX 8 16 7 17 9 18 11 19 10 20 18 21 19 22 20 23 21 24 22 26
REMARK SMILES IDX 23 27 24 28 85 29 25 30 84 31 26 32 27 33 28 34 78 35 29 36
REMARK SMILES IDX 83 37 77 38 79 39 30 40 82 41 76 42 75 43 31 45 63 46 43 47
REMARK SMILES IDX 62 48 44 49 47 50 61 51 80 52 45 53 46 54 60 56 81 57 48 58
REMARK SMILES IDX 32 59 33 60 41 61 34 62 35 63 39 64 42 65 36 66 37 67 40 68
REMARK SMILES IDX 38 69 64 70 65 71 73 72 66 73 67 74 71 75 74 76 68 77 69 78
REMARK SMILES IDX 72 79 70 80 49 81 50 82 58 83 51 84 52 85 56 86 59 87 53 88
REMARK SMILES IDX 54 89 57 90 55 91
REMARK H PARENT 15 6 3 10 3 11 20 25 79 44 47 55
REMARK Flexibility Score: inf
ROOT
ATOM      1  C   UNL A   1      31.866  30.507  26.857  1.00  0.00     0.023 C 
ENDROOT
BRANCH   1   2
ATOM      2  C   UNL A   1      32.622  29.940  25.653  1.00  0.00     0.116 C 
BRANCH   2   3
ATOM      3  N   UNL A   1      31.721  29.583  24.569  1.00  0.00    -0.351 N 
ATOM      4  C   UNL A   1      31.926  28.705  23.535  1.00  0.00     0.277 C 
ATOM      5  O   UNL A   1      31.044  28.602  22.678  1.00  0.00    -0.268 OA
ATOM      6  H   UNL A   1      30.845  30.034  24.579  1.00  0.00     0.163 HD
BRANCH   4   7
ATOM      7  C   UNL A   1      33.214  27.833  23.472  1.00  0.00     0.269 C 
ATOM      8  C   UNL A   1      34.043  28.315  22.279  1.00  0.00     0.086 C 
BRANCH   7   9
ATOM      9  N   UNL A   1      32.805  26.419  23.526  1.00  0.00    -0.334 N 
ATOM     10  H   UNL A   1      32.089  26.293  22.811  1.00  0.00     0.347 HD
ATOM     11  H   UNL A   1      32.525  26.295  24.499  1.00  0.00     0.347 HD
BRANCH   9  12
ATOM     12  C   UNL A   1      33.792  25.363  23.325  1.00  0.00     0.188 C 
ATOM     13  C   UNL A   1      33.163  24.310  22.400  1.00  0.00     0.093 C 
ATOM     14  C   UNL A   1      34.275  24.681  24.614  1.00  0.00     0.100 C 
ATOM     15  C   UNL A   1      32.045  23.563  23.108  1.00  0.00     0.167 C 
ATOM     16  C   UNL A   1      33.216  23.767  25.247  1.00  0.00     0.074 C 
ATOM     17  O   UNL A   1      32.588  22.916  24.252  1.00  0.00    -0.375 OA
ATOM     18  C   UNL A   1      33.782  22.944  26.448  1.00  0.00     0.036 C 
ATOM     19  C   UNL A   1      32.261  24.434  26.285  1.00  0.00     0.036 C 
ATOM     20  C   UNL A   1      32.447  23.190  27.172  1.00  0.00     0.006 C 
ENDBRANCH   9  12
ENDBRANCH   7   9
ENDBRANCH   4   7
ENDBRANCH   2   3
ENDBRANCH   1   2
BRANCH   1  21
ATOM     21  C   UNL A   1      31.626  32.010  26.815  1.00  0.00     0.023 C 
BRANCH  21  22
ATOM     22  C   UNL A   1      32.752  32.853  27.401  1.00  0.00     0.116 C 
BRANCH  22  23
ATOM     23  N   UNL A   1      32.383  34.227  27.718  1.00  0.00    -0.352 N 
ATOM     24  C   UNL A   1      32.970  35.077  28.630  1.00  0.00     0.251 C 
ATOM     25  H   UNL A   1      31.619  34.592  27.218  1.00  0.00     0.163 HD
ATOM     26  O   UNL A   1      32.517  36.193  28.834  1.00  0.00    -0.269 OA
BRANCH  24  27
ATOM     27  C   UNL A   1      34.133  34.590  29.401  1.00  0.00     0.039 A 
ATOM     28  C   UNL A   1      33.919  34.009  30.652  1.00  0.00     0.014 A 
ATOM     29  C   UNL A   1      35.411  34.616  28.839  1.00  0.00     0.014 A 
ATOM     30  C   UNL A   1      34.974  33.365  31.298  1.00  0.00     0.010 A 
ATOM     31  C   UNL A   1      36.436  33.897  29.438  1.00  0.00     0.010 A 
ATOM     32  C   UNL A   1      36.226  33.258  30.670  1.00  0.00    -0.014 A 
BRANCH  32  33
ATOM     33  C   UNL A   1      37.334  32.475  31.272  1.00  0.00     0.031 A 
ATOM     34  C   UNL A   1      37.842  32.831  32.641  1.00  0.00     0.074 A 
ATOM     35  C   UNL A   1      37.942  31.511  30.553  1.00  0.00     0.049 A 
ATOM     36  N   UNL A   1      38.867  32.350  33.296  1.00  0.00    -0.248 NA
ATOM     37  C   UNL A   1      37.122  33.900  33.353  1.00  0.00     0.031 C 
ATOM     38  C   UNL A   1      37.585  31.117  29.188  1.00  0.00     0.029 A 
ATOM     39  N   UNL A   1      39.001  30.696  30.865  1.00  0.00    -0.354 N 
ATOM     40  C   UNL A   1      38.930  33.074  34.478  1.00  0.00     0.074 A 
ATOM     41  C   UNL A   1      37.878  34.064  34.428  1.00  0.00     0.031 C 
ATOM     42  C   UNL A   1      38.393  30.121  28.791  1.00  0.00     0.029 A 
ATOM     43  C   UNL A   1      39.348  29.830  29.856  1.00  0.00     0.049 A 
ATOM     44  H   UNL A   1      39.469  30.729  31.731  1.00  0.00     0.167 HD
ATOM     45  C   UNL A   1      39.772  32.909  35.525  1.00  0.00     0.037 A 
ATOM     46  C   UNL A   1      40.327  28.909  29.799  1.00  0.00     0.037 A 
ATOM     47  C   UNL A   1      40.789  31.894  35.591  1.00  0.00     0.049 A 
ATOM     48  C   UNL A   1      41.230  28.724  30.988  1.00  0.00     0.074 A 
ATOM     49  C   UNL A   1      41.647  31.598  36.635  1.00  0.00     0.029 A 
ATOM     50  N   UNL A   1      41.079  31.003  34.568  1.00  0.00    -0.354 N 
ATOM     51  N   UNL A   1      41.237  29.369  32.129  1.00  0.00    -0.248 NA
ATOM     52  C   UNL A   1      42.258  27.678  30.883  1.00  0.00     0.031 C 
ATOM     53  C   UNL A   1      42.479  30.548  36.230  1.00  0.00     0.029 A 
ATOM     54  C   UNL A   1      42.112  30.164  34.951  1.00  0.00     0.049 A 
ATOM     55  H   UNL A   1      40.619  30.973  33.698  1.00  0.00     0.167 HD
ATOM     56  C   UNL A   1      42.247  28.792  32.888  1.00  0.00     0.074 A 
ATOM     57  C   UNL A   1      42.822  27.735  32.082  1.00  0.00     0.031 C 
ATOM     58  C   UNL A   1      42.661  29.109  34.138  1.00  0.00     0.037 A 
BRANCH  45  59
ATOM     59  C   UNL A   1      39.615  33.840  36.691  1.00  0.00     0.064 A 
ATOM     60  C   UNL A   1      40.229  35.102  36.712  1.00  0.00     0.173 A 
ATOM     61  C   UNL A   1      38.823  33.477  37.791  1.00  0.00     0.173 A 
ATOM     62  F   UNL A   1      41.009  35.489  35.691  1.00  0.00    -0.203 F 
ATOM     63  C   UNL A   1      40.085  35.951  37.805  1.00  0.00     0.198 A 
ATOM     64  C   UNL A   1      38.655  34.343  38.869  1.00  0.00     0.198 A 
ATOM     65  F   UNL A   1      38.210  32.285  37.820  1.00  0.00    -0.203 F 
ATOM     66  F   UNL A   1      40.726  37.128  37.825  1.00  0.00    -0.200 F 
ATOM     67  C   UNL A   1      39.292  35.575  38.879  1.00  0.00     0.200 A 
ATOM     68  F   UNL A   1      37.881  33.983  39.902  1.00  0.00    -0.200 F 
ATOM     69  F   UNL A   1      39.151  36.397  39.928  1.00  0.00    -0.200 F 
ENDBRANCH  45  59
BRANCH  46  70
ATOM     70  C   UNL A   1      40.484  28.064  28.586  1.00  0.00     0.064 A 
ATOM     71  C   UNL A   1      39.858  26.813  28.499  1.00  0.00     0.173 A 
ATOM     72  C   UNL A   1      41.258  28.485  27.496  1.00  0.00     0.173 A 
ATOM     73  F   UNL A   1      39.122  26.360  29.526  1.00  0.00    -0.203 F 
ATOM     74  C   UNL A   1      40.017  26.004  27.375  1.00  0.00     0.198 A 
ATOM     75  C   UNL A   1      41.396  27.686  26.362  1.00  0.00     0.198 A 
ATOM     76  F   UNL A   1      41.873  29.676  27.528  1.00  0.00    -0.203 F 
ATOM     77  F   UNL A   1      39.442  24.794  27.337  1.00  0.00    -0.200 F 
ATOM     78  C   UNL A   1      40.782  26.443  26.306  1.00  0.00     0.200 A 
ATOM     79  F   UNL A   1      42.126  28.118  25.325  1.00  0.00    -0.200 F 
ATOM     80  F   UNL A   1      40.933  25.666  25.225  1.00  0.00    -0.200 F 
ENDBRANCH  46  70
BRANCH  58  81
ATOM     81  C   UNL A   1      43.766  28.283  34.726  1.00  0.00     0.064 A 
ATOM     82  C   UNL A   1      43.506  27.081  35.397  1.00  0.00     0.173 A 
ATOM     83  C   UNL A   1      45.103  28.679  34.574  1.00  0.00     0.173 A 
ATOM     84  F   UNL A   1      42.243  26.669  35.581  1.00  0.00    -0.203 F 
ATOM     85  C   UNL A   1      44.546  26.313  35.915  1.00  0.00     0.198 A 
ATOM     86  C   UNL A   1      46.142  27.896  35.069  1.00  0.00     0.198 A 
ATOM     87  F   UNL A   1      45.403  29.819  33.934  1.00  0.00    -0.203 F 
ATOM     88  F   UNL A   1      44.274  25.188  36.590  1.00  0.00    -0.200 F 
ATOM     89  C   UNL A   1      45.862  26.717  35.744  1.00  0.00     0.200 A 
ATOM     90  F   UNL A   1      47.413  28.281  34.892  1.00  0.00    -0.200 F 
ATOM     91  F   UNL A   1      46.861  25.973  36.236  1.00  0.00    -0.200 F 
ENDBRANCH  58  81
ENDBRANCH  32  33
ENDBRANCH  24  27
ENDBRANCH  22  23
ENDBRANCH  21  22
ENDBRANCH   1  21
TORSDOF 13
ENDMDL
MODEL 3
REMARK VINA RESULT:     -10.5      2.955      6.245
REMARK SMILES C[C@H]([NH2+][C@@H]1CCOC2(CCC2)C1)C(=O)NCCCCNC(=O)c1ccc(-c2c3nc(c(-c4c(F)c(F)c(F)c(F)c4F)c4ccc([nH]4)c(-c4c(F)c(F)c(F)c(F)c4F)c4nc(c(-c5c(F)c(F)c(F)c(F)c5F)c5ccc2[nH]5)C=C4)C=C3)cc1
REMARK SMILES IDX 17 1 16 2 15 3 13 4 14 5 2 7 1 8 3 9 4 12 5 13 12 14 6 15
REMARK SMILES IDX 8 16 7 17 9 18 11 19 10 20 18 21 19 22 20 23 21 24 22 26
REMARK SMILES IDX 23 27 24 28 85 29 25 30 84 31 26 32 27 33 28 34 78 35 29 36
REMARK SMILES IDX 83 37 77 38 79 39 30 40 82 41 76 42 75 43 31 45 63 46 43 47
REMARK SMILES IDX 62 48 44 49 47 50 61 51 80 52 45 53 46 54 60 56 81 57 48 58
REMARK SMILES IDX 32 59 33 60 41 61 34 62 35 63 39 64 42 65 36 66 37 67 40 68
REMARK SMILES IDX 38 69 64 70 65 71 73 72 66 73 67 74 71 75 74 76 68 77 69 78
REMARK SMILES IDX 72 79 70 80 49 81 50 82 58 83 51 84 52 85 56 86 59 87 53 88
REMARK SMILES IDX 54 89 57 90 55 91
REMARK H PARENT 15 6 3 10 3 11 20 25 79 44 47 55
REMARK Flexibility Score: inf
ROOT
ATOM      1  C   UNL A   1      33.874  27.071  25.440  1.00  0.00     0.023 C 
ENDROOT
BRANCH   1   2
ATOM      2  C   UNL A   1      32.454  26.521  25.284  1.00  0.00     0.116 C 
BRANCH   2   3
ATOM      3  N   UNL A   1      32.074  25.683  26.410  1.00  0.00    -0.351 N 
ATOM      4  C   UNL A   1      31.994  24.314  26.473  1.00  0.00     0.277 C 
ATOM      5  O   UNL A   1      31.580  23.805  27.519  1.00  0.00    -0.268 OA
ATOM      6  H   UNL A   1      31.842  26.162  27.237  1.00  0.00     0.163 HD
BRANCH   4   7
ATOM      7  C   UNL A   1      32.456  23.431  25.278  1.00  0.00     0.269 C 
ATOM      8  C   UNL A   1      31.300  22.492  24.920  1.00  0.00     0.086 C 
BRANCH   7   9
ATOM      9  N   UNL A   1      33.762  22.846  25.625  1.00  0.00    -0.334 N 
ATOM     10  H   UNL A   1      33.910  22.061  24.993  1.00  0.00     0.347 HD
ATOM     11  H   UNL A   1      33.667  22.639  26.619  1.00  0.00     0.347 HD
BRANCH   9  12
ATOM     12  C   UNL A   1      34.969  23.665  25.569  1.00  0.00     0.188 C 
ATOM     13  C   UNL A   1      35.119  24.173  24.127  1.00  0.00     0.093 C 
ATOM     14  C   UNL A   1      36.258  22.941  25.986  1.00  0.00     0.100 C 
ATOM     15  C   UNL A   1      35.468  23.034  23.183  1.00  0.00     0.167 C 
ATOM     16  C   UNL A   1      36.735  21.912  24.950  1.00  0.00     0.074 C 
ATOM     17  O   UNL A   1      36.698  22.459  23.606  1.00  0.00    -0.375 OA
ATOM     18  C   UNL A   1      38.136  21.319  25.302  1.00  0.00     0.036 C 
ATOM     19  C   UNL A   1      36.190  20.460  25.119  1.00  0.00     0.036 C 
ATOM     20  C   UNL A   1      37.614  19.952  24.829  1.00  0.00     0.006 C 
ENDBRANCH   9  12
ENDBRANCH   7   9
ENDBRANCH   4   7
ENDBRANCH   2   3
ENDBRANCH   1   2
BRANCH   1  21
ATOM     21  C   UNL A   1      33.954  28.519  25.905  1.00  0.00     0.023 C 
BRANCH  21  22
ATOM     22  C   UNL A   1      33.618  28.736  27.376  1.00  0.00     0.116 C 
BRANCH  22  23
ATOM     23  N   UNL A   1      33.640  30.129  27.805  1.00  0.00    -0.352 N 
ATOM     24  C   UNL A   1      34.694  30.839  28.338  1.00  0.00     0.251 C 
ATOM     25  H   UNL A   1      32.796  30.624  27.700  1.00  0.00     0.163 HD
ATOM     26  O   UNL A   1      34.553  31.995  28.709  1.00  0.00    -0.269 OA
BRANCH  24  27
ATOM     27  C   UNL A   1      35.993  30.154  28.506  1.00  0.00     0.039 A 
ATOM     28  C   UNL A   1      36.936  30.233  27.480  1.00  0.00     0.014 A 
ATOM     29  C   UNL A   1      36.307  29.527  29.714  1.00  0.00     0.014 A 
ATOM     30  C   UNL A   1      38.232  29.768  27.704  1.00  0.00     0.010 A 
ATOM     31  C   UNL A   1      37.618  29.150  29.966  1.00  0.00     0.010 A 
ATOM     32  C   UNL A   1      38.596  29.273  28.967  1.00  0.00    -0.014 A 
BRANCH  32  33
ATOM     33  C   UNL A   1      39.995  28.886  29.278  1.00  0.00     0.031 A 
ATOM     34  C   UNL A   1      40.879  29.831  30.042  1.00  0.00     0.074 A 
ATOM     35  C   UNL A   1      40.495  27.732  28.793  1.00  0.00     0.049 A 
ATOM     36  N   UNL A   1      42.155  29.733  30.317  1.00  0.00    -0.248 NA
ATOM     37  C   UNL A   1      40.252  31.070  30.530  1.00  0.00     0.031 C 
ATOM     38  C   UNL A   1      39.756  26.763  27.980  1.00  0.00     0.029 A 
ATOM     39  N   UNL A   1      41.749  27.187  28.899  1.00  0.00    -0.354 N 
ATOM     40  C   UNL A   1      42.485  30.906  30.982  1.00  0.00     0.074 A 
ATOM     41  C   UNL A   1      41.294  31.725  31.020  1.00  0.00     0.031 C 
ATOM     42  C   UNL A   1      40.563  25.731  27.684  1.00  0.00     0.029 A 
ATOM     43  C   UNL A   1      41.884  25.982  28.252  1.00  0.00     0.049 A 
ATOM     44  H   UNL A   1      42.484  27.619  29.392  1.00  0.00     0.167 HD
ATOM     45  C   UNL A   1      43.669  31.257  31.536  1.00  0.00     0.037 A 
ATOM     46  C   UNL A   1      42.954  25.174  28.132  1.00  0.00     0.037 A 
ATOM     47  C   UNL A   1      44.840  30.421  31.536  1.00  0.00     0.049 A 
ATOM     48  C   UNL A   1      44.250  25.572  28.784  1.00  0.00     0.074 A 
ATOM     49  C   UNL A   1      46.067  30.653  32.130  1.00  0.00     0.029 A 
ATOM     50  N   UNL A   1      44.924  29.185  30.912  1.00  0.00    -0.354 N 
ATOM     51  N   UNL A   1      44.533  26.653  29.469  1.00  0.00    -0.248 NA
ATOM     52  C   UNL A   1      45.374  24.634  28.651  1.00  0.00     0.031 C 
ATOM     53  C   UNL A   1      46.905  29.571  31.838  1.00  0.00     0.029 A 
ATOM     54  C   UNL A   1      46.186  28.647  31.097  1.00  0.00     0.049 A 
ATOM     55  H   UNL A   1      44.194  28.754  30.411  1.00  0.00     0.167 HD
ATOM     56  C   UNL A   1      45.855  26.515  29.872  1.00  0.00     0.074 A 
ATOM     57  C   UNL A   1      46.314  25.238  29.366  1.00  0.00     0.031 C 
ATOM     58  C   UNL A   1      46.619  27.368  30.595  1.00  0.00     0.037 A 
BRANCH  45  59
ATOM     59  C   UNL A   1      43.748  32.598  32.205  1.00  0.00     0.064 A 
ATOM     60  C   UNL A   1      44.129  33.749  31.498  1.00  0.00     0.173 A 
ATOM     61  C   UNL A   1      43.418  32.739  33.561  1.00  0.00     0.173 A 
ATOM     62  F   UNL A   1      44.469  33.665  30.203  1.00  0.00    -0.203 F 
ATOM     63  C   UNL A   1      44.210  34.985  32.132  1.00  0.00     0.198 A 
ATOM     64  C   UNL A   1      43.471  33.983  34.185  1.00  0.00     0.198 A 
ATOM     65  F   UNL A   1      43.045  31.671  34.281  1.00  0.00    -0.203 F 
ATOM     66  F   UNL A   1      44.628  36.060  31.450  1.00  0.00    -0.200 F 
ATOM     67  C   UNL A   1      43.873  35.103  33.473  1.00  0.00     0.200 A 
ATOM     68  F   UNL A   1      43.135  34.098  35.477  1.00  0.00    -0.200 F 
ATOM     69  F   UNL A   1      43.947  36.295  34.080  1.00  0.00    -0.200 F 
ENDBRANCH  45  59
BRANCH  46  70
ATOM     70  C   UNL A   1      42.837  23.890  27.393  1.00  0.00     0.064 A 
ATOM     71  C   UNL A   1      42.385  22.731  28.038  1.00  0.00     0.173 A 
ATOM     72  C   UNL A   1      43.173  23.793  26.035  1.00  0.00     0.173 A 
ATOM     73  F   UNL A   1      42.071  22.770  29.342  1.00  0.00    -0.203 F 
ATOM     74  C   UNL A   1      42.294  21.517  27.360  1.00  0.00     0.198 A 
ATOM     75  C   UNL A   1      43.057  22.584  25.351  1.00  0.00     0.198 A 
ATOM     76  F   UNL A   1      43.605  24.874  25.371  1.00  0.00    -0.203 F 
ATOM     77  F   UNL A   1      41.901  20.415  28.013  1.00  0.00    -0.200 F 
ATOM     78  C   UNL A   1      42.625  21.445  26.016  1.00  0.00     0.200 A 
ATOM     79  F   UNL A   1      43.365  22.521  24.049  1.00  0.00    -0.200 F 
ATOM     80  F   UNL A   1      42.535  20.279  25.363  1.00  0.00    -0.200 F 
ENDBRANCH  46  70
BRANCH  58  81
ATOM     81  C   UNL A   1      48.020  26.936  30.912  1.00  0.00     0.064 A 
ATOM     82  C   UNL A   1      49.104  27.314  30.108  1.00  0.00     0.173 A 
ATOM     83  C   UNL A   1      48.282  26.173  32.059  1.00  0.00     0.173 A 
ATOM     84  F   UNL A   1      48.901  28.030  28.992  1.00  0.00    -0.203 F 
ATOM     85  C   UNL A   1      50.402  26.925  30.431  1.00  0.00     0.198 A 
ATOM     86  C   UNL A   1      49.583  25.809  32.394  1.00  0.00     0.198 A 
ATOM     87  F   UNL A   1      47.278  25.792  32.863  1.00  0.00    -0.203 F 
ATOM     88  F   UNL A   1      51.419  27.261  29.627  1.00  0.00    -0.200 F 
ATOM     89  C   UNL A   1      50.640  26.180  31.576  1.00  0.00     0.200 A 
ATOM     90  F   UNL A   1      49.814  25.100  33.508  1.00  0.00    -0.200 F 
ATOM     91  F   UNL A   1      51.891  25.814  31.889  1.00  0.00    -0.200 F 
ENDBRANCH  58  81
ENDBRANCH  32  33
ENDBRANCH  24  27
ENDBRANCH  22  23
ENDBRANCH  21  22
ENDBRANCH   1  21
TORSDOF 13
ENDMDL
