MODEL 1
REMARK VINA RESULT:     -14.0      0.000      0.000
REMARK SMILES C[N@H+]1[C@H](C(=O)NCCCCNC(=O)c2ccc(-c3c4nc(c(-c5c(F)c(F)c(F)c(F)c5F)c5ccc([nH]5)c(-c5c(F)c(F)c(F)c(F)c5F)c5nc(c(-c6c(F)c(F)c(F)c(F)c6F)c6ccc3[nH]6)C=C5)C=C4)cc2)C[C@H](C(=O)NCC2(CO)CCCC2)[C@@H]1c1ccccc1F
REMARK SMILES IDX 7 1 6 2 4 3 5 4 3 6 1 7 2 8 90 9 77 11 78 12 91 13 92 14
REMARK SMILES IDX 96 15 93 16 95 17 97 18 94 19 79 20 80 21 81 22 82 24 83 25
REMARK SMILES IDX 86 26 89 27 87 28 88 29 84 30 85 31 8 33 9 34 10 35 11 36
REMARK SMILES IDX 12 37 13 39 14 40 15 41 76 42 16 43 75 44 17 45 18 46 19 47
REMARK SMILES IDX 69 48 20 49 74 50 68 51 70 52 21 53 73 54 67 55 66 56 22 58
REMARK SMILES IDX 54 59 34 60 53 61 35 62 38 63 52 64 71 65 36 66 37 67 51 69
REMARK SMILES IDX 72 70 39 71 23 72 24 73 32 74 25 75 26 76 30 77 33 78 27 79
REMARK SMILES IDX 28 80 31 81 29 82 55 83 56 84 64 85 57 86 58 87 62 88 65 89
REMARK SMILES IDX 59 90 60 91 63 92 61 93 40 94 41 95 49 96 42 97 43 98 47 99
REMARK SMILES IDX 50 100 44 101 45 102 48 103 46 104
REMARK H PARENT 6 5 2 10 81 23 85 32 11 38 70 57 38 68
REMARK Flexibility Score: inf
ROOT
ATOM      1  C   UNL A   1      31.637  26.114  26.281  1.00  0.00     0.116 C 
ENDROOT
BRANCH   1   2
ATOM      2  N   UNL A   1      30.397  26.365  25.577  1.00  0.00    -0.351 N 
ATOM      3  C   UNL A   1      30.065  26.034  24.293  1.00  0.00     0.278 C 
ATOM      4  O   UNL A   1      28.931  26.331  23.901  1.00  0.00    -0.268 OA
ATOM      5  H   UNL A   1      29.702  26.836  26.091  1.00  0.00     0.163 HD
BRANCH   3   6
ATOM      6  C   UNL A   1      31.026  25.255  23.373  1.00  0.00     0.275 C 
ATOM      7  C   UNL A   1      33.013  26.631  23.266  1.00  0.00     0.333 C 
ATOM      8  N   UNL A   1      32.438  25.390  23.781  1.00  0.00    -0.320 N 
ATOM      9  C   UNL A   1      33.119  24.164  23.320  1.00  0.00     0.231 C 
ATOM     10  H   UNL A   1      32.546  25.470  24.792  1.00  0.00     0.349 HD
ATOM     11  C   UNL A   1      30.735  23.758  23.342  1.00  0.00     0.095 C 
ATOM     12  C   UNL A   1      32.077  23.039  23.554  1.00  0.00     0.148 C 
BRANCH   9  13
ATOM     13  C   UNL A   1      34.504  23.863  23.855  1.00  0.00     0.046 A 
ATOM     14  C   UNL A   1      35.339  23.015  23.097  1.00  0.00     0.013 A 
ATOM     15  C   UNL A   1      34.982  24.292  25.101  1.00  0.00     0.132 A 
ATOM     16  C   UNL A   1      36.583  22.600  23.581  1.00  0.00     0.001 A 
ATOM     17  C   UNL A   1      36.229  23.891  25.581  1.00  0.00     0.040 A 
ATOM     18  F   UNL A   1      34.247  25.086  25.894  1.00  0.00    -0.206 F 
ATOM     19  C   UNL A   1      37.026  23.035  24.826  1.00  0.00     0.003 A 
ENDBRANCH   9  13
BRANCH  12  20
ATOM     20  C   UNL A   1      32.120  22.288  24.900  1.00  0.00     0.229 C 
ATOM     21  O   UNL A   1      32.048  22.824  26.004  1.00  0.00    -0.275 OA
ATOM     22  N   UNL A   1      32.267  20.932  24.902  1.00  0.00    -0.355 N 
ATOM     23  H   UNL A   1      32.215  20.510  25.791  1.00  0.00     0.163 HD
BRANCH  22  24
ATOM     24  C   UNL A   1      32.485  20.014  23.806  1.00  0.00     0.125 C 
BRANCH  24  25
ATOM     25  C   UNL A   1      33.059  18.666  24.272  1.00  0.00     0.011 C 
ATOM     26  C   UNL A   1      32.997  17.649  23.121  1.00  0.00     0.011 C 
ATOM     27  C   UNL A   1      34.574  18.743  24.533  1.00  0.00     0.011 C 
ATOM     28  C   UNL A   1      34.070  16.616  23.440  1.00  0.00     0.001 C 
ATOM     29  C   UNL A   1      35.091  17.323  24.328  1.00  0.00     0.001 C 
BRANCH  25  30
ATOM     30  C   UNL A   1      32.285  18.145  25.504  1.00  0.00     0.164 C 
BRANCH  30  31
ATOM     31  O   UNL A   1      32.845  18.642  26.715  1.00  0.00    -0.396 OA
ATOM     32  H   UNL A   1      33.092  19.573  26.599  1.00  0.00     0.210 HD
ENDBRANCH  30  31
ENDBRANCH  25  30
ENDBRANCH  24  25
ENDBRANCH  22  24
ENDBRANCH  12  20
ENDBRANCH   3   6
ENDBRANCH   1   2
BRANCH   1  33
ATOM     33  C   UNL A   1      32.268  27.360  26.879  1.00  0.00     0.023 C 
BRANCH  33  34
ATOM     34  C   UNL A   1      31.759  28.671  26.293  1.00  0.00     0.023 C 
BRANCH  34  35
ATOM     35  C   UNL A   1      32.838  29.697  25.964  1.00  0.00     0.116 C 
BRANCH  35  36
ATOM     36  N   UNL A   1      32.546  31.033  26.466  1.00  0.00    -0.352 N 
ATOM     37  C   UNL A   1      33.292  31.832  27.299  1.00  0.00     0.251 C 
ATOM     38  H   UNL A   1      31.691  31.418  26.166  1.00  0.00     0.163 HD
ATOM     39  O   UNL A   1      32.851  32.900  27.712  1.00  0.00    -0.269 OA
BRANCH  37  40
ATOM     40  C   UNL A   1      34.626  31.374  27.741  1.00  0.00     0.039 A 
ATOM     41  C   UNL A   1      35.649  32.317  27.873  1.00  0.00     0.014 A 
ATOM     42  C   UNL A   1      34.846  30.039  28.086  1.00  0.00     0.014 A 
ATOM     43  C   UNL A   1      36.860  31.942  28.456  1.00  0.00     0.010 A 
ATOM     44  C   UNL A   1      36.026  29.682  28.733  1.00  0.00     0.010 A 
ATOM     45  C   UNL A   1      37.033  30.636  28.947  1.00  0.00    -0.014 A 
BRANCH  45  46
ATOM     46  C   UNL A   1      38.226  30.268  29.750  1.00  0.00     0.031 A 
ATOM     47  C   UNL A   1      39.224  29.280  29.224  1.00  0.00     0.074 A 
ATOM     48  C   UNL A   1      38.354  30.758  30.999  1.00  0.00     0.049 A 
ATOM     49  N   UNL A   1      40.267  28.760  29.823  1.00  0.00    -0.248 NA
ATOM     50  C   UNL A   1      39.010  28.791  27.854  1.00  0.00     0.031 C 
ATOM     51  C   UNL A   1      37.423  31.687  31.643  1.00  0.00     0.029 A 
ATOM     52  N   UNL A   1      39.307  30.529  31.961  1.00  0.00    -0.354 N 
ATOM     53  C   UNL A   1      40.826  27.878  28.908  1.00  0.00     0.074 A 
ATOM     54  C   UNL A   1      39.983  27.898  27.731  1.00  0.00     0.031 C 
ATOM     55  C   UNL A   1      37.857  31.958  32.883  1.00  0.00     0.029 A 
ATOM     56  C   UNL A   1      39.070  31.189  33.141  1.00  0.00     0.049 A 
ATOM     57  H   UNL A   1      40.088  29.945  31.817  1.00  0.00     0.167 HD
ATOM     58  C   UNL A   1      41.951  27.135  29.034  1.00  0.00     0.037 A 
ATOM     59  C   UNL A   1      39.742  31.164  34.308  1.00  0.00     0.037 A 
ATOM     60  C   UNL A   1      42.796  27.131  30.199  1.00  0.00     0.049 A 
ATOM     61  C   UNL A   1      40.972  30.307  34.429  1.00  0.00     0.074 A 
ATOM     62  C   UNL A   1      43.998  26.470  30.391  1.00  0.00     0.029 A 
ATOM     63  N   UNL A   1      42.524  27.813  31.376  1.00  0.00    -0.354 N 
ATOM     64  N   UNL A   1      41.534  29.536  33.530  1.00  0.00    -0.248 NA
ATOM     65  C   UNL A   1      41.659  30.315  35.728  1.00  0.00     0.031 C 
ATOM     66  C   UNL A   1      44.427  26.712  31.701  1.00  0.00     0.029 A 
ATOM     67  C   UNL A   1      43.517  27.561  32.310  1.00  0.00     0.049 A 
ATOM     68  H   UNL A   1      41.741  28.392  31.525  1.00  0.00     0.167 HD
ATOM     69  C   UNL A   1      42.645  28.980  34.148  1.00  0.00     0.074 A 
ATOM     70  C   UNL A   1      42.693  29.520  35.490  1.00  0.00     0.031 C 
ATOM     71  C   UNL A   1      43.545  28.098  33.647  1.00  0.00     0.037 A 
BRANCH  58  72
ATOM     72  C   UNL A   1      42.338  26.259  27.878  1.00  0.00     0.064 A 
ATOM     73  C   UNL A   1      41.811  24.968  27.726  1.00  0.00     0.173 A 
ATOM     74  C   UNL A   1      43.208  26.734  26.885  1.00  0.00     0.173 A 
ATOM     75  F   UNL A   1      40.982  24.463  28.653  1.00  0.00    -0.203 F 
ATOM     76  C   UNL A   1      42.159  24.175  26.635  1.00  0.00     0.198 A 
ATOM     77  C   UNL A   1      43.532  25.950  25.781  1.00  0.00     0.198 A 
ATOM     78  F   UNL A   1      43.735  27.964  26.979  1.00  0.00    -0.203 F 
ATOM     79  F   UNL A   1      41.676  22.929  26.533  1.00  0.00    -0.200 F 
ATOM     80  C   UNL A   1      43.013  24.670  25.660  1.00  0.00     0.200 A 
ATOM     81  F   UNL A   1      44.347  26.434  24.833  1.00  0.00    -0.200 F 
ATOM     82  F   UNL A   1      43.340  23.910  24.606  1.00  0.00    -0.200 F 
ENDBRANCH  58  72
BRANCH  59  83
ATOM     83  C   UNL A   1      39.265  31.977  35.457  1.00  0.00     0.064 A 
ATOM     84  C   UNL A   1      39.632  33.324  35.585  1.00  0.00     0.173 A 
ATOM     85  C   UNL A   1      38.440  31.428  36.448  1.00  0.00     0.173 A 
ATOM     86  F   UNL A   1      40.439  33.887  34.674  1.00  0.00    -0.203 F 
ATOM     87  C   UNL A   1      39.204  34.085  36.671  1.00  0.00     0.198 A 
ATOM     88  C   UNL A   1      37.990  32.198  37.519  1.00  0.00     0.198 A 
ATOM     89  F   UNL A   1      38.060  30.144  36.371  1.00  0.00    -0.203 F 
ATOM     90  F   UNL A   1      39.606  35.358  36.792  1.00  0.00    -0.200 F 
ATOM     91  C   UNL A   1      38.379  33.524  37.633  1.00  0.00     0.200 A 
ATOM     92  F   UNL A   1      37.182  31.654  38.440  1.00  0.00    -0.200 F 
ATOM     93  F   UNL A   1      37.965  34.258  38.675  1.00  0.00    -0.200 F 
ENDBRANCH  59  83
BRANCH  71  94
ATOM     94  C   UNL A   1      44.660  27.666  34.554  1.00  0.00     0.064 A 
ATOM     95  C   UNL A   1      44.543  26.528  35.364  1.00  0.00     0.173 A 
ATOM     96  C   UNL A   1      45.869  28.376  34.587  1.00  0.00     0.173 A 
ATOM     97  F   UNL A   1      43.400  25.826  35.382  1.00  0.00    -0.203 F 
ATOM     98  C   UNL A   1      45.590  26.128  36.191  1.00  0.00     0.198 A 
ATOM     99  C   UNL A   1      46.924  27.958  35.393  1.00  0.00     0.198 A 
ATOM    100  F   UNL A   1      46.033  29.469  33.826  1.00  0.00    -0.203 F 
ATOM    101  F   UNL A   1      45.439  25.064  36.992  1.00  0.00    -0.200 F 
ATOM    102  C   UNL A   1      46.781  26.838  36.199  1.00  0.00     0.200 A 
ATOM    103  F   UNL A   1      48.078  28.638  35.390  1.00  0.00    -0.200 F 
ATOM    104  F   UNL A   1      47.790  26.448  36.990  1.00  0.00    -0.200 F 
ENDBRANCH  71  94
ENDBRANCH  45  46
ENDBRANCH  37  40
ENDBRANCH  35  36
ENDBRANCH  34  35
ENDBRANCH  33  34
ENDBRANCH   1  33
TORSDOF 17
ENDMDL
MODEL 2
REMARK VINA RESULT:     -13.9      0.628      6.953
REMARK SMILES C[N@H+]1[C@H](C(=O)NCCCCNC(=O)c2ccc(-c3c4nc(c(-c5c(F)c(F)c(F)c(F)c5F)c5ccc([nH]5)c(-c5c(F)c(F)c(F)c(F)c5F)c5nc(c(-c6c(F)c(F)c(F)c(F)c6F)c6ccc3[nH]6)C=C5)C=C4)cc2)C[C@H](C(=O)NCC2(CO)CCCC2)[C@@H]1c1ccccc1F
REMARK SMILES IDX 7 1 6 2 4 3 5 4 3 6 1 7 2 8 90 9 77 11 78 12 91 13 92 14
REMARK SMILES IDX 96 15 93 16 95 17 97 18 94 19 79 20 80 21 81 22 82 24 83 25
REMARK SMILES IDX 86 26 89 27 87 28 88 29 84 30 85 31 8 33 9 34 10 35 11 36
REMARK SMILES IDX 12 37 13 39 14 40 15 41 76 42 16 43 75 44 17 45 18 46 19 47
REMARK SMILES IDX 69 48 20 49 74 50 68 51 70 52 21 53 73 54 67 55 66 56 22 58
REMARK SMILES IDX 54 59 34 60 53 61 35 62 38 63 52 64 71 65 36 66 37 67 51 69
REMARK SMILES IDX 72 70 39 71 23 72 24 73 32 74 25 75 26 76 30 77 33 78 27 79
REMARK SMILES IDX 28 80 31 81 29 82 55 83 56 84 64 85 57 86 58 87 62 88 65 89
REMARK SMILES IDX 59 90 60 91 63 92 61 93 40 94 41 95 49 96 42 97 43 98 47 99
REMARK SMILES IDX 50 100 44 101 45 102 48 103 46 104
REMARK H PARENT 6 5 2 10 81 23 85 32 11 38 70 57 38 68
REMARK Flexibility Score: inf
ROOT
ATOM      1  C   UNL A   1      30.420  28.302  23.456  1.00  0.00     0.116 C 
ENDROOT
BRANCH   1   2
ATOM      2  N   UNL A   1      29.956  27.413  24.500  1.00  0.00    -0.351 N 
ATOM      3  C   UNL A   1      30.235  26.087  24.674  1.00  0.00     0.278 C 
ATOM      4  O   UNL A   1      29.743  25.523  25.658  1.00  0.00    -0.268 OA
ATOM      5  H   UNL A   1      29.362  27.817  25.173  1.00  0.00     0.163 HD
BRANCH   3   6
ATOM      6  C   UNL A   1      31.184  25.318  23.733  1.00  0.00     0.275 C 
ATOM      7  C   UNL A   1      33.280  26.520  23.871  1.00  0.00     0.333 C 
ATOM      8  N   UNL A   1      32.575  25.291  24.227  1.00  0.00    -0.320 N 
ATOM      9  C   UNL A   1      33.182  24.060  23.682  1.00  0.00     0.231 C 
ATOM     10  H   UNL A   1      32.627  25.263  25.245  1.00  0.00     0.349 HD
ATOM     11  C   UNL A   1      30.775  23.863  23.536  1.00  0.00     0.095 C 
ATOM     12  C   UNL A   1      32.039  23.012  23.746  1.00  0.00     0.148 C 
BRANCH   9  13
ATOM     13  C   UNL A   1      34.502  23.589  24.258  1.00  0.00     0.046 A 
ATOM     14  C   UNL A   1      35.335  22.794  23.443  1.00  0.00     0.013 A 
ATOM     15  C   UNL A   1      34.913  23.810  25.580  1.00  0.00     0.132 A 
ATOM     16  C   UNL A   1      36.511  22.228  23.944  1.00  0.00     0.001 A 
ATOM     17  C   UNL A   1      36.093  23.257  26.078  1.00  0.00     0.040 A 
ATOM     18  F   UNL A   1      34.173  24.540  26.427  1.00  0.00    -0.206 F 
ATOM     19  C   UNL A   1      36.888  22.457  25.263  1.00  0.00     0.003 A 
ENDBRANCH   9  13
BRANCH  12  20
ATOM     20  C   UNL A   1      31.938  22.135  25.010  1.00  0.00     0.229 C 
ATOM     21  O   UNL A   1      31.716  22.560  26.143  1.00  0.00    -0.275 OA
ATOM     22  N   UNL A   1      32.119  20.787  24.903  1.00  0.00    -0.355 N 
ATOM     23  H   UNL A   1      31.971  20.281  25.735  1.00  0.00     0.163 HD
BRANCH  22  24
ATOM     24  C   UNL A   1      32.494  19.984  23.761  1.00  0.00     0.125 C 
BRANCH  24  25
ATOM     25  C   UNL A   1      33.043  18.605  24.165  1.00  0.00     0.011 C 
ATOM     26  C   UNL A   1      33.082  17.681  22.938  1.00  0.00     0.011 C 
ATOM     27  C   UNL A   1      34.532  18.667  24.551  1.00  0.00     0.011 C 
ATOM     28  C   UNL A   1      34.136  16.630  23.260  1.00  0.00     0.001 C 
ATOM     29  C   UNL A   1      35.077  17.269  24.278  1.00  0.00     0.001 C 
BRANCH  25  30
ATOM     30  C   UNL A   1      32.180  17.988  25.288  1.00  0.00     0.164 C 
BRANCH  30  31
ATOM     31  O   UNL A   1      32.636  18.394  26.574  1.00  0.00    -0.396 OA
ATOM     32  H   UNL A   1      33.034  17.637  27.030  1.00  0.00     0.210 HD
ENDBRANCH  30  31
ENDBRANCH  25  30
ENDBRANCH  24  25
ENDBRANCH  22  24
ENDBRANCH  12  20
ENDBRANCH   3   6
ENDBRANCH   1   2
BRANCH   1  33
ATOM     33  C   UNL A   1      31.308  29.429  23.959  1.00  0.00     0.023 C 
BRANCH  33  34
ATOM     34  C   UNL A   1      31.490  29.466  25.471  1.00  0.00     0.023 C 
BRANCH  34  35
ATOM     35  C   UNL A   1      32.791  30.095  25.953  1.00  0.00     0.116 C 
BRANCH  35  36
ATOM     36  N   UNL A   1      32.623  31.429  26.514  1.00  0.00    -0.352 N 
ATOM     37  C   UNL A   1      33.431  32.114  27.391  1.00  0.00     0.251 C 
ATOM     38  H   UNL A   1      31.813  31.909  26.224  1.00  0.00     0.163 HD
ATOM     39  O   UNL A   1      33.089  33.199  27.849  1.00  0.00    -0.269 OA
BRANCH  37  40
ATOM     40  C   UNL A   1      34.707  31.508  27.825  1.00  0.00     0.039 A 
ATOM     41  C   UNL A   1      35.823  32.335  27.976  1.00  0.00     0.014 A 
ATOM     42  C   UNL A   1      34.783  30.150  28.143  1.00  0.00     0.014 A 
ATOM     43  C   UNL A   1      36.987  31.821  28.553  1.00  0.00     0.010 A 
ATOM     44  C   UNL A   1      35.917  29.658  28.784  1.00  0.00     0.010 A 
ATOM     45  C   UNL A   1      37.019  30.495  29.018  1.00  0.00    -0.014 A 
BRANCH  45  46
ATOM     46  C   UNL A   1      38.164  29.987  29.814  1.00  0.00     0.031 A 
ATOM     47  C   UNL A   1      38.402  30.483  31.210  1.00  0.00     0.074 A 
ATOM     48  C   UNL A   1      39.044  29.146  29.236  1.00  0.00     0.049 A 
ATOM     49  N   UNL A   1      39.403  30.233  32.016  1.00  0.00    -0.248 NA
ATOM     50  C   UNL A   1      37.395  31.400  31.766  1.00  0.00     0.031 C 
ATOM     51  C   UNL A   1      38.951  28.632  27.869  1.00  0.00     0.029 A 
ATOM     52  N   UNL A   1      40.204  28.591  29.718  1.00  0.00    -0.354 N 
ATOM     53  C   UNL A   1      39.153  30.968  33.167  1.00  0.00     0.074 A 
ATOM     54  C   UNL A   1      37.929  31.708  32.939  1.00  0.00     0.031 C 
ATOM     55  C   UNL A   1      39.998  27.829  27.627  1.00  0.00     0.029 A 
ATOM     56  C   UNL A   1      40.861  27.805  28.802  1.00  0.00     0.049 A 
ATOM     57  H   UNL A   1      40.534  28.742  30.633  1.00  0.00     0.167 HD
ATOM     58  C   UNL A   1      39.870  31.005  34.315  1.00  0.00     0.037 A 
ATOM     59  C   UNL A   1      42.037  27.155  28.892  1.00  0.00     0.037 A 
ATOM     60  C   UNL A   1      41.077  30.254  34.544  1.00  0.00     0.049 A 
ATOM     61  C   UNL A   1      42.826  27.236  30.170  1.00  0.00     0.074 A 
ATOM     62  C   UNL A   1      41.831  30.166  35.702  1.00  0.00     0.029 A 
ATOM     63  N   UNL A   1      41.711  29.468  33.594  1.00  0.00    -0.354 N 
ATOM     64  N   UNL A   1      42.541  27.874  31.279  1.00  0.00    -0.248 NA
ATOM     65  C   UNL A   1      44.104  26.512  30.205  1.00  0.00     0.031 C 
ATOM     66  C   UNL A   1      42.950  29.369  35.436  1.00  0.00     0.029 A 
ATOM     67  C   UNL A   1      42.868  28.921  34.127  1.00  0.00     0.049 A 
ATOM     68  H   UNL A   1      41.388  29.321  32.675  1.00  0.00     0.167 HD
ATOM     69  C   UNL A   1      43.591  27.615  32.147  1.00  0.00     0.074 A 
ATOM     70  C   UNL A   1      44.510  26.744  31.445  1.00  0.00     0.031 C 
ATOM     71  C   UNL A   1      43.779  28.063  33.413  1.00  0.00     0.037 A 
BRANCH  58  72
ATOM     72  C   UNL A   1      39.369  31.889  35.419  1.00  0.00     0.064 A 
ATOM     73  C   UNL A   1      38.499  31.408  36.408  1.00  0.00     0.173 A 
ATOM     74  C   UNL A   1      39.801  33.221  35.516  1.00  0.00     0.173 A 
ATOM     75  F   UNL A   1      38.049  30.146  36.356  1.00  0.00    -0.203 F 
ATOM     76  C   UNL A   1      38.061  32.234  37.441  1.00  0.00     0.198 A 
ATOM     77  C   UNL A   1      39.384  34.035  36.565  1.00  0.00     0.198 A 
ATOM     78  F   UNL A   1      40.638  33.729  34.598  1.00  0.00    -0.203 F 
ATOM     79  F   UNL A   1      37.197  31.764  38.352  1.00  0.00    -0.200 F 
ATOM     80  C   UNL A   1      38.511  33.544  37.523  1.00  0.00     0.200 A 
ATOM     81  F   UNL A   1      39.828  35.297  36.650  1.00  0.00    -0.200 F 
ATOM     82  F   UNL A   1      38.096  34.334  38.523  1.00  0.00    -0.200 F 
ENDBRANCH  58  72
BRANCH  59  83
ATOM     83  C   UNL A   1      42.538  26.367  27.736  1.00  0.00     0.064 A 
ATOM     84  C   UNL A   1      43.434  26.931  26.817  1.00  0.00     0.173 A 
ATOM     85  C   UNL A   1      42.130  25.043  27.522  1.00  0.00     0.173 A 
ATOM     86  F   UNL A   1      43.834  28.202  26.966  1.00  0.00    -0.203 F 
ATOM     87  C   UNL A   1      43.890  26.204  25.719  1.00  0.00     0.198 A 
ATOM     88  C   UNL A   1      42.609  24.308  26.440  1.00  0.00     0.198 A 
ATOM     89  F   UNL A   1      41.274  24.458  28.373  1.00  0.00    -0.203 F 
ATOM     90  F   UNL A   1      44.712  26.781  24.832  1.00  0.00    -0.200 F 
ATOM     91  C   UNL A   1      43.482  24.891  25.535  1.00  0.00     0.200 A 
ATOM     92  F   UNL A   1      42.222  23.035  26.272  1.00  0.00    -0.200 F 
ATOM     93  F   UNL A   1      43.925  24.192  24.481  1.00  0.00    -0.200 F 
ENDBRANCH  59  83
BRANCH  71  94
ATOM     94  C   UNL A   1      45.023  27.614  34.122  1.00  0.00     0.064 A 
ATOM     95  C   UNL A   1      45.054  26.417  34.853  1.00  0.00     0.173 A 
ATOM     96  C   UNL A   1      46.203  28.368  34.042  1.00  0.00     0.173 A 
ATOM     97  F   UNL A   1      43.947  25.670  34.974  1.00  0.00    -0.203 F 
ATOM     98  C   UNL A   1      46.219  26.002  35.495  1.00  0.00     0.198 A 
ATOM     99  C   UNL A   1      47.372  27.936  34.662  1.00  0.00     0.198 A 
ATOM    100  F   UNL A   1      46.225  29.518  33.352  1.00  0.00    -0.203 F 
ATOM    101  F   UNL A   1      46.214  24.878  36.225  1.00  0.00    -0.200 F 
ATOM    102  C   UNL A   1      47.378  26.757  35.393  1.00  0.00     0.200 A 
ATOM    103  F   UNL A   1      48.494  28.660  34.552  1.00  0.00    -0.200 F 
ATOM    104  F   UNL A   1      48.499  26.353  36.006  1.00  0.00    -0.200 F 
ENDBRANCH  71  94
ENDBRANCH  45  46
ENDBRANCH  37  40
ENDBRANCH  35  36
ENDBRANCH  34  35
ENDBRANCH  33  34
ENDBRANCH   1  33
TORSDOF 17
ENDMDL
MODEL 3
REMARK VINA RESULT:     -13.7      4.161      9.810
REMARK SMILES C[N@H+]1[C@H](C(=O)NCCCCNC(=O)c2ccc(-c3c4nc(c(-c5c(F)c(F)c(F)c(F)c5F)c5ccc([nH]5)c(-c5c(F)c(F)c(F)c(F)c5F)c5nc(c(-c6c(F)c(F)c(F)c(F)c6F)c6ccc3[nH]6)C=C5)C=C4)cc2)C[C@H](C(=O)NCC2(CO)CCCC2)[C@@H]1c1ccccc1F
REMARK SMILES IDX 7 1 6 2 4 3 5 4 3 6 1 7 2 8 90 9 77 11 78 12 91 13 92 14
REMARK SMILES IDX 96 15 93 16 95 17 97 18 94 19 79 20 80 21 81 22 82 24 83 25
REMARK SMILES IDX 86 26 89 27 87 28 88 29 84 30 85 31 8 33 9 34 10 35 11 36
REMARK SMILES IDX 12 37 13 39 14 40 15 41 76 42 16 43 75 44 17 45 18 46 19 47
REMARK SMILES IDX 69 48 20 49 74 50 68 51 70 52 21 53 73 54 67 55 66 56 22 58
REMARK SMILES IDX 54 59 34 60 53 61 35 62 38 63 52 64 71 65 36 66 37 67 51 69
REMARK SMILES IDX 72 70 39 71 23 72 24 73 32 74 25 75 26 76 30 77 33 78 27 79
REMARK SMILES IDX 28 80 31 81 29 82 55 83 56 84 64 85 57 86 58 87 62 88 65 89
REMARK SMILES IDX 59 90 60 91 63 92 61 93 40 94 41 95 49 96 42 97 43 98 47 99
REMARK SMILES IDX 50 100 44 101 45 102 48 103 46 104
REMARK H PARENT 6 5 2 10 81 23 85 32 11 38 70 57 38 68
REMARK Flexibility Score: inf
ROOT
ATOM      1  C   UNL A   1      34.507  23.885  23.338  1.00  0.00     0.116 C 
ENDROOT
BRANCH   1   2
ATOM      2  N   UNL A   1      33.818  22.661  22.987  1.00  0.00    -0.351 N 
ATOM      3  C   UNL A   1      32.577  22.242  23.377  1.00  0.00     0.278 C 
ATOM      4  O   UNL A   1      32.174  21.160  22.935  1.00  0.00    -0.268 OA
ATOM      5  H   UNL A   1      34.307  22.052  22.388  1.00  0.00     0.163 HD
BRANCH   3   6
ATOM      6  C   UNL A   1      31.667  23.101  24.277  1.00  0.00     0.275 C 
ATOM      7  C   UNL A   1      32.921  23.370  26.329  1.00  0.00     0.333 C 
ATOM      8  N   UNL A   1      32.428  24.038  25.126  1.00  0.00    -0.320 N 
ATOM      9  C   UNL A   1      31.530  25.181  25.386  1.00  0.00     0.231 C 
ATOM     10  H   UNL A   1      33.275  24.379  24.670  1.00  0.00     0.349 HD
ATOM     11  C   UNL A   1      30.682  23.953  23.483  1.00  0.00     0.095 C 
ATOM     12  C   UNL A   1      30.770  25.380  24.049  1.00  0.00     0.148 C 
BRANCH   9  13
ATOM     13  C   UNL A   1      32.124  26.448  25.969  1.00  0.00     0.046 A 
ATOM     14  C   UNL A   1      31.265  27.320  26.672  1.00  0.00     0.013 A 
ATOM     15  C   UNL A   1      33.449  26.861  25.779  1.00  0.00     0.132 A 
ATOM     16  C   UNL A   1      31.714  28.559  27.136  1.00  0.00     0.001 A 
ATOM     17  C   UNL A   1      33.904  28.092  26.254  1.00  0.00     0.040 A 
ATOM     18  F   UNL A   1      34.327  26.101  25.109  1.00  0.00    -0.206 F 
ATOM     19  C   UNL A   1      33.033  28.947  26.924  1.00  0.00     0.003 A 
ENDBRANCH   9  13
BRANCH  12  20
ATOM     20  C   UNL A   1      31.364  26.368  23.025  1.00  0.00     0.229 C 
ATOM     21  O   UNL A   1      32.473  26.258  22.505  1.00  0.00    -0.275 OA
ATOM     22  N   UNL A   1      30.640  27.465  22.660  1.00  0.00    -0.355 N 
ATOM     23  H   UNL A   1      31.048  28.015  21.951  1.00  0.00     0.163 HD
BRANCH  22  24
ATOM     24  C   UNL A   1      29.368  27.950  23.148  1.00  0.00     0.125 C 
BRANCH  24  25
ATOM     25  C   UNL A   1      29.186  29.459  22.922  1.00  0.00     0.011 C 
ATOM     26  C   UNL A   1      27.700  29.831  23.058  1.00  0.00     0.011 C 
ATOM     27  C   UNL A   1      29.815  30.292  24.053  1.00  0.00     0.011 C 
ATOM     28  C   UNL A   1      27.688  31.311  23.415  1.00  0.00     0.001 C 
ATOM     29  C   UNL A   1      29.034  31.603  24.071  1.00  0.00     0.001 C 
BRANCH  25  30
ATOM     30  C   UNL A   1      29.727  29.868  21.534  1.00  0.00     0.164 C 
BRANCH  30  31
ATOM     31  O   UNL A   1      31.141  30.031  21.557  1.00  0.00    -0.396 OA
ATOM     32  H   UNL A   1      31.479  30.055  20.649  1.00  0.00     0.210 HD
ENDBRANCH  30  31
ENDBRANCH  25  30
ENDBRANCH  24  25
ENDBRANCH  22  24
ENDBRANCH  12  20
ENDBRANCH   3   6
ENDBRANCH   1   2
BRANCH   1  33
ATOM     33  C   UNL A   1      35.961  23.680  23.731  1.00  0.00     0.023 C 
BRANCH  33  34
ATOM     34  C   UNL A   1      36.343  22.233  24.014  1.00  0.00     0.023 C 
BRANCH  34  35
ATOM     35  C   UNL A   1      36.812  21.951  25.436  1.00  0.00     0.116 C 
BRANCH  35  36
ATOM     36  N   UNL A   1      37.870  20.952  25.515  1.00  0.00    -0.352 N 
ATOM     37  C   UNL A   1      39.149  21.076  26.004  1.00  0.00     0.251 C 
ATOM     38  H   UNL A   1      37.636  20.062  25.167  1.00  0.00     0.163 HD
ATOM     39  O   UNL A   1      39.956  20.157  25.902  1.00  0.00    -0.269 OA
BRANCH  37  40
ATOM     40  C   UNL A   1      39.571  22.352  26.618  1.00  0.00     0.039 A 
ATOM     41  C   UNL A   1      40.545  22.325  27.619  1.00  0.00     0.014 A 
ATOM     42  C   UNL A   1      39.058  23.569  26.163  1.00  0.00     0.014 A 
ATOM     43  C   UNL A   1      41.087  23.524  28.086  1.00  0.00     0.010 A 
ATOM     44  C   UNL A   1      39.648  24.760  26.576  1.00  0.00     0.010 A 
ATOM     45  C   UNL A   1      40.685  24.747  27.522  1.00  0.00    -0.014 A 
BRANCH  45  46
ATOM     46  C   UNL A   1      41.386  26.013  27.852  1.00  0.00     0.031 A 
ATOM     47  C   UNL A   1      40.661  27.129  28.544  1.00  0.00     0.074 A 
ATOM     48  C   UNL A   1      42.657  26.188  27.438  1.00  0.00     0.049 A 
ATOM     49  N   UNL A   1      41.076  28.340  28.819  1.00  0.00    -0.248 NA
ATOM     50  C   UNL A   1      39.276  26.858  28.960  1.00  0.00     0.031 C 
ATOM     51  C   UNL A   1      43.454  25.198  26.711  1.00  0.00     0.029 A 
ATOM     52  N   UNL A   1      43.497  27.269  27.550  1.00  0.00    -0.354 N 
ATOM     53  C   UNL A   1      40.004  28.977  29.430  1.00  0.00     0.074 A 
ATOM     54  C   UNL A   1      38.905  28.034  29.445  1.00  0.00     0.031 C 
ATOM     55  C   UNL A   1      44.668  25.710  26.456  1.00  0.00     0.029 A 
ATOM     56  C   UNL A   1      44.722  27.078  26.957  1.00  0.00     0.049 A 
ATOM     57  H   UNL A   1      43.245  28.101  28.011  1.00  0.00     0.167 HD
ATOM     58  C   UNL A   1      39.951  30.228  29.947  1.00  0.00     0.037 A 
ATOM     59  C   UNL A   1      45.765  27.919  26.816  1.00  0.00     0.037 A 
ATOM     60  C   UNL A   1      41.052  31.155  29.945  1.00  0.00     0.049 A 
ATOM     61  C   UNL A   1      45.667  29.312  27.375  1.00  0.00     0.074 A 
ATOM     62  C   UNL A   1      41.118  32.416  30.513  1.00  0.00     0.029 A 
ATOM     63  N   UNL A   1      42.277  30.927  29.336  1.00  0.00    -0.354 N 
ATOM     64  N   UNL A   1      44.675  29.877  28.019  1.00  0.00    -0.248 NA
ATOM     65  C   UNL A   1      46.834  30.184  27.184  1.00  0.00     0.031 C 
ATOM     66  C   UNL A   1      42.365  32.971  30.205  1.00  0.00     0.029 A 
ATOM     67  C   UNL A   1      43.094  32.038  29.484  1.00  0.00     0.049 A 
ATOM     68  H   UNL A   1      42.530  30.098  28.868  1.00  0.00     0.167 HD
ATOM     69  C   UNL A   1      45.102  31.161  28.322  1.00  0.00     0.074 A 
ATOM     70  C   UNL A   1      46.451  31.286  27.813  1.00  0.00     0.031 C 
ATOM     71  C   UNL A   1      44.432  32.151  28.963  1.00  0.00     0.037 A 
BRANCH  58  72
ATOM     72  C   UNL A   1      38.655  30.670  30.561  1.00  0.00     0.064 A 
ATOM     73  C   UNL A   1      38.449  30.631  31.948  1.00  0.00     0.173 A 
ATOM     74  C   UNL A   1      37.626  31.186  29.758  1.00  0.00     0.173 A 
ATOM     75  F   UNL A   1      39.397  30.138  32.759  1.00  0.00    -0.203 F 
ATOM     76  C   UNL A   1      37.250  31.068  32.507  1.00  0.00     0.198 A 
ATOM     77  C   UNL A   1      36.441  31.648  30.323  1.00  0.00     0.198 A 
ATOM     78  F   UNL A   1      37.775  31.250  28.427  1.00  0.00    -0.203 F 
ATOM     79  F   UNL A   1      37.059  30.982  33.831  1.00  0.00    -0.200 F 
ATOM     80  C   UNL A   1      36.251  31.584  31.694  1.00  0.00     0.200 A 
ATOM     81  F   UNL A   1      35.480  32.157  29.538  1.00  0.00    -0.200 F 
ATOM     82  F   UNL A   1      35.102  32.013  32.234  1.00  0.00    -0.200 F 
ENDBRANCH  58  72
BRANCH  59  83
ATOM     83  C   UNL A   1      46.994  27.464  26.115  1.00  0.00     0.064 A 
ATOM     84  C   UNL A   1      48.060  26.897  26.827  1.00  0.00     0.173 A 
ATOM     85  C   UNL A   1      47.130  27.590  24.725  1.00  0.00     0.173 A 
ATOM     86  F   UNL A   1      47.985  26.779  28.160  1.00  0.00    -0.203 F 
ATOM     87  C   UNL A   1      49.222  26.489  26.177  1.00  0.00     0.198 A 
ATOM     88  C   UNL A   1      48.281  27.155  24.072  1.00  0.00     0.198 A 
ATOM     89  F   UNL A   1      46.138  28.125  23.998  1.00  0.00    -0.203 F 
ATOM     90  F   UNL A   1      50.244  25.991  26.887  1.00  0.00    -0.200 F 
ATOM     91  C   UNL A   1      49.329  26.612  24.800  1.00  0.00     0.200 A 
ATOM     92  F   UNL A   1      48.376  27.264  22.740  1.00  0.00    -0.200 F 
ATOM     93  F   UNL A   1      50.446  26.215  24.175  1.00  0.00    -0.200 F 
ENDBRANCH  59  83
BRANCH  71  94
ATOM     94  C   UNL A   1      45.152  33.454  29.155  1.00  0.00     0.064 A 
ATOM     95  C   UNL A   1      45.034  34.497  28.226  1.00  0.00     0.173 A 
ATOM     96  C   UNL A   1      45.940  33.673  30.295  1.00  0.00     0.173 A 
ATOM     97  F   UNL A   1      44.307  34.330  27.111  1.00  0.00    -0.203 F 
ATOM     98  C   UNL A   1      45.696  35.708  28.422  1.00  0.00     0.198 A 
ATOM     99  C   UNL A   1      46.577  34.893  30.502  1.00  0.00     0.198 A 
ATOM    100  F   UNL A   1      46.082  32.707  31.215  1.00  0.00    -0.203 F 
ATOM    101  F   UNL A   1      45.605  36.675  27.499  1.00  0.00    -0.200 F 
ATOM    102  C   UNL A   1      46.459  35.907  29.562  1.00  0.00     0.200 A 
ATOM    103  F   UNL A   1      47.305  35.088  31.609  1.00  0.00    -0.200 F 
ATOM    104  F   UNL A   1      47.090  37.074  29.752  1.00  0.00    -0.200 F 
ENDBRANCH  71  94
ENDBRANCH  45  46
ENDBRANCH  37  40
ENDBRANCH  35  36
ENDBRANCH  34  35
ENDBRANCH  33  34
ENDBRANCH   1  33
TORSDOF 17
ENDMDL
