MODEL 1
REMARK VINA RESULT:     -10.9      0.000      0.000
REMARK SMILES COCCOc1ccc([C@H]([NH3+])C(=O)NCCCCNC(=O)c2ccc(-c3c4nc(c(-c5c(F)c(F)c(F)c(F)c5F)c5ccc([nH]5)c(-c5c(F)c(F)c(F)c(F)c5F)c5nc(c(-c6c(F)c(F)c(F)c(F)c6F)c6ccc3[nH]6)C=C5)C=C4)cc2)cc1OC
REMARK SMILES IDX 15 1 14 2 12 3 13 4 10 6 9 7 6 8 7 9 86 10 8 11 85 12 5 13
REMARK SMILES IDX 4 14 3 15 2 16 1 17 87 18 88 19 11 20 16 24 17 25 18 26
REMARK SMILES IDX 19 27 20 28 21 30 22 31 23 32 84 33 24 34 83 35 25 36 26 37
REMARK SMILES IDX 27 38 77 39 28 40 82 41 76 42 78 43 29 44 81 45 75 46 74 47
REMARK SMILES IDX 30 49 62 50 42 51 61 52 43 53 46 54 60 55 79 56 44 57 45 58
REMARK SMILES IDX 59 60 80 61 47 62 31 63 32 64 40 65 33 66 34 67 38 68 41 69
REMARK SMILES IDX 35 70 36 71 39 72 37 73 63 74 64 75 72 76 65 77 66 78 70 79
REMARK SMILES IDX 73 80 67 81 68 82 71 83 69 84 48 85 49 86 57 87 50 88 51 89
REMARK SMILES IDX 55 90 58 91 52 92 53 93 56 94 54 95
REMARK H PARENT 14 5 11 21 11 22 11 23 19 29 78 48 46 59
REMARK Flexibility Score: inf
ROOT
ATOM      1  C   UNL A   1      37.009  22.077  25.461  1.00  0.00     0.116 C 
ENDROOT
BRANCH   1   2
ATOM      2  N   UNL A   1      36.129  22.497  26.540  1.00  0.00    -0.351 N 
ATOM      3  C   UNL A   1      34.791  22.807  26.508  1.00  0.00     0.283 C 
ATOM      4  O   UNL A   1      34.202  22.876  27.590  1.00  0.00    -0.268 OA
ATOM      5  H   UNL A   1      36.555  22.571  27.424  1.00  0.00     0.163 HD
BRANCH   3   6
ATOM      6  C   UNL A   1      34.070  23.108  25.168  1.00  0.00     0.302 C 
BRANCH   6   7
ATOM      7  C   UNL A   1      34.048  24.563  24.713  1.00  0.00     0.023 A 
ATOM      8  C   UNL A   1      33.510  27.158  23.754  1.00  0.00     0.161 A 
ATOM      9  C   UNL A   1      33.673  26.934  25.121  1.00  0.00     0.051 A 
ATOM     10  C   UNL A   1      33.743  26.114  22.859  1.00  0.00     0.161 A 
ATOM     11  C   UNL A   1      34.005  25.658  25.588  1.00  0.00     0.014 A 
ATOM     12  C   UNL A   1      33.987  24.826  23.333  1.00  0.00     0.061 A 
BRANCH   8  13
ATOM     13  O   UNL A   1      33.041  28.343  23.260  1.00  0.00    -0.487 OA
BRANCH  13  14
ATOM     14  C   UNL A   1      31.829  28.807  23.862  1.00  0.00     0.258 C 
BRANCH  14  15
ATOM     15  C   UNL A   1      30.596  28.124  23.254  1.00  0.00     0.201 C 
BRANCH  15  16
ATOM     16  O   UNL A   1      30.214  28.600  21.963  1.00  0.00    -0.381 OA
ATOM     17  C   UNL A   1      29.747  29.937  21.908  1.00  0.00     0.195 C 
ENDBRANCH  15  16
ENDBRANCH  14  15
ENDBRANCH  13  14
ENDBRANCH   8  13
BRANCH  10  18
ATOM     18  O   UNL A   1      33.650  26.323  21.509  1.00  0.00    -0.493 OA
ATOM     19  C   UNL A   1      32.552  25.593  20.952  1.00  0.00     0.278 C 
ENDBRANCH  10  18
ENDBRANCH   6   7
BRANCH   6  20
ATOM     20  N   UNL A   1      32.698  22.531  25.224  1.00  0.00    -0.343 N 
ATOM     21  H   UNL A   1      32.168  22.986  25.967  1.00  0.00     0.345 HD
ATOM     22  H   UNL A   1      32.757  21.530  25.411  1.00  0.00     0.345 HD
ATOM     23  H   UNL A   1      32.229  22.682  24.330  1.00  0.00     0.345 HD
ENDBRANCH   6  20
ENDBRANCH   3   6
ENDBRANCH   1   2
BRANCH   1  24
ATOM     24  C   UNL A   1      36.802  20.625  25.050  1.00  0.00     0.023 C 
BRANCH  24  25
ATOM     25  C   UNL A   1      38.086  19.815  24.872  1.00  0.00     0.023 C 
BRANCH  25  26
ATOM     26  C   UNL A   1      39.233  20.180  25.809  1.00  0.00     0.116 C 
BRANCH  26  27
ATOM     27  N   UNL A   1      40.262  19.153  25.887  1.00  0.00    -0.352 N 
ATOM     28  C   UNL A   1      41.608  19.281  26.129  1.00  0.00     0.251 C 
ATOM     29  H   UNL A   1      39.946  18.231  25.743  1.00  0.00     0.163 HD
ATOM     30  O   UNL A   1      42.352  18.309  26.023  1.00  0.00    -0.269 OA
BRANCH  28  31
ATOM     31  C   UNL A   1      42.170  20.600  26.486  1.00  0.00     0.039 A 
ATOM     32  C   UNL A   1      42.583  21.458  25.463  1.00  0.00     0.014 A 
ATOM     33  C   UNL A   1      42.269  21.000  27.821  1.00  0.00     0.014 A 
ATOM     34  C   UNL A   1      43.018  22.748  25.776  1.00  0.00     0.010 A 
ATOM     35  C   UNL A   1      42.622  22.313  28.124  1.00  0.00     0.010 A 
ATOM     36  C   UNL A   1      42.999  23.201  27.106  1.00  0.00    -0.014 A 
BRANCH  36  37
ATOM     37  C   UNL A   1      43.355  24.604  27.446  1.00  0.00     0.031 A 
ATOM     38  C   UNL A   1      44.794  25.037  27.471  1.00  0.00     0.074 A 
ATOM     39  C   UNL A   1      42.385  25.470  27.796  1.00  0.00     0.049 A 
ATOM     40  N   UNL A   1      45.305  26.198  27.795  1.00  0.00    -0.248 NA
ATOM     41  C   UNL A   1      45.796  24.022  27.111  1.00  0.00     0.031 C 
ATOM     42  C   UNL A   1      40.957  25.159  27.861  1.00  0.00     0.029 A 
ATOM     43  N   UNL A   1      42.453  26.790  28.170  1.00  0.00    -0.354 N 
ATOM     44  C   UNL A   1      46.681  26.049  27.690  1.00  0.00     0.074 A 
ATOM     45  C   UNL A   1      46.930  24.670  27.333  1.00  0.00     0.031 C 
ATOM     46  C   UNL A   1      40.282  26.261  28.226  1.00  0.00     0.029 A 
ATOM     47  C   UNL A   1      41.231  27.345  28.461  1.00  0.00     0.049 A 
ATOM     48  H   UNL A   1      43.299  27.291  28.226  1.00  0.00     0.167 HD
ATOM     49  C   UNL A   1      47.648  26.984  27.852  1.00  0.00     0.037 A 
ATOM     50  C   UNL A   1      40.911  28.585  28.878  1.00  0.00     0.037 A 
ATOM     51  C   UNL A   1      47.394  28.360  28.193  1.00  0.00     0.049 A 
ATOM     52  C   UNL A   1      42.005  29.601  29.066  1.00  0.00     0.074 A 
ATOM     53  C   UNL A   1      48.301  29.398  28.319  1.00  0.00     0.029 A 
ATOM     54  N   UNL A   1      46.142  28.887  28.470  1.00  0.00    -0.354 N 
ATOM     55  N   UNL A   1      43.298  29.470  28.886  1.00  0.00    -0.248 NA
ATOM     56  C   UNL A   1      41.595  30.941  29.507  1.00  0.00     0.031 C 
ATOM     57  C   UNL A   1      47.604  30.539  28.732  1.00  0.00     0.029 A 
ATOM     58  C   UNL A   1      46.255  30.230  28.799  1.00  0.00     0.049 A 
ATOM     59  H   UNL A   1      45.297  28.383  28.439  1.00  0.00     0.167 HD
ATOM     60  C   UNL A   1      43.850  30.713  29.163  1.00  0.00     0.074 A 
ATOM     61  C   UNL A   1      42.750  31.590  29.506  1.00  0.00     0.031 C 
ATOM     62  C   UNL A   1      45.151  31.093  29.136  1.00  0.00     0.037 A 
BRANCH  49  63
ATOM     63  C   UNL A   1      49.074  26.546  27.665  1.00  0.00     0.064 A 
ATOM     64  C   UNL A   1      49.636  26.384  26.389  1.00  0.00     0.173 A 
ATOM     65  C   UNL A   1      49.899  26.314  28.776  1.00  0.00     0.173 A 
ATOM     66  F   UNL A   1      48.890  26.583  25.292  1.00  0.00    -0.203 F 
ATOM     67  C   UNL A   1      50.956  25.969  26.233  1.00  0.00     0.198 A 
ATOM     68  C   UNL A   1      51.229  25.935  28.616  1.00  0.00     0.198 A 
ATOM     69  F   UNL A   1      49.417  26.461  30.020  1.00  0.00    -0.203 F 
ATOM     70  F   UNL A   1      51.451  25.763  25.005  1.00  0.00    -0.200 F 
ATOM     71  C   UNL A   1      51.754  25.752  27.346  1.00  0.00     0.200 A 
ATOM     72  F   UNL A   1      52.003  25.740  29.693  1.00  0.00    -0.200 F 
ATOM     73  F   UNL A   1      53.026  25.359  27.194  1.00  0.00    -0.200 F 
ENDBRANCH  49  63
BRANCH  50  74
ATOM     74  C   UNL A   1      39.488  28.941  29.124  1.00  0.00     0.064 A 
ATOM     75  C   UNL A   1      38.929  28.833  30.405  1.00  0.00     0.173 A 
ATOM     76  C   UNL A   1      38.658  29.392  28.087  1.00  0.00     0.173 A 
ATOM     77  F   UNL A   1      39.675  28.386  31.425  1.00  0.00    -0.203 F 
ATOM     78  C   UNL A   1      37.589  29.141  30.636  1.00  0.00     0.198 A 
ATOM     79  C   UNL A   1      37.328  29.731  28.324  1.00  0.00     0.198 A 
ATOM     80  F   UNL A   1      39.144  29.519  26.844  1.00  0.00    -0.203 F 
ATOM     81  F   UNL A   1      37.069  28.982  31.860  1.00  0.00    -0.200 F 
ATOM     82  C   UNL A   1      36.792  29.597  29.596  1.00  0.00     0.200 A 
ATOM     83  F   UNL A   1      36.565  30.187  27.322  1.00  0.00    -0.200 F 
ATOM     84  F   UNL A   1      35.505  29.900  29.820  1.00  0.00    -0.200 F 
ENDBRANCH  50  74
BRANCH  62  85
ATOM     85  C   UNL A   1      45.456  32.531  29.450  1.00  0.00     0.064 A 
ATOM     86  C   UNL A   1      45.774  32.953  30.750  1.00  0.00     0.173 A 
ATOM     87  C   UNL A   1      45.466  33.494  28.428  1.00  0.00     0.173 A 
ATOM     88  F   UNL A   1      45.766  32.076  31.766  1.00  0.00    -0.203 F 
ATOM     89  C   UNL A   1      46.059  34.289  31.020  1.00  0.00     0.198 A 
ATOM     90  C   UNL A   1      45.786  34.821  28.696  1.00  0.00     0.198 A 
ATOM     91  F   UNL A   1      45.177  33.143  27.166  1.00  0.00    -0.203 F 
ATOM     92  F   UNL A   1      46.306  34.678  32.278  1.00  0.00    -0.200 F 
ATOM     93  C   UNL A   1      46.074  35.219  29.992  1.00  0.00     0.200 A 
ATOM     94  F   UNL A   1      45.815  35.715  27.698  1.00  0.00    -0.200 F 
ATOM     95  F   UNL A   1      46.356  36.504  30.253  1.00  0.00    -0.200 F 
ENDBRANCH  62  85
ENDBRANCH  36  37
ENDBRANCH  28  31
ENDBRANCH  26  27
ENDBRANCH  25  26
ENDBRANCH  24  25
ENDBRANCH   1  24
TORSDOF 18
ENDMDL
MODEL 2
REMARK VINA RESULT:     -10.8      0.798      7.361
REMARK SMILES COCCOc1ccc([C@H]([NH3+])C(=O)NCCCCNC(=O)c2ccc(-c3c4nc(c(-c5c(F)c(F)c(F)c(F)c5F)c5ccc([nH]5)c(-c5c(F)c(F)c(F)c(F)c5F)c5nc(c(-c6c(F)c(F)c(F)c(F)c6F)c6ccc3[nH]6)C=C5)C=C4)cc2)cc1OC
REMARK SMILES IDX 15 1 14 2 12 3 13 4 10 6 9 7 6 8 7 9 86 10 8 11 85 12 5 13
REMARK SMILES IDX 4 14 3 15 2 16 1 17 87 18 88 19 11 20 16 24 17 25 18 26
REMARK SMILES IDX 19 27 20 28 21 30 22 31 23 32 84 33 24 34 83 35 25 36 26 37
REMARK SMILES IDX 27 38 77 39 28 40 82 41 76 42 78 43 29 44 81 45 75 46 74 47
REMARK SMILES IDX 30 49 62 50 42 51 61 52 43 53 46 54 60 55 79 56 44 57 45 58
REMARK SMILES IDX 59 60 80 61 47 62 31 63 32 64 40 65 33 66 34 67 38 68 41 69
REMARK SMILES IDX 35 70 36 71 39 72 37 73 63 74 64 75 72 76 65 77 66 78 70 79
REMARK SMILES IDX 73 80 67 81 68 82 71 83 69 84 48 85 49 86 57 87 50 88 51 89
REMARK SMILES IDX 55 90 58 91 52 92 53 93 56 94 54 95
REMARK H PARENT 14 5 11 21 11 22 11 23 19 29 78 48 46 59
REMARK Flexibility Score: inf
ROOT
ATOM      1  C   UNL A   1      37.094  22.178  25.423  1.00  0.00     0.116 C 
ENDROOT
BRANCH   1   2
ATOM      2  N   UNL A   1      36.262  22.554  26.556  1.00  0.00    -0.351 N 
ATOM      3  C   UNL A   1      34.914  22.814  26.604  1.00  0.00     0.283 C 
ATOM      4  O   UNL A   1      34.387  22.850  27.719  1.00  0.00    -0.268 OA
ATOM      5  H   UNL A   1      36.736  22.634  27.416  1.00  0.00     0.163 HD
BRANCH   3   6
ATOM      6  C   UNL A   1      34.107  23.103  25.311  1.00  0.00     0.302 C 
BRANCH   6   7
ATOM      7  C   UNL A   1      34.071  24.551  24.835  1.00  0.00     0.023 A 
ATOM      8  C   UNL A   1      33.510  27.124  23.831  1.00  0.00     0.161 A 
ATOM      9  C   UNL A   1      33.657  26.922  25.203  1.00  0.00     0.051 A 
ATOM     10  C   UNL A   1      33.770  26.071  22.955  1.00  0.00     0.161 A 
ATOM     11  C   UNL A   1      34.000  25.657  25.693  1.00  0.00     0.014 A 
ATOM     12  C   UNL A   1      34.026  24.793  23.451  1.00  0.00     0.061 A 
BRANCH   8  13
ATOM     13  O   UNL A   1      33.030  28.295  23.313  1.00  0.00    -0.487 OA
BRANCH  13  14
ATOM     14  C   UNL A   1      31.633  28.517  23.523  1.00  0.00     0.258 C 
BRANCH  14  15
ATOM     15  C   UNL A   1      30.976  29.182  22.306  1.00  0.00     0.201 C 
BRANCH  15  16
ATOM     16  O   UNL A   1      29.701  28.652  21.940  1.00  0.00    -0.381 OA
ATOM     17  C   UNL A   1      28.588  29.167  22.650  1.00  0.00     0.195 C 
ENDBRANCH  15  16
ENDBRANCH  14  15
ENDBRANCH  13  14
ENDBRANCH   8  13
BRANCH  10  18
ATOM     18  O   UNL A   1      33.693  26.259  21.600  1.00  0.00    -0.493 OA
ATOM     19  C   UNL A   1      32.490  25.693  21.072  1.00  0.00     0.278 C 
ENDBRANCH  10  18
ENDBRANCH   6   7
BRANCH   6  20
ATOM     20  N   UNL A   1      32.737  22.544  25.469  1.00  0.00    -0.343 N 
ATOM     21  H   UNL A   1      32.329  22.884  26.339  1.00  0.00     0.345 HD
ATOM     22  H   UNL A   1      32.784  21.526  25.491  1.00  0.00     0.345 HD
ATOM     23  H   UNL A   1      32.156  22.839  24.683  1.00  0.00     0.345 HD
ENDBRANCH   6  20
ENDBRANCH   3   6
ENDBRANCH   1   2
BRANCH   1  24
ATOM     24  C   UNL A   1      36.795  20.781  24.898  1.00  0.00     0.023 C 
BRANCH  24  25
ATOM     25  C   UNL A   1      38.007  19.855  24.797  1.00  0.00     0.023 C 
BRANCH  25  26
ATOM     26  C   UNL A   1      39.205  20.238  25.660  1.00  0.00     0.116 C 
BRANCH  26  27
ATOM     27  N   UNL A   1      40.154  19.150  25.842  1.00  0.00    -0.352 N 
ATOM     28  C   UNL A   1      41.497  19.200  26.127  1.00  0.00     0.251 C 
ATOM     29  H   UNL A   1      39.778  18.244  25.747  1.00  0.00     0.163 HD
ATOM     30  O   UNL A   1      42.173  18.174  26.112  1.00  0.00    -0.269 OA
BRANCH  28  31
ATOM     31  C   UNL A   1      42.140  20.499  26.418  1.00  0.00     0.039 A 
ATOM     32  C   UNL A   1      42.532  21.313  25.352  1.00  0.00     0.014 A 
ATOM     33  C   UNL A   1      42.335  20.923  27.735  1.00  0.00     0.014 A 
ATOM     34  C   UNL A   1      43.045  22.587  25.608  1.00  0.00     0.010 A 
ATOM     35  C   UNL A   1      42.766  22.223  27.985  1.00  0.00     0.010 A 
ATOM     36  C   UNL A   1      43.124  23.070  26.925  1.00  0.00    -0.014 A 
BRANCH  36  37
ATOM     37  C   UNL A   1      43.565  24.460  27.210  1.00  0.00     0.031 A 
ATOM     38  C   UNL A   1      42.585  25.480  27.719  1.00  0.00     0.074 A 
ATOM     39  C   UNL A   1      44.836  24.821  26.948  1.00  0.00     0.049 A 
ATOM     40  N   UNL A   1      42.767  26.751  27.973  1.00  0.00    -0.248 NA
ATOM     41  C   UNL A   1      41.207  25.016  27.946  1.00  0.00     0.031 C 
ATOM     42  C   UNL A   1      45.870  23.940  26.403  1.00  0.00     0.029 A 
ATOM     43  N   UNL A   1      45.475  26.028  27.097  1.00  0.00    -0.354 N 
ATOM     44  C   UNL A   1      41.531  27.238  28.376  1.00  0.00     0.074 A 
ATOM     45  C   UNL A   1      40.593  26.142  28.274  1.00  0.00     0.031 C 
ATOM     46  C   UNL A   1      47.018  24.627  26.288  1.00  0.00     0.029 A 
ATOM     47  C   UNL A   1      46.793  26.006  26.711  1.00  0.00     0.049 A 
ATOM     48  H   UNL A   1      45.030  26.833  27.446  1.00  0.00     0.167 HD
ATOM     49  C   UNL A   1      41.213  28.479  28.815  1.00  0.00     0.037 A 
ATOM     50  C   UNL A   1      47.714  26.988  26.691  1.00  0.00     0.037 A 
ATOM     51  C   UNL A   1      42.155  29.563  28.930  1.00  0.00     0.049 A 
ATOM     52  C   UNL A   1      47.332  28.362  27.169  1.00  0.00     0.074 A 
ATOM     53  C   UNL A   1      41.944  30.839  29.422  1.00  0.00     0.029 A 
ATOM     54  N   UNL A   1      43.483  29.500  28.538  1.00  0.00    -0.354 N 
ATOM     55  N   UNL A   1      46.179  28.791  27.624  1.00  0.00    -0.248 NA
ATOM     56  C   UNL A   1      48.383  29.390  27.140  1.00  0.00     0.031 C 
ATOM     57  C   UNL A   1      43.130  31.567  29.272  1.00  0.00     0.029 A 
ATOM     58  C   UNL A   1      44.098  30.725  28.748  1.00  0.00     0.049 A 
ATOM     59  H   UNL A   1      43.925  28.703  28.166  1.00  0.00     0.167 HD
ATOM     60  C   UNL A   1      46.372  30.124  27.961  1.00  0.00     0.074 A 
ATOM     61  C   UNL A   1      47.758  30.429  27.674  1.00  0.00     0.031 C 
ATOM     62  C   UNL A   1      45.481  31.015  28.461  1.00  0.00     0.037 A 
BRANCH  49  63
ATOM     63  C   UNL A   1      39.783  28.732  29.202  1.00  0.00     0.064 A 
ATOM     64  C   UNL A   1      39.317  28.495  30.505  1.00  0.00     0.173 A 
ATOM     65  C   UNL A   1      38.872  29.248  28.268  1.00  0.00     0.173 A 
ATOM     66  F   UNL A   1      40.142  27.993  31.437  1.00  0.00    -0.203 F 
ATOM     67  C   UNL A   1      37.986  28.725  30.846  1.00  0.00     0.198 A 
ATOM     68  C   UNL A   1      37.552  29.512  28.621  1.00  0.00     0.198 A 
ATOM     69  F   UNL A   1      39.264  29.501  27.009  1.00  0.00    -0.203 F 
ATOM     70  F   UNL A   1      37.552  28.433  32.079  1.00  0.00    -0.200 F 
ATOM     71  C   UNL A   1      37.107  29.241  29.906  1.00  0.00     0.200 A 
ATOM     72  F   UNL A   1      36.707  30.024  27.716  1.00  0.00    -0.200 F 
ATOM     73  F   UNL A   1      35.828  29.469  30.237  1.00  0.00    -0.200 F 
ENDBRANCH  49  63
BRANCH  50  74
ATOM     74  C   UNL A   1      49.097  26.700  26.223  1.00  0.00     0.064 A 
ATOM     75  C   UNL A   1      50.061  26.181  27.098  1.00  0.00     0.173 A 
ATOM     76  C   UNL A   1      49.483  26.939  24.896  1.00  0.00     0.173 A 
ATOM     77  F   UNL A   1      49.747  25.954  28.382  1.00  0.00    -0.203 F 
ATOM     78  C   UNL A   1      51.364  25.933  26.671  1.00  0.00     0.198 A 
ATOM     79  C   UNL A   1      50.777  26.661  24.461  1.00  0.00     0.198 A 
ATOM     80  F   UNL A   1      48.598  27.430  24.016  1.00  0.00    -0.203 F 
ATOM     81  F   UNL A   1      52.278  25.483  27.541  1.00  0.00    -0.200 F 
ATOM     82  C   UNL A   1      51.719  26.167  25.350  1.00  0.00     0.200 A 
ATOM     83  F   UNL A   1      51.111  26.872  23.182  1.00  0.00    -0.200 F 
ATOM     84  F   UNL A   1      52.971  25.922  24.939  1.00  0.00    -0.200 F 
ENDBRANCH  50  74
BRANCH  62  85
ATOM     85  C   UNL A   1      45.986  32.397  28.768  1.00  0.00     0.064 A 
ATOM     86  C   UNL A   1      46.556  32.719  30.009  1.00  0.00     0.173 A 
ATOM     87  C   UNL A   1      45.932  33.405  27.791  1.00  0.00     0.173 A 
ATOM     88  F   UNL A   1      46.619  31.797  30.981  1.00  0.00    -0.203 F 
ATOM     89  C   UNL A   1      47.022  34.004  30.271  1.00  0.00     0.198 A 
ATOM     90  C   UNL A   1      46.432  34.678  28.046  1.00  0.00     0.198 A 
ATOM     91  F   UNL A   1      45.405  33.149  26.585  1.00  0.00    -0.203 F 
ATOM     92  F   UNL A   1      47.512  34.302  31.483  1.00  0.00    -0.200 F 
ATOM     93  C   UNL A   1      46.969  34.979  29.287  1.00  0.00     0.200 A 
ATOM     94  F   UNL A   1      46.393  35.614  27.087  1.00  0.00    -0.200 F 
ATOM     95  F   UNL A   1      47.426  36.213  29.540  1.00  0.00    -0.200 F 
ENDBRANCH  62  85
ENDBRANCH  36  37
ENDBRANCH  28  31
ENDBRANCH  26  27
ENDBRANCH  25  26
ENDBRANCH  24  25
ENDBRANCH   1  24
TORSDOF 18
ENDMDL
MODEL 3
REMARK VINA RESULT:     -10.6      4.775     10.166
REMARK SMILES COCCOc1ccc([C@H]([NH3+])C(=O)NCCCCNC(=O)c2ccc(-c3c4nc(c(-c5c(F)c(F)c(F)c(F)c5F)c5ccc([nH]5)c(-c5c(F)c(F)c(F)c(F)c5F)c5nc(c(-c6c(F)c(F)c(F)c(F)c6F)c6ccc3[nH]6)C=C5)C=C4)cc2)cc1OC
REMARK SMILES IDX 15 1 14 2 12 3 13 4 10 6 9 7 6 8 7 9 86 10 8 11 85 12 5 13
REMARK SMILES IDX 4 14 3 15 2 16 1 17 87 18 88 19 11 20 16 24 17 25 18 26
REMARK SMILES IDX 19 27 20 28 21 30 22 31 23 32 84 33 24 34 83 35 25 36 26 37
REMARK SMILES IDX 27 38 77 39 28 40 82 41 76 42 78 43 29 44 81 45 75 46 74 47
REMARK SMILES IDX 30 49 62 50 42 51 61 52 43 53 46 54 60 55 79 56 44 57 45 58
REMARK SMILES IDX 59 60 80 61 47 62 31 63 32 64 40 65 33 66 34 67 38 68 41 69
REMARK SMILES IDX 35 70 36 71 39 72 37 73 63 74 64 75 72 76 65 77 66 78 70 79
REMARK SMILES IDX 73 80 67 81 68 82 71 83 69 84 48 85 49 86 57 87 50 88 51 89
REMARK SMILES IDX 55 90 58 91 52 92 53 93 56 94 54 95
REMARK H PARENT 14 5 11 21 11 22 11 23 19 29 78 48 46 59
REMARK Flexibility Score: inf
ROOT
ATOM      1  C   UNL A   1      30.891  26.544  25.995  1.00  0.00     0.116 C 
ENDROOT
BRANCH   1   2
ATOM      2  N   UNL A   1      30.872  25.293  26.736  1.00  0.00    -0.351 N 
ATOM      3  C   UNL A   1      31.749  24.236  26.693  1.00  0.00     0.283 C 
ATOM      4  O   UNL A   1      31.677  23.406  27.603  1.00  0.00    -0.268 OA
ATOM      5  H   UNL A   1      30.119  25.187  27.362  1.00  0.00     0.163 HD
BRANCH   3   6
ATOM      6  C   UNL A   1      32.749  24.073  25.518  1.00  0.00     0.302 C 
BRANCH   6   7
ATOM      7  C   UNL A   1      33.042  22.648  25.061  1.00  0.00     0.023 A 
ATOM      8  C   UNL A   1      33.632  19.913  24.725  1.00  0.00     0.161 A 
ATOM      9  C   UNL A   1      32.339  20.385  24.505  1.00  0.00     0.051 A 
ATOM     10  C   UNL A   1      34.655  20.824  24.986  1.00  0.00     0.161 A 
ATOM     11  C   UNL A   1      32.063  21.752  24.609  1.00  0.00     0.014 A 
ATOM     12  C   UNL A   1      34.361  22.174  25.174  1.00  0.00     0.061 A 
BRANCH   8  13
ATOM     13  O   UNL A   1      33.921  18.578  24.785  1.00  0.00    -0.487 OA
BRANCH  13  14
ATOM     14  C   UNL A   1      32.930  17.721  24.211  1.00  0.00     0.258 C 
BRANCH  14  15
ATOM     15  C   UNL A   1      33.512  16.352  23.836  1.00  0.00     0.201 C 
BRANCH  15  16
ATOM     16  O   UNL A   1      33.775  15.483  24.938  1.00  0.00    -0.381 OA
ATOM     17  C   UNL A   1      32.655  14.791  25.464  1.00  0.00     0.195 C 
ENDBRANCH  15  16
ENDBRANCH  14  15
ENDBRANCH  13  14
ENDBRANCH   8  13
BRANCH  10  18
ATOM     18  O   UNL A   1      35.945  20.392  25.146  1.00  0.00    -0.493 OA
ATOM     19  C   UNL A   1      36.869  21.474  25.000  1.00  0.00     0.278 C 
ENDBRANCH  10  18
ENDBRANCH   6   7
BRANCH   6  20
ATOM     20  N   UNL A   1      33.999  24.811  25.849  1.00  0.00    -0.343 N 
ATOM     21  H   UNL A   1      34.610  24.213  26.405  1.00  0.00     0.345 HD
ATOM     22  H   UNL A   1      33.768  25.650  26.381  1.00  0.00     0.345 HD
ATOM     23  H   UNL A   1      34.476  25.076  24.987  1.00  0.00     0.345 HD
ENDBRANCH   6  20
ENDBRANCH   3   6
ENDBRANCH   1   2
BRANCH   1  24
ATOM     24  C   UNL A   1      31.626  27.661  26.723  1.00  0.00     0.023 C 
BRANCH  24  25
ATOM     25  C   UNL A   1      31.693  28.989  25.969  1.00  0.00     0.023 C 
BRANCH  25  26
ATOM     26  C   UNL A   1      32.996  29.768  26.117  1.00  0.00     0.116 C 
BRANCH  26  27
ATOM     27  N   UNL A   1      32.799  31.143  26.551  1.00  0.00    -0.352 N 
ATOM     28  C   UNL A   1      33.543  31.899  27.425  1.00  0.00     0.251 C 
ATOM     29  H   UNL A   1      32.016  31.598  26.162  1.00  0.00     0.163 HD
ATOM     30  O   UNL A   1      33.146  33.007  27.779  1.00  0.00    -0.269 OA
BRANCH  28  31
ATOM     31  C   UNL A   1      34.808  31.364  27.969  1.00  0.00     0.039 A 
ATOM     32  C   UNL A   1      35.922  32.204  28.043  1.00  0.00     0.014 A 
ATOM     33  C   UNL A   1      34.891  30.046  28.428  1.00  0.00     0.014 A 
ATOM     34  C   UNL A   1      37.094  31.747  28.649  1.00  0.00     0.010 A 
ATOM     35  C   UNL A   1      36.030  29.622  29.107  1.00  0.00     0.010 A 
ATOM     36  C   UNL A   1      37.143  30.468  29.227  1.00  0.00    -0.014 A 
BRANCH  36  37
ATOM     37  C   UNL A   1      38.343  30.004  29.971  1.00  0.00     0.031 A 
ATOM     38  C   UNL A   1      38.607  30.492  31.368  1.00  0.00     0.074 A 
ATOM     39  C   UNL A   1      39.231  29.194  29.362  1.00  0.00     0.049 A 
ATOM     40  N   UNL A   1      39.624  30.244  32.155  1.00  0.00    -0.248 NA
ATOM     41  C   UNL A   1      37.608  31.402  31.950  1.00  0.00     0.031 C 
ATOM     42  C   UNL A   1      39.117  28.694  27.992  1.00  0.00     0.029 A 
ATOM     43  N   UNL A   1      40.410  28.655  29.814  1.00  0.00    -0.354 N 
ATOM     44  C   UNL A   1      39.393  30.974  33.313  1.00  0.00     0.074 A 
ATOM     45  C   UNL A   1      38.173  31.723  33.104  1.00  0.00     0.031 C 
ATOM     46  C   UNL A   1      40.167  27.901  27.724  1.00  0.00     0.029 A 
ATOM     47  C   UNL A   1      41.050  27.869  28.887  1.00  0.00     0.049 A 
ATOM     48  H   UNL A   1      40.764  28.816  30.719  1.00  0.00     0.167 HD
ATOM     49  C   UNL A   1      40.119  30.998  34.456  1.00  0.00     0.037 A 
ATOM     50  C   UNL A   1      42.219  27.206  28.960  1.00  0.00     0.037 A 
ATOM     51  C   UNL A   1      41.325  30.240  34.665  1.00  0.00     0.049 A 
ATOM     52  C   UNL A   1      43.015  27.262  30.236  1.00  0.00     0.074 A 
ATOM     53  C   UNL A   1      42.099  30.149  35.809  1.00  0.00     0.029 A 
ATOM     54  N   UNL A   1      41.937  29.448  33.705  1.00  0.00    -0.354 N 
ATOM     55  N   UNL A   1      42.746  27.893  31.354  1.00  0.00    -0.248 NA
ATOM     56  C   UNL A   1      44.275  26.506  30.263  1.00  0.00     0.031 C 
ATOM     57  C   UNL A   1      43.211  29.351  35.522  1.00  0.00     0.029 A 
ATOM     58  C   UNL A   1      43.097  28.890  34.220  1.00  0.00     0.049 A 
ATOM     59  H   UNL A   1      41.598  29.304  32.792  1.00  0.00     0.167 HD
ATOM     60  C   UNL A   1      43.784  27.588  32.224  1.00  0.00     0.074 A 
ATOM     61  C   UNL A   1      44.679  26.701  31.510  1.00  0.00     0.031 C 
ATOM     62  C   UNL A   1      43.978  28.005  33.499  1.00  0.00     0.037 A 
BRANCH  49  63
ATOM     63  C   UNL A   1      39.628  31.880  35.571  1.00  0.00     0.064 A 
ATOM     64  C   UNL A   1      40.125  33.180  35.758  1.00  0.00     0.173 A 
ATOM     65  C   UNL A   1      38.625  31.433  36.444  1.00  0.00     0.173 A 
ATOM     66  F   UNL A   1      41.091  33.656  34.958  1.00  0.00    -0.203 F 
ATOM     67  C   UNL A   1      39.666  33.981  36.801  1.00  0.00     0.198 A 
ATOM     68  C   UNL A   1      38.143  32.250  37.463  1.00  0.00     0.198 A 
ATOM     69  F   UNL A   1      38.108  30.202  36.308  1.00  0.00    -0.203 F 
ATOM     70  F   UNL A   1      40.200  35.195  36.995  1.00  0.00    -0.200 F 
ATOM     71  C   UNL A   1      38.670  33.519  37.647  1.00  0.00     0.200 A 
ATOM     72  F   UNL A   1      37.170  31.807  38.272  1.00  0.00    -0.200 F 
ATOM     73  F   UNL A   1      38.225  34.294  38.646  1.00  0.00    -0.200 F 
ENDBRANCH  49  63
BRANCH  50  74
ATOM     74  C   UNL A   1      42.696  26.411  27.797  1.00  0.00     0.064 A 
ATOM     75  C   UNL A   1      43.567  26.971  26.850  1.00  0.00     0.173 A 
ATOM     76  C   UNL A   1      42.292  25.083  27.604  1.00  0.00     0.173 A 
ATOM     77  F   UNL A   1      43.967  28.244  26.979  1.00  0.00    -0.203 F 
ATOM     78  C   UNL A   1      43.997  26.239  25.745  1.00  0.00     0.198 A 
ATOM     79  C   UNL A   1      42.747  24.341  26.516  1.00  0.00     0.198 A 
ATOM     80  F   UNL A   1      41.464  24.498  28.482  1.00  0.00    -0.203 F 
ATOM     81  F   UNL A   1      44.790  26.814  24.831  1.00  0.00    -0.200 F 
ATOM     82  C   UNL A   1      43.592  24.922  25.583  1.00  0.00     0.200 A 
ATOM     83  F   UNL A   1      42.367  23.065  26.372  1.00  0.00    -0.200 F 
ATOM     84  F   UNL A   1      44.012  24.217  24.523  1.00  0.00    -0.200 F 
ENDBRANCH  50  74
BRANCH  62  85
ATOM     85  C   UNL A   1      45.187  27.478  34.221  1.00  0.00     0.064 A 
ATOM     86  C   UNL A   1      46.411  28.164  34.213  1.00  0.00     0.173 A 
ATOM     87  C   UNL A   1      45.107  26.289  34.963  1.00  0.00     0.173 A 
ATOM     88  F   UNL A   1      46.545  29.298  33.509  1.00  0.00    -0.203 F 
ATOM     89  C   UNL A   1      47.517  27.662  34.893  1.00  0.00     0.198 A 
ATOM     90  C   UNL A   1      46.206  25.809  35.670  1.00  0.00     0.198 A 
ATOM     91  F   UNL A   1      43.959  25.598  35.012  1.00  0.00    -0.203 F 
ATOM     92  F   UNL A   1      48.691  28.305  34.825  1.00  0.00    -0.200 F 
ATOM     93  C   UNL A   1      47.411  26.491  35.627  1.00  0.00     0.200 A 
ATOM     94  F   UNL A   1      46.096  24.686  36.392  1.00  0.00    -0.200 F 
ATOM     95  F   UNL A   1      48.476  26.014  36.287  1.00  0.00    -0.200 F 
ENDBRANCH  62  85
ENDBRANCH  36  37
ENDBRANCH  28  31
ENDBRANCH  26  27
ENDBRANCH  25  26
ENDBRANCH  24  25
ENDBRANCH   1  24
TORSDOF 18
ENDMDL
