MODEL 1
REMARK VINA RESULT:     -14.1      0.000      0.000
REMARK SMILES Cc1ccc(C(=O)NCCCCNC(=O)c2ccc(-c3c4nc(c(-c5c(F)c(F)c(F)c(F)c5F)c5ccc([nH]5)c(-c5c(F)c(F)c(F)c(F)c5F)c5nc(c(-c6c(F)c(F)c(F)c(F)c6F)c6ccc3[nH]6)C=C5)C=C4)cc2)cc1N1C(=O)/C(=C/c2ccc([N+](=O)[O-])cc2)SC1=S
REMARK SMILES IDX 10 1 9 2 8 3 6 4 7 5 5 7 1 8 2 9 3 10 80 11 4 12 79 13 81 14
REMARK SMILES IDX 82 15 96 16 83 17 84 18 95 19 97 20 85 21 86 22 87 23 94 24
REMARK SMILES IDX 88 25 93 26 89 27 90 28 91 29 92 30 11 31 12 32 13 33 14 34
REMARK SMILES IDX 15 36 16 37 17 38 78 39 18 40 77 41 19 42 20 43 21 44 71 45
REMARK SMILES IDX 22 46 76 47 70 48 72 49 23 50 75 51 69 52 68 53 24 55 56 56
REMARK SMILES IDX 36 57 55 58 37 59 40 60 54 61 73 62 38 63 39 64 53 66 74 67
REMARK SMILES IDX 41 68 25 69 26 70 34 71 27 72 28 73 32 74 35 75 29 76 30 77
REMARK SMILES IDX 33 78 31 79 57 80 58 81 66 82 59 83 60 84 64 85 67 86 61 87
REMARK SMILES IDX 62 88 65 89 63 90 42 91 43 92 51 93 44 94 45 95 49 96 52 97
REMARK SMILES IDX 46 98 47 99 50 100 48 101
REMARK H PARENT 8 6 13 35 72 54 40 65
REMARK Flexibility Score: inf
ROOT
ATOM      1  C   UNL A   1      33.481  29.570  25.419  1.00  0.00     0.023 C 
ENDROOT
BRANCH   1   2
ATOM      2  C   UNL A   1      32.058  29.878  25.912  1.00  0.00     0.116 C 
BRANCH   2   3
ATOM      3  N   UNL A   1      31.108  30.045  24.826  1.00  0.00    -0.352 N 
ATOM      4  C   UNL A   1      30.416  29.200  23.996  1.00  0.00     0.251 C 
ATOM      5  O   UNL A   1      29.608  29.742  23.236  1.00  0.00    -0.269 OA
ATOM      6  H   UNL A   1      30.912  30.993  24.644  1.00  0.00     0.163 HD
BRANCH   4   7
ATOM      7  C   UNL A   1      30.566  27.714  23.930  1.00  0.00     0.041 A 
ATOM      8  C   UNL A   1      30.709  23.383  23.467  1.00  0.00     0.046 C 
ATOM      9  C   UNL A   1      30.699  24.875  23.647  1.00  0.00    -0.027 A 
ATOM     10  C   UNL A   1      29.645  25.608  23.086  1.00  0.00     0.006 A 
ATOM     11  C   UNL A   1      31.692  25.580  24.345  1.00  0.00     0.054 A 
ATOM     12  C   UNL A   1      29.586  27.002  23.219  1.00  0.00     0.014 A 
ATOM     13  C   UNL A   1      31.611  26.981  24.481  1.00  0.00     0.041 A 
BRANCH  11  14
ATOM     14  N   UNL A   1      32.838  24.941  24.887  1.00  0.00    -0.261 N 
ATOM     15  C   UNL A   1      34.041  24.974  24.195  1.00  0.00     0.270 C 
ATOM     16  C   UNL A   1      32.785  24.146  26.023  1.00  0.00     0.152 C 
ATOM     17  O   UNL A   1      34.301  25.603  23.178  1.00  0.00    -0.268 OA
ATOM     18  C   UNL A   1      35.009  24.045  24.846  1.00  0.00     0.081 C 
ATOM     19  S   UNL A   1      34.369  23.442  26.320  1.00  0.00    -0.054 SA
ATOM     20  S   UNL A   1      31.493  23.839  27.038  1.00  0.00    -0.051 S 
ATOM     21  C   UNL A   1      36.179  23.717  24.282  1.00  0.00     0.029 C 
BRANCH  21  22
ATOM     22  C   UNL A   1      37.180  22.826  24.876  1.00  0.00    -0.024 A 
ATOM     23  C   UNL A   1      37.257  21.471  24.526  1.00  0.00     0.015 A 
ATOM     24  C   UNL A   1      38.082  23.356  25.806  1.00  0.00     0.015 A 
ATOM     25  C   UNL A   1      38.251  20.656  25.082  1.00  0.00     0.086 A 
ATOM     26  C   UNL A   1      39.076  22.551  26.365  1.00  0.00     0.086 A 
ATOM     27  C   UNL A   1      39.167  21.205  25.990  1.00  0.00     0.269 A 
BRANCH  27  28
ATOM     28  N   UNL A   1      40.249  20.374  26.534  1.00  0.00     0.062 N 
ATOM     29  O   UNL A   1      40.691  20.666  27.654  1.00  0.00    -0.258 OA
ATOM     30  O   UNL A   1      40.645  19.421  25.848  1.00  0.00    -0.258 OA
ENDBRANCH  27  28
ENDBRANCH  21  22
ENDBRANCH  11  14
ENDBRANCH   4   7
ENDBRANCH   2   3
ENDBRANCH   1   2
BRANCH   1  31
ATOM     31  C   UNL A   1      34.413  28.955  26.474  1.00  0.00     0.023 C 
BRANCH  31  32
ATOM     32  C   UNL A   1      34.388  29.665  27.824  1.00  0.00     0.116 C 
BRANCH  32  33
ATOM     33  N   UNL A   1      35.187  30.875  27.923  1.00  0.00    -0.352 N 
ATOM     34  C   UNL A   1      36.518  31.048  28.290  1.00  0.00     0.251 C 
ATOM     35  H   UNL A   1      34.712  31.705  27.693  1.00  0.00     0.163 HD
ATOM     36  O   UNL A   1      36.950  32.173  28.455  1.00  0.00    -0.269 OA
BRANCH  34  37
ATOM     37  C   UNL A   1      37.456  29.887  28.334  1.00  0.00     0.039 A 
ATOM     38  C   UNL A   1      37.398  29.030  29.446  1.00  0.00     0.014 A 
ATOM     39  C   UNL A   1      38.497  29.746  27.425  1.00  0.00     0.014 A 
ATOM     40  C   UNL A   1      38.505  28.251  29.780  1.00  0.00     0.010 A 
ATOM     41  C   UNL A   1      39.643  29.096  27.824  1.00  0.00     0.010 A 
ATOM     42  C   UNL A   1      39.667  28.402  29.036  1.00  0.00    -0.014 A 
BRANCH  42  43
ATOM     43  C   UNL A   1      40.986  27.943  29.446  1.00  0.00     0.031 A 
ATOM     44  C   UNL A   1      41.508  26.666  28.919  1.00  0.00     0.074 A 
ATOM     45  C   UNL A   1      41.796  28.824  30.077  1.00  0.00     0.049 A 
ATOM     46  N   UNL A   1      42.620  26.133  29.291  1.00  0.00    -0.248 NA
ATOM     47  C   UNL A   1      40.780  25.844  27.951  1.00  0.00     0.031 C 
ATOM     48  C   UNL A   1      43.255  28.799  30.161  1.00  0.00     0.029 A 
ATOM     49  N   UNL A   1      41.420  29.852  30.962  1.00  0.00    -0.354 N 
ATOM     50  C   UNL A   1      42.909  25.127  28.403  1.00  0.00     0.074 A 
ATOM     51  C   UNL A   1      41.680  24.890  27.692  1.00  0.00     0.031 C 
ATOM     52  C   UNL A   1      43.643  29.520  31.226  1.00  0.00     0.029 A 
ATOM     53  C   UNL A   1      42.437  29.868  31.952  1.00  0.00     0.049 A 
ATOM     54  H   UNL A   1      40.626  30.432  30.907  1.00  0.00     0.167 HD
ATOM     55  C   UNL A   1      44.205  24.733  28.275  1.00  0.00     0.037 A 
ATOM     56  C   UNL A   1      42.177  29.484  33.238  1.00  0.00     0.037 A 
ATOM     57  C   UNL A   1      44.999  25.217  29.403  1.00  0.00     0.049 A 
ATOM     58  C   UNL A   1      43.016  28.318  33.707  1.00  0.00     0.074 A 
ATOM     59  C   UNL A   1      45.958  26.203  29.544  1.00  0.00     0.029 A 
ATOM     60  N   UNL A   1      44.628  24.837  30.692  1.00  0.00    -0.354 N 
ATOM     61  N   UNL A   1      43.587  27.463  32.903  1.00  0.00    -0.248 NA
ATOM     62  C   UNL A   1      43.266  28.016  35.114  1.00  0.00     0.031 C 
ATOM     63  C   UNL A   1      46.065  26.503  30.932  1.00  0.00     0.029 A 
ATOM     64  C   UNL A   1      45.217  25.658  31.631  1.00  0.00     0.049 A 
ATOM     65  H   UNL A   1      44.029  24.085  30.903  1.00  0.00     0.167 HD
ATOM     66  C   UNL A   1      44.256  26.521  33.638  1.00  0.00     0.074 A 
ATOM     67  C   UNL A   1      44.033  26.916  35.016  1.00  0.00     0.031 C 
ATOM     68  C   UNL A   1      44.932  25.490  33.049  1.00  0.00     0.037 A 
BRANCH  55  69
ATOM     69  C   UNL A   1      44.807  24.086  27.045  1.00  0.00     0.064 A 
ATOM     70  C   UNL A   1      44.502  22.742  26.733  1.00  0.00     0.173 A 
ATOM     71  C   UNL A   1      45.795  24.668  26.219  1.00  0.00     0.173 A 
ATOM     72  F   UNL A   1      43.595  22.058  27.444  1.00  0.00    -0.203 F 
ATOM     73  C   UNL A   1      45.138  22.045  25.698  1.00  0.00     0.198 A 
ATOM     74  C   UNL A   1      46.389  23.988  25.150  1.00  0.00     0.198 A 
ATOM     75  F   UNL A   1      46.284  25.892  26.440  1.00  0.00    -0.203 F 
ATOM     76  F   UNL A   1      44.852  20.752  25.491  1.00  0.00    -0.200 F 
ATOM     77  C   UNL A   1      46.072  22.672  24.899  1.00  0.00     0.200 A 
ATOM     78  F   UNL A   1      47.299  24.616  24.392  1.00  0.00    -0.200 F 
ATOM     79  F   UNL A   1      46.682  22.008  23.907  1.00  0.00    -0.200 F 
ENDBRANCH  55  69
BRANCH  56  80
ATOM     80  C   UNL A   1      40.767  29.746  33.640  1.00  0.00     0.064 A 
ATOM     81  C   UNL A   1      40.403  31.073  33.946  1.00  0.00     0.173 A 
ATOM     82  C   UNL A   1      39.741  28.852  33.311  1.00  0.00     0.173 A 
ATOM     83  F   UNL A   1      41.350  31.969  34.270  1.00  0.00    -0.203 F 
ATOM     84  C   UNL A   1      39.096  31.522  33.781  1.00  0.00     0.198 A 
ATOM     85  C   UNL A   1      38.424  29.302  33.171  1.00  0.00     0.198 A 
ATOM     86  F   UNL A   1      40.020  27.580  32.999  1.00  0.00    -0.203 F 
ATOM     87  F   UNL A   1      38.810  32.823  33.943  1.00  0.00    -0.200 F 
ATOM     88  C   UNL A   1      38.113  30.642  33.361  1.00  0.00     0.200 A 
ATOM     89  F   UNL A   1      37.475  28.459  32.740  1.00  0.00    -0.200 F 
ATOM     90  F   UNL A   1      36.879  31.091  33.091  1.00  0.00    -0.200 F 
ENDBRANCH  56  80
BRANCH  68  91
ATOM     91  C   UNL A   1      45.460  24.267  33.765  1.00  0.00     0.064 A 
ATOM     92  C   UNL A   1      44.724  23.082  33.939  1.00  0.00     0.173 A 
ATOM     93  C   UNL A   1      46.813  24.207  34.175  1.00  0.00     0.173 A 
ATOM     94  F   UNL A   1      43.474  22.962  33.472  1.00  0.00    -0.203 F 
ATOM     95  C   UNL A   1      45.276  21.951  34.547  1.00  0.00     0.198 A 
ATOM     96  C   UNL A   1      47.377  23.057  34.727  1.00  0.00     0.198 A 
ATOM     97  F   UNL A   1      47.638  25.254  34.027  1.00  0.00    -0.203 F 
ATOM     98  F   UNL A   1      44.516  20.862  34.733  1.00  0.00    -0.200 F 
ATOM     99  C   UNL A   1      46.603  21.935  34.931  1.00  0.00     0.200 A 
ATOM    100  F   UNL A   1      48.681  23.039  35.038  1.00  0.00    -0.200 F 
ATOM    101  F   UNL A   1      47.138  20.834  35.475  1.00  0.00    -0.200 F 
ENDBRANCH  68  91
ENDBRANCH  42  43
ENDBRANCH  34  37
ENDBRANCH  32  33
ENDBRANCH  31  32
ENDBRANCH   1  31
TORSDOF 14
ENDMDL
MODEL 2
REMARK VINA RESULT:     -14.0      2.687      3.201
REMARK SMILES Cc1ccc(C(=O)NCCCCNC(=O)c2ccc(-c3c4nc(c(-c5c(F)c(F)c(F)c(F)c5F)c5ccc([nH]5)c(-c5c(F)c(F)c(F)c(F)c5F)c5nc(c(-c6c(F)c(F)c(F)c(F)c6F)c6ccc3[nH]6)C=C5)C=C4)cc2)cc1N1C(=O)/C(=C/c2ccc([N+](=O)[O-])cc2)SC1=S
REMARK SMILES IDX 10 1 9 2 8 3 6 4 7 5 5 7 1 8 2 9 3 10 80 11 4 12 79 13 81 14
REMARK SMILES IDX 82 15 96 16 83 17 84 18 95 19 97 20 85 21 86 22 87 23 94 24
REMARK SMILES IDX 88 25 93 26 89 27 90 28 91 29 92 30 11 31 12 32 13 33 14 34
REMARK SMILES IDX 15 36 16 37 17 38 78 39 18 40 77 41 19 42 20 43 21 44 71 45
REMARK SMILES IDX 22 46 76 47 70 48 72 49 23 50 75 51 69 52 68 53 24 55 56 56
REMARK SMILES IDX 36 57 55 58 37 59 40 60 54 61 73 62 38 63 39 64 53 66 74 67
REMARK SMILES IDX 41 68 25 69 26 70 34 71 27 72 28 73 32 74 35 75 29 76 30 77
REMARK SMILES IDX 33 78 31 79 57 80 58 81 66 82 59 83 60 84 64 85 67 86 61 87
REMARK SMILES IDX 62 88 65 89 63 90 42 91 43 92 51 93 44 94 45 95 49 96 52 97
REMARK SMILES IDX 46 98 47 99 50 100 48 101
REMARK H PARENT 8 6 13 35 72 54 40 65
REMARK Flexibility Score: inf
ROOT
ATOM      1  C   UNL A   1      34.478  30.534  27.002  1.00  0.00     0.023 C 
ENDROOT
BRANCH   1   2
ATOM      2  C   UNL A   1      34.370  29.113  27.577  1.00  0.00     0.116 C 
BRANCH   2   3
ATOM      3  N   UNL A   1      32.995  28.679  27.754  1.00  0.00    -0.352 N 
ATOM      4  C   UNL A   1      32.142  27.840  27.082  1.00  0.00     0.251 C 
ATOM      5  O   UNL A   1      31.046  27.654  27.617  1.00  0.00    -0.269 OA
ATOM      6  H   UNL A   1      32.575  29.081  28.549  1.00  0.00     0.163 HD
BRANCH   4   7
ATOM      7  C   UNL A   1      32.422  27.159  25.780  1.00  0.00     0.041 A 
ATOM      8  C   UNL A   1      33.270  25.536  21.826  1.00  0.00     0.046 C 
ATOM      9  C   UNL A   1      32.985  26.055  23.207  1.00  0.00    -0.027 A 
ATOM     10  C   UNL A   1      32.713  27.421  23.363  1.00  0.00     0.006 A 
ATOM     11  C   UNL A   1      32.982  25.249  24.355  1.00  0.00     0.054 A 
ATOM     12  C   UNL A   1      32.444  27.962  24.628  1.00  0.00     0.014 A 
ATOM     13  C   UNL A   1      32.697  25.805  25.619  1.00  0.00     0.041 A 
BRANCH  11  14
ATOM     14  N   UNL A   1      33.318  23.870  24.316  1.00  0.00    -0.261 N 
ATOM     15  C   UNL A   1      32.367  22.937  23.925  1.00  0.00     0.270 C 
ATOM     16  C   UNL A   1      34.523  23.378  24.795  1.00  0.00     0.152 C 
ATOM     17  O   UNL A   1      31.248  23.153  23.477  1.00  0.00    -0.268 OA
ATOM     18  C   UNL A   1      32.884  21.564  24.192  1.00  0.00     0.081 C 
ATOM     19  S   UNL A   1      34.528  21.623  24.680  1.00  0.00    -0.054 SA
ATOM     20  S   UNL A   1      35.841  24.214  25.397  1.00  0.00    -0.051 S 
ATOM     21  C   UNL A   1      32.108  20.475  24.106  1.00  0.00     0.029 C 
BRANCH  21  22
ATOM     22  C   UNL A   1      32.558  19.100  24.338  1.00  0.00    -0.024 A 
ATOM     23  C   UNL A   1      32.835  18.229  23.275  1.00  0.00     0.015 A 
ATOM     24  C   UNL A   1      32.721  18.661  25.657  1.00  0.00     0.015 A 
ATOM     25  C   UNL A   1      33.302  16.934  23.531  1.00  0.00     0.086 A 
ATOM     26  C   UNL A   1      33.187  17.371  25.921  1.00  0.00     0.086 A 
ATOM     27  C   UNL A   1      33.491  16.516  24.855  1.00  0.00     0.269 A 
BRANCH  27  28
ATOM     28  N   UNL A   1      34.035  15.180  25.133  1.00  0.00     0.062 N 
ATOM     29  O   UNL A   1      35.265  15.039  25.087  1.00  0.00    -0.258 OA
ATOM     30  O   UNL A   1      33.233  14.278  25.412  1.00  0.00    -0.258 OA
ENDBRANCH  27  28
ENDBRANCH  21  22
ENDBRANCH  11  14
ENDBRANCH   4   7
ENDBRANCH   2   3
ENDBRANCH   1   2
BRANCH   1  31
ATOM     31  C   UNL A   1      33.559  31.572  27.664  1.00  0.00     0.023 C 
BRANCH  31  32
ATOM     32  C   UNL A   1      34.261  32.863  28.071  1.00  0.00     0.116 C 
BRANCH  32  33
ATOM     33  N   UNL A   1      34.457  33.059  29.498  1.00  0.00    -0.352 N 
ATOM     34  C   UNL A   1      35.244  32.356  30.405  1.00  0.00     0.251 C 
ATOM     35  H   UNL A   1      33.954  33.811  29.885  1.00  0.00     0.163 HD
ATOM     36  O   UNL A   1      35.144  32.595  31.592  1.00  0.00    -0.269 OA
BRANCH  34  37
ATOM     37  C   UNL A   1      36.312  31.427  29.930  1.00  0.00     0.039 A 
ATOM     38  C   UNL A   1      36.315  30.112  30.426  1.00  0.00     0.014 A 
ATOM     39  C   UNL A   1      37.395  31.869  29.183  1.00  0.00     0.014 A 
ATOM     40  C   UNL A   1      37.494  29.367  30.412  1.00  0.00     0.010 A 
ATOM     41  C   UNL A   1      38.595  31.203  29.294  1.00  0.00     0.010 A 
ATOM     42  C   UNL A   1      38.656  29.981  29.968  1.00  0.00    -0.014 A 
BRANCH  42  43
ATOM     43  C   UNL A   1      40.005  29.486  30.204  1.00  0.00     0.031 A 
ATOM     44  C   UNL A   1      40.424  28.203  29.604  1.00  0.00     0.074 A 
ATOM     45  C   UNL A   1      40.909  30.339  30.736  1.00  0.00     0.049 A 
ATOM     46  N   UNL A   1      41.560  27.640  29.828  1.00  0.00    -0.248 NA
ATOM     47  C   UNL A   1      39.560  27.411  28.727  1.00  0.00     0.031 C 
ATOM     48  C   UNL A   1      42.367  30.279  30.637  1.00  0.00     0.029 A 
ATOM     49  N   UNL A   1      40.673  31.364  31.672  1.00  0.00    -0.354 N 
ATOM     50  C   UNL A   1      41.710  26.638  28.901  1.00  0.00     0.074 A 
ATOM     51  C   UNL A   1      40.397  26.439  28.348  1.00  0.00     0.031 C 
ATOM     52  C   UNL A   1      42.903  30.976  31.651  1.00  0.00     0.029 A 
ATOM     53  C   UNL A   1      41.806  31.344  32.526  1.00  0.00     0.049 A 
ATOM     54  H   UNL A   1      39.894  31.964  31.722  1.00  0.00     0.167 HD
ATOM     55  C   UNL A   1      42.969  26.216  28.608  1.00  0.00     0.037 A 
ATOM     56  C   UNL A   1      41.700  30.951  33.831  1.00  0.00     0.037 A 
ATOM     57  C   UNL A   1      43.911  26.666  29.631  1.00  0.00     0.049 A 
ATOM     58  C   UNL A   1      42.562  29.759  34.179  1.00  0.00     0.074 A 
ATOM     59  C   UNL A   1      44.904  27.627  29.660  1.00  0.00     0.029 A 
ATOM     60  N   UNL A   1      43.695  26.279  30.953  1.00  0.00    -0.354 N 
ATOM     61  N   UNL A   1      43.006  28.901  33.302  1.00  0.00    -0.248 NA
ATOM     62  C   UNL A   1      42.979  29.434  35.541  1.00  0.00     0.031 C 
ATOM     63  C   UNL A   1      45.192  27.907  31.026  1.00  0.00     0.029 A 
ATOM     64  C   UNL A   1      44.418  27.073  31.818  1.00  0.00     0.049 A 
ATOM     65  H   UNL A   1      43.108  25.539  31.230  1.00  0.00     0.167 HD
ATOM     66  C   UNL A   1      43.738  27.934  33.938  1.00  0.00     0.074 A 
ATOM     67  C   UNL A   1      43.699  28.317  35.337  1.00  0.00     0.031 C 
ATOM     68  C   UNL A   1      44.309  26.894  33.259  1.00  0.00     0.037 A 
BRANCH  55  69
ATOM     69  C   UNL A   1      43.396  25.569  27.305  1.00  0.00     0.064 A 
ATOM     70  C   UNL A   1      42.928  24.279  26.971  1.00  0.00     0.173 A 
ATOM     71  C   UNL A   1      44.367  26.088  26.418  1.00  0.00     0.173 A 
ATOM     72  F   UNL A   1      42.018  23.656  27.732  1.00  0.00    -0.203 F 
ATOM     73  C   UNL A   1      43.400  23.571  25.858  1.00  0.00     0.198 A 
ATOM     74  C   UNL A   1      44.795  25.403  25.276  1.00  0.00     0.198 A 
ATOM     75  F   UNL A   1      44.997  27.245  26.642  1.00  0.00    -0.203 F 
ATOM     76  F   UNL A   1      42.965  22.324  25.628  1.00  0.00    -0.200 F 
ATOM     77  C   UNL A   1      44.324  24.138  25.004  1.00  0.00     0.200 A 
ATOM     78  F   UNL A   1      45.698  25.971  24.465  1.00  0.00    -0.200 F 
ATOM     79  F   UNL A   1      44.776  23.464  23.937  1.00  0.00    -0.200 F 
ENDBRANCH  55  69
BRANCH  56  80
ATOM     80  C   UNL A   1      40.359  31.241  34.409  1.00  0.00     0.064 A 
ATOM     81  C   UNL A   1      40.146  32.513  34.978  1.00  0.00     0.173 A 
ATOM     82  C   UNL A   1      39.230  30.504  34.031  1.00  0.00     0.173 A 
ATOM     83  F   UNL A   1      41.196  33.259  35.360  1.00  0.00    -0.203 F 
ATOM     84  C   UNL A   1      38.876  33.083  35.023  1.00  0.00     0.198 A 
ATOM     85  C   UNL A   1      37.954  31.070  34.103  1.00  0.00     0.198 A 
ATOM     86  F   UNL A   1      39.364  29.292  33.474  1.00  0.00    -0.203 F 
ATOM     87  F   UNL A   1      38.727  34.350  35.439  1.00  0.00    -0.200 F 
ATOM     88  C   UNL A   1      37.785  32.372  34.555  1.00  0.00     0.200 A 
ATOM     89  F   UNL A   1      36.899  30.395  33.626  1.00  0.00    -0.200 F 
ATOM     90  F   UNL A   1      36.580  32.955  34.491  1.00  0.00    -0.200 F 
ENDBRANCH  56  80
BRANCH  68  91
ATOM     91  C   UNL A   1      44.891  25.651  33.891  1.00  0.00     0.064 A 
ATOM     92  C   UNL A   1      44.117  24.597  34.406  1.00  0.00     0.173 A 
ATOM     93  C   UNL A   1      46.287  25.418  33.858  1.00  0.00     0.173 A 
ATOM     94  F   UNL A   1      42.778  24.633  34.372  1.00  0.00    -0.203 F 
ATOM     95  C   UNL A   1      44.697  23.434  34.920  1.00  0.00     0.198 A 
ATOM     96  C   UNL A   1      46.858  24.231  34.317  1.00  0.00     0.198 A 
ATOM     97  F   UNL A   1      47.136  26.324  33.353  1.00  0.00    -0.203 F 
ATOM     98  F   UNL A   1      43.916  22.479  35.444  1.00  0.00    -0.200 F 
ATOM     99  C   UNL A   1      46.065  23.248  34.866  1.00  0.00     0.200 A 
ATOM    100  F   UNL A   1      48.181  24.042  34.201  1.00  0.00    -0.200 F 
ATOM    101  F   UNL A   1      46.613  22.113  35.321  1.00  0.00    -0.200 F 
ENDBRANCH  68  91
ENDBRANCH  42  43
ENDBRANCH  34  37
ENDBRANCH  32  33
ENDBRANCH  31  32
ENDBRANCH   1  31
TORSDOF 14
ENDMDL
MODEL 3
REMARK VINA RESULT:     -13.9      2.370      2.948
REMARK SMILES Cc1ccc(C(=O)NCCCCNC(=O)c2ccc(-c3c4nc(c(-c5c(F)c(F)c(F)c(F)c5F)c5ccc([nH]5)c(-c5c(F)c(F)c(F)c(F)c5F)c5nc(c(-c6c(F)c(F)c(F)c(F)c6F)c6ccc3[nH]6)C=C5)C=C4)cc2)cc1N1C(=O)/C(=C/c2ccc([N+](=O)[O-])cc2)SC1=S
REMARK SMILES IDX 10 1 9 2 8 3 6 4 7 5 5 7 1 8 2 9 3 10 80 11 4 12 79 13 81 14
REMARK SMILES IDX 82 15 96 16 83 17 84 18 95 19 97 20 85 21 86 22 87 23 94 24
REMARK SMILES IDX 88 25 93 26 89 27 90 28 91 29 92 30 11 31 12 32 13 33 14 34
REMARK SMILES IDX 15 36 16 37 17 38 78 39 18 40 77 41 19 42 20 43 21 44 71 45
REMARK SMILES IDX 22 46 76 47 70 48 72 49 23 50 75 51 69 52 68 53 24 55 56 56
REMARK SMILES IDX 36 57 55 58 37 59 40 60 54 61 73 62 38 63 39 64 53 66 74 67
REMARK SMILES IDX 41 68 25 69 26 70 34 71 27 72 28 73 32 74 35 75 29 76 30 77
REMARK SMILES IDX 33 78 31 79 57 80 58 81 66 82 59 83 60 84 64 85 67 86 61 87
REMARK SMILES IDX 62 88 65 89 63 90 42 91 43 92 51 93 44 94 45 95 49 96 52 97
REMARK SMILES IDX 46 98 47 99 50 100 48 101
REMARK H PARENT 8 6 13 35 72 54 40 65
REMARK Flexibility Score: inf
ROOT
ATOM      1  C   UNL A   1      33.902  29.685  25.808  1.00  0.00     0.023 C 
ENDROOT
BRANCH   1   2
ATOM      2  C   UNL A   1      32.414  30.041  25.955  1.00  0.00     0.116 C 
BRANCH   2   3
ATOM      3  N   UNL A   1      31.643  28.991  26.597  1.00  0.00    -0.352 N 
ATOM      4  C   UNL A   1      31.355  27.679  26.314  1.00  0.00     0.251 C 
ATOM      5  O   UNL A   1      30.719  27.074  27.182  1.00  0.00    -0.269 OA
ATOM      6  H   UNL A   1      31.228  29.292  27.438  1.00  0.00     0.163 HD
BRANCH   4   7
ATOM      7  C   UNL A   1      31.731  26.945  25.067  1.00  0.00     0.041 A 
ATOM      8  C   UNL A   1      32.835  25.158  21.249  1.00  0.00     0.046 C 
ATOM      9  C   UNL A   1      32.464  25.736  22.586  1.00  0.00    -0.027 A 
ATOM     10  C   UNL A   1      32.073  27.080  22.646  1.00  0.00     0.006 A 
ATOM     11  C   UNL A   1      32.494  25.005  23.783  1.00  0.00     0.054 A 
ATOM     12  C   UNL A   1      31.721  27.673  23.866  1.00  0.00     0.014 A 
ATOM     13  C   UNL A   1      32.125  25.613  25.001  1.00  0.00     0.041 A 
BRANCH  11  14
ATOM     14  N   UNL A   1      32.946  23.661  23.842  1.00  0.00    -0.261 N 
ATOM     15  C   UNL A   1      32.101  22.629  23.457  1.00  0.00     0.270 C 
ATOM     16  C   UNL A   1      34.160  23.302  24.411  1.00  0.00     0.152 C 
ATOM     17  O   UNL A   1      30.995  22.722  22.941  1.00  0.00    -0.268 OA
ATOM     18  C   UNL A   1      32.715  21.322  23.831  1.00  0.00     0.081 C 
ATOM     19  S   UNL A   1      34.319  21.551  24.398  1.00  0.00    -0.054 SA
ATOM     20  S   UNL A   1      35.366  24.280  25.030  1.00  0.00    -0.051 S 
ATOM     21  C   UNL A   1      32.039  20.167  23.767  1.00  0.00     0.029 C 
BRANCH  21  22
ATOM     22  C   UNL A   1      32.590  18.851  24.103  1.00  0.00    -0.024 A 
ATOM     23  C   UNL A   1      33.187  18.035  23.131  1.00  0.00     0.015 A 
ATOM     24  C   UNL A   1      32.521  18.412  25.430  1.00  0.00     0.015 A 
ATOM     25  C   UNL A   1      33.740  16.801  23.492  1.00  0.00     0.086 A 
ATOM     26  C   UNL A   1      33.069  17.183  25.799  1.00  0.00     0.086 A 
ATOM     27  C   UNL A   1      33.691  16.386  24.830  1.00  0.00     0.269 A 
BRANCH  27  28
ATOM     28  N   UNL A   1      34.318  15.119  25.229  1.00  0.00     0.062 N 
ATOM     29  O   UNL A   1      33.574  14.157  25.463  1.00  0.00    -0.258 OA
ATOM     30  O   UNL A   1      35.555  15.084  25.294  1.00  0.00    -0.258 OA
ENDBRANCH  27  28
ENDBRANCH  21  22
ENDBRANCH  11  14
ENDBRANCH   4   7
ENDBRANCH   2   3
ENDBRANCH   1   2
BRANCH   1  31
ATOM     31  C   UNL A   1      34.601  29.272  27.112  1.00  0.00     0.023 C 
BRANCH  31  32
ATOM     32  C   UNL A   1      34.418  30.257  28.262  1.00  0.00     0.116 C 
BRANCH  32  33
ATOM     33  N   UNL A   1      35.346  31.375  28.299  1.00  0.00    -0.352 N 
ATOM     34  C   UNL A   1      36.707  31.407  28.588  1.00  0.00     0.251 C 
ATOM     35  H   UNL A   1      34.950  32.249  28.083  1.00  0.00     0.163 HD
ATOM     36  O   UNL A   1      37.265  32.480  28.712  1.00  0.00    -0.269 OA
BRANCH  34  37
ATOM     37  C   UNL A   1      37.517  30.152  28.595  1.00  0.00     0.039 A 
ATOM     38  C   UNL A   1      37.536  29.385  29.772  1.00  0.00     0.014 A 
ATOM     39  C   UNL A   1      38.390  29.832  27.565  1.00  0.00     0.014 A 
ATOM     40  C   UNL A   1      38.594  28.508  30.011  1.00  0.00     0.010 A 
ATOM     41  C   UNL A   1      39.509  29.084  27.852  1.00  0.00     0.010 A 
ATOM     42  C   UNL A   1      39.642  28.475  29.102  1.00  0.00    -0.014 A 
BRANCH  42  43
ATOM     43  C   UNL A   1      40.953  27.898  29.358  1.00  0.00     0.031 A 
ATOM     44  C   UNL A   1      41.239  26.517  28.918  1.00  0.00     0.074 A 
ATOM     45  C   UNL A   1      41.947  28.729  29.748  1.00  0.00     0.049 A 
ATOM     46  N   UNL A   1      42.333  25.889  29.178  1.00  0.00    -0.248 NA
ATOM     47  C   UNL A   1      40.276  25.699  28.179  1.00  0.00     0.031 C 
ATOM     48  C   UNL A   1      43.389  28.528  29.612  1.00  0.00     0.029 A 
ATOM     49  N   UNL A   1      41.836  29.881  30.549  1.00  0.00    -0.354 N 
ATOM     50  C   UNL A   1      42.359  24.769  28.385  1.00  0.00     0.074 A 
ATOM     51  C   UNL A   1      41.012  24.617  27.903  1.00  0.00     0.031 C 
ATOM     52  C   UNL A   1      44.023  29.299  30.509  1.00  0.00     0.029 A 
ATOM     53  C   UNL A   1      42.998  29.870  31.363  1.00  0.00     0.049 A 
ATOM     54  H   UNL A   1      41.112  30.548  30.545  1.00  0.00     0.167 HD
ATOM     55  C   UNL A   1      43.566  24.203  28.111  1.00  0.00     0.037 A 
ATOM     56  C   UNL A   1      42.915  29.656  32.711  1.00  0.00     0.037 A 
ATOM     57  C   UNL A   1      44.584  24.696  29.037  1.00  0.00     0.049 A 
ATOM     58  C   UNL A   1      43.688  28.447  33.184  1.00  0.00     0.074 A 
ATOM     59  C   UNL A   1      45.654  25.562  28.910  1.00  0.00     0.029 A 
ATOM     60  N   UNL A   1      44.392  24.500  30.404  1.00  0.00    -0.354 N 
ATOM     61  N   UNL A   1      44.023  27.449  32.413  1.00  0.00    -0.248 NA
ATOM     62  C   UNL A   1      44.133  28.262  34.563  1.00  0.00     0.031 C 
ATOM     63  C   UNL A   1      46.021  25.986  30.219  1.00  0.00     0.029 A 
ATOM     64  C   UNL A   1      45.214  25.331  31.136  1.00  0.00     0.049 A 
ATOM     65  H   UNL A   1      43.758  23.855  30.793  1.00  0.00     0.167 HD
ATOM     66  C   UNL A   1      44.697  26.510  33.146  1.00  0.00     0.074 A 
ATOM     67  C   UNL A   1      44.749  27.069  34.484  1.00  0.00     0.031 C 
ATOM     68  C   UNL A   1      45.151  25.347  32.591  1.00  0.00     0.037 A 
BRANCH  55  69
ATOM     69  C   UNL A   1      43.883  23.362  26.891  1.00  0.00     0.064 A 
ATOM     70  C   UNL A   1      43.383  22.045  26.793  1.00  0.00     0.173 A 
ATOM     71  C   UNL A   1      44.781  23.725  25.862  1.00  0.00     0.173 A 
ATOM     72  F   UNL A   1      42.534  21.558  27.709  1.00  0.00    -0.203 F 
ATOM     73  C   UNL A   1      43.760  21.170  25.765  1.00  0.00     0.198 A 
ATOM     74  C   UNL A   1      45.112  22.870  24.806  1.00  0.00     0.198 A 
ATOM     75  F   UNL A   1      45.433  24.892  25.858  1.00  0.00    -0.203 F 
ATOM     76  F   UNL A   1      43.301  19.911  25.761  1.00  0.00    -0.200 F 
ATOM     77  C   UNL A   1      44.614  21.587  24.765  1.00  0.00     0.200 A 
ATOM     78  F   UNL A   1      45.950  23.295  23.849  1.00  0.00    -0.200 F 
ATOM     79  F   UNL A   1      44.975  20.753  23.780  1.00  0.00    -0.200 F 
ENDBRANCH  55  69
BRANCH  56  80
ATOM     80  C   UNL A   1      41.628  30.134  33.287  1.00  0.00     0.064 A 
ATOM     81  C   UNL A   1      41.446  31.524  33.434  1.00  0.00     0.173 A 
ATOM     82  C   UNL A   1      40.482  29.329  33.272  1.00  0.00     0.173 A 
ATOM     83  F   UNL A   1      42.513  32.340  33.457  1.00  0.00    -0.203 F 
ATOM     84  C   UNL A   1      40.176  32.095  33.413  1.00  0.00     0.198 A 
ATOM     85  C   UNL A   1      39.208  29.905  33.277  1.00  0.00     0.198 A 
ATOM     86  F   UNL A   1      40.585  28.001  33.124  1.00  0.00    -0.203 F 
ATOM     87  F   UNL A   1      40.043  33.430  33.412  1.00  0.00    -0.200 F 
ATOM     88  C   UNL A   1      39.059  31.285  33.301  1.00  0.00     0.200 A 
ATOM     89  F   UNL A   1      38.125  29.126  33.142  1.00  0.00    -0.200 F 
ATOM     90  F   UNL A   1      37.843  31.833  33.165  1.00  0.00    -0.200 F 
ENDBRANCH  56  80
BRANCH  68  91
ATOM     91  C   UNL A   1      45.653  24.147  33.361  1.00  0.00     0.064 A 
ATOM     92  C   UNL A   1      46.921  24.077  33.963  1.00  0.00     0.173 A 
ATOM     93  C   UNL A   1      44.786  23.065  33.645  1.00  0.00     0.173 A 
ATOM     94  F   UNL A   1      47.788  25.096  33.885  1.00  0.00    -0.203 F 
ATOM     95  C   UNL A   1      47.320  22.975  34.724  1.00  0.00     0.198 A 
ATOM     96  C   UNL A   1      45.166  21.995  34.455  1.00  0.00     0.198 A 
ATOM     97  F   UNL A   1      43.533  23.027  33.168  1.00  0.00    -0.203 F 
ATOM     98  F   UNL A   1      48.558  22.935  35.236  1.00  0.00    -0.200 F 
ATOM     99  C   UNL A   1      46.440  21.940  34.978  1.00  0.00     0.200 A 
ATOM    100  F   UNL A   1      44.281  21.029  34.740  1.00  0.00    -0.200 F 
ATOM    101  F   UNL A   1      46.812  20.906  35.743  1.00  0.00    -0.200 F 
ENDBRANCH  68  91
ENDBRANCH  42  43
ENDBRANCH  34  37
ENDBRANCH  32  33
ENDBRANCH  31  32
ENDBRANCH   1  31
TORSDOF 14
ENDMDL
