MODEL 1
REMARK VINA RESULT:     -12.8      0.000      0.000
REMARK SMILES O=C(NCCCCNC(=O)C1CCN(c2ccc(C(F)(F)F)cc2[N+](=O)[O-])CC1)c1ccc(-c2c3nc(c(-c4c(F)c(F)c(F)c(F)c4F)c4ccc([nH]4)c(-c4c(F)c(F)c(F)c(F)c4F)c4nc(c(-c5c(F)c(F)c(F)c(F)c5F)c5ccc2[nH]5)C=C4)C=C3)cc1
REMARK SMILES IDX 5 1 4 2 3 3 1 4 2 5 30 7 31 8 92 9 32 10 91 11 33 12 34 13
REMARK SMILES IDX 35 14 85 15 36 16 90 17 84 18 86 19 37 20 89 21 83 22 82 23
REMARK SMILES IDX 38 25 70 26 50 27 69 28 51 29 54 30 68 31 87 32 52 33 53 34
REMARK SMILES IDX 67 36 88 37 55 38 39 39 40 40 48 41 41 42 42 43 46 44 49 45
REMARK SMILES IDX 43 46 44 47 47 48 45 49 71 50 72 51 80 52 73 53 74 54 78 55
REMARK SMILES IDX 81 56 75 57 76 58 79 59 77 60 56 61 57 62 65 63 58 64 59 65
REMARK SMILES IDX 63 66 66 67 60 68 61 69 64 70 62 71 6 72 7 73 8 74 9 75
REMARK SMILES IDX 10 77 11 78 12 79 29 80 13 81 28 82 14 83 15 84 16 85 24 86
REMARK SMILES IDX 17 87 23 88 18 89 25 90 26 91 27 92 19 93 20 94 21 95 22 96
REMARK H PARENT 3 6 86 24 54 35 8 76
REMARK Flexibility Score: inf
ROOT
ATOM      1  C   UNL A   1      31.548  31.998  26.793  1.00  0.00     0.023 C 
ENDROOT
BRANCH   1   2
ATOM      2  C   UNL A   1      32.768  32.853  27.114  1.00  0.00     0.116 C 
BRANCH   2   3
ATOM      3  N   UNL A   1      32.433  34.175  27.626  1.00  0.00    -0.352 N 
ATOM      4  O   UNL A   1      32.530  35.922  29.060  1.00  0.00    -0.269 OA
ATOM      5  C   UNL A   1      32.998  34.855  28.678  1.00  0.00     0.251 C 
ATOM      6  H   UNL A   1      31.706  34.643  27.156  1.00  0.00     0.163 HD
BRANCH   5   7
ATOM      7  C   UNL A   1      34.164  34.265  29.366  1.00  0.00     0.039 A 
ATOM      8  C   UNL A   1      35.455  34.539  28.914  1.00  0.00     0.014 A 
ATOM      9  C   UNL A   1      33.956  33.397  30.441  1.00  0.00     0.014 A 
ATOM     10  C   UNL A   1      36.529  33.832  29.437  1.00  0.00     0.010 A 
ATOM     11  C   UNL A   1      35.049  32.753  31.027  1.00  0.00     0.010 A 
ATOM     12  C   UNL A   1      36.339  32.943  30.509  1.00  0.00    -0.014 A 
BRANCH  12  13
ATOM     13  C   UNL A   1      37.522  32.282  31.111  1.00  0.00     0.031 A 
ATOM     14  C   UNL A   1      37.994  32.630  32.493  1.00  0.00     0.074 A 
ATOM     15  C   UNL A   1      38.148  31.328  30.396  1.00  0.00     0.049 A 
ATOM     16  N   UNL A   1      38.997  32.129  33.170  1.00  0.00    -0.248 NA
ATOM     17  C   UNL A   1      37.252  33.680  33.209  1.00  0.00     0.031 C 
ATOM     18  C   UNL A   1      37.781  30.920  29.038  1.00  0.00     0.029 A 
ATOM     19  N   UNL A   1      39.207  30.517  30.712  1.00  0.00    -0.354 N 
ATOM     20  C   UNL A   1      39.019  32.810  34.380  1.00  0.00     0.074 A 
ATOM     21  C   UNL A   1      37.943  33.777  34.338  1.00  0.00     0.031 C 
ATOM     22  C   UNL A   1      38.566  29.904  28.657  1.00  0.00     0.029 A 
ATOM     23  C   UNL A   1      39.532  29.633  29.714  1.00  0.00     0.049 A 
ATOM     24  H   UNL A   1      39.685  30.563  31.571  1.00  0.00     0.167 HD
ATOM     25  C   UNL A   1      39.860  32.635  35.429  1.00  0.00     0.037 A 
ATOM     26  C   UNL A   1      40.514  28.716  29.647  1.00  0.00     0.037 A 
ATOM     27  C   UNL A   1      40.918  31.656  35.466  1.00  0.00     0.049 A 
ATOM     28  C   UNL A   1      41.439  28.559  30.819  1.00  0.00     0.074 A 
ATOM     29  C   UNL A   1      41.799  31.376  36.496  1.00  0.00     0.029 A 
ATOM     30  N   UNL A   1      41.238  30.798  34.424  1.00  0.00    -0.354 N 
ATOM     31  N   UNL A   1      41.431  29.188  31.968  1.00  0.00    -0.248 NA
ATOM     32  C   UNL A   1      42.513  27.567  30.681  1.00  0.00     0.031 C 
ATOM     33  C   UNL A   1      42.681  30.381  36.061  1.00  0.00     0.029 A 
ATOM     34  C   UNL A   1      42.320  30.006  34.778  1.00  0.00     0.049 A 
ATOM     35  H   UNL A   1      40.767  30.758  33.560  1.00  0.00     0.167 HD
ATOM     36  C   UNL A   1      42.488  28.664  32.696  1.00  0.00     0.074 A 
ATOM     37  C   UNL A   1      43.100  27.645  31.867  1.00  0.00     0.031 C 
ATOM     38  C   UNL A   1      42.917  29.001  33.936  1.00  0.00     0.037 A 
BRANCH  25  39
ATOM     39  C   UNL A   1      39.686  33.526  36.624  1.00  0.00     0.064 A 
ATOM     40  C   UNL A   1      40.305  34.782  36.705  1.00  0.00     0.173 A 
ATOM     41  C   UNL A   1      38.837  33.146  37.676  1.00  0.00     0.173 A 
ATOM     42  F   UNL A   1      41.133  35.190  35.732  1.00  0.00    -0.203 F 
ATOM     43  C   UNL A   1      40.094  35.616  37.801  1.00  0.00     0.198 A 
ATOM     44  C   UNL A   1      38.610  33.992  38.758  1.00  0.00     0.198 A 
ATOM     45  F   UNL A   1      38.215  31.957  37.645  1.00  0.00    -0.203 F 
ATOM     46  F   UNL A   1      40.724  36.797  37.873  1.00  0.00    -0.200 F 
ATOM     47  C   UNL A   1      39.242  35.224  38.822  1.00  0.00     0.200 A 
ATOM     48  F   UNL A   1      37.776  33.615  39.738  1.00  0.00    -0.200 F 
ATOM     49  F   UNL A   1      39.033  36.033  39.871  1.00  0.00    -0.200 F 
ENDBRANCH  25  39
BRANCH  26  50
ATOM     50  C   UNL A   1      40.667  27.889  28.424  1.00  0.00     0.064 A 
ATOM     51  C   UNL A   1      41.444  28.331  27.347  1.00  0.00     0.173 A 
ATOM     52  C   UNL A   1      40.056  26.631  28.320  1.00  0.00     0.173 A 
ATOM     53  F   UNL A   1      42.034  29.535  27.394  1.00  0.00    -0.203 F 
ATOM     54  C   UNL A   1      41.593  27.551  26.202  1.00  0.00     0.198 A 
ATOM     55  C   UNL A   1      40.232  25.838  27.188  1.00  0.00     0.198 A 
ATOM     56  F   UNL A   1      39.309  26.159  29.328  1.00  0.00    -0.203 F 
ATOM     57  F   UNL A   1      42.310  28.013  25.168  1.00  0.00    -0.200 F 
ATOM     58  C   UNL A   1      40.994  26.302  26.126  1.00  0.00     0.200 A 
ATOM     59  F   UNL A   1      39.666  24.625  27.128  1.00  0.00    -0.200 F 
ATOM     60  F   UNL A   1      41.147  25.548  25.030  1.00  0.00    -0.200 F 
ENDBRANCH  26  50
BRANCH  38  61
ATOM     61  C   UNL A   1      44.096  28.244  34.472  1.00  0.00     0.064 A 
ATOM     62  C   UNL A   1      45.406  28.719  34.311  1.00  0.00     0.173 A 
ATOM     63  C   UNL A   1      43.912  27.039  35.165  1.00  0.00     0.173 A 
ATOM     64  F   UNL A   1      45.633  29.858  33.639  1.00  0.00    -0.203 F 
ATOM     65  C   UNL A   1      46.492  28.000  34.803  1.00  0.00     0.198 A 
ATOM     66  C   UNL A   1      44.999  26.337  35.679  1.00  0.00     0.198 A 
ATOM     67  F   UNL A   1      42.679  26.544  35.347  1.00  0.00    -0.203 F 
ATOM     68  F   UNL A   1      47.738  28.447  34.592  1.00  0.00    -0.200 F 
ATOM     69  C   UNL A   1      46.287  26.814  35.490  1.00  0.00     0.200 A 
ATOM     70  F   UNL A   1      44.799  25.195  36.352  1.00  0.00    -0.200 F 
ATOM     71  F   UNL A   1      47.333  26.123  35.963  1.00  0.00    -0.200 F 
ENDBRANCH  38  61
ENDBRANCH  12  13
ENDBRANCH   5   7
ENDBRANCH   2   3
ENDBRANCH   1   2
BRANCH   1  72
ATOM     72  C   UNL A   1      31.820  30.499  26.697  1.00  0.00     0.023 C 
BRANCH  72  73
ATOM     73  C   UNL A   1      31.396  29.868  25.376  1.00  0.00     0.116 C 
BRANCH  73  74
ATOM     74  N   UNL A   1      32.515  29.702  24.462  1.00  0.00    -0.356 N 
ATOM     75  C   UNL A   1      33.090  28.538  24.025  1.00  0.00     0.223 C 
ATOM     76  H   UNL A   1      32.909  30.534  24.112  1.00  0.00     0.163 HD
ATOM     77  O   UNL A   1      34.042  28.597  23.251  1.00  0.00    -0.275 OA
BRANCH  75  78
ATOM     78  C   UNL A   1      32.494  27.222  24.506  1.00  0.00     0.082 C 
ATOM     79  C   UNL A   1      33.230  26.646  25.727  1.00  0.00     0.035 C 
ATOM     80  C   UNL A   1      32.391  26.235  23.328  1.00  0.00     0.035 C 
ATOM     81  C   UNL A   1      34.447  25.785  25.390  1.00  0.00     0.117 C 
ATOM     82  C   UNL A   1      33.712  25.527  23.048  1.00  0.00     0.117 C 
ATOM     83  N   UNL A   1      34.148  24.886  24.280  1.00  0.00    -0.366 N 
BRANCH  83  84
ATOM     84  C   UNL A   1      33.942  23.532  24.456  1.00  0.00     0.116 A 
ATOM     85  C   UNL A   1      32.667  23.051  24.797  1.00  0.00     0.034 A 
ATOM     86  C   UNL A   1      34.939  22.556  24.259  1.00  0.00     0.293 A 
ATOM     87  C   UNL A   1      32.394  21.680  24.916  1.00  0.00     0.016 A 
ATOM     88  C   UNL A   1      34.682  21.176  24.379  1.00  0.00     0.101 A 
ATOM     89  C   UNL A   1      33.399  20.727  24.708  1.00  0.00     0.062 A 
BRANCH  86  90
ATOM     90  N   UNL A   1      36.309  22.941  23.939  1.00  0.00     0.064 N 
ATOM     91  O   UNL A   1      37.033  23.260  24.896  1.00  0.00    -0.258 OA
ATOM     92  O   UNL A   1      36.651  22.981  22.750  1.00  0.00    -0.258 OA
ENDBRANCH  86  90
BRANCH  89  93
ATOM     93  C   UNL A   1      33.089  19.254  24.839  1.00  0.00     0.416 C 
ATOM     94  F   UNL A   1      32.835  18.891  26.125  1.00  0.00    -0.166 F 
ATOM     95  F   UNL A   1      31.990  18.891  24.123  1.00  0.00    -0.166 F 
ATOM     96  F   UNL A   1      34.099  18.448  24.414  1.00  0.00    -0.166 F 
ENDBRANCH  89  93
ENDBRANCH  83  84
ENDBRANCH  75  78
ENDBRANCH  73  74
ENDBRANCH  72  73
ENDBRANCH   1  72
TORSDOF 14
ENDMDL
MODEL 2
REMARK VINA RESULT:     -12.7      0.239      1.662
REMARK SMILES O=C(NCCCCNC(=O)C1CCN(c2ccc(C(F)(F)F)cc2[N+](=O)[O-])CC1)c1ccc(-c2c3nc(c(-c4c(F)c(F)c(F)c(F)c4F)c4ccc([nH]4)c(-c4c(F)c(F)c(F)c(F)c4F)c4nc(c(-c5c(F)c(F)c(F)c(F)c5F)c5ccc2[nH]5)C=C4)C=C3)cc1
REMARK SMILES IDX 5 1 4 2 3 3 1 4 2 5 30 7 31 8 92 9 32 10 91 11 33 12 34 13
REMARK SMILES IDX 35 14 85 15 36 16 90 17 84 18 86 19 37 20 89 21 83 22 82 23
REMARK SMILES IDX 38 25 70 26 50 27 69 28 51 29 54 30 68 31 87 32 52 33 53 34
REMARK SMILES IDX 67 36 88 37 55 38 39 39 40 40 48 41 41 42 42 43 46 44 49 45
REMARK SMILES IDX 43 46 44 47 47 48 45 49 71 50 72 51 80 52 73 53 74 54 78 55
REMARK SMILES IDX 81 56 75 57 76 58 79 59 77 60 56 61 57 62 65 63 58 64 59 65
REMARK SMILES IDX 63 66 66 67 60 68 61 69 64 70 62 71 6 72 7 73 8 74 9 75
REMARK SMILES IDX 10 77 11 78 12 79 29 80 13 81 28 82 14 83 15 84 16 85 24 86
REMARK SMILES IDX 17 87 23 88 18 89 25 90 26 91 27 92 19 93 20 94 21 95 22 96
REMARK H PARENT 3 6 86 24 54 35 8 76
REMARK Flexibility Score: inf
ROOT
ATOM      1  C   UNL A   1      31.575  31.758  26.580  1.00  0.00     0.023 C 
ENDROOT
BRANCH   1   2
ATOM      2  C   UNL A   1      32.784  32.529  27.097  1.00  0.00     0.116 C 
BRANCH   2   3
ATOM      3  N   UNL A   1      32.467  33.884  27.529  1.00  0.00    -0.352 N 
ATOM      4  O   UNL A   1      32.601  35.718  28.847  1.00  0.00    -0.269 OA
ATOM      5  C   UNL A   1      33.054  34.625  28.527  1.00  0.00     0.251 C 
ATOM      6  H   UNL A   1      31.736  34.328  27.042  1.00  0.00     0.163 HD
BRANCH   5   7
ATOM      7  C   UNL A   1      34.226  34.069  29.232  1.00  0.00     0.039 A 
ATOM      8  C   UNL A   1      35.515  34.426  28.834  1.00  0.00     0.014 A 
ATOM      9  C   UNL A   1      34.030  33.153  30.267  1.00  0.00     0.014 A 
ATOM     10  C   UNL A   1      36.607  33.756  29.369  1.00  0.00     0.010 A 
ATOM     11  C   UNL A   1      35.135  32.544  30.867  1.00  0.00     0.010 A 
ATOM     12  C   UNL A   1      36.430  32.818  30.400  1.00  0.00    -0.014 A 
BRANCH  12  13
ATOM     13  C   UNL A   1      37.626  32.197  31.018  1.00  0.00     0.031 A 
ATOM     14  C   UNL A   1      38.080  32.575  32.399  1.00  0.00     0.074 A 
ATOM     15  C   UNL A   1      38.282  31.251  30.320  1.00  0.00     0.049 A 
ATOM     16  N   UNL A   1      39.091  32.109  33.088  1.00  0.00    -0.248 NA
ATOM     17  C   UNL A   1      37.306  33.614  33.096  1.00  0.00     0.031 C 
ATOM     18  C   UNL A   1      37.934  30.815  28.965  1.00  0.00     0.029 A 
ATOM     19  N   UNL A   1      39.359  30.472  30.653  1.00  0.00    -0.354 N 
ATOM     20  C   UNL A   1      39.088  32.807  34.289  1.00  0.00     0.074 A 
ATOM     21  C   UNL A   1      37.987  33.744  34.228  1.00  0.00     0.031 C 
ATOM     22  C   UNL A   1      38.748  29.816  28.602  1.00  0.00     0.029 A 
ATOM     23  C   UNL A   1      39.714  29.584  29.668  1.00  0.00     0.049 A 
ATOM     24  H   UNL A   1      39.831  30.541  31.514  1.00  0.00     0.167 HD
ATOM     25  C   UNL A   1      39.926  32.667  35.345  1.00  0.00     0.037 A 
ATOM     26  C   UNL A   1      40.720  28.692  29.619  1.00  0.00     0.037 A 
ATOM     27  C   UNL A   1      41.009  31.717  35.402  1.00  0.00     0.049 A 
ATOM     28  C   UNL A   1      41.641  28.575  30.799  1.00  0.00     0.074 A 
ATOM     29  C   UNL A   1      41.891  31.473  36.441  1.00  0.00     0.029 A 
ATOM     30  N   UNL A   1      41.359  30.854  34.373  1.00  0.00    -0.354 N 
ATOM     31  N   UNL A   1      41.609  29.219  31.940  1.00  0.00    -0.248 NA
ATOM     32  C   UNL A   1      42.742  27.610  30.680  1.00  0.00     0.031 C 
ATOM     33  C   UNL A   1      42.801  30.496  36.024  1.00  0.00     0.029 A 
ATOM     34  C   UNL A   1      42.458  30.096  34.744  1.00  0.00     0.049 A 
ATOM     35  H   UNL A   1      40.894  30.791  33.506  1.00  0.00     0.167 HD
ATOM     36  C   UNL A   1      42.675  28.732  32.681  1.00  0.00     0.074 A 
ATOM     37  C   UNL A   1      43.319  27.719  31.869  1.00  0.00     0.031 C 
ATOM     38  C   UNL A   1      43.087  29.096  33.919  1.00  0.00     0.037 A 
BRANCH  25  39
ATOM     39  C   UNL A   1      39.721  33.569  36.527  1.00  0.00     0.064 A 
ATOM     40  C   UNL A   1      40.314  34.837  36.600  1.00  0.00     0.173 A 
ATOM     41  C   UNL A   1      38.868  33.184  37.574  1.00  0.00     0.173 A 
ATOM     42  F   UNL A   1      41.146  35.250  35.632  1.00  0.00    -0.203 F 
ATOM     43  C   UNL A   1      40.075  35.680  37.684  1.00  0.00     0.198 A 
ATOM     44  C   UNL A   1      38.611  34.038  38.644  1.00  0.00     0.198 A 
ATOM     45  F   UNL A   1      38.269  31.983  37.551  1.00  0.00    -0.203 F 
ATOM     46  F   UNL A   1      40.681  36.874  37.749  1.00  0.00    -0.200 F 
ATOM     47  C   UNL A   1      39.219  35.283  38.700  1.00  0.00     0.200 A 
ATOM     48  F   UNL A   1      37.774  33.657  39.618  1.00  0.00    -0.200 F 
ATOM     49  F   UNL A   1      38.982  36.100  39.736  1.00  0.00    -0.200 F 
ENDBRANCH  25  39
BRANCH  26  50
ATOM     50  C   UNL A   1      40.903  27.855  28.408  1.00  0.00     0.064 A 
ATOM     51  C   UNL A   1      40.293  26.599  28.300  1.00  0.00     0.173 A 
ATOM     52  C   UNL A   1      41.675  28.304  27.326  1.00  0.00     0.173 A 
ATOM     53  F   UNL A   1      39.559  26.121  29.315  1.00  0.00    -0.203 F 
ATOM     54  C   UNL A   1      40.459  25.817  27.159  1.00  0.00     0.198 A 
ATOM     55  C   UNL A   1      41.815  27.535  26.174  1.00  0.00     0.198 A 
ATOM     56  F   UNL A   1      42.274  29.503  27.379  1.00  0.00    -0.203 F 
ATOM     57  F   UNL A   1      39.897  24.602  27.095  1.00  0.00    -0.200 F 
ATOM     58  C   UNL A   1      41.213  26.288  26.095  1.00  0.00     0.200 A 
ATOM     59  F   UNL A   1      42.529  28.003  25.142  1.00  0.00    -0.200 F 
ATOM     60  F   UNL A   1      41.364  25.539  24.994  1.00  0.00    -0.200 F 
ENDBRANCH  26  50
BRANCH  38  61
ATOM     61  C   UNL A   1      44.282  28.378  34.472  1.00  0.00     0.064 A 
ATOM     62  C   UNL A   1      44.151  27.174  35.179  1.00  0.00     0.173 A 
ATOM     63  C   UNL A   1      45.573  28.892  34.279  1.00  0.00     0.173 A 
ATOM     64  F   UNL A   1      42.935  26.653  35.405  1.00  0.00    -0.203 F 
ATOM     65  C   UNL A   1      45.267  26.525  35.698  1.00  0.00     0.198 A 
ATOM     66  C   UNL A   1      46.689  28.225  34.776  1.00  0.00     0.198 A 
ATOM     67  F   UNL A   1      45.752  30.038  33.607  1.00  0.00    -0.203 F 
ATOM     68  F   UNL A   1      45.113  25.403  36.416  1.00  0.00    -0.200 F 
ATOM     69  C   UNL A   1      46.535  27.047  35.491  1.00  0.00     0.200 A 
ATOM     70  F   UNL A   1      47.915  28.725  34.567  1.00  0.00    -0.200 F 
ATOM     71  F   UNL A   1      47.609  26.421  35.991  1.00  0.00    -0.200 F 
ENDBRANCH  38  61
ENDBRANCH  12  13
ENDBRANCH   5   7
ENDBRANCH   2   3
ENDBRANCH   1   2
BRANCH   1  72
ATOM     72  C   UNL A   1      31.774  30.249  26.468  1.00  0.00     0.023 C 
BRANCH  72  73
ATOM     73  C   UNL A   1      31.382  29.663  25.117  1.00  0.00     0.116 C 
BRANCH  73  74
ATOM     74  N   UNL A   1      32.530  29.469  24.247  1.00  0.00    -0.356 N 
ATOM     75  C   UNL A   1      33.118  28.292  23.864  1.00  0.00     0.223 C 
ATOM     76  H   UNL A   1      32.937  30.289  23.885  1.00  0.00     0.163 HD
ATOM     77  O   UNL A   1      34.096  28.327  23.121  1.00  0.00    -0.275 OA
BRANCH  75  78
ATOM     78  C   UNL A   1      32.504  26.991  24.364  1.00  0.00     0.082 C 
ATOM     79  C   UNL A   1      33.197  26.452  25.626  1.00  0.00     0.035 C 
ATOM     80  C   UNL A   1      32.440  25.969  23.214  1.00  0.00     0.035 C 
ATOM     81  C   UNL A   1      34.423  25.581  25.357  1.00  0.00     0.117 C 
ATOM     82  C   UNL A   1      33.768  25.252  23.000  1.00  0.00     0.117 C 
ATOM     83  N   UNL A   1      34.162  24.648  24.265  1.00  0.00    -0.366 N 
BRANCH  83  84
ATOM     84  C   UNL A   1      33.947  23.301  24.475  1.00  0.00     0.116 A 
ATOM     85  C   UNL A   1      32.672  22.837  24.838  1.00  0.00     0.034 A 
ATOM     86  C   UNL A   1      34.935  22.313  24.291  1.00  0.00     0.293 A 
ATOM     87  C   UNL A   1      32.390  21.471  24.992  1.00  0.00     0.016 A 
ATOM     88  C   UNL A   1      34.669  20.938  24.446  1.00  0.00     0.101 A 
ATOM     89  C   UNL A   1      33.387  20.506  24.798  1.00  0.00     0.062 A 
BRANCH  86  90
ATOM     90  N   UNL A   1      36.306  22.681  23.951  1.00  0.00     0.064 N 
ATOM     91  O   UNL A   1      36.539  22.900  22.752  1.00  0.00    -0.258 OA
ATOM     92  O   UNL A   1      37.155  22.700  24.852  1.00  0.00    -0.258 OA
ENDBRANCH  86  90
BRANCH  89  93
ATOM     93  C   UNL A   1      33.067  19.040  24.966  1.00  0.00     0.416 C 
ATOM     94  F   UNL A   1      34.109  18.239  24.611  1.00  0.00    -0.166 F 
ATOM     95  F   UNL A   1      32.769  18.719  26.254  1.00  0.00    -0.166 F 
ATOM     96  F   UNL A   1      32.007  18.627  24.220  1.00  0.00    -0.166 F 
ENDBRANCH  89  93
ENDBRANCH  83  84
ENDBRANCH  75  78
ENDBRANCH  73  74
ENDBRANCH  72  73
ENDBRANCH   1  72
TORSDOF 14
ENDMDL
MODEL 3
REMARK VINA RESULT:     -12.7      5.384     10.944
REMARK SMILES O=C(NCCCCNC(=O)C1CCN(c2ccc(C(F)(F)F)cc2[N+](=O)[O-])CC1)c1ccc(-c2c3nc(c(-c4c(F)c(F)c(F)c(F)c4F)c4ccc([nH]4)c(-c4c(F)c(F)c(F)c(F)c4F)c4nc(c(-c5c(F)c(F)c(F)c(F)c5F)c5ccc2[nH]5)C=C4)C=C3)cc1
REMARK SMILES IDX 5 1 4 2 3 3 1 4 2 5 30 7 31 8 92 9 32 10 91 11 33 12 34 13
REMARK SMILES IDX 35 14 85 15 36 16 90 17 84 18 86 19 37 20 89 21 83 22 82 23
REMARK SMILES IDX 38 25 70 26 50 27 69 28 51 29 54 30 68 31 87 32 52 33 53 34
REMARK SMILES IDX 67 36 88 37 55 38 39 39 40 40 48 41 41 42 42 43 46 44 49 45
REMARK SMILES IDX 43 46 44 47 47 48 45 49 71 50 72 51 80 52 73 53 74 54 78 55
REMARK SMILES IDX 81 56 75 57 76 58 79 59 77 60 56 61 57 62 65 63 58 64 59 65
REMARK SMILES IDX 63 66 66 67 60 68 61 69 64 70 62 71 6 72 7 73 8 74 9 75
REMARK SMILES IDX 10 77 11 78 12 79 29 80 13 81 28 82 14 83 15 84 16 85 24 86
REMARK SMILES IDX 17 87 23 88 18 89 25 90 26 91 27 92 19 93 20 94 21 95 22 96
REMARK H PARENT 3 6 86 24 54 35 8 76
REMARK Flexibility Score: inf
ROOT
ATOM      1  C   UNL A   1      38.040  19.876  24.984  1.00  0.00     0.023 C 
ENDROOT
BRANCH   1   2
ATOM      2  C   UNL A   1      39.215  20.220  25.893  1.00  0.00     0.116 C 
BRANCH   2   3
ATOM      3  N   UNL A   1      40.252  19.198  25.914  1.00  0.00    -0.352 N 
ATOM      4  O   UNL A   1      42.369  18.402  25.978  1.00  0.00    -0.269 OA
ATOM      5  C   UNL A   1      41.606  19.354  26.096  1.00  0.00     0.251 C 
ATOM      6  H   UNL A   1      39.943  18.273  25.780  1.00  0.00     0.163 HD
BRANCH   5   7
ATOM      7  C   UNL A   1      42.133  20.697  26.408  1.00  0.00     0.039 A 
ATOM      8  C   UNL A   1      42.312  21.086  27.736  1.00  0.00     0.014 A 
ATOM      9  C   UNL A   1      42.407  21.583  25.365  1.00  0.00     0.014 A 
ATOM     10  C   UNL A   1      42.621  22.408  28.027  1.00  0.00     0.010 A 
ATOM     11  C   UNL A   1      42.805  22.890  25.657  1.00  0.00     0.010 A 
ATOM     12  C   UNL A   1      42.885  23.320  26.990  1.00  0.00    -0.014 A 
BRANCH  12  13
ATOM     13  C   UNL A   1      43.312  24.696  27.338  1.00  0.00     0.031 A 
ATOM     14  C   UNL A   1      44.709  25.175  27.068  1.00  0.00     0.074 A 
ATOM     15  C   UNL A   1      42.398  25.529  27.873  1.00  0.00     0.049 A 
ATOM     16  N   UNL A   1      45.233  26.354  27.293  1.00  0.00    -0.248 NA
ATOM     17  C   UNL A   1      45.646  24.205  26.478  1.00  0.00     0.031 C 
ATOM     18  C   UNL A   1      41.014  25.165  28.188  1.00  0.00     0.029 A 
ATOM     19  N   UNL A   1      42.483  26.850  28.228  1.00  0.00    -0.354 N 
ATOM     20  C   UNL A   1      46.560  26.266  26.890  1.00  0.00     0.074 A 
ATOM     21  C   UNL A   1      46.769  24.911  26.426  1.00  0.00     0.031 C 
ATOM     22  C   UNL A   1      40.368  26.246  28.642  1.00  0.00     0.029 A 
ATOM     23  C   UNL A   1      41.304  27.360  28.712  1.00  0.00     0.049 A 
ATOM     24  H   UNL A   1      43.308  27.380  28.143  1.00  0.00     0.167 HD
ATOM     25  C   UNL A   1      47.508  27.233  26.901  1.00  0.00     0.037 A 
ATOM     26  C   UNL A   1      41.013  28.587  29.180  1.00  0.00     0.037 A 
ATOM     27  C   UNL A   1      47.283  28.585  27.350  1.00  0.00     0.049 A 
ATOM     28  C   UNL A   1      42.091  29.631  29.195  1.00  0.00     0.074 A 
ATOM     29  C   UNL A   1      48.170  29.649  27.366  1.00  0.00     0.029 A 
ATOM     30  N   UNL A   1      46.084  29.059  27.862  1.00  0.00    -0.354 N 
ATOM     31  N   UNL A   1      43.332  29.544  28.784  1.00  0.00    -0.248 NA
ATOM     32  C   UNL A   1      41.728  30.943  29.746  1.00  0.00     0.031 C 
ATOM     33  C   UNL A   1      47.521  30.752  27.931  1.00  0.00     0.029 A 
ATOM     34  C   UNL A   1      46.216  30.392  28.221  1.00  0.00     0.049 A 
ATOM     35  H   UNL A   1      45.261  28.527  27.958  1.00  0.00     0.167 HD
ATOM     36  C   UNL A   1      43.897  30.789  29.014  1.00  0.00     0.074 A 
ATOM     37  C   UNL A   1      42.855  31.622  29.578  1.00  0.00     0.031 C 
ATOM     38  C   UNL A   1      45.167  31.202  28.786  1.00  0.00     0.037 A 
BRANCH  25  39
ATOM     39  C   UNL A   1      48.886  26.871  26.429  1.00  0.00     0.064 A 
ATOM     40  C   UNL A   1      49.844  26.324  27.296  1.00  0.00     0.173 A 
ATOM     41  C   UNL A   1      49.233  27.013  25.076  1.00  0.00     0.173 A 
ATOM     42  F   UNL A   1      49.567  26.176  28.600  1.00  0.00    -0.203 F 
ATOM     43  C   UNL A   1      51.102  25.950  26.830  1.00  0.00     0.198 A 
ATOM     44  C   UNL A   1      50.483  26.616  24.609  1.00  0.00     0.198 A 
ATOM     45  F   UNL A   1      48.352  27.525  24.203  1.00  0.00    -0.203 F 
ATOM     46  F   UNL A   1      52.013  25.462  27.684  1.00  0.00    -0.200 F 
ATOM     47  C   UNL A   1      51.418  26.089  25.487  1.00  0.00     0.200 A 
ATOM     48  F   UNL A   1      50.781  26.739  23.308  1.00  0.00    -0.200 F 
ATOM     49  F   UNL A   1      52.626  25.718  25.039  1.00  0.00    -0.200 F 
ENDBRANCH  25  39
BRANCH  26  50
ATOM     50  C   UNL A   1      39.644  28.880  29.674  1.00  0.00     0.064 A 
ATOM     51  C   UNL A   1      38.667  29.409  28.822  1.00  0.00     0.173 A 
ATOM     52  C   UNL A   1      39.282  28.616  31.003  1.00  0.00     0.173 A 
ATOM     53  F   UNL A   1      38.972  29.694  27.547  1.00  0.00    -0.203 F 
ATOM     54  C   UNL A   1      37.381  29.677  29.285  1.00  0.00     0.198 A 
ATOM     55  C   UNL A   1      37.987  28.855  31.457  1.00  0.00     0.198 A 
ATOM     56  F   UNL A   1      40.181  28.101  31.856  1.00  0.00    -0.203 F 
ATOM     57  F   UNL A   1      36.474  30.220  28.462  1.00  0.00    -0.200 F 
ATOM     58  C   UNL A   1      37.039  29.393  30.599  1.00  0.00     0.200 A 
ATOM     59  F   UNL A   1      37.658  28.560  32.721  1.00  0.00    -0.200 F 
ATOM     60  F   UNL A   1      35.799  29.640  31.041  1.00  0.00    -0.200 F 
ENDBRANCH  26  50
BRANCH  38  61
ATOM     61  C   UNL A   1      45.487  32.626  29.132  1.00  0.00     0.064 A 
ATOM     62  C   UNL A   1      46.007  32.975  30.387  1.00  0.00     0.173 A 
ATOM     63  C   UNL A   1      45.284  33.649  28.195  1.00  0.00     0.173 A 
ATOM     64  F   UNL A   1      46.201  32.033  31.323  1.00  0.00    -0.203 F 
ATOM     65  C   UNL A   1      46.288  34.302  30.700  1.00  0.00     0.198 A 
ATOM     66  C   UNL A   1      45.592  34.971  28.502  1.00  0.00     0.198 A 
ATOM     67  F   UNL A   1      44.791  33.366  26.980  1.00  0.00    -0.203 F 
ATOM     68  F   UNL A   1      46.736  34.619  31.923  1.00  0.00    -0.200 F 
ATOM     69  C   UNL A   1      46.086  35.297  29.756  1.00  0.00     0.200 A 
ATOM     70  F   UNL A   1      45.405  35.932  27.586  1.00  0.00    -0.200 F 
ATOM     71  F   UNL A   1      46.356  36.574  30.059  1.00  0.00    -0.200 F 
ENDBRANCH  38  61
ENDBRANCH  12  13
ENDBRANCH   5   7
ENDBRANCH   2   3
ENDBRANCH   1   2
BRANCH   1  72
ATOM     72  C   UNL A   1      37.053  21.016  24.748  1.00  0.00     0.023 C 
BRANCH  72  73
ATOM     73  C   UNL A   1      35.594  20.642  24.983  1.00  0.00     0.116 C 
BRANCH  73  74
ATOM     74  N   UNL A   1      35.105  21.116  26.267  1.00  0.00    -0.356 N 
ATOM     75  C   UNL A   1      34.274  22.176  26.522  1.00  0.00     0.223 C 
ATOM     76  H   UNL A   1      35.410  20.611  27.055  1.00  0.00     0.163 HD
ATOM     77  O   UNL A   1      33.972  22.432  27.685  1.00  0.00    -0.275 OA
BRANCH  75  78
ATOM     78  C   UNL A   1      33.742  22.967  25.335  1.00  0.00     0.082 C 
ATOM     79  C   UNL A   1      34.606  24.196  25.004  1.00  0.00     0.035 C 
ATOM     80  C   UNL A   1      32.255  23.303  25.556  1.00  0.00     0.035 C 
ATOM     81  C   UNL A   1      34.253  25.455  25.795  1.00  0.00     0.117 C 
ATOM     82  C   UNL A   1      32.063  24.524  26.448  1.00  0.00     0.117 C 
ATOM     83  N   UNL A   1      32.806  25.630  25.863  1.00  0.00    -0.366 N 
BRANCH  83  84
ATOM     84  C   UNL A   1      32.139  26.587  25.124  1.00  0.00     0.116 A 
ATOM     85  C   UNL A   1      31.797  26.333  23.786  1.00  0.00     0.034 A 
ATOM     86  C   UNL A   1      31.710  27.822  25.648  1.00  0.00     0.293 A 
ATOM     87  C   UNL A   1      31.057  27.245  23.018  1.00  0.00     0.016 A 
ATOM     88  C   UNL A   1      30.970  28.751  24.889  1.00  0.00     0.101 A 
ATOM     89  C   UNL A   1      30.635  28.465  23.562  1.00  0.00     0.062 A 
BRANCH  86  90
ATOM     90  N   UNL A   1      32.040  28.210  27.016  1.00  0.00     0.064 N 
ATOM     91  O   UNL A   1      31.238  27.867  27.898  1.00  0.00    -0.258 OA
ATOM     92  O   UNL A   1      33.055  28.892  27.208  1.00  0.00    -0.258 OA
ENDBRANCH  86  90
BRANCH  89  93
ATOM     93  C   UNL A   1      29.839  29.436  22.723  1.00  0.00     0.416 C 
ATOM     94  F   UNL A   1      30.527  29.863  21.630  1.00  0.00    -0.166 F 
ATOM     95  F   UNL A   1      28.686  28.888  22.250  1.00  0.00    -0.166 F 
ATOM     96  F   UNL A   1      29.471  30.560  23.397  1.00  0.00    -0.166 F 
ENDBRANCH  89  93
ENDBRANCH  83  84
ENDBRANCH  75  78
ENDBRANCH  73  74
ENDBRANCH  72  73
ENDBRANCH   1  72
TORSDOF 14
ENDMDL
