MODEL 1
REMARK VINA RESULT:     -12.0      0.000      0.000
REMARK SMILES Cc1cc(CC(=O)C(=O)NCCCCNC(=O)c2ccc(-c3c4nc(c(-c5c(F)c(F)c(F)c(F)c5F)c5ccc([nH]5)c(-c5c(F)c(F)c(F)c(F)c5F)c5nc(c(-c6c(F)c(F)c(F)c(F)c6F)c6ccc3[nH]6)C=C5)C=C4)cc2)cc2cn[nH]c12
REMARK SMILES IDX 12 1 11 2 10 3 8 4 9 5 6 7 7 8 5 9 4 10 1 11 2 12 3 13 86 14
REMARK SMILES IDX 82 15 85 16 81 17 83 18 84 19 13 21 14 22 15 23 16 24 17 26
REMARK SMILES IDX 18 27 19 28 80 29 20 30 79 31 21 32 22 33 23 34 73 35 24 36
REMARK SMILES IDX 78 37 72 38 74 39 25 40 77 41 71 42 70 43 26 45 58 46 38 47
REMARK SMILES IDX 57 48 39 49 42 50 56 51 75 52 40 53 41 54 55 56 76 57 43 58
REMARK SMILES IDX 27 59 28 60 36 61 29 62 30 63 34 64 37 65 31 66 32 67 35 68
REMARK SMILES IDX 33 69 59 70 60 71 68 72 61 73 62 74 66 75 69 76 63 77 64 78
REMARK SMILES IDX 67 79 65 80 44 81 45 82 53 83 46 84 47 85 51 86 54 87 48 88
REMARK SMILES IDX 49 89 52 90 50 91
REMARK H PARENT 10 6 85 20 15 25 74 44 42 55
REMARK Flexibility Score: inf
ROOT
ATOM      1  C   UNL A   1      40.861  20.913  26.550  1.00  0.00     0.023 C 
ENDROOT
BRANCH   1   2
ATOM      2  C   UNL A   1      39.533  21.293  25.887  1.00  0.00     0.116 C 
BRANCH   2   3
ATOM      3  N   UNL A   1      39.033  22.565  26.377  1.00  0.00    -0.349 N 
ATOM      4  C   UNL A   1      37.933  23.303  25.998  1.00  0.00     0.287 C 
ATOM      5  O   UNL A   1      37.778  24.427  26.462  1.00  0.00    -0.266 OA
ATOM      6  H   UNL A   1      39.567  22.967  27.100  1.00  0.00     0.163 HD
BRANCH   4   7
ATOM      7  C   UNL A   1      36.897  22.752  25.003  1.00  0.00     0.224 C 
ATOM      8  O   UNL A   1      37.225  22.347  23.893  1.00  0.00    -0.288 OA
BRANCH   7   9
ATOM      9  C   UNL A   1      35.448  22.840  25.423  1.00  0.00     0.122 C 
BRANCH   9  10
ATOM     10  C   UNL A   1      34.673  24.002  24.847  1.00  0.00    -0.039 A 
ATOM     11  C   UNL A   1      33.630  27.489  26.031  1.00  0.00     0.047 C 
ATOM     12  C   UNL A   1      33.788  26.288  25.145  1.00  0.00    -0.025 A 
ATOM     13  C   UNL A   1      34.482  25.158  25.621  1.00  0.00     0.009 A 
ATOM     14  C   UNL A   1      33.291  26.190  23.837  1.00  0.00     0.068 A 
ATOM     15  C   UNL A   1      33.470  25.070  23.032  1.00  0.00     0.020 A 
ATOM     16  N   UNL A   1      32.574  27.068  23.064  1.00  0.00    -0.278 N 
ATOM     17  C   UNL A   1      34.179  23.962  23.532  1.00  0.00     0.016 A 
ATOM     18  C   UNL A   1      32.829  25.398  21.817  1.00  0.00     0.143 A 
ATOM     19  N   UNL A   1      32.276  26.613  21.834  1.00  0.00    -0.183 NA
ATOM     20  H   UNL A   1      32.299  27.959  23.384  1.00  0.00     0.190 HD
ENDBRANCH   9  10
ENDBRANCH   7   9
ENDBRANCH   4   7
ENDBRANCH   2   3
ENDBRANCH   1   2
BRANCH   1  21
ATOM     21  C   UNL A   1      41.439  19.547  26.138  1.00  0.00     0.023 C 
BRANCH  21  22
ATOM     22  C   UNL A   1      42.860  19.282  26.626  1.00  0.00     0.116 C 
BRANCH  22  23
ATOM     23  N   UNL A   1      43.836  19.325  25.546  1.00  0.00    -0.352 N 
ATOM     24  C   UNL A   1      44.279  20.414  24.826  1.00  0.00     0.251 C 
ATOM     25  H   UNL A   1      44.233  18.461  25.297  1.00  0.00     0.163 HD
ATOM     26  O   UNL A   1      44.784  20.254  23.724  1.00  0.00    -0.269 OA
BRANCH  24  27
ATOM     27  C   UNL A   1      44.147  21.774  25.383  1.00  0.00     0.039 A 
ATOM     28  C   UNL A   1      43.304  22.696  24.754  1.00  0.00     0.014 A 
ATOM     29  C   UNL A   1      44.905  22.156  26.492  1.00  0.00     0.014 A 
ATOM     30  C   UNL A   1      43.184  23.977  25.283  1.00  0.00     0.010 A 
ATOM     31  C   UNL A   1      44.723  23.395  27.071  1.00  0.00     0.010 A 
ATOM     32  C   UNL A   1      43.884  24.313  26.453  1.00  0.00    -0.014 A 
BRANCH  32  33
ATOM     33  C   UNL A   1      43.602  25.585  27.109  1.00  0.00     0.031 A 
ATOM     34  C   UNL A   1      44.542  26.662  26.711  1.00  0.00     0.074 A 
ATOM     35  C   UNL A   1      42.513  25.837  27.864  1.00  0.00     0.049 A 
ATOM     36  N   UNL A   1      45.502  27.153  27.419  1.00  0.00    -0.248 NA
ATOM     37  C   UNL A   1      44.525  27.145  25.320  1.00  0.00     0.031 C 
ATOM     38  C   UNL A   1      41.338  24.979  28.041  1.00  0.00     0.029 A 
ATOM     39  N   UNL A   1      42.176  26.962  28.566  1.00  0.00    -0.354 N 
ATOM     40  C   UNL A   1      46.041  28.187  26.658  1.00  0.00     0.074 A 
ATOM     41  C   UNL A   1      45.559  27.992  25.318  1.00  0.00     0.031 C 
ATOM     42  C   UNL A   1      40.335  25.695  28.596  1.00  0.00     0.029 A 
ATOM     43  C   UNL A   1      40.845  27.002  28.971  1.00  0.00     0.049 A 
ATOM     44  H   UNL A   1      42.819  27.681  28.765  1.00  0.00     0.167 HD
ATOM     45  C   UNL A   1      46.543  29.287  27.284  1.00  0.00     0.037 A 
ATOM     46  C   UNL A   1      40.206  28.042  29.562  1.00  0.00     0.037 A 
ATOM     47  C   UNL A   1      46.687  29.035  28.696  1.00  0.00     0.049 A 
ATOM     48  C   UNL A   1      41.236  28.884  30.212  1.00  0.00     0.074 A 
ATOM     49  C   UNL A   1      47.555  28.366  29.527  1.00  0.00     0.029 A 
ATOM     50  N   UNL A   1      45.528  29.241  29.391  1.00  0.00    -0.354 N 
ATOM     51  N   UNL A   1      41.953  28.490  31.229  1.00  0.00    -0.248 NA
ATOM     52  C   UNL A   1      41.718  30.080  29.528  1.00  0.00     0.031 C 
ATOM     53  C   UNL A   1      46.831  28.099  30.729  1.00  0.00     0.029 A 
ATOM     54  C   UNL A   1      45.556  28.645  30.617  1.00  0.00     0.049 A 
ATOM     55  H   UNL A   1      44.764  29.759  29.047  1.00  0.00     0.167 HD
ATOM     56  C   UNL A   1      43.168  29.113  31.042  1.00  0.00     0.074 A 
ATOM     57  C   UNL A   1      42.913  30.202  30.109  1.00  0.00     0.031 C 
ATOM     58  C   UNL A   1      44.330  28.479  31.363  1.00  0.00     0.037 A 
BRANCH  45  59
ATOM     59  C   UNL A   1      46.390  30.720  26.805  1.00  0.00     0.064 A 
ATOM     60  C   UNL A   1      47.530  31.556  26.819  1.00  0.00     0.173 A 
ATOM     61  C   UNL A   1      45.155  31.389  26.677  1.00  0.00     0.173 A 
ATOM     62  F   UNL A   1      48.758  31.037  26.953  1.00  0.00    -0.203 F 
ATOM     63  C   UNL A   1      47.428  32.951  26.794  1.00  0.00     0.198 A 
ATOM     64  C   UNL A   1      45.062  32.779  26.602  1.00  0.00     0.198 A 
ATOM     65  F   UNL A   1      43.983  30.750  26.740  1.00  0.00    -0.203 F 
ATOM     66  F   UNL A   1      48.528  33.703  26.941  1.00  0.00    -0.200 F 
ATOM     67  C   UNL A   1      46.193  33.561  26.693  1.00  0.00     0.200 A 
ATOM     68  F   UNL A   1      43.852  33.354  26.532  1.00  0.00    -0.200 F 
ATOM     69  F   UNL A   1      46.086  34.896  26.730  1.00  0.00    -0.200 F 
ENDBRANCH  45  59
BRANCH  46  70
ATOM     70  C   UNL A   1      38.803  28.501  29.409  1.00  0.00     0.064 A 
ATOM     71  C   UNL A   1      37.980  28.682  30.536  1.00  0.00     0.173 A 
ATOM     72  C   UNL A   1      38.346  29.071  28.206  1.00  0.00     0.173 A 
ATOM     73  F   UNL A   1      38.352  28.195  31.730  1.00  0.00    -0.203 F 
ATOM     74  C   UNL A   1      36.807  29.442  30.478  1.00  0.00     0.198 A 
ATOM     75  C   UNL A   1      37.170  29.825  28.148  1.00  0.00     0.198 A 
ATOM     76  F   UNL A   1      39.081  28.999  27.089  1.00  0.00    -0.203 F 
ATOM     77  F   UNL A   1      36.099  29.664  31.595  1.00  0.00    -0.200 F 
ATOM     78  C   UNL A   1      36.413  30.028  29.288  1.00  0.00     0.200 A 
ATOM     79  F   UNL A   1      36.815  30.414  26.998  1.00  0.00    -0.200 F 
ATOM     80  F   UNL A   1      35.335  30.824  29.249  1.00  0.00    -0.200 F 
ENDBRANCH  46  70
BRANCH  58  81
ATOM     81  C   UNL A   1      44.304  27.437  32.428  1.00  0.00     0.064 A 
ATOM     82  C   UNL A   1      44.179  26.061  32.197  1.00  0.00     0.173 A 
ATOM     83  C   UNL A   1      44.569  27.864  33.737  1.00  0.00     0.173 A 
ATOM     84  F   UNL A   1      43.982  25.582  30.962  1.00  0.00    -0.203 F 
ATOM     85  C   UNL A   1      44.318  25.149  33.244  1.00  0.00     0.198 A 
ATOM     86  C   UNL A   1      44.742  26.953  34.771  1.00  0.00     0.198 A 
ATOM     87  F   UNL A   1      44.722  29.172  33.999  1.00  0.00    -0.203 F 
ATOM     88  F   UNL A   1      44.203  23.834  33.010  1.00  0.00    -0.200 F 
ATOM     89  C   UNL A   1      44.615  25.596  34.524  1.00  0.00     0.200 A 
ATOM     90  F   UNL A   1      45.068  27.390  35.995  1.00  0.00    -0.200 F 
ATOM     91  F   UNL A   1      44.806  24.717  35.518  1.00  0.00    -0.200 F 
ENDBRANCH  58  81
ENDBRANCH  32  33
ENDBRANCH  24  27
ENDBRANCH  22  23
ENDBRANCH  21  22
ENDBRANCH   1  21
TORSDOF 13
ENDMDL
MODEL 2
REMARK VINA RESULT:     -11.9      1.707      2.270
REMARK SMILES Cc1cc(CC(=O)C(=O)NCCCCNC(=O)c2ccc(-c3c4nc(c(-c5c(F)c(F)c(F)c(F)c5F)c5ccc([nH]5)c(-c5c(F)c(F)c(F)c(F)c5F)c5nc(c(-c6c(F)c(F)c(F)c(F)c6F)c6ccc3[nH]6)C=C5)C=C4)cc2)cc2cn[nH]c12
REMARK SMILES IDX 12 1 11 2 10 3 8 4 9 5 6 7 7 8 5 9 4 10 1 11 2 12 3 13 86 14
REMARK SMILES IDX 82 15 85 16 81 17 83 18 84 19 13 21 14 22 15 23 16 24 17 26
REMARK SMILES IDX 18 27 19 28 80 29 20 30 79 31 21 32 22 33 23 34 73 35 24 36
REMARK SMILES IDX 78 37 72 38 74 39 25 40 77 41 71 42 70 43 26 45 58 46 38 47
REMARK SMILES IDX 57 48 39 49 42 50 56 51 75 52 40 53 41 54 55 56 76 57 43 58
REMARK SMILES IDX 27 59 28 60 36 61 29 62 30 63 34 64 37 65 31 66 32 67 35 68
REMARK SMILES IDX 33 69 59 70 60 71 68 72 61 73 62 74 66 75 69 76 63 77 64 78
REMARK SMILES IDX 67 79 65 80 44 81 45 82 53 83 46 84 47 85 51 86 54 87 48 88
REMARK SMILES IDX 49 89 52 90 50 91
REMARK H PARENT 10 6 85 20 15 25 74 44 42 55
REMARK Flexibility Score: inf
ROOT
ATOM      1  C   UNL A   1      40.755  20.772  26.484  1.00  0.00     0.023 C 
ENDROOT
BRANCH   1   2
ATOM      2  C   UNL A   1      39.316  21.076  26.054  1.00  0.00     0.116 C 
BRANCH   2   3
ATOM      3  N   UNL A   1      38.894  22.396  26.488  1.00  0.00    -0.349 N 
ATOM      4  C   UNL A   1      37.868  23.200  26.044  1.00  0.00     0.287 C 
ATOM      5  O   UNL A   1      37.779  24.347  26.470  1.00  0.00    -0.266 OA
ATOM      6  H   UNL A   1      39.430  22.780  27.220  1.00  0.00     0.163 HD
BRANCH   4   7
ATOM      7  C   UNL A   1      36.832  22.697  25.025  1.00  0.00     0.224 C 
ATOM      8  O   UNL A   1      37.142  22.444  23.866  1.00  0.00    -0.288 OA
BRANCH   7   9
ATOM      9  C   UNL A   1      35.397  22.635  25.498  1.00  0.00     0.122 C 
BRANCH   9  10
ATOM     10  C   UNL A   1      34.554  21.546  24.877  1.00  0.00    -0.039 A 
ATOM     11  C   UNL A   1      31.644  21.377  22.397  1.00  0.00     0.047 C 
ATOM     12  C   UNL A   1      32.715  20.930  23.348  1.00  0.00    -0.025 A 
ATOM     13  C   UNL A   1      33.530  21.891  23.981  1.00  0.00     0.009 A 
ATOM     14  C   UNL A   1      32.990  19.593  23.670  1.00  0.00     0.068 A 
ATOM     15  C   UNL A   1      34.004  19.209  24.541  1.00  0.00     0.020 A 
ATOM     16  N   UNL A   1      32.410  18.418  23.264  1.00  0.00    -0.278 N 
ATOM     17  C   UNL A   1      34.808  20.191  25.148  1.00  0.00     0.016 A 
ATOM     18  C   UNL A   1      33.935  17.798  24.568  1.00  0.00     0.143 A 
ATOM     19  N   UNL A   1      32.960  17.312  23.795  1.00  0.00    -0.183 NA
ATOM     20  H   UNL A   1      31.652  18.387  22.635  1.00  0.00     0.190 HD
ENDBRANCH   9  10
ENDBRANCH   7   9
ENDBRANCH   4   7
ENDBRANCH   2   3
ENDBRANCH   1   2
BRANCH   1  21
ATOM     21  C   UNL A   1      41.328  19.434  25.981  1.00  0.00     0.023 C 
BRANCH  21  22
ATOM     22  C   UNL A   1      42.728  19.107  26.490  1.00  0.00     0.116 C 
BRANCH  22  23
ATOM     23  N   UNL A   1      43.726  19.135  25.431  1.00  0.00    -0.352 N 
ATOM     24  C   UNL A   1      44.208  20.217  24.727  1.00  0.00     0.251 C 
ATOM     25  H   UNL A   1      44.108  18.262  25.184  1.00  0.00     0.163 HD
ATOM     26  O   UNL A   1      44.731  20.053  23.634  1.00  0.00    -0.269 OA
BRANCH  24  27
ATOM     27  C   UNL A   1      44.096  21.577  25.290  1.00  0.00     0.039 A 
ATOM     28  C   UNL A   1      43.186  22.480  24.732  1.00  0.00     0.014 A 
ATOM     29  C   UNL A   1      44.937  21.977  26.331  1.00  0.00     0.014 A 
ATOM     30  C   UNL A   1      43.086  23.760  25.267  1.00  0.00     0.010 A 
ATOM     31  C   UNL A   1      44.780  23.214  26.921  1.00  0.00     0.010 A 
ATOM     32  C   UNL A   1      43.874  24.114  26.373  1.00  0.00    -0.014 A 
BRANCH  32  33
ATOM     33  C   UNL A   1      43.623  25.382  27.048  1.00  0.00     0.031 A 
ATOM     34  C   UNL A   1      44.589  26.442  26.666  1.00  0.00     0.074 A 
ATOM     35  C   UNL A   1      42.540  25.650  27.807  1.00  0.00     0.049 A 
ATOM     36  N   UNL A   1      45.560  26.900  27.381  1.00  0.00    -0.248 NA
ATOM     37  C   UNL A   1      44.583  26.945  25.282  1.00  0.00     0.031 C 
ATOM     38  C   UNL A   1      41.345  24.818  27.972  1.00  0.00     0.029 A 
ATOM     39  N   UNL A   1      42.230  26.772  28.526  1.00  0.00    -0.354 N 
ATOM     40  C   UNL A   1      46.124  27.931  26.635  1.00  0.00     0.074 A 
ATOM     41  C   UNL A   1      45.638  27.768  25.292  1.00  0.00     0.031 C 
ATOM     42  C   UNL A   1      40.359  25.550  28.538  1.00  0.00     0.029 A 
ATOM     43  C   UNL A   1      40.901  26.838  28.932  1.00  0.00     0.049 A 
ATOM     44  H   UNL A   1      42.891  27.472  28.735  1.00  0.00     0.167 HD
ATOM     45  C   UNL A   1      46.653  29.009  27.277  1.00  0.00     0.037 A 
ATOM     46  C   UNL A   1      40.288  27.885  29.538  1.00  0.00     0.037 A 
ATOM     47  C   UNL A   1      46.790  28.733  28.685  1.00  0.00     0.049 A 
ATOM     48  C   UNL A   1      41.337  28.691  30.200  1.00  0.00     0.074 A 
ATOM     49  C   UNL A   1      47.642  28.031  29.506  1.00  0.00     0.029 A 
ATOM     50  N   UNL A   1      45.637  28.956  29.383  1.00  0.00    -0.354 N 
ATOM     51  N   UNL A   1      42.045  28.266  31.212  1.00  0.00    -0.248 NA
ATOM     52  C   UNL A   1      41.848  29.886  29.534  1.00  0.00     0.031 C 
ATOM     53  C   UNL A   1      46.912  27.764  30.704  1.00  0.00     0.029 A 
ATOM     54  C   UNL A   1      45.650  28.342  30.601  1.00  0.00     0.049 A 
ATOM     55  H   UNL A   1      44.886  29.498  29.048  1.00  0.00     0.167 HD
ATOM     56  C   UNL A   1      43.274  28.862  31.033  1.00  0.00     0.074 A 
ATOM     57  C   UNL A   1      43.045  29.970  30.116  1.00  0.00     0.031 C 
ATOM     58  C   UNL A   1      44.420  28.195  31.344  1.00  0.00     0.037 A 
BRANCH  45  59
ATOM     59  C   UNL A   1      46.534  30.452  26.819  1.00  0.00     0.064 A 
ATOM     60  C   UNL A   1      47.682  31.275  26.891  1.00  0.00     0.173 A 
ATOM     61  C   UNL A   1      45.313  31.138  26.657  1.00  0.00     0.173 A 
ATOM     62  F   UNL A   1      48.899  30.738  27.063  1.00  0.00    -0.203 F 
ATOM     63  C   UNL A   1      47.598  32.671  26.889  1.00  0.00     0.198 A 
ATOM     64  C   UNL A   1      45.239  32.531  26.605  1.00  0.00     0.198 A 
ATOM     65  F   UNL A   1      44.132  30.512  26.664  1.00  0.00    -0.203 F 
ATOM     66  F   UNL A   1      48.700  33.406  27.091  1.00  0.00    -0.200 F 
ATOM     67  C   UNL A   1      46.374  33.297  26.752  1.00  0.00     0.200 A 
ATOM     68  F   UNL A   1      44.039  33.121  26.499  1.00  0.00    -0.200 F 
ATOM     69  F   UNL A   1      46.281  34.632  26.810  1.00  0.00    -0.200 F 
ENDBRANCH  45  59
BRANCH  46  70
ATOM     70  C   UNL A   1      38.896  28.379  29.393  1.00  0.00     0.064 A 
ATOM     71  C   UNL A   1      38.076  28.558  30.522  1.00  0.00     0.173 A 
ATOM     72  C   UNL A   1      38.454  28.983  28.201  1.00  0.00     0.173 A 
ATOM     73  F   UNL A   1      38.434  28.040  31.707  1.00  0.00    -0.203 F 
ATOM     74  C   UNL A   1      36.921  29.347  30.477  1.00  0.00     0.198 A 
ATOM     75  C   UNL A   1      37.296  29.765  28.156  1.00  0.00     0.198 A 
ATOM     76  F   UNL A   1      39.189  28.914  27.083  1.00  0.00    -0.203 F 
ATOM     77  F   UNL A   1      36.217  29.565  31.597  1.00  0.00    -0.200 F 
ATOM     78  C   UNL A   1      36.543  29.964  29.298  1.00  0.00     0.200 A 
ATOM     79  F   UNL A   1      36.958  30.384  27.016  1.00  0.00    -0.200 F 
ATOM     80  F   UNL A   1      35.485  30.787  29.273  1.00  0.00    -0.200 F 
ENDBRANCH  46  70
BRANCH  58  81
ATOM     81  C   UNL A   1      44.370  27.138  32.394  1.00  0.00     0.064 A 
ATOM     82  C   UNL A   1      44.236  25.766  32.142  1.00  0.00     0.173 A 
ATOM     83  C   UNL A   1      44.617  27.544  33.713  1.00  0.00     0.173 A 
ATOM     84  F   UNL A   1      44.054  25.307  30.897  1.00  0.00    -0.203 F 
ATOM     85  C   UNL A   1      44.351  24.839  33.178  1.00  0.00     0.198 A 
ATOM     86  C   UNL A   1      44.766  26.617  34.736  1.00  0.00     0.198 A 
ATOM     87  F   UNL A   1      44.777  28.847  33.996  1.00  0.00    -0.203 F 
ATOM     88  F   UNL A   1      44.229  23.528  32.923  1.00  0.00    -0.200 F 
ATOM     89  C   UNL A   1      44.633  25.265  34.468  1.00  0.00     0.200 A 
ATOM     90  F   UNL A   1      45.077  27.034  35.971  1.00  0.00    -0.200 F 
ATOM     91  F   UNL A   1      44.801  24.370  35.452  1.00  0.00    -0.200 F 
ENDBRANCH  58  81
ENDBRANCH  32  33
ENDBRANCH  24  27
ENDBRANCH  22  23
ENDBRANCH  21  22
ENDBRANCH   1  21
TORSDOF 13
ENDMDL
MODEL 3
REMARK VINA RESULT:     -11.9      3.382      4.586
REMARK SMILES Cc1cc(CC(=O)C(=O)NCCCCNC(=O)c2ccc(-c3c4nc(c(-c5c(F)c(F)c(F)c(F)c5F)c5ccc([nH]5)c(-c5c(F)c(F)c(F)c(F)c5F)c5nc(c(-c6c(F)c(F)c(F)c(F)c6F)c6ccc3[nH]6)C=C5)C=C4)cc2)cc2cn[nH]c12
REMARK SMILES IDX 12 1 11 2 10 3 8 4 9 5 6 7 7 8 5 9 4 10 1 11 2 12 3 13 86 14
REMARK SMILES IDX 82 15 85 16 81 17 83 18 84 19 13 21 14 22 15 23 16 24 17 26
REMARK SMILES IDX 18 27 19 28 80 29 20 30 79 31 21 32 22 33 23 34 73 35 24 36
REMARK SMILES IDX 78 37 72 38 74 39 25 40 77 41 71 42 70 43 26 45 58 46 38 47
REMARK SMILES IDX 57 48 39 49 42 50 56 51 75 52 40 53 41 54 55 56 76 57 43 58
REMARK SMILES IDX 27 59 28 60 36 61 29 62 30 63 34 64 37 65 31 66 32 67 35 68
REMARK SMILES IDX 33 69 59 70 60 71 68 72 61 73 62 74 66 75 69 76 63 77 64 78
REMARK SMILES IDX 67 79 65 80 44 81 45 82 53 83 46 84 47 85 51 86 54 87 48 88
REMARK SMILES IDX 49 89 52 90 50 91
REMARK H PARENT 10 6 85 20 15 25 74 44 42 55
REMARK Flexibility Score: inf
ROOT
ATOM      1  C   UNL A   1      37.295  22.013  25.279  1.00  0.00     0.023 C 
ENDROOT
BRANCH   1   2
ATOM      2  C   UNL A   1      36.111  21.081  25.557  1.00  0.00     0.116 C 
BRANCH   2   3
ATOM      3  N   UNL A   1      35.372  21.491  26.738  1.00  0.00    -0.349 N 
ATOM      4  C   UNL A   1      34.156  22.127  26.859  1.00  0.00     0.287 C 
ATOM      5  O   UNL A   1      33.784  22.502  27.967  1.00  0.00    -0.266 OA
ATOM      6  H   UNL A   1      35.812  21.281  27.593  1.00  0.00     0.163 HD
BRANCH   4   7
ATOM      7  C   UNL A   1      33.254  22.383  25.639  1.00  0.00     0.224 C 
ATOM      8  O   UNL A   1      33.456  23.322  24.878  1.00  0.00    -0.288 OA
BRANCH   7   9
ATOM      9  C   UNL A   1      32.048  21.483  25.493  1.00  0.00     0.122 C 
BRANCH   9  10
ATOM     10  C   UNL A   1      32.327  20.109  24.929  1.00  0.00    -0.039 A 
ATOM     11  C   UNL A   1      32.314  18.492  21.460  1.00  0.00     0.047 C 
ATOM     12  C   UNL A   1      32.464  18.644  22.945  1.00  0.00    -0.025 A 
ATOM     13  C   UNL A   1      32.202  19.892  23.547  1.00  0.00     0.009 A 
ATOM     14  C   UNL A   1      32.860  17.619  23.818  1.00  0.00     0.068 A 
ATOM     15  C   UNL A   1      33.008  17.797  25.189  1.00  0.00     0.020 A 
ATOM     16  N   UNL A   1      33.179  16.304  23.595  1.00  0.00    -0.278 N 
ATOM     17  C   UNL A   1      32.751  19.058  25.759  1.00  0.00     0.016 A 
ATOM     18  C   UNL A   1      33.421  16.534  25.670  1.00  0.00     0.143 A 
ATOM     19  N   UNL A   1      33.522  15.619  24.702  1.00  0.00    -0.183 NA
ATOM     20  H   UNL A   1      33.160  15.895  22.700  1.00  0.00     0.190 HD
ENDBRANCH   9  10
ENDBRANCH   7   9
ENDBRANCH   4   7
ENDBRANCH   2   3
ENDBRANCH   1   2
BRANCH   1  21
ATOM     21  C   UNL A   1      38.688  21.400  25.515  1.00  0.00     0.023 C 
BRANCH  21  22
ATOM     22  C   UNL A   1      39.591  22.207  26.442  1.00  0.00     0.116 C 
BRANCH  22  23
ATOM     23  N   UNL A   1      40.987  22.168  26.032  1.00  0.00    -0.352 N 
ATOM     24  C   UNL A   1      41.882  23.210  25.914  1.00  0.00     0.251 C 
ATOM     25  H   UNL A   1      41.340  21.278  25.807  1.00  0.00     0.163 HD
ATOM     26  O   UNL A   1      42.869  23.092  25.203  1.00  0.00    -0.269 OA
BRANCH  24  27
ATOM     27  C   UNL A   1      41.652  24.471  26.647  1.00  0.00     0.039 A 
ATOM     28  C   UNL A   1      42.287  24.677  27.876  1.00  0.00     0.014 A 
ATOM     29  C   UNL A   1      40.760  25.421  26.146  1.00  0.00     0.014 A 
ATOM     30  C   UNL A   1      42.067  25.867  28.561  1.00  0.00     0.010 A 
ATOM     31  C   UNL A   1      40.607  26.638  26.778  1.00  0.00     0.010 A 
ATOM     32  C   UNL A   1      41.238  26.851  27.997  1.00  0.00    -0.014 A 
BRANCH  32  33
ATOM     33  C   UNL A   1      41.169  28.166  28.623  1.00  0.00     0.031 A 
ATOM     34  C   UNL A   1      42.283  29.059  28.217  1.00  0.00     0.074 A 
ATOM     35  C   UNL A   1      40.130  28.618  29.356  1.00  0.00     0.049 A 
ATOM     36  N   UNL A   1      43.305  29.396  28.930  1.00  0.00    -0.248 NA
ATOM     37  C   UNL A   1      42.364  29.505  26.816  1.00  0.00     0.031 C 
ATOM     38  C   UNL A   1      38.825  27.976  29.532  1.00  0.00     0.029 A 
ATOM     39  N   UNL A   1      39.981  29.799  30.029  1.00  0.00    -0.354 N 
ATOM     40  C   UNL A   1      44.020  30.305  28.155  1.00  0.00     0.074 A 
ATOM     41  C   UNL A   1      43.528  30.164  26.812  1.00  0.00     0.031 C 
ATOM     42  C   UNL A   1      37.952  28.865  30.057  1.00  0.00     0.029 A 
ATOM     43  C   UNL A   1      38.673  30.074  30.413  1.00  0.00     0.049 A 
ATOM     44  H   UNL A   1      40.735  30.402  30.223  1.00  0.00     0.167 HD
ATOM     45  C   UNL A   1      44.695  31.318  28.766  1.00  0.00     0.037 A 
ATOM     46  C   UNL A   1      38.213  31.221  30.972  1.00  0.00     0.037 A 
ATOM     47  C   UNL A   1      44.778  31.078  30.185  1.00  0.00     0.049 A 
ATOM     48  C   UNL A   1      39.364  31.890  31.620  1.00  0.00     0.074 A 
ATOM     49  C   UNL A   1      45.509  30.290  31.043  1.00  0.00     0.029 A 
ATOM     50  N   UNL A   1      43.663  31.493  30.858  1.00  0.00    -0.354 N 
ATOM     51  N   UNL A   1      39.992  31.404  32.657  1.00  0.00    -0.248 NA
ATOM     52  C   UNL A   1      40.050  32.971  30.919  1.00  0.00     0.031 C 
ATOM     53  C   UNL A   1      44.737  30.178  32.239  1.00  0.00     0.029 A 
ATOM     54  C   UNL A   1      43.575  30.930  32.097  1.00  0.00     0.049 A 
ATOM     55  H   UNL A   1      43.003  32.126  30.492  1.00  0.00     0.167 HD
ATOM     56  C   UNL A   1      41.297  31.807  32.475  1.00  0.00     0.074 A 
ATOM     57  C   UNL A   1      41.241  32.901  31.516  1.00  0.00     0.031 C 
ATOM     58  C   UNL A   1      42.330  30.992  32.826  1.00  0.00     0.037 A 
BRANCH  45  59
ATOM     59  C   UNL A   1      44.794  32.744  28.255  1.00  0.00     0.064 A 
ATOM     60  C   UNL A   1      46.078  33.278  28.000  1.00  0.00     0.173 A 
ATOM     61  C   UNL A   1      43.756  33.695  28.342  1.00  0.00     0.173 A 
ATOM     62  F   UNL A   1      47.148  32.474  27.913  1.00  0.00    -0.203 F 
ATOM     63  C   UNL A   1      46.310  34.655  27.925  1.00  0.00     0.198 A 
ATOM     64  C   UNL A   1      43.984  35.065  28.217  1.00  0.00     0.198 A 
ATOM     65  F   UNL A   1      42.504  33.361  28.669  1.00  0.00    -0.203 F 
ATOM     66  F   UNL A   1      47.564  35.115  27.811  1.00  0.00    -0.200 F 
ATOM     67  C   UNL A   1      45.263  35.548  28.041  1.00  0.00     0.200 A 
ATOM     68  F   UNL A   1      42.959  35.918  28.360  1.00  0.00    -0.200 F 
ATOM     69  F   UNL A   1      45.488  36.868  28.031  1.00  0.00    -0.200 F 
ENDBRANCH  45  59
BRANCH  46  70
ATOM     70  C   UNL A   1      36.910  31.908  30.789  1.00  0.00     0.064 A 
ATOM     71  C   UNL A   1      35.958  31.929  31.824  1.00  0.00     0.173 A 
ATOM     72  C   UNL A   1      36.704  32.816  29.733  1.00  0.00     0.173 A 
ATOM     73  F   UNL A   1      36.092  31.116  32.883  1.00  0.00    -0.203 F 
ATOM     74  C   UNL A   1      34.903  32.848  31.836  1.00  0.00     0.198 A 
ATOM     75  C   UNL A   1      35.645  33.728  29.743  1.00  0.00     0.198 A 
ATOM     76  F   UNL A   1      37.581  32.909  28.725  1.00  0.00    -0.203 F 
ATOM     77  F   UNL A   1      34.070  32.894  32.885  1.00  0.00    -0.200 F 
ATOM     78  C   UNL A   1      34.758  33.758  30.804  1.00  0.00     0.200 A 
ATOM     79  F   UNL A   1      35.533  34.627  28.754  1.00  0.00    -0.200 F 
ATOM     80  F   UNL A   1      33.798  34.692  30.854  1.00  0.00    -0.200 F 
ENDBRANCH  46  70
BRANCH  58  81
ATOM     81  C   UNL A   1      42.115  29.994  33.913  1.00  0.00     0.064 A 
ATOM     82  C   UNL A   1      41.651  28.686  33.717  1.00  0.00     0.173 A 
ATOM     83  C   UNL A   1      42.547  30.354  35.197  1.00  0.00     0.173 A 
ATOM     84  F   UNL A   1      41.276  28.260  32.503  1.00  0.00    -0.203 F 
ATOM     85  C   UNL A   1      41.625  27.776  34.773  1.00  0.00     0.198 A 
ATOM     86  C   UNL A   1      42.554  29.435  36.239  1.00  0.00     0.198 A 
ATOM     87  F   UNL A   1      43.023  31.589  35.424  1.00  0.00    -0.203 F 
ATOM     88  F   UNL A   1      41.186  26.525  34.573  1.00  0.00    -0.200 F 
ATOM     89  C   UNL A   1      42.092  28.147  36.026  1.00  0.00     0.200 A 
ATOM     90  F   UNL A   1      43.043  29.790  37.435  1.00  0.00    -0.200 F 
ATOM     91  F   UNL A   1      42.122  27.255  37.027  1.00  0.00    -0.200 F 
ENDBRANCH  58  81
ENDBRANCH  32  33
ENDBRANCH  24  27
ENDBRANCH  22  23
ENDBRANCH  21  22
ENDBRANCH   1  21
TORSDOF 13
ENDMDL
