MODEL 1
REMARK VINA RESULT:     -13.1      0.000      0.000
REMARK SMILES O=C(CCCN1C(=O)c2ccc3c4c(ccc(c24)C1=O)C(=O)NC3=O)NCCCCNC(=O)c1ccc(-c2c3nc(c(-c4c(F)c(F)c(F)c(F)c4F)c4ccc([nH]4)c(-c4c(F)c(F)c(F)c(F)c4F)c4nc(c(-c5c(F)c(F)c(F)c(F)c5F)c5ccc2[nH]5)C=C4)C=C3)cc1
REMARK SMILES IDX 28 1 27 2 26 3 1 4 2 5 3 7 4 8 5 9 6 10 19 11 7 12 20 13
REMARK SMILES IDX 17 14 9 15 8 16 16 17 18 18 10 19 15 20 13 21 11 22 14 23
REMARK SMILES IDX 12 24 21 25 24 26 23 27 22 28 25 29 29 31 30 32 31 33 32 34
REMARK SMILES IDX 33 36 34 37 35 38 96 39 36 40 95 41 37 42 38 43 39 44 89 45
REMARK SMILES IDX 40 46 94 47 88 48 90 49 41 50 93 51 87 52 86 53 42 55 74 56
REMARK SMILES IDX 54 57 73 58 55 59 58 60 72 61 91 62 56 63 57 64 71 66 92 67
REMARK SMILES IDX 59 68 43 69 44 70 52 71 45 72 46 73 50 74 53 75 47 76 48 77
REMARK SMILES IDX 51 78 49 79 75 80 76 81 84 82 77 83 78 84 82 85 85 86 79 87
REMARK SMILES IDX 80 88 83 89 81 90 60 91 61 92 69 93 62 94 63 95 67 96 70 97
REMARK SMILES IDX 64 98 65 99 68 100 66 101
REMARK H PARENT 26 6 23 30 31 35 90 54 58 65
REMARK Flexibility Score: inf
ROOT
ATOM      1  C   UNL A   1      41.754  21.145  26.588  1.00  0.00     0.023 C 
ENDROOT
BRANCH   1   2
ATOM      2  C   UNL A   1      40.365  21.684  26.930  1.00  0.00     0.116 C 
BRANCH   2   3
ATOM      3  N   UNL A   1      39.365  21.296  25.955  1.00  0.00    -0.356 N 
ATOM      4  O   UNL A   1      38.137  23.227  26.113  1.00  0.00    -0.275 OA
ATOM      5  C   UNL A   1      38.317  22.120  25.619  1.00  0.00     0.220 C 
ATOM      6  H   UNL A   1      39.439  20.416  25.520  1.00  0.00     0.163 HD
BRANCH   5   7
ATOM      7  C   UNL A   1      37.365  21.551  24.589  1.00  0.00     0.102 C 
BRANCH   7   8
ATOM      8  C   UNL A   1      36.580  22.620  23.835  1.00  0.00     0.032 C 
BRANCH   8   9
ATOM      9  C   UNL A   1      35.050  22.489  23.884  1.00  0.00     0.130 C 
BRANCH   9  10
ATOM     10  N   UNL A   1      34.314  23.759  23.882  1.00  0.00    -0.274 N 
ATOM     11  C   UNL A   1      34.477  24.611  24.974  1.00  0.00     0.261 C 
ATOM     12  C   UNL A   1      33.577  24.082  22.745  1.00  0.00     0.261 C 
ATOM     13  O   UNL A   1      35.223  24.378  25.918  1.00  0.00    -0.269 OA
ATOM     14  C   UNL A   1      33.694  25.869  24.972  1.00  0.00     0.049 A 
ATOM     15  C   UNL A   1      32.860  25.378  22.733  1.00  0.00     0.049 A 
ATOM     16  O   UNL A   1      33.469  23.336  21.776  1.00  0.00    -0.269 OA
ATOM     17  C   UNL A   1      33.739  26.707  26.094  1.00  0.00     0.015 A 
ATOM     18  C   UNL A   1      32.929  26.215  23.852  1.00  0.00     0.009 A 
ATOM     19  C   UNL A   1      32.101  25.744  21.612  1.00  0.00     0.015 A 
ATOM     20  C   UNL A   1      33.033  27.909  26.096  1.00  0.00     0.015 A 
ATOM     21  C   UNL A   1      32.214  27.439  23.849  1.00  0.00     0.009 A 
ATOM     22  C   UNL A   1      31.398  26.948  21.605  1.00  0.00     0.015 A 
ATOM     23  C   UNL A   1      32.282  28.275  24.975  1.00  0.00     0.048 A 
ATOM     24  C   UNL A   1      31.455  27.789  22.721  1.00  0.00     0.048 A 
ATOM     25  C   UNL A   1      31.555  29.566  24.967  1.00  0.00     0.258 C 
ATOM     26  C   UNL A   1      30.705  29.067  22.713  1.00  0.00     0.258 C 
ATOM     27  N   UNL A   1      30.834  29.852  23.835  1.00  0.00    -0.288 N 
ATOM     28  O   UNL A   1      31.601  30.330  25.923  1.00  0.00    -0.269 OA
ATOM     29  O   UNL A   1      30.007  29.390  21.762  1.00  0.00    -0.269 OA
ATOM     30  H   UNL A   1      30.356  30.712  23.824  1.00  0.00     0.173 HD
ENDBRANCH   9  10
ENDBRANCH   8   9
ENDBRANCH   7   8
ENDBRANCH   5   7
ENDBRANCH   2   3
ENDBRANCH   1   2
BRANCH   1  31
ATOM     31  C   UNL A   1      41.792  19.708  26.063  1.00  0.00     0.023 C 
BRANCH  31  32
ATOM     32  C   UNL A   1      43.098  18.957  26.305  1.00  0.00     0.116 C 
BRANCH  32  33
ATOM     33  N   UNL A   1      43.810  18.673  25.070  1.00  0.00    -0.352 N 
ATOM     34  C   UNL A   1      44.528  19.520  24.262  1.00  0.00     0.251 C 
ATOM     35  H   UNL A   1      43.771  17.737  24.768  1.00  0.00     0.163 HD
ATOM     36  O   UNL A   1      44.917  19.136  23.164  1.00  0.00    -0.269 OA
BRANCH  34  37
ATOM     37  C   UNL A   1      44.815  20.909  24.693  1.00  0.00     0.039 A 
ATOM     38  C   UNL A   1      44.400  21.962  23.873  1.00  0.00     0.014 A 
ATOM     39  C   UNL A   1      45.505  21.178  25.879  1.00  0.00     0.014 A 
ATOM     40  C   UNL A   1      44.627  23.283  24.267  1.00  0.00     0.010 A 
ATOM     41  C   UNL A   1      45.672  22.497  26.303  1.00  0.00     0.010 A 
ATOM     42  C   UNL A   1      45.234  23.563  25.503  1.00  0.00    -0.014 A 
BRANCH  42  43
ATOM     43  C   UNL A   1      45.403  24.965  25.972  1.00  0.00     0.031 A 
ATOM     44  C   UNL A   1      46.750  25.631  25.927  1.00  0.00     0.074 A 
ATOM     45  C   UNL A   1      44.348  25.622  26.494  1.00  0.00     0.049 A 
ATOM     46  N   UNL A   1      47.100  26.825  26.338  1.00  0.00    -0.248 NA
ATOM     47  C   UNL A   1      47.858  24.844  25.364  1.00  0.00     0.031 C 
ATOM     48  C   UNL A   1      42.997  25.076  26.630  1.00  0.00     0.029 A 
ATOM     49  N   UNL A   1      44.248  26.889  27.014  1.00  0.00    -0.354 N 
ATOM     50  C   UNL A   1      48.463  26.927  26.095  1.00  0.00     0.074 A 
ATOM     51  C   UNL A   1      48.889  25.657  25.549  1.00  0.00     0.031 C 
ATOM     52  C   UNL A   1      42.199  26.008  27.174  1.00  0.00     0.029 A 
ATOM     53  C   UNL A   1      42.988  27.202  27.464  1.00  0.00     0.049 A 
ATOM     54  H   UNL A   1      45.007  27.514  27.061  1.00  0.00     0.167 HD
ATOM     55  C   UNL A   1      49.281  27.991  26.288  1.00  0.00     0.037 A 
ATOM     56  C   UNL A   1      42.523  28.320  28.054  1.00  0.00     0.037 A 
ATOM     57  C   UNL A   1      48.852  29.259  26.821  1.00  0.00     0.049 A 
ATOM     58  C   UNL A   1      43.458  29.478  28.282  1.00  0.00     0.074 A 
ATOM     59  C   UNL A   1      49.594  30.414  27.003  1.00  0.00     0.029 A 
ATOM     60  N   UNL A   1      47.567  29.538  27.266  1.00  0.00    -0.354 N 
ATOM     61  N   UNL A   1      44.730  29.587  27.984  1.00  0.00    -0.248 NA
ATOM     62  C   UNL A   1      42.890  30.670  28.925  1.00  0.00     0.031 C 
ATOM     63  C   UNL A   1      48.777  31.368  27.617  1.00  0.00     0.029 A 
ATOM     64  C   UNL A   1      47.505  30.835  27.753  1.00  0.00     0.049 A 
ATOM     65  H   UNL A   1      46.811  28.908  27.238  1.00  0.00     0.167 HD
ATOM     66  C   UNL A   1      45.105  30.866  28.373  1.00  0.00     0.074 A 
ATOM     67  C   UNL A   1      43.922  31.500  28.915  1.00  0.00     0.031 C 
ATOM     68  C   UNL A   1      46.321  31.460  28.288  1.00  0.00     0.037 A 
BRANCH  55  69
ATOM     69  C   UNL A   1      50.733  27.827  25.933  1.00  0.00     0.064 A 
ATOM     70  C   UNL A   1      51.194  27.982  24.616  1.00  0.00     0.173 A 
ATOM     71  C   UNL A   1      51.682  27.552  26.928  1.00  0.00     0.173 A 
ATOM     72  F   UNL A   1      50.329  28.239  23.623  1.00  0.00    -0.203 F 
ATOM     73  C   UNL A   1      52.543  27.832  24.305  1.00  0.00     0.198 A 
ATOM     74  C   UNL A   1      53.035  27.438  26.620  1.00  0.00     0.198 A 
ATOM     75  F   UNL A   1      51.300  27.403  28.206  1.00  0.00    -0.203 F 
ATOM     76  F   UNL A   1      52.951  27.930  23.032  1.00  0.00    -0.200 F 
ATOM     77  C   UNL A   1      53.464  27.568  25.308  1.00  0.00     0.200 A 
ATOM     78  F   UNL A   1      53.926  27.200  27.594  1.00  0.00    -0.200 F 
ATOM     79  F   UNL A   1      54.763  27.433  25.009  1.00  0.00    -0.200 F 
ENDBRANCH  55  69
BRANCH  56  80
ATOM     80  C   UNL A   1      41.093  28.408  28.454  1.00  0.00     0.064 A 
ATOM     81  C   UNL A   1      40.131  28.931  27.578  1.00  0.00     0.173 A 
ATOM     82  C   UNL A   1      40.662  27.987  29.721  1.00  0.00     0.173 A 
ATOM     83  F   UNL A   1      40.499  29.372  26.366  1.00  0.00    -0.203 F 
ATOM     84  C   UNL A   1      38.797  29.050  27.962  1.00  0.00     0.198 A 
ATOM     85  C   UNL A   1      39.322  28.078  30.092  1.00  0.00     0.198 A 
ATOM     86  F   UNL A   1      41.545  27.480  30.596  1.00  0.00    -0.203 F 
ATOM     87  F   UNL A   1      37.909  29.604  27.126  1.00  0.00    -0.200 F 
ATOM     88  C   UNL A   1      38.393  28.617  29.216  1.00  0.00     0.200 A 
ATOM     89  F   UNL A   1      38.934  27.660  31.305  1.00  0.00    -0.200 F 
ATOM     90  F   UNL A   1      37.110  28.734  29.584  1.00  0.00    -0.200 F 
ENDBRANCH  56  80
BRANCH  68  91
ATOM     91  C   UNL A   1      46.431  32.885  28.755  1.00  0.00     0.064 A 
ATOM     92  C   UNL A   1      46.184  33.967  27.896  1.00  0.00     0.173 A 
ATOM     93  C   UNL A   1      46.751  33.170  30.091  1.00  0.00     0.173 A 
ATOM     94  F   UNL A   1      45.888  33.751  26.606  1.00  0.00    -0.203 F 
ATOM     95  C   UNL A   1      46.283  35.280  28.350  1.00  0.00     0.198 A 
ATOM     96  C   UNL A   1      46.813  34.484  30.551  1.00  0.00     0.198 A 
ATOM     97  F   UNL A   1      46.988  32.175  30.958  1.00  0.00    -0.203 F 
ATOM     98  F   UNL A   1      46.095  36.298  27.498  1.00  0.00    -0.200 F 
ATOM     99  C   UNL A   1      46.587  35.536  29.679  1.00  0.00     0.200 A 
ATOM    100  F   UNL A   1      47.090  34.728  31.840  1.00  0.00    -0.200 F 
ATOM    101  F   UNL A   1      46.673  36.800  30.116  1.00  0.00    -0.200 F 
ENDBRANCH  68  91
ENDBRANCH  42  43
ENDBRANCH  34  37
ENDBRANCH  32  33
ENDBRANCH  31  32
ENDBRANCH   1  31
TORSDOF 14
ENDMDL
MODEL 2
REMARK VINA RESULT:     -13.0      5.670     11.246
REMARK SMILES O=C(CCCN1C(=O)c2ccc3c4c(ccc(c24)C1=O)C(=O)NC3=O)NCCCCNC(=O)c1ccc(-c2c3nc(c(-c4c(F)c(F)c(F)c(F)c4F)c4ccc([nH]4)c(-c4c(F)c(F)c(F)c(F)c4F)c4nc(c(-c5c(F)c(F)c(F)c(F)c5F)c5ccc2[nH]5)C=C4)C=C3)cc1
REMARK SMILES IDX 28 1 27 2 26 3 1 4 2 5 3 7 4 8 5 9 6 10 19 11 7 12 20 13
REMARK SMILES IDX 17 14 9 15 8 16 16 17 18 18 10 19 15 20 13 21 11 22 14 23
REMARK SMILES IDX 12 24 21 25 24 26 23 27 22 28 25 29 29 31 30 32 31 33 32 34
REMARK SMILES IDX 33 36 34 37 35 38 96 39 36 40 95 41 37 42 38 43 39 44 89 45
REMARK SMILES IDX 40 46 94 47 88 48 90 49 41 50 93 51 87 52 86 53 42 55 74 56
REMARK SMILES IDX 54 57 73 58 55 59 58 60 72 61 91 62 56 63 57 64 71 66 92 67
REMARK SMILES IDX 59 68 43 69 44 70 52 71 45 72 46 73 50 74 53 75 47 76 48 77
REMARK SMILES IDX 51 78 49 79 75 80 76 81 84 82 77 83 78 84 82 85 85 86 79 87
REMARK SMILES IDX 80 88 83 89 81 90 60 91 61 92 69 93 62 94 63 95 67 96 70 97
REMARK SMILES IDX 64 98 65 99 68 100 66 101
REMARK H PARENT 26 6 23 30 31 35 90 54 58 65
REMARK Flexibility Score: inf
ROOT
ATOM      1  C   UNL A   1      48.592  26.276  31.986  1.00  0.00     0.023 C 
ENDROOT
BRANCH   1   2
ATOM      2  C   UNL A   1      48.725  25.550  30.648  1.00  0.00     0.116 C 
BRANCH   2   3
ATOM      3  N   UNL A   1      49.139  26.435  29.577  1.00  0.00    -0.356 N 
ATOM      4  O   UNL A   1      50.265  24.830  28.384  1.00  0.00    -0.275 OA
ATOM      5  C   UNL A   1      49.886  25.990  28.511  1.00  0.00     0.220 C 
ATOM      6  H   UNL A   1      48.878  27.383  29.613  1.00  0.00     0.163 HD
BRANCH   5   7
ATOM      7  C   UNL A   1      50.233  27.051  27.490  1.00  0.00     0.102 C 
BRANCH   7   8
ATOM      8  C   UNL A   1      49.835  26.673  26.066  1.00  0.00     0.032 C 
BRANCH   8   9
ATOM      9  C   UNL A   1      48.397  27.028  25.656  1.00  0.00     0.130 C 
BRANCH   9  10
ATOM     10  N   UNL A   1      47.405  25.969  25.879  1.00  0.00    -0.274 N 
ATOM     11  C   UNL A   1      46.625  26.036  27.033  1.00  0.00     0.261 C 
ATOM     12  C   UNL A   1      47.232  25.018  24.877  1.00  0.00     0.261 C 
ATOM     13  O   UNL A   1      46.696  26.944  27.855  1.00  0.00    -0.269 OA
ATOM     14  C   UNL A   1      45.659  24.937  27.261  1.00  0.00     0.049 A 
ATOM     15  C   UNL A   1      46.208  23.969  25.091  1.00  0.00     0.049 A 
ATOM     16  O   UNL A   1      47.904  24.990  23.849  1.00  0.00    -0.269 OA
ATOM     17  C   UNL A   1      44.930  24.900  28.457  1.00  0.00     0.015 A 
ATOM     18  C   UNL A   1      45.473  23.955  26.280  1.00  0.00     0.009 A 
ATOM     19  C   UNL A   1      46.003  22.987  24.111  1.00  0.00     0.015 A 
ATOM     20  C   UNL A   1      43.993  23.891  28.673  1.00  0.00     0.015 A 
ATOM     21  C   UNL A   1      44.518  22.929  26.495  1.00  0.00     0.009 A 
ATOM     22  C   UNL A   1      45.063  21.978  24.318  1.00  0.00     0.015 A 
ATOM     23  C   UNL A   1      43.784  22.916  27.693  1.00  0.00     0.048 A 
ATOM     24  C   UNL A   1      44.327  21.951  25.507  1.00  0.00     0.048 A 
ATOM     25  C   UNL A   1      42.770  21.860  27.911  1.00  0.00     0.258 C 
ATOM     26  C   UNL A   1      43.331  20.876  25.726  1.00  0.00     0.258 C 
ATOM     27  N   UNL A   1      42.628  20.934  26.907  1.00  0.00    -0.288 N 
ATOM     28  O   UNL A   1      42.098  21.822  28.935  1.00  0.00    -0.269 OA
ATOM     29  O   UNL A   1      43.160  19.988  24.903  1.00  0.00    -0.269 OA
ATOM     30  H   UNL A   1      41.948  20.235  27.046  1.00  0.00     0.173 HD
ENDBRANCH   9  10
ENDBRANCH   8   9
ENDBRANCH   7   8
ENDBRANCH   5   7
ENDBRANCH   2   3
ENDBRANCH   1   2
BRANCH   1  31
ATOM     31  C   UNL A   1      49.156  25.532  33.199  1.00  0.00     0.023 C 
BRANCH  31  32
ATOM     32  C   UNL A   1      48.155  24.668  33.960  1.00  0.00     0.116 C 
BRANCH  32  33
ATOM     33  N   UNL A   1      48.178  24.925  35.390  1.00  0.00    -0.352 N 
ATOM     34  C   UNL A   1      47.386  25.758  36.141  1.00  0.00     0.251 C 
ATOM     35  H   UNL A   1      48.864  24.431  35.896  1.00  0.00     0.163 HD
ATOM     36  O   UNL A   1      47.666  25.978  37.315  1.00  0.00    -0.269 OA
BRANCH  34  37
ATOM     37  C   UNL A   1      46.206  26.420  35.536  1.00  0.00     0.039 A 
ATOM     38  C   UNL A   1      46.374  27.677  34.947  1.00  0.00     0.014 A 
ATOM     39  C   UNL A   1      44.940  25.828  35.566  1.00  0.00     0.014 A 
ATOM     40  C   UNL A   1      45.288  28.313  34.340  1.00  0.00     0.010 A 
ATOM     41  C   UNL A   1      43.872  26.433  34.902  1.00  0.00     0.010 A 
ATOM     42  C   UNL A   1      44.034  27.681  34.281  1.00  0.00    -0.014 A 
BRANCH  42  43
ATOM     43  C   UNL A   1      42.893  28.309  33.563  1.00  0.00     0.031 A 
ATOM     44  C   UNL A   1      42.654  28.024  32.106  1.00  0.00     0.074 A 
ATOM     45  C   UNL A   1      42.101  29.186  34.212  1.00  0.00     0.049 A 
ATOM     46  N   UNL A   1      41.744  28.517  31.302  1.00  0.00    -0.248 NA
ATOM     47  C   UNL A   1      43.572  27.074  31.459  1.00  0.00     0.031 C 
ATOM     48  C   UNL A   1      42.248  29.577  35.615  1.00  0.00     0.029 A 
ATOM     49  N   UNL A   1      41.019  29.910  33.778  1.00  0.00    -0.354 N 
ATOM     50  C   UNL A   1      41.987  27.948  30.059  1.00  0.00     0.074 A 
ATOM     51  C   UNL A   1      43.160  27.113  30.200  1.00  0.00     0.031 C 
ATOM     52  C   UNL A   1      41.281  30.452  35.931  1.00  0.00     0.029 A 
ATOM     53  C   UNL A   1      40.470  30.716  34.746  1.00  0.00     0.049 A 
ATOM     54  H   UNL A   1      40.669  29.858  32.858  1.00  0.00     0.167 HD
ATOM     55  C   UNL A   1      41.282  28.091  28.910  1.00  0.00     0.037 A 
ATOM     56  C   UNL A   1      39.436  31.577  34.684  1.00  0.00     0.037 A 
ATOM     57  C   UNL A   1      40.106  28.913  28.775  1.00  0.00     0.049 A 
ATOM     58  C   UNL A   1      38.687  31.738  33.388  1.00  0.00     0.074 A 
ATOM     59  C   UNL A   1      39.293  29.080  27.667  1.00  0.00     0.029 A 
ATOM     60  N   UNL A   1      39.580  29.715  29.779  1.00  0.00    -0.354 N 
ATOM     61  N   UNL A   1      38.884  31.142  32.237  1.00  0.00    -0.248 NA
ATOM     62  C   UNL A   1      37.567  32.689  33.385  1.00  0.00     0.031 C 
ATOM     63  C   UNL A   1      38.315  30.029  27.980  1.00  0.00     0.029 A 
ATOM     64  C   UNL A   1      38.474  30.403  29.305  1.00  0.00     0.049 A 
ATOM     65  H   UNL A   1      39.940  29.783  30.693  1.00  0.00     0.167 HD
ATOM     66  C   UNL A   1      37.897  31.621  31.385  1.00  0.00     0.074 A 
ATOM     67  C   UNL A   1      37.093  32.545  32.156  1.00  0.00     0.031 C 
ATOM     68  C   UNL A   1      37.677  31.320  30.082  1.00  0.00     0.037 A 
BRANCH  55  69
ATOM     69  C   UNL A   1      41.770  27.350  27.696  1.00  0.00     0.064 A 
ATOM     70  C   UNL A   1      42.789  27.862  26.878  1.00  0.00     0.173 A 
ATOM     71  C   UNL A   1      41.241  26.092  27.370  1.00  0.00     0.173 A 
ATOM     72  F   UNL A   1      43.325  29.063  27.138  1.00  0.00    -0.203 F 
ATOM     73  C   UNL A   1      43.233  27.159  25.760  1.00  0.00     0.198 A 
ATOM     74  C   UNL A   1      41.713  25.375  26.273  1.00  0.00     0.198 A 
ATOM     75  F   UNL A   1      40.272  25.548  28.123  1.00  0.00    -0.203 F 
ATOM     76  F   UNL A   1      44.168  27.694  24.962  1.00  0.00    -0.200 F 
ATOM     77  C   UNL A   1      42.701  25.914  25.463  1.00  0.00     0.200 A 
ATOM     78  F   UNL A   1      41.209  24.164  25.997  1.00  0.00    -0.200 F 
ATOM     79  F   UNL A   1      43.135  25.235  24.392  1.00  0.00    -0.200 F 
ENDBRANCH  55  69
BRANCH  56  80
ATOM     80  C   UNL A   1      39.036  32.343  35.893  1.00  0.00     0.064 A 
ATOM     81  C   UNL A   1      39.474  33.661  36.088  1.00  0.00     0.173 A 
ATOM     82  C   UNL A   1      38.222  31.773  36.884  1.00  0.00     0.173 A 
ATOM     83  F   UNL A   1      40.275  34.241  35.182  1.00  0.00    -0.203 F 
ATOM     84  C   UNL A   1      39.133  34.371  37.237  1.00  0.00     0.198 A 
ATOM     85  C   UNL A   1      37.857  32.495  38.018  1.00  0.00     0.198 A 
ATOM     86  F   UNL A   1      37.778  30.515  36.745  1.00  0.00    -0.203 F 
ATOM     87  F   UNL A   1      39.610  35.609  37.423  1.00  0.00    -0.200 F 
ATOM     88  C   UNL A   1      38.319  33.790  38.198  1.00  0.00     0.200 A 
ATOM     89  F   UNL A   1      37.071  31.931  38.946  1.00  0.00    -0.200 F 
ATOM     90  F   UNL A   1      37.993  34.473  39.304  1.00  0.00    -0.200 F 
ENDBRANCH  56  80
BRANCH  68  91
ATOM     91  C   UNL A   1      36.497  31.965  29.411  1.00  0.00     0.064 A 
ATOM     92  C   UNL A   1      36.470  33.337  29.116  1.00  0.00     0.173 A 
ATOM     93  C   UNL A   1      35.391  31.192  29.023  1.00  0.00     0.173 A 
ATOM     94  F   UNL A   1      37.494  34.124  29.477  1.00  0.00    -0.203 F 
ATOM     95  C   UNL A   1      35.370  33.914  28.487  1.00  0.00     0.198 A 
ATOM     96  C   UNL A   1      34.308  31.766  28.361  1.00  0.00     0.198 A 
ATOM     97  F   UNL A   1      35.367  29.874  29.272  1.00  0.00    -0.203 F 
ATOM     98  F   UNL A   1      35.345  35.236  28.264  1.00  0.00    -0.200 F 
ATOM     99  C   UNL A   1      34.295  33.127  28.101  1.00  0.00     0.200 A 
ATOM    100  F   UNL A   1      33.279  30.999  27.975  1.00  0.00    -0.200 F 
ATOM    101  F   UNL A   1      33.242  33.683  27.487  1.00  0.00    -0.200 F 
ENDBRANCH  68  91
ENDBRANCH  42  43
ENDBRANCH  34  37
ENDBRANCH  32  33
ENDBRANCH  31  32
ENDBRANCH   1  31
TORSDOF 14
ENDMDL
MODEL 3
REMARK VINA RESULT:     -12.9      5.023      9.445
REMARK SMILES O=C(CCCN1C(=O)c2ccc3c4c(ccc(c24)C1=O)C(=O)NC3=O)NCCCCNC(=O)c1ccc(-c2c3nc(c(-c4c(F)c(F)c(F)c(F)c4F)c4ccc([nH]4)c(-c4c(F)c(F)c(F)c(F)c4F)c4nc(c(-c5c(F)c(F)c(F)c(F)c5F)c5ccc2[nH]5)C=C4)C=C3)cc1
REMARK SMILES IDX 28 1 27 2 26 3 1 4 2 5 3 7 4 8 5 9 6 10 19 11 7 12 20 13
REMARK SMILES IDX 17 14 9 15 8 16 16 17 18 18 10 19 15 20 13 21 11 22 14 23
REMARK SMILES IDX 12 24 21 25 24 26 23 27 22 28 25 29 29 31 30 32 31 33 32 34
REMARK SMILES IDX 33 36 34 37 35 38 96 39 36 40 95 41 37 42 38 43 39 44 89 45
REMARK SMILES IDX 40 46 94 47 88 48 90 49 41 50 93 51 87 52 86 53 42 55 74 56
REMARK SMILES IDX 54 57 73 58 55 59 58 60 72 61 91 62 56 63 57 64 71 66 92 67
REMARK SMILES IDX 59 68 43 69 44 70 52 71 45 72 46 73 50 74 53 75 47 76 48 77
REMARK SMILES IDX 51 78 49 79 75 80 76 81 84 82 77 83 78 84 82 85 85 86 79 87
REMARK SMILES IDX 80 88 83 89 81 90 60 91 61 92 69 93 62 94 63 95 67 96 70 97
REMARK SMILES IDX 64 98 65 99 68 100 66 101
REMARK H PARENT 26 6 23 30 31 35 90 54 58 65
REMARK Flexibility Score: inf
ROOT
ATOM      1  C   UNL A   1      33.797  28.668  22.892  1.00  0.00     0.023 C 
ENDROOT
BRANCH   1   2
ATOM      2  C   UNL A   1      33.678  27.245  22.349  1.00  0.00     0.116 C 
BRANCH   2   3
ATOM      3  N   UNL A   1      32.681  26.465  23.057  1.00  0.00    -0.356 N 
ATOM      4  O   UNL A   1      31.191  26.375  21.315  1.00  0.00    -0.275 OA
ATOM      5  C   UNL A   1      31.500  26.084  22.465  1.00  0.00     0.220 C 
ATOM      6  H   UNL A   1      32.856  26.200  23.989  1.00  0.00     0.163 HD
BRANCH   5   7
ATOM      7  C   UNL A   1      30.574  25.280  23.352  1.00  0.00     0.102 C 
BRANCH   7   8
ATOM      8  C   UNL A   1      30.242  25.977  24.669  1.00  0.00     0.032 C 
BRANCH   8   9
ATOM      9  C   UNL A   1      30.695  25.250  25.945  1.00  0.00     0.130 C 
BRANCH   9  10
ATOM     10  N   UNL A   1      31.799  24.300  25.763  1.00  0.00    -0.274 N 
ATOM     11  C   UNL A   1      33.102  24.776  25.912  1.00  0.00     0.261 C 
ATOM     12  C   UNL A   1      31.479  22.961  25.551  1.00  0.00     0.261 C 
ATOM     13  O   UNL A   1      33.378  25.930  26.219  1.00  0.00    -0.269 OA
ATOM     14  C   UNL A   1      34.203  23.811  25.684  1.00  0.00     0.049 A 
ATOM     15  C   UNL A   1      32.595  22.000  25.400  1.00  0.00     0.049 A 
ATOM     16  O   UNL A   1      30.325  22.551  25.455  1.00  0.00    -0.269 OA
ATOM     17  C   UNL A   1      35.529  24.263  25.715  1.00  0.00     0.015 A 
ATOM     18  C   UNL A   1      33.914  22.461  25.453  1.00  0.00     0.009 A 
ATOM     19  C   UNL A   1      32.320  20.642  25.180  1.00  0.00     0.015 A 
ATOM     20  C   UNL A   1      36.578  23.364  25.534  1.00  0.00     0.015 A 
ATOM     21  C   UNL A   1      34.979  21.543  25.272  1.00  0.00     0.009 A 
ATOM     22  C   UNL A   1      33.365  19.736  25.004  1.00  0.00     0.015 A 
ATOM     23  C   UNL A   1      36.303  22.010  25.323  1.00  0.00     0.048 A 
ATOM     24  C   UNL A   1      34.687  20.188  25.049  1.00  0.00     0.048 A 
ATOM     25  C   UNL A   1      37.419  21.050  25.158  1.00  0.00     0.258 C 
ATOM     26  C   UNL A   1      35.797  19.223  24.860  1.00  0.00     0.258 C 
ATOM     27  N   UNL A   1      37.069  19.739  24.946  1.00  0.00    -0.288 N 
ATOM     28  O   UNL A   1      38.587  21.414  25.210  1.00  0.00    -0.269 OA
ATOM     29  O   UNL A   1      35.581  18.041  24.631  1.00  0.00    -0.269 OA
ATOM     30  H   UNL A   1      37.809  19.098  24.844  1.00  0.00     0.173 HD
ENDBRANCH   9  10
ENDBRANCH   8   9
ENDBRANCH   7   8
ENDBRANCH   5   7
ENDBRANCH   2   3
ENDBRANCH   1   2
BRANCH   1  31
ATOM     31  C   UNL A   1      32.737  29.074  23.917  1.00  0.00     0.023 C 
BRANCH  31  32
ATOM     32  C   UNL A   1      33.260  29.359  25.322  1.00  0.00     0.116 C 
BRANCH  32  33
ATOM     33  N   UNL A   1      32.764  30.618  25.852  1.00  0.00    -0.352 N 
ATOM     34  C   UNL A   1      33.214  31.353  26.921  1.00  0.00     0.251 C 
ATOM     35  H   UNL A   1      31.991  30.999  25.377  1.00  0.00     0.163 HD
ATOM     36  O   UNL A   1      32.559  32.309  27.327  1.00  0.00    -0.269 OA
BRANCH  34  37
ATOM     37  C   UNL A   1      34.475  30.987  27.609  1.00  0.00     0.039 A 
ATOM     38  C   UNL A   1      35.432  31.983  27.823  1.00  0.00     0.014 A 
ATOM     39  C   UNL A   1      34.728  29.676  28.021  1.00  0.00     0.014 A 
ATOM     40  C   UNL A   1      36.617  31.677  28.497  1.00  0.00     0.010 A 
ATOM     41  C   UNL A   1      35.881  29.386  28.752  1.00  0.00     0.010 A 
ATOM     42  C   UNL A   1      36.837  30.383  28.999  1.00  0.00    -0.014 A 
BRANCH  42  43
ATOM     43  C   UNL A   1      38.055  30.067  29.794  1.00  0.00     0.031 A 
ATOM     44  C   UNL A   1      39.100  29.131  29.253  1.00  0.00     0.074 A 
ATOM     45  C   UNL A   1      38.191  30.581  31.032  1.00  0.00     0.049 A 
ATOM     46  N   UNL A   1      40.200  28.699  29.821  1.00  0.00    -0.248 NA
ATOM     47  C   UNL A   1      38.872  28.593  27.904  1.00  0.00     0.031 C 
ATOM     48  C   UNL A   1      37.232  31.471  31.687  1.00  0.00     0.029 A 
ATOM     49  N   UNL A   1      39.188  30.425  31.963  1.00  0.00    -0.354 N 
ATOM     50  C   UNL A   1      40.784  27.833  28.905  1.00  0.00     0.074 A 
ATOM     51  C   UNL A   1      39.894  27.760  27.768  1.00  0.00     0.031 C 
ATOM     52  C   UNL A   1      37.696  31.800  32.903  1.00  0.00     0.029 A 
ATOM     53  C   UNL A   1      38.964  31.113  33.131  1.00  0.00     0.049 A 
ATOM     54  H   UNL A   1      39.988  29.872  31.809  1.00  0.00     0.167 HD
ATOM     55  C   UNL A   1      41.967  27.177  28.997  1.00  0.00     0.037 A 
ATOM     56  C   UNL A   1      39.692  31.176  34.263  1.00  0.00     0.037 A 
ATOM     57  C   UNL A   1      42.858  27.261  30.126  1.00  0.00     0.049 A 
ATOM     58  C   UNL A   1      40.989  30.415  34.349  1.00  0.00     0.074 A 
ATOM     59  C   UNL A   1      44.103  26.677  30.288  1.00  0.00     0.029 A 
ATOM     60  N   UNL A   1      42.596  27.969  31.291  1.00  0.00    -0.354 N 
ATOM     61  N   UNL A   1      41.565  29.654  33.450  1.00  0.00    -0.248 NA
ATOM     62  C   UNL A   1      41.739  30.527  35.607  1.00  0.00     0.031 C 
ATOM     63  C   UNL A   1      44.563  26.977  31.574  1.00  0.00     0.029 A 
ATOM     64  C   UNL A   1      43.640  27.807  32.189  1.00  0.00     0.049 A 
ATOM     65  H   UNL A   1      41.788  28.507  31.455  1.00  0.00     0.167 HD
ATOM     66  C   UNL A   1      42.756  29.224  34.020  1.00  0.00     0.074 A 
ATOM     67  C   UNL A   1      42.827  29.821  35.337  1.00  0.00     0.031 C 
ATOM     68  C   UNL A   1      43.704  28.408  33.498  1.00  0.00     0.037 A 
BRANCH  55  69
ATOM     69  C   UNL A   1      42.365  26.295  27.846  1.00  0.00     0.064 A 
ATOM     70  C   UNL A   1      41.850  24.998  27.697  1.00  0.00     0.173 A 
ATOM     71  C   UNL A   1      43.241  26.767  26.857  1.00  0.00     0.173 A 
ATOM     72  F   UNL A   1      41.015  24.492  28.616  1.00  0.00    -0.203 F 
ATOM     73  C   UNL A   1      42.225  24.196  26.621  1.00  0.00     0.198 A 
ATOM     74  C   UNL A   1      43.585  25.976  25.764  1.00  0.00     0.198 A 
ATOM     75  F   UNL A   1      43.756  28.003  26.942  1.00  0.00    -0.203 F 
ATOM     76  F   UNL A   1      41.763  22.940  26.530  1.00  0.00    -0.200 F 
ATOM     77  C   UNL A   1      43.086  24.688  25.652  1.00  0.00     0.200 A 
ATOM     78  F   UNL A   1      44.404  26.461  24.819  1.00  0.00    -0.200 F 
ATOM     79  F   UNL A   1      43.438  23.919  24.613  1.00  0.00    -0.200 F 
ENDBRANCH  55  69
BRANCH  56  80
ATOM     80  C   UNL A   1      39.220  32.005  35.403  1.00  0.00     0.064 A 
ATOM     81  C   UNL A   1      39.580  33.357  35.507  1.00  0.00     0.173 A 
ATOM     82  C   UNL A   1      38.417  31.464  36.418  1.00  0.00     0.173 A 
ATOM     83  F   UNL A   1      40.369  33.913  34.576  1.00  0.00    -0.203 F 
ATOM     84  C   UNL A   1      39.172  34.129  36.593  1.00  0.00     0.198 A 
ATOM     85  C   UNL A   1      37.984  32.246  37.487  1.00  0.00     0.198 A 
ATOM     86  F   UNL A   1      38.047  30.175  36.365  1.00  0.00    -0.203 F 
ATOM     87  F   UNL A   1      39.575  35.403  36.694  1.00  0.00    -0.200 F 
ATOM     88  C   UNL A   1      38.369  33.575  37.578  1.00  0.00     0.200 A 
ATOM     89  F   UNL A   1      37.209  31.708  38.439  1.00  0.00    -0.200 F 
ATOM     90  F   UNL A   1      37.979  34.318  38.622  1.00  0.00    -0.200 F 
ENDBRANCH  56  80
BRANCH  68  91
ATOM     91  C   UNL A   1      44.925  28.141  34.334  1.00  0.00     0.064 A 
ATOM     92  C   UNL A   1      46.049  28.978  34.292  1.00  0.00     0.173 A 
ATOM     93  C   UNL A   1      44.954  27.050  35.217  1.00  0.00     0.173 A 
ATOM     94  F   UNL A   1      46.080  30.027  33.455  1.00  0.00    -0.203 F 
ATOM     95  C   UNL A   1      47.168  28.718  35.080  1.00  0.00     0.198 A 
ATOM     96  C   UNL A   1      46.060  26.813  36.031  1.00  0.00     0.198 A 
ATOM     97  F   UNL A   1      43.903  26.221  35.304  1.00  0.00    -0.203 F 
ATOM     98  F   UNL A   1      48.251  29.502  34.984  1.00  0.00    -0.200 F 
ATOM     99  C   UNL A   1      47.168  27.642  35.955  1.00  0.00     0.200 A 
ATOM    100  F   UNL A   1      46.050  25.782  36.888  1.00  0.00    -0.200 F 
ATOM    101  F   UNL A   1      48.241  27.398  36.720  1.00  0.00    -0.200 F 
ENDBRANCH  68  91
ENDBRANCH  42  43
ENDBRANCH  34  37
ENDBRANCH  32  33
ENDBRANCH  31  32
ENDBRANCH   1  31
TORSDOF 14
ENDMDL
