MODEL 1
REMARK VINA RESULT:     -12.1      0.000      0.000
REMARK SMILES CN(C)C(=O)CCNC(=O)NC[C@H]1CC[C@@H](C(=O)NCCCCNC(=O)c2ccc(-c3c4nc(c(-c5c(F)c(F)c(F)c(F)c5F)c5ccc([nH]5)c(-c5c(F)c(F)c(F)c(F)c5F)c5nc(c(-c6c(F)c(F)c(F)c(F)c6F)c6ccc3[nH]6)C=C5)C=C4)cc2)CC1
REMARK SMILES IDX 20 1 19 2 17 3 18 4 16 6 13 7 14 8 91 9 15 10 90 11 12 12
REMARK SMILES IDX 11 13 8 14 9 15 10 17 7 19 6 20 4 21 1 22 2 23 3 24 5 25
REMARK SMILES IDX 21 26 22 27 23 28 24 29 25 30 26 32 27 33 28 34 89 35 29 36
REMARK SMILES IDX 88 37 30 38 31 39 32 40 82 41 33 42 87 43 81 44 83 45 34 46
REMARK SMILES IDX 86 47 80 48 79 49 35 51 67 52 47 53 66 54 48 55 51 56 65 57
REMARK SMILES IDX 84 58 49 59 50 60 64 62 85 63 52 64 36 65 37 66 45 67 38 68
REMARK SMILES IDX 39 69 43 70 46 71 40 72 41 73 44 74 42 75 68 76 69 77 77 78
REMARK SMILES IDX 70 79 71 80 75 81 78 82 72 83 73 84 76 85 74 86 53 87 54 88
REMARK SMILES IDX 62 89 55 90 56 91 60 92 63 93 57 94 58 95 61 96 59 97
REMARK H PARENT 19 5 8 16 11 18 24 31 83 50 51 61
REMARK Flexibility Score: inf
ROOT
ATOM      1  C   UNL A   1      34.561  31.698  28.319  1.00  0.00     0.116 C 
ENDROOT
BRANCH   1   2
ATOM      2  N   UNL A   1      33.432  31.596  27.432  1.00  0.00    -0.356 N 
ATOM      3  C   UNL A   1      32.703  30.545  26.989  1.00  0.00     0.223 C 
ATOM      4  O   UNL A   1      31.739  30.835  26.269  1.00  0.00    -0.275 OA
ATOM      5  H   UNL A   1      33.130  32.463  27.076  1.00  0.00     0.163 HD
BRANCH   3   6
ATOM      6  C   UNL A   1      32.992  29.066  27.296  1.00  0.00     0.078 C 
ATOM      7  C   UNL A   1      32.294  26.702  25.534  1.00  0.00     0.008 C 
ATOM      8  C   UNL A   1      33.597  27.494  25.303  1.00  0.00     0.006 C 
ATOM      9  C   UNL A   1      31.239  27.442  26.363  1.00  0.00     0.006 C 
ATOM     10  C   UNL A   1      34.066  28.373  26.460  1.00  0.00     0.014 C 
ATOM     11  C   UNL A   1      31.768  28.198  27.567  1.00  0.00     0.014 C 
BRANCH   7  12
ATOM     12  C   UNL A   1      31.704  26.261  24.167  1.00  0.00     0.121 C 
BRANCH  12  13
ATOM     13  N   UNL A   1      30.270  26.045  24.218  1.00  0.00    -0.338 N 
ATOM     14  N   UNL A   1      29.111  27.937  23.379  1.00  0.00    -0.338 N 
ATOM     15  C   UNL A   1      29.161  26.706  23.885  1.00  0.00     0.314 C 
ATOM     16  H   UNL A   1      28.185  28.245  23.243  1.00  0.00     0.165 HD
ATOM     17  O   UNL A   1      28.086  26.124  24.060  1.00  0.00    -0.249 OA
ATOM     18  H   UNL A   1      30.057  25.167  24.609  1.00  0.00     0.165 HD
BRANCH  14  19
ATOM     19  C   UNL A   1      30.081  28.934  22.980  1.00  0.00     0.127 C 
BRANCH  19  20
ATOM     20  C   UNL A   1      29.575  30.358  23.163  1.00  0.00     0.121 C 
BRANCH  20  21
ATOM     21  C   UNL A   1      28.757  30.784  21.960  1.00  0.00     0.223 C 
ATOM     22  C   UNL A   1      27.807  32.558  20.570  1.00  0.00     0.146 C 
ATOM     23  N   UNL A   1      28.490  32.130  21.779  1.00  0.00    -0.349 N 
ATOM     24  C   UNL A   1      28.777  33.157  22.767  1.00  0.00     0.146 C 
ATOM     25  O   UNL A   1      28.392  29.923  21.155  1.00  0.00    -0.275 OA
ENDBRANCH  20  21
ENDBRANCH  19  20
ENDBRANCH  14  19
ENDBRANCH  12  13
ENDBRANCH   7  12
ENDBRANCH   3   6
ENDBRANCH   1   2
BRANCH   1  26
ATOM     26  C   UNL A   1      34.462  32.888  29.267  1.00  0.00     0.023 C 
BRANCH  26  27
ATOM     27  C   UNL A   1      33.497  33.982  28.835  1.00  0.00     0.023 C 
BRANCH  27  28
ATOM     28  C   UNL A   1      33.804  35.379  29.368  1.00  0.00     0.116 C 
BRANCH  28  29
ATOM     29  N   UNL A   1      32.774  35.944  30.235  1.00  0.00    -0.352 N 
ATOM     30  C   UNL A   1      32.651  35.837  31.607  1.00  0.00     0.251 C 
ATOM     31  H   UNL A   1      32.076  36.470  29.782  1.00  0.00     0.163 HD
ATOM     32  O   UNL A   1      31.678  36.287  32.187  1.00  0.00    -0.269 OA
BRANCH  30  33
ATOM     33  C   UNL A   1      33.712  35.128  32.350  1.00  0.00     0.039 A 
ATOM     34  C   UNL A   1      33.483  33.826  32.798  1.00  0.00     0.014 A 
ATOM     35  C   UNL A   1      34.967  35.720  32.486  1.00  0.00     0.014 A 
ATOM     36  C   UNL A   1      34.555  33.073  33.286  1.00  0.00     0.010 A 
ATOM     37  C   UNL A   1      36.046  34.940  32.874  1.00  0.00     0.010 A 
ATOM     38  C   UNL A   1      35.854  33.605  33.268  1.00  0.00    -0.014 A 
BRANCH  38  39
ATOM     39  C   UNL A   1      37.047  32.804  33.645  1.00  0.00     0.031 A 
ATOM     40  C   UNL A   1      37.736  33.081  34.952  1.00  0.00     0.074 A 
ATOM     41  C   UNL A   1      37.585  31.937  32.766  1.00  0.00     0.049 A 
ATOM     42  N   UNL A   1      38.898  32.662  35.383  1.00  0.00    -0.248 NA
ATOM     43  C   UNL A   1      37.048  33.998  35.874  1.00  0.00     0.031 C 
ATOM     44  C   UNL A   1      37.051  31.628  31.437  1.00  0.00     0.029 A 
ATOM     45  N   UNL A   1      38.720  31.170  32.850  1.00  0.00    -0.354 N 
ATOM     46  C   UNL A   1      39.101  33.306  36.597  1.00  0.00     0.074 A 
ATOM     47  C   UNL A   1      37.965  34.176  36.812  1.00  0.00     0.031 C 
ATOM     48  C   UNL A   1      37.844  30.721  30.843  1.00  0.00     0.029 A 
ATOM     49  C   UNL A   1      38.963  30.417  31.728  1.00  0.00     0.049 A 
ATOM     50  H   UNL A   1      39.306  31.161  33.642  1.00  0.00     0.167 HD
ATOM     51  C   UNL A   1      40.131  33.167  37.465  1.00  0.00     0.037 A 
ATOM     52  C   UNL A   1      39.981  29.582  31.444  1.00  0.00     0.037 A 
ATOM     53  C   UNL A   1      41.219  32.247  37.281  1.00  0.00     0.049 A 
ATOM     54  C   UNL A   1      41.075  29.388  32.458  1.00  0.00     0.074 A 
ATOM     55  C   UNL A   1      42.267  31.966  38.139  1.00  0.00     0.029 A 
ATOM     56  N   UNL A   1      41.385  31.439  36.165  1.00  0.00    -0.354 N 
ATOM     57  N   UNL A   1      41.233  29.966  33.623  1.00  0.00    -0.248 NA
ATOM     58  C   UNL A   1      42.129  28.422  32.118  1.00  0.00     0.031 C 
ATOM     59  C   UNL A   1      43.080  31.001  37.534  1.00  0.00     0.029 A 
ATOM     60  C   UNL A   1      42.519  30.659  36.312  1.00  0.00     0.049 A 
ATOM     61  H   UNL A   1      40.786  31.424  35.384  1.00  0.00     0.167 HD
ATOM     62  C   UNL A   1      42.386  29.417  34.168  1.00  0.00     0.074 A 
ATOM     63  C   UNL A   1      42.882  28.452  33.209  1.00  0.00     0.031 C 
ATOM     64  C   UNL A   1      42.983  29.692  35.353  1.00  0.00     0.037 A 
BRANCH  51  65
ATOM     65  C   UNL A   1      40.115  34.024  38.696  1.00  0.00     0.064 A 
ATOM     66  C   UNL A   1      39.422  33.636  39.853  1.00  0.00     0.173 A 
ATOM     67  C   UNL A   1      40.811  35.242  38.725  1.00  0.00     0.173 A 
ATOM     68  F   UNL A   1      38.727  32.488  39.871  1.00  0.00    -0.203 F 
ATOM     69  C   UNL A   1      39.396  34.453  40.979  1.00  0.00     0.198 A 
ATOM     70  C   UNL A   1      40.807  36.041  39.864  1.00  0.00     0.198 A 
ATOM     71  F   UNL A   1      41.492  35.658  37.647  1.00  0.00    -0.203 F 
ATOM     72  F   UNL A   1      38.677  34.089  42.051  1.00  0.00    -0.200 F 
ATOM     73  C   UNL A   1      40.093  35.652  40.987  1.00  0.00     0.200 A 
ATOM     74  F   UNL A   1      41.489  37.195  39.874  1.00  0.00    -0.200 F 
ATOM     75  F   UNL A   1      40.066  36.437  42.072  1.00  0.00    -0.200 F 
ENDBRANCH  51  65
BRANCH  52  76
ATOM     76  C   UNL A   1      39.994  28.837  30.159  1.00  0.00     0.064 A 
ATOM     77  C   UNL A   1      40.590  29.395  29.019  1.00  0.00     0.173 A 
ATOM     78  C   UNL A   1      39.419  27.565  30.040  1.00  0.00     0.173 A 
ATOM     79  F   UNL A   1      41.134  30.619  29.080  1.00  0.00    -0.203 F 
ATOM     80  C   UNL A   1      40.593  28.716  27.802  1.00  0.00     0.198 A 
ATOM     81  C   UNL A   1      39.443  26.876  28.828  1.00  0.00     0.198 A 
ATOM     82  F   UNL A   1      38.841  26.987  31.103  1.00  0.00    -0.203 F 
ATOM     83  F   UNL A   1      41.132  29.290  26.718  1.00  0.00    -0.200 F 
ATOM     84  C   UNL A   1      40.024  27.456  27.709  1.00  0.00     0.200 A 
ATOM     85  F   UNL A   1      38.902  25.654  28.743  1.00  0.00    -0.200 F 
ATOM     86  F   UNL A   1      40.028  26.801  26.540  1.00  0.00    -0.200 F 
ENDBRANCH  52  76
BRANCH  64  87
ATOM     87  C   UNL A   1      44.214  28.910  35.696  1.00  0.00     0.064 A 
ATOM     88  C   UNL A   1      44.140  27.699  36.398  1.00  0.00     0.173 A 
ATOM     89  C   UNL A   1      45.475  29.355  35.275  1.00  0.00     0.173 A 
ATOM     90  F   UNL A   1      42.957  27.242  36.834  1.00  0.00    -0.203 F 
ATOM     91  C   UNL A   1      45.291  26.968  36.682  1.00  0.00     0.198 A 
ATOM     92  C   UNL A   1      46.620  28.610  35.539  1.00  0.00     0.198 A 
ATOM     93  F   UNL A   1      45.594  30.506  34.596  1.00  0.00    -0.203 F 
ATOM     94  F   UNL A   1      45.204  25.830  37.384  1.00  0.00    -0.200 F 
ATOM     95  C   UNL A   1      46.528  27.421  36.246  1.00  0.00     0.200 A 
ATOM     96  F   UNL A   1      47.814  29.044  35.109  1.00  0.00    -0.200 F 
ATOM     97  F   UNL A   1      47.633  26.712  36.513  1.00  0.00    -0.200 F 
ENDBRANCH  64  87
ENDBRANCH  38  39
ENDBRANCH  30  33
ENDBRANCH  28  29
ENDBRANCH  27  28
ENDBRANCH  26  27
ENDBRANCH   1  26
TORSDOF 16
ENDMDL
MODEL 2
REMARK VINA RESULT:     -12.1      0.787      2.131
REMARK SMILES CN(C)C(=O)CCNC(=O)NC[C@H]1CC[C@@H](C(=O)NCCCCNC(=O)c2ccc(-c3c4nc(c(-c5c(F)c(F)c(F)c(F)c5F)c5ccc([nH]5)c(-c5c(F)c(F)c(F)c(F)c5F)c5nc(c(-c6c(F)c(F)c(F)c(F)c6F)c6ccc3[nH]6)C=C5)C=C4)cc2)CC1
REMARK SMILES IDX 20 1 19 2 17 3 18 4 16 6 13 7 14 8 91 9 15 10 90 11 12 12
REMARK SMILES IDX 11 13 8 14 9 15 10 17 7 19 6 20 4 21 1 22 2 23 3 24 5 25
REMARK SMILES IDX 21 26 22 27 23 28 24 29 25 30 26 32 27 33 28 34 89 35 29 36
REMARK SMILES IDX 88 37 30 38 31 39 32 40 82 41 33 42 87 43 81 44 83 45 34 46
REMARK SMILES IDX 86 47 80 48 79 49 35 51 67 52 47 53 66 54 48 55 51 56 65 57
REMARK SMILES IDX 84 58 49 59 50 60 64 62 85 63 52 64 36 65 37 66 45 67 38 68
REMARK SMILES IDX 39 69 43 70 46 71 40 72 41 73 44 74 42 75 68 76 69 77 77 78
REMARK SMILES IDX 70 79 71 80 75 81 78 82 72 83 73 84 76 85 74 86 53 87 54 88
REMARK SMILES IDX 62 89 55 90 56 91 60 92 63 93 57 94 58 95 61 96 59 97
REMARK H PARENT 19 5 8 16 11 18 24 31 83 50 51 61
REMARK Flexibility Score: inf
ROOT
ATOM      1  C   UNL A   1      34.595  31.676  28.423  1.00  0.00     0.116 C 
ENDROOT
BRANCH   1   2
ATOM      2  N   UNL A   1      33.511  31.548  27.486  1.00  0.00    -0.356 N 
ATOM      3  C   UNL A   1      32.768  30.492  27.077  1.00  0.00     0.223 C 
ATOM      4  O   UNL A   1      31.853  30.762  26.289  1.00  0.00    -0.275 OA
ATOM      5  H   UNL A   1      33.257  32.397  27.056  1.00  0.00     0.163 HD
BRANCH   3   6
ATOM      6  C   UNL A   1      32.989  29.030  27.498  1.00  0.00     0.078 C 
ATOM      7  C   UNL A   1      32.532  26.581  25.773  1.00  0.00     0.008 C 
ATOM      8  C   UNL A   1      33.865  27.353  25.701  1.00  0.00     0.006 C 
ATOM      9  C   UNL A   1      31.375  27.368  26.396  1.00  0.00     0.006 C 
ATOM     10  C   UNL A   1      34.168  28.289  26.869  1.00  0.00     0.014 C 
ATOM     11  C   UNL A   1      31.728  28.183  27.626  1.00  0.00     0.014 C 
BRANCH   7  12
ATOM     12  C   UNL A   1      32.148  26.072  24.357  1.00  0.00     0.121 C 
BRANCH  12  13
ATOM     13  N   UNL A   1      32.878  26.747  23.301  1.00  0.00    -0.338 N 
ATOM     14  N   UNL A   1      31.641  28.596  22.479  1.00  0.00    -0.338 N 
ATOM     15  C   UNL A   1      32.713  27.807  22.509  1.00  0.00     0.314 C 
ATOM     16  H   UNL A   1      31.715  29.297  21.791  1.00  0.00     0.165 HD
ATOM     17  O   UNL A   1      33.636  28.081  21.737  1.00  0.00    -0.249 OA
ATOM     18  H   UNL A   1      33.733  26.296  23.117  1.00  0.00     0.165 HD
BRANCH  14  19
ATOM     19  C   UNL A   1      30.393  28.678  23.208  1.00  0.00     0.127 C 
BRANCH  19  20
ATOM     20  C   UNL A   1      29.894  30.106  23.369  1.00  0.00     0.121 C 
BRANCH  20  21
ATOM     21  C   UNL A   1      29.108  30.530  22.144  1.00  0.00     0.223 C 
ATOM     22  C   UNL A   1      28.034  32.287  20.823  1.00  0.00     0.146 C 
ATOM     23  N   UNL A   1      28.687  31.845  22.044  1.00  0.00    -0.349 N 
ATOM     24  C   UNL A   1      28.781  32.814  23.124  1.00  0.00     0.146 C 
ATOM     25  O   UNL A   1      28.905  29.702  21.252  1.00  0.00    -0.275 OA
ENDBRANCH  20  21
ENDBRANCH  19  20
ENDBRANCH  14  19
ENDBRANCH  12  13
ENDBRANCH   7  12
ENDBRANCH   3   6
ENDBRANCH   1   2
BRANCH   1  26
ATOM     26  C   UNL A   1      34.446  32.884  29.340  1.00  0.00     0.023 C 
BRANCH  26  27
ATOM     27  C   UNL A   1      33.563  34.001  28.801  1.00  0.00     0.023 C 
BRANCH  27  28
ATOM     28  C   UNL A   1      33.869  35.398  29.334  1.00  0.00     0.116 C 
BRANCH  28  29
ATOM     29  N   UNL A   1      32.841  35.961  30.203  1.00  0.00    -0.352 N 
ATOM     30  C   UNL A   1      32.717  35.850  31.574  1.00  0.00     0.251 C 
ATOM     31  H   UNL A   1      32.144  36.490  29.752  1.00  0.00     0.163 HD
ATOM     32  O   UNL A   1      31.745  36.300  32.156  1.00  0.00    -0.269 OA
BRANCH  30  33
ATOM     33  C   UNL A   1      33.777  35.136  32.315  1.00  0.00     0.039 A 
ATOM     34  C   UNL A   1      33.539  33.839  32.774  1.00  0.00     0.014 A 
ATOM     35  C   UNL A   1      35.038  35.718  32.439  1.00  0.00     0.014 A 
ATOM     36  C   UNL A   1      34.608  33.080  33.259  1.00  0.00     0.010 A 
ATOM     37  C   UNL A   1      36.112  34.931  32.824  1.00  0.00     0.010 A 
ATOM     38  C   UNL A   1      35.912  33.601  33.229  1.00  0.00    -0.014 A 
BRANCH  38  39
ATOM     39  C   UNL A   1      37.100  32.792  33.604  1.00  0.00     0.031 A 
ATOM     40  C   UNL A   1      37.793  33.062  34.910  1.00  0.00     0.074 A 
ATOM     41  C   UNL A   1      37.631  31.921  32.722  1.00  0.00     0.049 A 
ATOM     42  N   UNL A   1      38.953  32.636  35.338  1.00  0.00    -0.248 NA
ATOM     43  C   UNL A   1      37.113  33.983  35.833  1.00  0.00     0.031 C 
ATOM     44  C   UNL A   1      37.092  31.616  31.395  1.00  0.00     0.029 A 
ATOM     45  N   UNL A   1      38.761  31.147  32.805  1.00  0.00    -0.354 N 
ATOM     46  C   UNL A   1      39.162  33.277  36.552  1.00  0.00     0.074 A 
ATOM     47  C   UNL A   1      38.032  34.155  36.770  1.00  0.00     0.031 C 
ATOM     48  C   UNL A   1      37.878  30.705  30.798  1.00  0.00     0.029 A 
ATOM     49  C   UNL A   1      38.997  30.393  31.681  1.00  0.00     0.049 A 
ATOM     50  H   UNL A   1      39.348  31.133  33.595  1.00  0.00     0.167 HD
ATOM     51  C   UNL A   1      40.193  33.131  37.418  1.00  0.00     0.037 A 
ATOM     52  C   UNL A   1      40.009  29.552  31.394  1.00  0.00     0.037 A 
ATOM     53  C   UNL A   1      41.274  32.204  37.232  1.00  0.00     0.049 A 
ATOM     54  C   UNL A   1      41.103  29.350  32.407  1.00  0.00     0.074 A 
ATOM     55  C   UNL A   1      42.322  31.916  38.087  1.00  0.00     0.029 A 
ATOM     56  N   UNL A   1      41.433  31.396  36.114  1.00  0.00    -0.354 N 
ATOM     57  N   UNL A   1      41.267  29.925  33.572  1.00  0.00    -0.248 NA
ATOM     58  C   UNL A   1      42.150  28.377  32.064  1.00  0.00     0.031 C 
ATOM     59  C   UNL A   1      43.128  30.946  37.480  1.00  0.00     0.029 A 
ATOM     60  C   UNL A   1      42.563  30.608  36.259  1.00  0.00     0.049 A 
ATOM     61  H   UNL A   1      40.832  31.386  35.335  1.00  0.00     0.167 HD
ATOM     62  C   UNL A   1      42.417  29.369  34.114  1.00  0.00     0.074 A 
ATOM     63  C   UNL A   1      42.905  28.401  33.154  1.00  0.00     0.031 C 
ATOM     64  C   UNL A   1      43.018  29.639  35.299  1.00  0.00     0.037 A 
BRANCH  51  65
ATOM     65  C   UNL A   1      40.185  33.987  38.650  1.00  0.00     0.064 A 
ATOM     66  C   UNL A   1      40.830  35.232  38.684  1.00  0.00     0.173 A 
ATOM     67  C   UNL A   1      39.515  33.563  39.807  1.00  0.00     0.173 A 
ATOM     68  F   UNL A   1      41.500  35.676  37.609  1.00  0.00    -0.203 F 
ATOM     69  C   UNL A   1      40.836  36.004  39.843  1.00  0.00     0.198 A 
ATOM     70  C   UNL A   1      39.497  34.352  40.953  1.00  0.00     0.198 A 
ATOM     71  F   UNL A   1      38.879  32.382  39.826  1.00  0.00    -0.203 F 
ATOM     72  F   UNL A   1      41.511  37.162  39.870  1.00  0.00    -0.200 F 
ATOM     73  C   UNL A   1      40.165  35.567  40.974  1.00  0.00     0.200 A 
ATOM     74  F   UNL A   1      38.839  33.933  42.044  1.00  0.00    -0.200 F 
ATOM     75  F   UNL A   1      40.172  36.311  42.088  1.00  0.00    -0.200 F 
ENDBRANCH  51  65
BRANCH  52  76
ATOM     76  C   UNL A   1      40.015  28.807  30.109  1.00  0.00     0.064 A 
ATOM     77  C   UNL A   1      39.424  27.539  30.018  1.00  0.00     0.173 A 
ATOM     78  C   UNL A   1      40.605  29.338  28.954  1.00  0.00     0.173 A 
ATOM     79  F   UNL A   1      38.866  26.983  31.104  1.00  0.00    -0.203 F 
ATOM     80  C   UNL A   1      39.439  26.821  28.824  1.00  0.00     0.198 A 
ATOM     81  C   UNL A   1      40.599  28.629  27.753  1.00  0.00     0.198 A 
ATOM     82  F   UNL A   1      41.179  30.549  28.989  1.00  0.00    -0.203 F 
ATOM     83  F   UNL A   1      38.903  25.595  28.776  1.00  0.00    -0.200 F 
ATOM     84  C   UNL A   1      40.022  27.368  27.692  1.00  0.00     0.200 A 
ATOM     85  F   UNL A   1      41.154  29.164  26.659  1.00  0.00    -0.200 F 
ATOM     86  F   UNL A   1      40.035  26.679  26.544  1.00  0.00    -0.200 F 
ENDBRANCH  52  76
BRANCH  64  87
ATOM     87  C   UNL A   1      44.245  28.849  35.639  1.00  0.00     0.064 A 
ATOM     88  C   UNL A   1      45.525  29.294  35.283  1.00  0.00     0.173 A 
ATOM     89  C   UNL A   1      44.138  27.659  36.373  1.00  0.00     0.173 A 
ATOM     90  F   UNL A   1      45.674  30.419  34.568  1.00  0.00    -0.203 F 
ATOM     91  C   UNL A   1      46.657  28.564  35.636  1.00  0.00     0.198 A 
ATOM     92  C   UNL A   1      45.273  26.945  36.745  1.00  0.00     0.198 A 
ATOM     93  F   UNL A   1      42.933  27.196  36.741  1.00  0.00    -0.203 F 
ATOM     94  F   UNL A   1      47.870  28.988  35.255  1.00  0.00    -0.200 F 
ATOM     95  C   UNL A   1      46.530  27.394  36.371  1.00  0.00     0.200 A 
ATOM     96  F   UNL A   1      45.150  25.820  37.463  1.00  0.00    -0.200 F 
ATOM     97  F   UNL A   1      47.622  26.698  36.716  1.00  0.00    -0.200 F 
ENDBRANCH  64  87
ENDBRANCH  38  39
ENDBRANCH  30  33
ENDBRANCH  28  29
ENDBRANCH  27  28
ENDBRANCH  26  27
ENDBRANCH   1  26
TORSDOF 16
ENDMDL
MODEL 3
REMARK VINA RESULT:     -11.7      1.908      3.369
REMARK SMILES CN(C)C(=O)CCNC(=O)NC[C@H]1CC[C@@H](C(=O)NCCCCNC(=O)c2ccc(-c3c4nc(c(-c5c(F)c(F)c(F)c(F)c5F)c5ccc([nH]5)c(-c5c(F)c(F)c(F)c(F)c5F)c5nc(c(-c6c(F)c(F)c(F)c(F)c6F)c6ccc3[nH]6)C=C5)C=C4)cc2)CC1
REMARK SMILES IDX 20 1 19 2 17 3 18 4 16 6 13 7 14 8 91 9 15 10 90 11 12 12
REMARK SMILES IDX 11 13 8 14 9 15 10 17 7 19 6 20 4 21 1 22 2 23 3 24 5 25
REMARK SMILES IDX 21 26 22 27 23 28 24 29 25 30 26 32 27 33 28 34 89 35 29 36
REMARK SMILES IDX 88 37 30 38 31 39 32 40 82 41 33 42 87 43 81 44 83 45 34 46
REMARK SMILES IDX 86 47 80 48 79 49 35 51 67 52 47 53 66 54 48 55 51 56 65 57
REMARK SMILES IDX 84 58 49 59 50 60 64 62 85 63 52 64 36 65 37 66 45 67 38 68
REMARK SMILES IDX 39 69 43 70 46 71 40 72 41 73 44 74 42 75 68 76 69 77 77 78
REMARK SMILES IDX 70 79 71 80 75 81 78 82 72 83 73 84 76 85 74 86 53 87 54 88
REMARK SMILES IDX 62 89 55 90 56 91 60 92 63 93 57 94 58 95 61 96 59 97
REMARK H PARENT 19 5 8 16 11 18 24 31 83 50 51 61
REMARK Flexibility Score: inf
ROOT
ATOM      1  C   UNL A   1      34.542  31.644  28.211  1.00  0.00     0.116 C 
ENDROOT
BRANCH   1   2
ATOM      2  N   UNL A   1      33.351  31.576  27.407  1.00  0.00    -0.356 N 
ATOM      3  C   UNL A   1      32.648  30.541  26.889  1.00  0.00     0.223 C 
ATOM      4  O   UNL A   1      31.612  30.852  26.288  1.00  0.00    -0.275 OA
ATOM      5  H   UNL A   1      32.970  32.458  27.190  1.00  0.00     0.163 HD
BRANCH   3   6
ATOM      6  C   UNL A   1      33.046  29.058  26.979  1.00  0.00     0.078 C 
ATOM      7  C   UNL A   1      32.097  26.834  25.154  1.00  0.00     0.008 C 
ATOM      8  C   UNL A   1      33.297  27.716  24.756  1.00  0.00     0.006 C 
ATOM      9  C   UNL A   1      31.203  27.433  26.245  1.00  0.00     0.006 C 
ATOM     10  C   UNL A   1      33.956  28.508  25.883  1.00  0.00     0.014 C 
ATOM     11  C   UNL A   1      31.934  28.101  27.394  1.00  0.00     0.014 C 
BRANCH   7  12
ATOM     12  C   UNL A   1      31.262  26.491  23.891  1.00  0.00     0.121 C 
BRANCH  12  13
ATOM     13  N   UNL A   1      32.084  26.278  22.715  1.00  0.00    -0.338 N 
ATOM     14  N   UNL A   1      32.491  23.965  22.386  1.00  0.00    -0.338 N 
ATOM     15  C   UNL A   1      32.601  25.248  22.046  1.00  0.00     0.314 C 
ATOM     16  H   UNL A   1      32.983  23.374  21.772  1.00  0.00     0.165 HD
ATOM     17  O   UNL A   1      33.237  25.505  21.020  1.00  0.00    -0.249 OA
ATOM     18  H   UNL A   1      32.330  27.134  22.295  1.00  0.00     0.165 HD
BRANCH  14  19
ATOM     19  C   UNL A   1      31.828  23.225  23.439  1.00  0.00     0.127 C 
BRANCH  19  20
ATOM     20  C   UNL A   1      32.657  22.058  23.956  1.00  0.00     0.121 C 
BRANCH  20  21
ATOM     21  C   UNL A   1      32.385  20.815  23.133  1.00  0.00     0.223 C 
ATOM     22  C   UNL A   1      32.240  18.378  22.967  1.00  0.00     0.146 C 
ATOM     23  N   UNL A   1      32.606  19.575  23.707  1.00  0.00    -0.349 N 
ATOM     24  C   UNL A   1      33.266  19.376  24.987  1.00  0.00     0.146 C 
ATOM     25  O   UNL A   1      31.932  20.944  21.992  1.00  0.00    -0.275 OA
ENDBRANCH  20  21
ENDBRANCH  19  20
ENDBRANCH  14  19
ENDBRANCH  12  13
ENDBRANCH   7  12
ENDBRANCH   3   6
ENDBRANCH   1   2
BRANCH   1  26
ATOM     26  C   UNL A   1      34.530  32.812  29.191  1.00  0.00     0.023 C 
BRANCH  26  27
ATOM     27  C   UNL A   1      33.505  33.896  28.891  1.00  0.00     0.023 C 
BRANCH  27  28
ATOM     28  C   UNL A   1      33.845  35.288  29.419  1.00  0.00     0.116 C 
BRANCH  28  29
ATOM     29  N   UNL A   1      32.838  35.872  30.300  1.00  0.00    -0.352 N 
ATOM     30  C   UNL A   1      32.742  35.782  31.675  1.00  0.00     0.251 C 
ATOM     31  H   UNL A   1      32.136  36.399  29.855  1.00  0.00     0.163 HD
ATOM     32  O   UNL A   1      31.785  36.248  32.269  1.00  0.00    -0.269 OA
BRANCH  30  33
ATOM     33  C   UNL A   1      33.811  35.072  32.405  1.00  0.00     0.039 A 
ATOM     34  C   UNL A   1      33.588  33.768  32.853  1.00  0.00     0.014 A 
ATOM     35  C   UNL A   1      35.068  35.665  32.529  1.00  0.00     0.014 A 
ATOM     36  C   UNL A   1      34.666  33.015  33.327  1.00  0.00     0.010 A 
ATOM     37  C   UNL A   1      36.151  34.884  32.904  1.00  0.00     0.010 A 
ATOM     38  C   UNL A   1      35.964  33.549  33.297  1.00  0.00    -0.014 A 
BRANCH  38  39
ATOM     39  C   UNL A   1      37.162  32.748  33.659  1.00  0.00     0.031 A 
ATOM     40  C   UNL A   1      37.869  33.026  34.956  1.00  0.00     0.074 A 
ATOM     41  C   UNL A   1      37.688  31.879  32.773  1.00  0.00     0.049 A 
ATOM     42  N   UNL A   1      39.036  32.607  35.373  1.00  0.00    -0.248 NA
ATOM     43  C   UNL A   1      37.193  33.945  35.885  1.00  0.00     0.031 C 
ATOM     44  C   UNL A   1      37.135  31.568  31.453  1.00  0.00     0.029 A 
ATOM     45  N   UNL A   1      38.824  31.112  32.844  1.00  0.00    -0.354 N 
ATOM     46  C   UNL A   1      39.255  33.253  36.582  1.00  0.00     0.074 A 
ATOM     47  C   UNL A   1      38.123  34.124  36.811  1.00  0.00     0.031 C 
ATOM     48  C   UNL A   1      37.920  30.660  30.849  1.00  0.00     0.029 A 
ATOM     49  C   UNL A   1      39.051  30.357  31.720  1.00  0.00     0.049 A 
ATOM     50  H   UNL A   1      39.420  31.103  33.628  1.00  0.00     0.167 HD
ATOM     51  C   UNL A   1      40.297  33.115  37.436  1.00  0.00     0.037 A 
ATOM     52  C   UNL A   1      40.065  29.521  31.423  1.00  0.00     0.037 A 
ATOM     53  C   UNL A   1      41.381  32.194  37.240  1.00  0.00     0.049 A 
ATOM     54  C   UNL A   1      41.172  29.328  32.423  1.00  0.00     0.074 A 
ATOM     55  C   UNL A   1      42.441  31.914  38.083  1.00  0.00     0.029 A 
ATOM     56  N   UNL A   1      41.532  31.385  36.122  1.00  0.00    -0.354 N 
ATOM     57  N   UNL A   1      41.346  29.907  33.586  1.00  0.00    -0.248 NA
ATOM     58  C   UNL A   1      42.221  28.361  32.071  1.00  0.00     0.031 C 
ATOM     59  C   UNL A   1      43.246  30.948  37.469  1.00  0.00     0.029 A 
ATOM     60  C   UNL A   1      42.669  30.604  36.256  1.00  0.00     0.049 A 
ATOM     61  H   UNL A   1      40.923  31.369  35.350  1.00  0.00     0.167 HD
ATOM     62  C   UNL A   1      42.506  29.359  34.115  1.00  0.00     0.074 A 
ATOM     63  C   UNL A   1      42.989  28.392  33.152  1.00  0.00     0.031 C 
ATOM     64  C   UNL A   1      43.119  29.635  35.292  1.00  0.00     0.037 A 
BRANCH  51  65
ATOM     65  C   UNL A   1      40.298  33.974  38.667  1.00  0.00     0.064 A 
ATOM     66  C   UNL A   1      39.676  33.558  39.853  1.00  0.00     0.173 A 
ATOM     67  C   UNL A   1      40.938  35.222  38.663  1.00  0.00     0.173 A 
ATOM     68  F   UNL A   1      39.034  32.380  39.903  1.00  0.00    -0.203 F 
ATOM     69  C   UNL A   1      39.663  34.376  40.980  1.00  0.00     0.198 A 
ATOM     70  C   UNL A   1      40.950  36.023  39.801  1.00  0.00     0.198 A 
ATOM     71  F   UNL A   1      41.551  35.664  37.555  1.00  0.00    -0.203 F 
ATOM     72  F   UNL A   1      39.010  33.984  42.082  1.00  0.00    -0.200 F 
ATOM     73  C   UNL A   1      40.305  35.605  40.955  1.00  0.00     0.200 A 
ATOM     74  F   UNL A   1      41.580  37.206  39.779  1.00  0.00    -0.200 F 
ATOM     75  F   UNL A   1      40.292  36.391  42.040  1.00  0.00    -0.200 F 
ENDBRANCH  51  65
BRANCH  52  76
ATOM     76  C   UNL A   1      40.061  28.774  30.139  1.00  0.00     0.064 A 
ATOM     77  C   UNL A   1      40.658  29.322  28.995  1.00  0.00     0.173 A 
ATOM     78  C   UNL A   1      39.468  27.510  30.026  1.00  0.00     0.173 A 
ATOM     79  F   UNL A   1      41.219  30.539  29.052  1.00  0.00    -0.203 F 
ATOM     80  C   UNL A   1      40.645  28.641  27.780  1.00  0.00     0.198 A 
ATOM     81  C   UNL A   1      39.475  26.819  28.814  1.00  0.00     0.198 A 
ATOM     82  F   UNL A   1      38.888  26.941  31.093  1.00  0.00    -0.203 F 
ATOM     83  F   UNL A   1      41.186  29.206  26.692  1.00  0.00    -0.200 F 
ATOM     84  C   UNL A   1      40.058  27.389  27.691  1.00  0.00     0.200 A 
ATOM     85  F   UNL A   1      38.916  25.605  28.734  1.00  0.00    -0.200 F 
ATOM     86  F   UNL A   1      40.046  26.733  26.523  1.00  0.00    -0.200 F 
ENDBRANCH  52  76
BRANCH  64  87
ATOM     87  C   UNL A   1      44.354  28.854  35.620  1.00  0.00     0.064 A 
ATOM     88  C   UNL A   1      44.289  27.641  36.319  1.00  0.00     0.173 A 
ATOM     89  C   UNL A   1      45.610  29.301  35.186  1.00  0.00     0.173 A 
ATOM     90  F   UNL A   1      43.110  27.181  36.767  1.00  0.00    -0.203 F 
ATOM     91  C   UNL A   1      45.443  26.910  36.589  1.00  0.00     0.198 A 
ATOM     92  C   UNL A   1      46.759  28.556  35.436  1.00  0.00     0.198 A 
ATOM     93  F   UNL A   1      45.721  30.453  34.509  1.00  0.00    -0.203 F 
ATOM     94  F   UNL A   1      45.364  25.770  37.289  1.00  0.00    -0.200 F 
ATOM     95  C   UNL A   1      46.675  27.365  36.141  1.00  0.00     0.200 A 
ATOM     96  F   UNL A   1      47.947  28.991  34.995  1.00  0.00    -0.200 F 
ATOM     97  F   UNL A   1      47.783  26.655  36.394  1.00  0.00    -0.200 F 
ENDBRANCH  64  87
ENDBRANCH  38  39
ENDBRANCH  30  33
ENDBRANCH  28  29
ENDBRANCH  27  28
ENDBRANCH  26  27
ENDBRANCH   1  26
TORSDOF 16
ENDMDL
