MODEL 1
REMARK VINA RESULT:     -12.7      0.000      0.000
REMARK SMILES CC(C)CSc1cc2c(cc1Cl)C=C(C(=O)NCCCCNC(=O)c1ccc(-c3c4nc(c(-c5c(F)c(F)c(F)c(F)c5F)c5ccc([nH]5)c(-c5c(F)c(F)c(F)c(F)c5F)c5nc(c(-c6c(F)c(F)c(F)c(F)c6F)c6ccc3[nH]6)C=C5)C=C4)cc1)[C@@H](C(F)(F)F)O2
REMARK SMILES IDX 19 1 18 2 17 3 15 4 16 5 14 7 6 8 7 9 11 10 8 11 10 12 12 13
REMARK SMILES IDX 9 14 93 15 13 16 88 17 5 18 4 19 2 20 1 21 3 22 89 23 90 24
REMARK SMILES IDX 91 25 92 26 20 27 21 28 22 29 23 30 24 32 25 33 26 34 87 35
REMARK SMILES IDX 27 36 86 37 28 38 29 39 30 40 80 41 31 42 85 43 79 44 81 45
REMARK SMILES IDX 32 46 84 47 78 48 77 49 33 51 65 52 45 53 64 54 46 55 49 56
REMARK SMILES IDX 63 57 82 58 47 59 48 60 62 62 83 63 50 64 34 65 35 66 43 67
REMARK SMILES IDX 36 68 37 69 41 70 44 71 38 72 39 73 42 74 40 75 66 76 67 77
REMARK SMILES IDX 75 78 68 79 69 80 73 81 76 82 70 83 71 84 74 85 72 86 51 87
REMARK SMILES IDX 52 88 60 89 53 90 54 91 58 92 61 93 55 94 56 95 59 96 57 97
REMARK H PARENT 17 6 22 31 81 50 49 61
REMARK Flexibility Score: inf
ROOT
ATOM      1  C   UNL A   1      37.440  21.628  24.628  1.00  0.00     0.023 C 
ENDROOT
BRANCH   1   2
ATOM      2  C   UNL A   1      37.041  22.510  25.807  1.00  0.00     0.116 C 
BRANCH   2   3
ATOM      3  N   UNL A   1      35.871  22.002  26.505  1.00  0.00    -0.352 N 
ATOM      4  C   UNL A   1      34.538  22.238  26.500  1.00  0.00     0.251 C 
ATOM      5  O   UNL A   1      33.876  21.544  27.279  1.00  0.00    -0.270 OA
ATOM      6  H   UNL A   1      36.113  21.301  27.153  1.00  0.00     0.163 HD
BRANCH   4   7
ATOM      7  C   UNL A   1      33.847  23.255  25.651  1.00  0.00     0.067 C 
ATOM      8  C   UNL A   1      31.923  27.599  23.897  1.00  0.00     0.030 A 
ATOM      9  C   UNL A   1      32.170  26.333  23.360  1.00  0.00     0.063 A 
ATOM     10  C   UNL A   1      32.110  27.763  25.284  1.00  0.00     0.055 A 
ATOM     11  C   UNL A   1      32.704  25.309  24.141  1.00  0.00     0.129 A 
ATOM     12  C   UNL A   1      32.607  26.714  26.077  1.00  0.00     0.033 A 
ATOM     13  Cl  UNL A   1      31.772  29.255  26.100  1.00  0.00    -0.083 Cl
ATOM     14  C   UNL A   1      32.939  25.490  25.496  1.00  0.00     0.019 A 
ATOM     15  O   UNL A   1      33.032  24.178  23.461  1.00  0.00    -0.475 OA
ATOM     16  C   UNL A   1      33.578  24.427  26.258  1.00  0.00     0.025 C 
ATOM     17  C   UNL A   1      33.440  23.016  24.223  1.00  0.00     0.314 C 
BRANCH   8  18
ATOM     18  S   UNL A   1      31.418  28.964  22.845  1.00  0.00    -0.124 SA
BRANCH  18  19
ATOM     19  C   UNL A   1      29.730  29.423  23.414  1.00  0.00     0.078 C 
BRANCH  19  20
ATOM     20  C   UNL A   1      28.569  29.135  22.442  1.00  0.00    -0.007 C 
ATOM     21  C   UNL A   1      27.261  28.705  23.106  1.00  0.00     0.008 C 
ATOM     22  C   UNL A   1      28.299  30.395  21.607  1.00  0.00     0.008 C 
ENDBRANCH  19  20
ENDBRANCH  18  19
ENDBRANCH   8  18
BRANCH  17  23
ATOM     23  C   UNL A   1      32.335  21.956  24.078  1.00  0.00     0.429 C 
ATOM     24  F   UNL A   1      31.758  22.045  22.853  1.00  0.00    -0.167 F 
ATOM     25  F   UNL A   1      32.796  20.691  24.189  1.00  0.00    -0.167 F 
ATOM     26  F   UNL A   1      31.357  22.106  24.999  1.00  0.00    -0.167 F 
ENDBRANCH  17  23
ENDBRANCH   4   7
ENDBRANCH   2   3
ENDBRANCH   1   2
BRANCH   1  27
ATOM     27  C   UNL A   1      38.106  20.311  25.027  1.00  0.00     0.023 C 
BRANCH  27  28
ATOM     28  C   UNL A   1      39.439  20.449  25.760  1.00  0.00     0.116 C 
BRANCH  28  29
ATOM     29  N   UNL A   1      40.230  19.226  25.800  1.00  0.00    -0.352 N 
ATOM     30  C   UNL A   1      41.564  19.106  26.116  1.00  0.00     0.251 C 
ATOM     31  H   UNL A   1      39.757  18.392  25.576  1.00  0.00     0.163 HD
ATOM     32  O   UNL A   1      42.138  18.024  26.073  1.00  0.00    -0.269 OA
BRANCH  30  33
ATOM     33  C   UNL A   1      42.302  20.336  26.450  1.00  0.00     0.039 A 
ATOM     34  C   UNL A   1      42.281  20.819  27.761  1.00  0.00     0.014 A 
ATOM     35  C   UNL A   1      42.873  21.080  25.417  1.00  0.00     0.014 A 
ATOM     36  C   UNL A   1      42.689  22.124  28.008  1.00  0.00     0.010 A 
ATOM     37  C   UNL A   1      43.340  22.366  25.680  1.00  0.00     0.010 A 
ATOM     38  C   UNL A   1      43.198  22.916  26.965  1.00  0.00    -0.014 A 
BRANCH  38  39
ATOM     39  C   UNL A   1      43.543  24.333  27.224  1.00  0.00     0.031 A 
ATOM     40  C   UNL A   1      44.916  24.855  26.899  1.00  0.00     0.074 A 
ATOM     41  C   UNL A   1      42.599  25.160  27.705  1.00  0.00     0.049 A 
ATOM     42  N   UNL A   1      45.415  26.048  27.105  1.00  0.00    -0.248 NA
ATOM     43  C   UNL A   1      45.852  23.917  26.258  1.00  0.00     0.031 C 
ATOM     44  C   UNL A   1      41.224  24.772  28.022  1.00  0.00     0.029 A 
ATOM     45  N   UNL A   1      42.644  26.500  27.990  1.00  0.00    -0.354 N 
ATOM     46  C   UNL A   1      46.725  25.997  26.647  1.00  0.00     0.074 A 
ATOM     47  C   UNL A   1      46.951  24.654  26.157  1.00  0.00     0.031 C 
ATOM     48  C   UNL A   1      40.544  25.858  28.417  1.00  0.00     0.029 A 
ATOM     49  C   UNL A   1      41.450  27.002  28.440  1.00  0.00     0.049 A 
ATOM     50  H   UNL A   1      43.455  27.048  27.883  1.00  0.00     0.167 HD
ATOM     51  C   UNL A   1      47.652  26.984  26.638  1.00  0.00     0.037 A 
ATOM     52  C   UNL A   1      41.125  28.244  28.841  1.00  0.00     0.037 A 
ATOM     53  C   UNL A   1      47.414  28.325  27.105  1.00  0.00     0.049 A 
ATOM     54  C   UNL A   1      42.176  29.315  28.836  1.00  0.00     0.074 A 
ATOM     55  C   UNL A   1      48.297  29.391  27.158  1.00  0.00     0.029 A 
ATOM     56  N   UNL A   1      46.198  28.789  27.584  1.00  0.00    -0.354 N 
ATOM     57  N   UNL A   1      43.428  29.238  28.456  1.00  0.00    -0.248 NA
ATOM     58  C   UNL A   1      41.773  30.638  29.327  1.00  0.00     0.031 C 
ATOM     59  C   UNL A   1      47.619  30.495  27.689  1.00  0.00     0.029 A 
ATOM     60  C   UNL A   1      46.307  30.124  27.935  1.00  0.00     0.049 A 
ATOM     61  H   UNL A   1      45.379  28.248  27.663  1.00  0.00     0.167 HD
ATOM     62  C   UNL A   1      43.964  30.500  28.661  1.00  0.00     0.074 A 
ATOM     63  C   UNL A   1      42.895  31.331  29.176  1.00  0.00     0.031 C 
ATOM     64  C   UNL A   1      45.231  30.930  28.448  1.00  0.00     0.037 A 
BRANCH  51  65
ATOM     65  C   UNL A   1      49.020  26.655  26.122  1.00  0.00     0.064 A 
ATOM     66  C   UNL A   1      49.390  26.932  24.798  1.00  0.00     0.173 A 
ATOM     67  C   UNL A   1      49.994  26.123  26.980  1.00  0.00     0.173 A 
ATOM     68  F   UNL A   1      48.490  27.426  23.936  1.00  0.00    -0.203 F 
ATOM     69  C   UNL A   1      50.685  26.683  24.352  1.00  0.00     0.198 A 
ATOM     70  C   UNL A   1      51.293  25.893  26.536  1.00  0.00     0.198 A 
ATOM     71  F   UNL A   1      49.689  25.843  28.256  1.00  0.00    -0.203 F 
ATOM     72  F   UNL A   1      51.013  26.935  23.076  1.00  0.00    -0.200 F 
ATOM     73  C   UNL A   1      51.637  26.173  25.222  1.00  0.00     0.200 A 
ATOM     74  F   UNL A   1      52.213  25.407  27.380  1.00  0.00    -0.200 F 
ATOM     75  F   UNL A   1      52.887  25.947  24.794  1.00  0.00    -0.200 F 
ENDBRANCH  51  65
BRANCH  52  76
ATOM     76  C   UNL A   1      39.738  28.525  29.283  1.00  0.00     0.064 A 
ATOM     77  C   UNL A   1      39.354  28.313  30.613  1.00  0.00     0.173 A 
ATOM     78  C   UNL A   1      38.786  29.055  28.400  1.00  0.00     0.173 A 
ATOM     79  F   UNL A   1      40.226  27.790  31.487  1.00  0.00    -0.203 F 
ATOM     80  C   UNL A   1      38.066  28.622  31.044  1.00  0.00     0.198 A 
ATOM     81  C   UNL A   1      37.507  29.385  28.837  1.00  0.00     0.198 A 
ATOM     82  F   UNL A   1      39.113  29.279  27.118  1.00  0.00    -0.203 F 
ATOM     83  F   UNL A   1      37.715  28.392  32.317  1.00  0.00    -0.200 F 
ATOM     84  C   UNL A   1      37.147  29.167  30.158  1.00  0.00     0.200 A 
ATOM     85  F   UNL A   1      36.628  29.924  27.983  1.00  0.00    -0.200 F 
ATOM     86  F   UNL A   1      35.914  29.479  30.579  1.00  0.00    -0.200 F 
ENDBRANCH  52  76
BRANCH  64  87
ATOM     87  C   UNL A   1      45.523  32.364  28.763  1.00  0.00     0.064 A 
ATOM     88  C   UNL A   1      46.021  32.745  30.017  1.00  0.00     0.173 A 
ATOM     89  C   UNL A   1      45.340  33.359  27.792  1.00  0.00     0.173 A 
ATOM     90  F   UNL A   1      46.198  31.829  30.980  1.00  0.00    -0.203 F 
ATOM     91  C   UNL A   1      46.306  34.079  30.295  1.00  0.00     0.198 A 
ATOM     92  C   UNL A   1      45.645  34.688  28.067  1.00  0.00     0.198 A 
ATOM     93  F   UNL A   1      44.871  33.038  26.577  1.00  0.00    -0.203 F 
ATOM     94  F   UNL A   1      46.747  34.429  31.510  1.00  0.00    -0.200 F 
ATOM     95  C   UNL A   1      46.122  35.047  29.319  1.00  0.00     0.200 A 
ATOM     96  F   UNL A   1      45.473  35.622  27.121  1.00  0.00    -0.200 F 
ATOM     97  F   UNL A   1      46.400  36.331  29.587  1.00  0.00    -0.200 F 
ENDBRANCH  64  87
ENDBRANCH  38  39
ENDBRANCH  30  33
ENDBRANCH  28  29
ENDBRANCH  27  28
ENDBRANCH   1  27
TORSDOF 15
ENDMDL
MODEL 2
REMARK VINA RESULT:     -12.7      5.698     11.086
REMARK SMILES CC(C)CSc1cc2c(cc1Cl)C=C(C(=O)NCCCCNC(=O)c1ccc(-c3c4nc(c(-c5c(F)c(F)c(F)c(F)c5F)c5ccc([nH]5)c(-c5c(F)c(F)c(F)c(F)c5F)c5nc(c(-c6c(F)c(F)c(F)c(F)c6F)c6ccc3[nH]6)C=C5)C=C4)cc1)[C@@H](C(F)(F)F)O2
REMARK SMILES IDX 19 1 18 2 17 3 15 4 16 5 14 7 6 8 7 9 11 10 8 11 10 12 12 13
REMARK SMILES IDX 9 14 93 15 13 16 88 17 5 18 4 19 2 20 1 21 3 22 89 23 90 24
REMARK SMILES IDX 91 25 92 26 20 27 21 28 22 29 23 30 24 32 25 33 26 34 87 35
REMARK SMILES IDX 27 36 86 37 28 38 29 39 30 40 80 41 31 42 85 43 79 44 81 45
REMARK SMILES IDX 32 46 84 47 78 48 77 49 33 51 65 52 45 53 64 54 46 55 49 56
REMARK SMILES IDX 63 57 82 58 47 59 48 60 62 62 83 63 50 64 34 65 35 66 43 67
REMARK SMILES IDX 36 68 37 69 41 70 44 71 38 72 39 73 42 74 40 75 66 76 67 77
REMARK SMILES IDX 75 78 68 79 69 80 73 81 76 82 70 83 71 84 74 85 72 86 51 87
REMARK SMILES IDX 52 88 60 89 53 90 54 91 58 92 61 93 55 94 56 95 59 96 57 97
REMARK H PARENT 17 6 22 31 81 50 49 61
REMARK Flexibility Score: inf
ROOT
ATOM      1  C   UNL A   1      32.604  30.297  26.530  1.00  0.00     0.023 C 
ENDROOT
BRANCH   1   2
ATOM      2  C   UNL A   1      31.792  29.884  25.307  1.00  0.00     0.116 C 
BRANCH   2   3
ATOM      3  N   UNL A   1      32.631  29.615  24.152  1.00  0.00    -0.352 N 
ATOM      4  C   UNL A   1      33.122  28.522  23.520  1.00  0.00     0.251 C 
ATOM      5  O   UNL A   1      33.816  28.754  22.526  1.00  0.00    -0.270 OA
ATOM      6  H   UNL A   1      32.919  30.447  23.712  1.00  0.00     0.163 HD
BRANCH   4   7
ATOM      7  C   UNL A   1      32.892  27.107  23.945  1.00  0.00     0.067 C 
ATOM      8  C   UNL A   1      33.609  22.280  25.298  1.00  0.00     0.030 A 
ATOM      9  C   UNL A   1      32.538  23.175  25.340  1.00  0.00     0.063 A 
ATOM     10  C   UNL A   1      34.774  22.694  24.620  1.00  0.00     0.055 A 
ATOM     11  C   UNL A   1      32.661  24.474  24.848  1.00  0.00     0.129 A 
ATOM     12  C   UNL A   1      34.879  23.990  24.086  1.00  0.00     0.033 A 
ATOM     13  Cl  UNL A   1      36.153  21.663  24.423  1.00  0.00    -0.083 Cl
ATOM     14  C   UNL A   1      33.829  24.897  24.230  1.00  0.00     0.019 A 
ATOM     15  O   UNL A   1      31.595  25.283  25.085  1.00  0.00    -0.475 OA
ATOM     16  C   UNL A   1      33.950  26.285  23.808  1.00  0.00     0.025 C 
ATOM     17  C   UNL A   1      31.579  26.593  24.467  1.00  0.00     0.314 C 
BRANCH   8  18
ATOM     18  S   UNL A   1      33.506  20.678  26.103  1.00  0.00    -0.124 SA
BRANCH  18  19
ATOM     19  C   UNL A   1      32.569  19.605  24.941  1.00  0.00     0.078 C 
BRANCH  19  20
ATOM     20  C   UNL A   1      33.397  18.820  23.902  1.00  0.00    -0.007 C 
ATOM     21  C   UNL A   1      34.223  17.667  24.471  1.00  0.00     0.008 C 
ATOM     22  C   UNL A   1      32.446  18.258  22.836  1.00  0.00     0.008 C 
ENDBRANCH  19  20
ENDBRANCH  18  19
ENDBRANCH   8  18
BRANCH  17  23
ATOM     23  C   UNL A   1      30.465  26.591  23.408  1.00  0.00     0.429 C 
ATOM     24  F   UNL A   1      29.705  25.473  23.529  1.00  0.00    -0.167 F 
ATOM     25  F   UNL A   1      29.620  27.639  23.525  1.00  0.00    -0.167 F 
ATOM     26  F   UNL A   1      30.955  26.614  22.148  1.00  0.00    -0.167 F 
ENDBRANCH  17  23
ENDBRANCH   4   7
ENDBRANCH   2   3
ENDBRANCH   1   2
BRANCH   1  27
ATOM     27  C   UNL A   1      32.104  31.569  27.215  1.00  0.00     0.023 C 
BRANCH  27  28
ATOM     28  C   UNL A   1      33.147  32.670  27.390  1.00  0.00     0.116 C 
BRANCH  28  29
ATOM     29  N   UNL A   1      32.588  33.985  27.674  1.00  0.00    -0.352 N 
ATOM     30  C   UNL A   1      33.039  34.902  28.597  1.00  0.00     0.251 C 
ATOM     31  H   UNL A   1      31.799  34.249  27.147  1.00  0.00     0.163 HD
ATOM     32  O   UNL A   1      32.459  35.965  28.781  1.00  0.00    -0.269 OA
BRANCH  30  33
ATOM     33  C   UNL A   1      34.214  34.537  29.406  1.00  0.00     0.039 A 
ATOM     34  C   UNL A   1      35.496  34.706  28.878  1.00  0.00     0.014 A 
ATOM     35  C   UNL A   1      34.016  33.879  30.622  1.00  0.00     0.014 A 
ATOM     36  C   UNL A   1      36.570  34.071  29.489  1.00  0.00     0.010 A 
ATOM     37  C   UNL A   1      35.106  33.296  31.266  1.00  0.00     0.010 A 
ATOM     38  C   UNL A   1      36.379  33.340  30.674  1.00  0.00    -0.014 A 
BRANCH  38  39
ATOM     39  C   UNL A   1      37.514  32.595  31.265  1.00  0.00     0.031 A 
ATOM     40  C   UNL A   1      37.988  32.903  32.659  1.00  0.00     0.074 A 
ATOM     41  C   UNL A   1      38.083  31.601  30.560  1.00  0.00     0.049 A 
ATOM     42  N   UNL A   1      38.996  32.393  33.319  1.00  0.00    -0.248 NA
ATOM     43  C   UNL A   1      37.231  33.918  33.410  1.00  0.00     0.031 C 
ATOM     44  C   UNL A   1      37.682  31.189  29.214  1.00  0.00     0.029 A 
ATOM     45  N   UNL A   1      39.103  30.745  30.883  1.00  0.00    -0.354 N 
ATOM     46  C   UNL A   1      39.012  33.040  34.548  1.00  0.00     0.074 A 
ATOM     47  C   UNL A   1      37.917  33.987  34.543  1.00  0.00     0.031 C 
ATOM     48  C   UNL A   1      38.418  30.132  28.843  1.00  0.00     0.029 A 
ATOM     49  C   UNL A   1      39.382  29.832  29.898  1.00  0.00     0.049 A 
ATOM     50  H   UNL A   1      39.588  30.781  31.739  1.00  0.00     0.167 HD
ATOM     51  C   UNL A   1      39.865  32.858  35.584  1.00  0.00     0.037 A 
ATOM     52  C   UNL A   1      40.320  28.870  29.844  1.00  0.00     0.037 A 
ATOM     53  C   UNL A   1      40.938  31.896  35.592  1.00  0.00     0.049 A 
ATOM     54  C   UNL A   1      41.263  28.701  30.999  1.00  0.00     0.074 A 
ATOM     55  C   UNL A   1      41.871  31.651  36.585  1.00  0.00     0.029 A 
ATOM     56  N   UNL A   1      41.210  31.010  34.561  1.00  0.00    -0.354 N 
ATOM     57  N   UNL A   1      41.305  29.359  32.132  1.00  0.00    -0.248 NA
ATOM     58  C   UNL A   1      42.294  27.665  30.863  1.00  0.00     0.031 C 
ATOM     59  C   UNL A   1      42.720  30.629  36.146  1.00  0.00     0.029 A 
ATOM     60  C   UNL A   1      42.295  30.216  34.894  1.00  0.00     0.049 A 
ATOM     61  H   UNL A   1      40.705  30.953  33.717  1.00  0.00     0.167 HD
ATOM     62  C   UNL A   1      42.365  28.819  32.844  1.00  0.00     0.074 A 
ATOM     63  C   UNL A   1      42.925  27.762  32.027  1.00  0.00     0.031 C 
ATOM     64  C   UNL A   1      42.836  29.172  34.064  1.00  0.00     0.037 A 
BRANCH  51  65
ATOM     65  C   UNL A   1      39.691  33.721  36.796  1.00  0.00     0.064 A 
ATOM     66  C   UNL A   1      40.285  34.987  36.885  1.00  0.00     0.173 A 
ATOM     67  C   UNL A   1      38.863  33.306  37.850  1.00  0.00     0.173 A 
ATOM     68  F   UNL A   1      41.098  35.422  35.910  1.00  0.00    -0.203 F 
ATOM     69  C   UNL A   1      40.060  35.806  37.989  1.00  0.00     0.198 A 
ATOM     70  C   UNL A   1      38.625  34.134  38.943  1.00  0.00     0.198 A 
ATOM     71  F   UNL A   1      38.271  32.103  37.810  1.00  0.00    -0.203 F 
ATOM     72  F   UNL A   1      40.654  37.006  38.065  1.00  0.00    -0.200 F 
ATOM     73  C   UNL A   1      39.224  35.384  39.012  1.00  0.00     0.200 A 
ATOM     74  F   UNL A   1      37.812  33.727  39.927  1.00  0.00    -0.200 F 
ATOM     75  F   UNL A   1      38.997  36.178  40.067  1.00  0.00    -0.200 F 
ENDBRANCH  51  65
BRANCH  52  76
ATOM     76  C   UNL A   1      40.405  28.005  28.644  1.00  0.00     0.064 A 
ATOM     77  C   UNL A   1      41.162  28.395  27.532  1.00  0.00     0.173 A 
ATOM     78  C   UNL A   1      39.774  26.754  28.603  1.00  0.00     0.173 A 
ATOM     79  F   UNL A   1      41.768  29.591  27.520  1.00  0.00    -0.203 F 
ATOM     80  C   UNL A   1      41.285  27.563  26.421  1.00  0.00     0.198 A 
ATOM     81  C   UNL A   1      39.916  25.913  27.503  1.00  0.00     0.198 A 
ATOM     82  F   UNL A   1      39.043  26.337  29.648  1.00  0.00    -0.203 F 
ATOM     83  F   UNL A   1      41.998  27.966  25.361  1.00  0.00    -0.200 F 
ATOM     84  C   UNL A   1      40.670  26.319  26.413  1.00  0.00     0.200 A 
ATOM     85  F   UNL A   1      39.333  24.707  27.504  1.00  0.00    -0.200 F 
ATOM     86  F   UNL A   1      40.803  25.512  25.350  1.00  0.00    -0.200 F 
ENDBRANCH  52  76
BRANCH  64  87
ATOM     87  C   UNL A   1      44.008  28.403  34.589  1.00  0.00     0.064 A 
ATOM     88  C   UNL A   1      45.322  28.842  34.372  1.00  0.00     0.173 A 
ATOM     89  C   UNL A   1      43.814  27.238  35.345  1.00  0.00     0.173 A 
ATOM     90  F   UNL A   1      45.554  29.943  33.643  1.00  0.00    -0.203 F 
ATOM     91  C   UNL A   1      46.404  28.128  34.878  1.00  0.00     0.198 A 
ATOM     92  C   UNL A   1      44.897  26.538  35.866  1.00  0.00     0.198 A 
ATOM     93  F   UNL A   1      42.574  26.785  35.581  1.00  0.00    -0.203 F 
ATOM     94  F   UNL A   1      47.653  28.543  34.632  1.00  0.00    -0.200 F 
ATOM     95  C   UNL A   1      46.190  26.980  35.628  1.00  0.00     0.200 A 
ATOM     96  F   UNL A   1      44.690  25.433  36.595  1.00  0.00    -0.200 F 
ATOM     97  F   UNL A   1      47.233  26.295  36.118  1.00  0.00    -0.200 F 
ENDBRANCH  64  87
ENDBRANCH  38  39
ENDBRANCH  30  33
ENDBRANCH  28  29
ENDBRANCH  27  28
ENDBRANCH   1  27
TORSDOF 15
ENDMDL
MODEL 3
REMARK VINA RESULT:     -12.4      0.766      7.194
REMARK SMILES CC(C)CSc1cc2c(cc1Cl)C=C(C(=O)NCCCCNC(=O)c1ccc(-c3c4nc(c(-c5c(F)c(F)c(F)c(F)c5F)c5ccc([nH]5)c(-c5c(F)c(F)c(F)c(F)c5F)c5nc(c(-c6c(F)c(F)c(F)c(F)c6F)c6ccc3[nH]6)C=C5)C=C4)cc1)[C@@H](C(F)(F)F)O2
REMARK SMILES IDX 19 1 18 2 17 3 15 4 16 5 14 7 6 8 7 9 11 10 8 11 10 12 12 13
REMARK SMILES IDX 9 14 93 15 13 16 88 17 5 18 4 19 2 20 1 21 3 22 89 23 90 24
REMARK SMILES IDX 91 25 92 26 20 27 21 28 22 29 23 30 24 32 25 33 26 34 87 35
REMARK SMILES IDX 27 36 86 37 28 38 29 39 30 40 80 41 31 42 85 43 79 44 81 45
REMARK SMILES IDX 32 46 84 47 78 48 77 49 33 51 65 52 45 53 64 54 46 55 49 56
REMARK SMILES IDX 63 57 82 58 47 59 48 60 62 62 83 63 50 64 34 65 35 66 43 67
REMARK SMILES IDX 36 68 37 69 41 70 44 71 38 72 39 73 42 74 40 75 66 76 67 77
REMARK SMILES IDX 75 78 68 79 69 80 73 81 76 82 70 83 71 84 74 85 72 86 51 87
REMARK SMILES IDX 52 88 60 89 53 90 54 91 58 92 61 93 55 94 56 95 59 96 57 97
REMARK H PARENT 17 6 22 31 81 50 49 61
REMARK Flexibility Score: inf
ROOT
ATOM      1  C   UNL A   1      38.937  23.120  26.252  1.00  0.00     0.023 C 
ENDROOT
BRANCH   1   2
ATOM      2  C   UNL A   1      37.531  23.603  25.911  1.00  0.00     0.116 C 
BRANCH   2   3
ATOM      3  N   UNL A   1      36.508  22.650  26.308  1.00  0.00    -0.352 N 
ATOM      4  C   UNL A   1      35.171  22.511  26.146  1.00  0.00     0.251 C 
ATOM      5  O   UNL A   1      34.679  21.503  26.662  1.00  0.00    -0.270 OA
ATOM      6  H   UNL A   1      36.889  21.909  26.834  1.00  0.00     0.163 HD
BRANCH   4   7
ATOM      7  C   UNL A   1      34.288  23.472  25.417  1.00  0.00     0.067 C 
ATOM      8  C   UNL A   1      31.744  27.633  24.056  1.00  0.00     0.030 A 
ATOM      9  C   UNL A   1      32.056  26.415  23.446  1.00  0.00     0.063 A 
ATOM     10  C   UNL A   1      32.068  27.778  25.420  1.00  0.00     0.055 A 
ATOM     11  C   UNL A   1      32.777  25.433  24.123  1.00  0.00     0.129 A 
ATOM     12  C   UNL A   1      32.757  26.767  26.111  1.00  0.00     0.033 A 
ATOM     13  Cl  UNL A   1      31.674  29.203  26.325  1.00  0.00    -0.083 Cl
ATOM     14  C   UNL A   1      33.144  25.601  25.450  1.00  0.00     0.019 A 
ATOM     15  O   UNL A   1      33.140  24.362  23.368  1.00  0.00    -0.475 OA
ATOM     16  C   UNL A   1      33.971  24.591  26.096  1.00  0.00     0.025 C 
ATOM     17  C   UNL A   1      33.749  23.230  24.035  1.00  0.00     0.314 C 
BRANCH   8  18
ATOM     18  S   UNL A   1      30.985  28.965  23.120  1.00  0.00    -0.124 SA
BRANCH  18  19
ATOM     19  C   UNL A   1      29.180  28.617  23.148  1.00  0.00     0.078 C 
BRANCH  19  20
ATOM     20  C   UNL A   1      28.260  29.677  22.509  1.00  0.00    -0.007 C 
ATOM     21  C   UNL A   1      27.584  30.627  23.497  1.00  0.00     0.008 C 
ATOM     22  C   UNL A   1      29.083  30.513  21.517  1.00  0.00     0.008 C 
ENDBRANCH  19  20
ENDBRANCH  18  19
ENDBRANCH   8  18
BRANCH  17  23
ATOM     23  C   UNL A   1      32.749  22.063  23.970  1.00  0.00     0.429 C 
ATOM     24  F   UNL A   1      33.411  20.884  23.857  1.00  0.00    -0.167 F 
ATOM     25  F   UNL A   1      31.980  21.963  25.076  1.00  0.00    -0.167 F 
ATOM     26  F   UNL A   1      31.914  22.162  22.912  1.00  0.00    -0.167 F 
ENDBRANCH  17  23
ENDBRANCH   4   7
ENDBRANCH   2   3
ENDBRANCH   1   2
BRANCH   1  27
ATOM     27  C   UNL A   1      39.252  21.708  25.758  1.00  0.00     0.023 C 
BRANCH  27  28
ATOM     28  C   UNL A   1      39.659  20.712  26.842  1.00  0.00     0.116 C 
BRANCH  28  29
ATOM     29  N   UNL A   1      40.417  19.569  26.351  1.00  0.00    -0.352 N 
ATOM     30  C   UNL A   1      41.773  19.504  26.121  1.00  0.00     0.251 C 
ATOM     31  H   UNL A   1      39.903  18.751  26.163  1.00  0.00     0.163 HD
ATOM     32  O   UNL A   1      42.298  18.497  25.662  1.00  0.00    -0.269 OA
BRANCH  30  33
ATOM     33  C   UNL A   1      42.571  20.713  26.387  1.00  0.00     0.039 A 
ATOM     34  C   UNL A   1      42.721  21.167  27.700  1.00  0.00     0.014 A 
ATOM     35  C   UNL A   1      43.026  21.470  25.306  1.00  0.00     0.014 A 
ATOM     36  C   UNL A   1      43.182  22.458  27.920  1.00  0.00     0.010 A 
ATOM     37  C   UNL A   1      43.547  22.742  25.536  1.00  0.00     0.010 A 
ATOM     38  C   UNL A   1      43.575  23.265  26.839  1.00  0.00    -0.014 A 
BRANCH  38  39
ATOM     39  C   UNL A   1      43.978  24.669  27.082  1.00  0.00     0.031 A 
ATOM     40  C   UNL A   1      42.987  25.666  27.617  1.00  0.00     0.074 A 
ATOM     41  C   UNL A   1      45.256  25.030  26.869  1.00  0.00     0.049 A 
ATOM     42  N   UNL A   1      43.144  26.947  27.841  1.00  0.00    -0.248 NA
ATOM     43  C   UNL A   1      41.644  25.161  27.943  1.00  0.00     0.031 C 
ATOM     44  C   UNL A   1      46.312  24.139  26.387  1.00  0.00     0.029 A 
ATOM     45  N   UNL A   1      45.888  26.233  27.050  1.00  0.00    -0.354 N 
ATOM     46  C   UNL A   1      41.918  27.404  28.307  1.00  0.00     0.074 A 
ATOM     47  C   UNL A   1      41.022  26.268  28.329  1.00  0.00     0.031 C 
ATOM     48  C   UNL A   1      47.470  24.814  26.351  1.00  0.00     0.029 A 
ATOM     49  C   UNL A   1      47.225  26.197  26.748  1.00  0.00     0.049 A 
ATOM     50  H   UNL A   1      45.427  27.044  27.366  1.00  0.00     0.167 HD
ATOM     51  C   UNL A   1      41.576  28.660  28.682  1.00  0.00     0.037 A 
ATOM     52  C   UNL A   1      48.149  27.174  26.772  1.00  0.00     0.037 A 
ATOM     53  C   UNL A   1      42.480  29.782  28.681  1.00  0.00     0.049 A 
ATOM     54  C   UNL A   1      47.738  28.560  27.176  1.00  0.00     0.074 A 
ATOM     55  C   UNL A   1      42.222  31.098  29.022  1.00  0.00     0.029 A 
ATOM     56  N   UNL A   1      43.821  29.712  28.337  1.00  0.00    -0.354 N 
ATOM     57  N   UNL A   1      46.562  28.993  27.558  1.00  0.00    -0.248 NA
ATOM     58  C   UNL A   1      48.780  29.594  27.140  1.00  0.00     0.031 C 
ATOM     59  C   UNL A   1      43.405  31.831  28.865  1.00  0.00     0.029 A 
ATOM     60  C   UNL A   1      44.405  30.963  28.458  1.00  0.00     0.049 A 
ATOM     61  H   UNL A   1      44.290  28.895  28.050  1.00  0.00     0.167 HD
ATOM     62  C   UNL A   1      46.720  30.347  27.808  1.00  0.00     0.074 A 
ATOM     63  C   UNL A   1      48.111  30.661  27.558  1.00  0.00     0.031 C 
ATOM     64  C   UNL A   1      45.791  31.252  28.202  1.00  0.00     0.037 A 
BRANCH  51  65
ATOM     65  C   UNL A   1      40.161  28.902  29.112  1.00  0.00     0.064 A 
ATOM     66  C   UNL A   1      39.151  29.188  28.183  1.00  0.00     0.173 A 
ATOM     67  C   UNL A   1      39.799  28.778  30.462  1.00  0.00     0.173 A 
ATOM     68  F   UNL A   1      39.451  29.332  26.883  1.00  0.00    -0.203 F 
ATOM     69  C   UNL A   1      37.829  29.344  28.590  1.00  0.00     0.198 A 
ATOM     70  C   UNL A   1      38.473  28.917  30.863  1.00  0.00     0.198 A 
ATOM     71  F   UNL A   1      40.729  28.504  31.388  1.00  0.00    -0.203 F 
ATOM     72  F   UNL A   1      36.881  29.638  27.689  1.00  0.00    -0.200 F 
ATOM     73  C   UNL A   1      37.489  29.200  29.927  1.00  0.00     0.200 A 
ATOM     74  F   UNL A   1      38.146  28.769  32.154  1.00  0.00    -0.200 F 
ATOM     75  F   UNL A   1      36.214  29.337  30.316  1.00  0.00    -0.200 F 
ENDBRANCH  51  65
BRANCH  52  76
ATOM     76  C   UNL A   1      49.548  26.861  26.395  1.00  0.00     0.064 A 
ATOM     77  C   UNL A   1      49.973  26.975  25.066  1.00  0.00     0.173 A 
ATOM     78  C   UNL A   1      50.495  26.491  27.361  1.00  0.00     0.173 A 
ATOM     79  F   UNL A   1      49.097  27.308  24.108  1.00  0.00    -0.203 F 
ATOM     80  C   UNL A   1      51.299  26.729  24.716  1.00  0.00     0.198 A 
ATOM     81  C   UNL A   1      51.825  26.269  27.013  1.00  0.00     0.198 A 
ATOM     82  F   UNL A   1      50.132  26.375  28.647  1.00  0.00    -0.203 F 
ATOM     83  F   UNL A   1      51.679  26.825  23.434  1.00  0.00    -0.200 F 
ATOM     84  C   UNL A   1      52.225  26.387  25.691  1.00  0.00     0.200 A 
ATOM     85  F   UNL A   1      52.718  25.953  27.959  1.00  0.00    -0.200 F 
ATOM     86  F   UNL A   1      53.504  26.167  25.354  1.00  0.00    -0.200 F 
ENDBRANCH  52  76
BRANCH  64  87
ATOM     87  C   UNL A   1      46.256  32.662  28.396  1.00  0.00     0.064 A 
ATOM     88  C   UNL A   1      46.765  33.096  29.627  1.00  0.00     0.173 A 
ATOM     89  C   UNL A   1      46.226  33.574  27.331  1.00  0.00     0.173 A 
ATOM     90  F   UNL A   1      46.799  32.261  30.676  1.00  0.00    -0.203 F 
ATOM     91  C   UNL A   1      47.210  34.405  29.792  1.00  0.00     0.198 A 
ATOM     92  C   UNL A   1      46.691  34.875  27.494  1.00  0.00     0.198 A 
ATOM     93  F   UNL A   1      45.752  33.199  26.134  1.00  0.00    -0.203 F 
ATOM     94  F   UNL A   1      47.661  34.812  30.986  1.00  0.00    -0.200 F 
ATOM     95  C   UNL A   1      47.177  35.290  28.725  1.00  0.00     0.200 A 
ATOM     96  F   UNL A   1      46.664  35.729  26.461  1.00  0.00    -0.200 F 
ATOM     97  F   UNL A   1      47.609  36.549  28.884  1.00  0.00    -0.200 F 
ENDBRANCH  64  87
ENDBRANCH  38  39
ENDBRANCH  30  33
ENDBRANCH  28  29
ENDBRANCH  27  28
ENDBRANCH   1  27
TORSDOF 15
ENDMDL
