MODEL 1
REMARK VINA RESULT:     -13.4      0.000      0.000
REMARK SMILES Cc1cc(=O)cc(C)n1-c1ccc(Cl)cc1C(=O)NCCCCNC(=O)c1ccc(-c2c3nc(c(-c4c(F)c(F)c(F)c(F)c4F)c4ccc([nH]4)c(-c4c(F)c(F)c(F)c(F)c4F)c4nc(c(-c5c(F)c(F)c(F)c(F)c5F)c5ccc2[nH]5)C=C4)C=C3)cc1
REMARK SMILES IDX 22 1 21 2 20 3 19 4 17 5 18 6 16 8 10 9 11 10 12 11 15 12
REMARK SMILES IDX 13 13 14 14 9 15 1 16 2 17 3 18 4 19 7 20 5 21 6 22 8 23
REMARK SMILES IDX 23 24 24 25 25 26 26 28 27 29 28 30 89 31 29 32 88 33 30 34
REMARK SMILES IDX 31 35 32 36 82 37 33 38 87 39 81 40 83 41 34 42 86 43 80 44
REMARK SMILES IDX 79 45 35 47 67 48 47 49 66 50 48 51 51 52 65 53 84 54 49 55
REMARK SMILES IDX 50 56 64 58 85 59 52 60 36 61 37 62 45 63 38 64 39 65 43 66
REMARK SMILES IDX 46 67 40 68 41 69 44 70 42 71 68 72 69 73 77 74 70 75 71 76
REMARK SMILES IDX 75 77 78 78 72 79 73 80 76 81 74 82 53 83 54 84 62 85 55 86
REMARK SMILES IDX 56 87 60 88 63 89 57 90 58 91 61 92 59 93
REMARK H PARENT 19 7 24 27 83 46 51 57
REMARK Flexibility Score: inf
ROOT
ATOM      1  C   UNL A   1      31.493  31.851  27.003  1.00  0.00     0.023 C 
ENDROOT
BRANCH   1   2
ATOM      2  C   UNL A   1      31.551  30.910  25.799  1.00  0.00     0.023 C 
BRANCH   2   3
ATOM      3  C   UNL A   1      32.711  29.927  25.762  1.00  0.00     0.116 C 
BRANCH   3   4
ATOM      4  N   UNL A   1      33.299  29.675  24.475  1.00  0.00    -0.352 N 
ATOM      5  C   UNL A   1      32.802  28.958  23.415  1.00  0.00     0.253 C 
ATOM      6  O   UNL A   1      33.481  28.953  22.384  1.00  0.00    -0.269 OA
ATOM      7  H   UNL A   1      34.187  30.075  24.333  1.00  0.00     0.163 HD
BRANCH   5   8
ATOM      8  C   UNL A   1      31.548  28.135  23.425  1.00  0.00     0.065 A 
ATOM      9  C   UNL A   1      31.380  26.779  23.794  1.00  0.00     0.058 A 
ATOM     10  C   UNL A   1      30.064  26.247  23.852  1.00  0.00     0.029 A 
ATOM     11  C   UNL A   1      28.943  27.010  23.537  1.00  0.00     0.023 A 
ATOM     12  C   UNL A   1      30.391  28.893  23.121  1.00  0.00     0.036 A 
ATOM     13  C   UNL A   1      29.114  28.334  23.170  1.00  0.00     0.041 A 
ATOM     14  Cl  UNL A   1      27.737  29.294  22.792  1.00  0.00    -0.084 Cl
BRANCH   9  15
ATOM     15  N   UNL A   1      32.428  25.871  24.152  1.00  0.00    -0.317 N 
ATOM     16  C   UNL A   1      32.828  25.376  21.688  1.00  0.00     0.065 C 
ATOM     17  C   UNL A   1      33.179  25.210  23.149  1.00  0.00     0.024 A 
ATOM     18  C   UNL A   1      34.244  24.442  23.449  1.00  0.00     0.073 A 
ATOM     19  C   UNL A   1      34.669  24.293  24.852  1.00  0.00     0.182 A 
ATOM     20  C   UNL A   1      32.839  25.762  25.512  1.00  0.00     0.024 A 
ATOM     21  O   UNL A   1      35.624  23.591  25.155  1.00  0.00    -0.290 OA
ATOM     22  C   UNL A   1      33.894  25.011  25.878  1.00  0.00     0.073 A 
ATOM     23  C   UNL A   1      32.054  26.400  26.644  1.00  0.00     0.065 C 
ENDBRANCH   9  15
ENDBRANCH   5   8
ENDBRANCH   3   4
ENDBRANCH   2   3
ENDBRANCH   1   2
BRANCH   1  24
ATOM     24  C   UNL A   1      32.708  32.744  27.252  1.00  0.00     0.116 C 
BRANCH  24  25
ATOM     25  N   UNL A   1      32.388  34.116  27.623  1.00  0.00    -0.352 N 
ATOM     26  C   UNL A   1      32.986  34.977  28.516  1.00  0.00     0.251 C 
ATOM     27  H   UNL A   1      31.608  34.493  27.154  1.00  0.00     0.163 HD
ATOM     28  O   UNL A   1      32.481  36.075  28.737  1.00  0.00    -0.269 OA
BRANCH  26  29
ATOM     29  C   UNL A   1      34.184  34.571  29.279  1.00  0.00     0.039 A 
ATOM     30  C   UNL A   1      34.003  34.068  30.571  1.00  0.00     0.014 A 
ATOM     31  C   UNL A   1      35.467  34.646  28.735  1.00  0.00     0.014 A 
ATOM     32  C   UNL A   1      35.082  33.510  31.256  1.00  0.00     0.010 A 
ATOM     33  C   UNL A   1      36.525  34.009  29.377  1.00  0.00     0.010 A 
ATOM     34  C   UNL A   1      36.334  33.408  30.631  1.00  0.00    -0.014 A 
BRANCH  34  35
ATOM     35  C   UNL A   1      37.436  32.633  31.253  1.00  0.00     0.031 A 
ATOM     36  C   UNL A   1      37.923  32.977  32.629  1.00  0.00     0.074 A 
ATOM     37  C   UNL A   1      38.038  31.659  30.541  1.00  0.00     0.049 A 
ATOM     38  N   UNL A   1      38.919  32.464  33.304  1.00  0.00    -0.248 NA
ATOM     39  C   UNL A   1      37.212  34.055  33.332  1.00  0.00     0.031 C 
ATOM     40  C   UNL A   1      37.682  31.266  29.175  1.00  0.00     0.029 A 
ATOM     41  N   UNL A   1      39.076  30.820  30.864  1.00  0.00    -0.354 N 
ATOM     42  C   UNL A   1      38.960  33.161  34.503  1.00  0.00     0.074 A 
ATOM     43  C   UNL A   1      37.925  34.170  34.443  1.00  0.00     0.031 C 
ATOM     44  C   UNL A   1      38.457  30.238  28.795  1.00  0.00     0.029 A 
ATOM     45  C   UNL A   1      39.391  29.925  29.871  1.00  0.00     0.049 A 
ATOM     46  H   UNL A   1      39.549  30.857  31.727  1.00  0.00     0.167 HD
ATOM     47  C   UNL A   1      39.770  32.959  35.567  1.00  0.00     0.037 A 
ATOM     48  C   UNL A   1      40.329  28.959  29.834  1.00  0.00     0.037 A 
ATOM     49  C   UNL A   1      40.781  31.937  35.633  1.00  0.00     0.049 A 
ATOM     50  C   UNL A   1      41.220  28.761  31.028  1.00  0.00     0.074 A 
ATOM     51  C   UNL A   1      41.634  31.633  36.679  1.00  0.00     0.029 A 
ATOM     52  N   UNL A   1      41.068  31.048  34.608  1.00  0.00    -0.354 N 
ATOM     53  N   UNL A   1      41.226  29.406  32.169  1.00  0.00    -0.248 NA
ATOM     54  C   UNL A   1      42.236  27.704  30.930  1.00  0.00     0.031 C 
ATOM     55  C   UNL A   1      42.456  30.574  36.277  1.00  0.00     0.029 A 
ATOM     56  C   UNL A   1      42.091  30.198  34.994  1.00  0.00     0.049 A 
ATOM     57  H   UNL A   1      40.612  31.024  33.736  1.00  0.00     0.167 HD
ATOM     58  C   UNL A   1      42.227  28.822  32.931  1.00  0.00     0.074 A 
ATOM     59  C   UNL A   1      42.800  27.761  32.129  1.00  0.00     0.031 C 
ATOM     60  C   UNL A   1      42.639  29.142  34.182  1.00  0.00     0.037 A 
BRANCH  47  61
ATOM     61  C   UNL A   1      39.582  33.849  36.759  1.00  0.00     0.064 A 
ATOM     62  C   UNL A   1      40.168  35.123  36.816  1.00  0.00     0.173 A 
ATOM     63  C   UNL A   1      38.779  33.447  37.836  1.00  0.00     0.173 A 
ATOM     64  F   UNL A   1      40.955  35.548  35.816  1.00  0.00    -0.203 F 
ATOM     65  C   UNL A   1      39.975  35.953  37.917  1.00  0.00     0.198 A 
ATOM     66  C   UNL A   1      38.567  34.289  38.924  1.00  0.00     0.198 A 
ATOM     67  F   UNL A   1      38.194  32.240  37.830  1.00  0.00    -0.203 F 
ATOM     68  F   UNL A   1      40.578  37.148  37.966  1.00  0.00    -0.200 F 
ATOM     69  C   UNL A   1      39.169  35.539  38.966  1.00  0.00     0.200 A 
ATOM     70  F   UNL A   1      37.781  33.893  39.935  1.00  0.00    -0.200 F 
ATOM     71  F   UNL A   1      38.977  36.342  40.022  1.00  0.00    -0.200 F 
ENDBRANCH  47  61
BRANCH  48  72
ATOM     72  C   UNL A   1      40.441  28.078  28.643  1.00  0.00     0.064 A 
ATOM     73  C   UNL A   1      39.768  26.849  28.600  1.00  0.00     0.173 A 
ATOM     74  C   UNL A   1      41.200  28.446  27.524  1.00  0.00     0.173 A 
ATOM     75  F   UNL A   1      39.045  26.446  29.655  1.00  0.00    -0.203 F 
ATOM     76  C   UNL A   1      39.862  26.014  27.488  1.00  0.00     0.198 A 
ATOM     77  C   UNL A   1      41.274  27.622  26.401  1.00  0.00     0.198 A 
ATOM     78  F   UNL A   1      41.859  29.615  27.512  1.00  0.00    -0.203 F 
ATOM     79  F   UNL A   1      39.236  24.830  27.487  1.00  0.00    -0.200 F 
ATOM     80  C   UNL A   1      40.609  26.405  26.387  1.00  0.00     0.200 A 
ATOM     81  F   UNL A   1      41.987  28.008  25.334  1.00  0.00    -0.200 F 
ATOM     82  F   UNL A   1      40.692  25.606  25.314  1.00  0.00    -0.200 F 
ENDBRANCH  48  72
BRANCH  60  83
ATOM     83  C   UNL A   1      43.748  28.324  34.773  1.00  0.00     0.064 A 
ATOM     84  C   UNL A   1      45.085  28.728  34.671  1.00  0.00     0.173 A 
ATOM     85  C   UNL A   1      43.460  27.166  35.511  1.00  0.00     0.173 A 
ATOM     86  F   UNL A   1      45.408  29.822  33.962  1.00  0.00    -0.203 F 
ATOM     87  C   UNL A   1      46.100  27.995  35.279  1.00  0.00     0.198 A 
ATOM     88  C   UNL A   1      44.475  26.449  36.137  1.00  0.00     0.198 A 
ATOM     89  F   UNL A   1      42.194  26.743  35.641  1.00  0.00    -0.203 F 
ATOM     90  F   UNL A   1      47.376  28.384  35.146  1.00  0.00    -0.200 F 
ATOM     91  C   UNL A   1      45.793  26.863  36.020  1.00  0.00     0.200 A 
ATOM     92  F   UNL A   1      44.176  25.362  36.863  1.00  0.00    -0.200 F 
ATOM     93  F   UNL A   1      46.770  26.168  36.618  1.00  0.00    -0.200 F 
ENDBRANCH  60  83
ENDBRANCH  34  35
ENDBRANCH  26  29
ENDBRANCH  24  25
ENDBRANCH   1  24
TORSDOF 12
ENDMDL
MODEL 2
REMARK VINA RESULT:     -13.4      0.120      1.597
REMARK SMILES Cc1cc(=O)cc(C)n1-c1ccc(Cl)cc1C(=O)NCCCCNC(=O)c1ccc(-c2c3nc(c(-c4c(F)c(F)c(F)c(F)c4F)c4ccc([nH]4)c(-c4c(F)c(F)c(F)c(F)c4F)c4nc(c(-c5c(F)c(F)c(F)c(F)c5F)c5ccc2[nH]5)C=C4)C=C3)cc1
REMARK SMILES IDX 22 1 21 2 20 3 19 4 17 5 18 6 16 8 10 9 11 10 12 11 15 12
REMARK SMILES IDX 13 13 14 14 9 15 1 16 2 17 3 18 4 19 7 20 5 21 6 22 8 23
REMARK SMILES IDX 23 24 24 25 25 26 26 28 27 29 28 30 89 31 29 32 88 33 30 34
REMARK SMILES IDX 31 35 32 36 82 37 33 38 87 39 81 40 83 41 34 42 86 43 80 44
REMARK SMILES IDX 79 45 35 47 67 48 47 49 66 50 48 51 51 52 65 53 84 54 49 55
REMARK SMILES IDX 50 56 64 58 85 59 52 60 36 61 37 62 45 63 38 64 39 65 43 66
REMARK SMILES IDX 46 67 40 68 41 69 44 70 42 71 68 72 69 73 77 74 70 75 71 76
REMARK SMILES IDX 75 77 78 78 72 79 73 80 76 81 74 82 53 83 54 84 62 85 55 86
REMARK SMILES IDX 56 87 60 88 63 89 57 90 58 91 61 92 59 93
REMARK H PARENT 19 7 24 27 83 46 51 57
REMARK Flexibility Score: inf
ROOT
ATOM      1  C   UNL A   1      31.467  31.864  26.989  1.00  0.00     0.023 C 
ENDROOT
BRANCH   1   2
ATOM      2  C   UNL A   1      31.527  30.934  25.777  1.00  0.00     0.023 C 
BRANCH   2   3
ATOM      3  C   UNL A   1      32.672  29.932  25.747  1.00  0.00     0.116 C 
BRANCH   3   4
ATOM      4  N   UNL A   1      33.266  29.674  24.464  1.00  0.00    -0.352 N 
ATOM      5  C   UNL A   1      32.767  28.965  23.399  1.00  0.00     0.253 C 
ATOM      6  O   UNL A   1      33.454  28.952  22.373  1.00  0.00    -0.269 OA
ATOM      7  H   UNL A   1      34.161  30.060  24.330  1.00  0.00     0.163 HD
BRANCH   5   8
ATOM      8  C   UNL A   1      31.500  28.161  23.398  1.00  0.00     0.065 A 
ATOM      9  C   UNL A   1      31.315  26.800  23.735  1.00  0.00     0.058 A 
ATOM     10  C   UNL A   1      29.992  26.286  23.789  1.00  0.00     0.029 A 
ATOM     11  C   UNL A   1      28.880  27.073  23.501  1.00  0.00     0.023 A 
ATOM     12  C   UNL A   1      30.354  28.944  23.120  1.00  0.00     0.036 A 
ATOM     13  C   UNL A   1      29.068  28.402  23.164  1.00  0.00     0.041 A 
ATOM     14  Cl  UNL A   1      27.703  29.391  22.819  1.00  0.00    -0.084 Cl
BRANCH   9  15
ATOM     15  N   UNL A   1      32.351  25.868  24.065  1.00  0.00    -0.317 N 
ATOM     16  C   UNL A   1      32.678  25.372  21.590  1.00  0.00     0.065 C 
ATOM     17  C   UNL A   1      33.062  25.194  23.041  1.00  0.00     0.024 A 
ATOM     18  C   UNL A   1      34.117  24.401  23.312  1.00  0.00     0.073 A 
ATOM     19  C   UNL A   1      34.574  24.239  24.704  1.00  0.00     0.182 A 
ATOM     20  C   UNL A   1      32.793  25.745  25.414  1.00  0.00     0.024 A 
ATOM     21  O   UNL A   1      35.521  23.515  24.981  1.00  0.00    -0.290 OA
ATOM     22  C   UNL A   1      33.841  24.970  25.751  1.00  0.00     0.073 A 
ATOM     23  C   UNL A   1      32.052  26.396  26.566  1.00  0.00     0.065 C 
ENDBRANCH   9  15
ENDBRANCH   5   8
ENDBRANCH   3   4
ENDBRANCH   2   3
ENDBRANCH   1   2
BRANCH   1  24
ATOM     24  C   UNL A   1      32.683  32.751  27.252  1.00  0.00     0.116 C 
BRANCH  24  25
ATOM     25  N   UNL A   1      32.365  34.122  27.627  1.00  0.00    -0.352 N 
ATOM     26  C   UNL A   1      32.961  34.977  28.526  1.00  0.00     0.251 C 
ATOM     27  H   UNL A   1      31.588  34.503  27.156  1.00  0.00     0.163 HD
ATOM     28  O   UNL A   1      32.457  36.076  28.750  1.00  0.00    -0.269 OA
BRANCH  26  29
ATOM     29  C   UNL A   1      34.154  34.565  29.294  1.00  0.00     0.039 A 
ATOM     30  C   UNL A   1      33.968  34.084  30.593  1.00  0.00     0.014 A 
ATOM     31  C   UNL A   1      35.437  34.612  28.747  1.00  0.00     0.014 A 
ATOM     32  C   UNL A   1      35.039  33.520  31.285  1.00  0.00     0.010 A 
ATOM     33  C   UNL A   1      36.486  33.969  29.396  1.00  0.00     0.010 A 
ATOM     34  C   UNL A   1      36.289  33.390  30.659  1.00  0.00    -0.014 A 
BRANCH  34  35
ATOM     35  C   UNL A   1      37.380  32.608  31.291  1.00  0.00     0.031 A 
ATOM     36  C   UNL A   1      37.856  32.947  32.672  1.00  0.00     0.074 A 
ATOM     37  C   UNL A   1      37.982  31.630  30.584  1.00  0.00     0.049 A 
ATOM     38  N   UNL A   1      38.843  32.428  33.356  1.00  0.00    -0.248 NA
ATOM     39  C   UNL A   1      37.146  34.030  33.368  1.00  0.00     0.031 C 
ATOM     40  C   UNL A   1      37.636  31.240  29.215  1.00  0.00     0.029 A 
ATOM     41  N   UNL A   1      39.012  30.785  30.916  1.00  0.00    -0.354 N 
ATOM     42  C   UNL A   1      38.878  33.124  34.554  1.00  0.00     0.074 A 
ATOM     43  C   UNL A   1      37.850  34.140  34.486  1.00  0.00     0.031 C 
ATOM     44  C   UNL A   1      38.409  30.207  28.841  1.00  0.00     0.029 A 
ATOM     45  C   UNL A   1      39.331  29.888  29.925  1.00  0.00     0.049 A 
ATOM     46  H   UNL A   1      39.477  30.818  31.783  1.00  0.00     0.167 HD
ATOM     47  C   UNL A   1      39.677  32.917  35.627  1.00  0.00     0.037 A 
ATOM     48  C   UNL A   1      40.262  28.915  29.896  1.00  0.00     0.037 A 
ATOM     49  C   UNL A   1      40.681  31.889  35.701  1.00  0.00     0.049 A 
ATOM     50  C   UNL A   1      41.141  28.712  31.098  1.00  0.00     0.074 A 
ATOM     51  C   UNL A   1      41.521  31.578  36.754  1.00  0.00     0.029 A 
ATOM     52  N   UNL A   1      40.971  30.998  34.678  1.00  0.00    -0.354 N 
ATOM     53  N   UNL A   1      41.141  29.356  32.240  1.00  0.00    -0.248 NA
ATOM     54  C   UNL A   1      42.152  27.649  31.010  1.00  0.00     0.031 C 
ATOM     55  C   UNL A   1      42.341  30.515  36.359  1.00  0.00     0.029 A 
ATOM     56  C   UNL A   1      41.986  30.141  35.073  1.00  0.00     0.049 A 
ATOM     57  H   UNL A   1      40.523  30.977  33.802  1.00  0.00     0.167 HD
ATOM     58  C   UNL A   1      42.132  28.766  33.011  1.00  0.00     0.074 A 
ATOM     59  C   UNL A   1      42.704  27.701  32.213  1.00  0.00     0.031 C 
ATOM     60  C   UNL A   1      42.534  29.082  34.266  1.00  0.00     0.037 A 
BRANCH  47  61
ATOM     61  C   UNL A   1      39.483  33.807  36.817  1.00  0.00     0.064 A 
ATOM     62  C   UNL A   1      38.698  33.402  37.908  1.00  0.00     0.173 A 
ATOM     63  C   UNL A   1      40.114  35.057  36.890  1.00  0.00     0.173 A 
ATOM     64  F   UNL A   1      38.064  32.221  37.880  1.00  0.00    -0.203 F 
ATOM     65  C   UNL A   1      38.536  34.225  39.019  1.00  0.00     0.198 A 
ATOM     66  C   UNL A   1      39.971  35.867  38.013  1.00  0.00     0.198 A 
ATOM     67  F   UNL A   1      40.877  35.490  35.875  1.00  0.00    -0.203 F 
ATOM     68  F   UNL A   1      37.750  33.834  40.031  1.00  0.00    -0.200 F 
ATOM     69  C   UNL A   1      39.178  35.453  39.074  1.00  0.00     0.200 A 
ATOM     70  F   UNL A   1      40.599  37.050  38.071  1.00  0.00    -0.200 F 
ATOM     71  F   UNL A   1      39.028  36.241  40.148  1.00  0.00    -0.200 F 
ENDBRANCH  47  61
BRANCH  48  72
ATOM     72  C   UNL A   1      40.379  28.035  28.706  1.00  0.00     0.064 A 
ATOM     73  C   UNL A   1      41.177  28.412  27.616  1.00  0.00     0.173 A 
ATOM     74  C   UNL A   1      39.718  26.801  28.635  1.00  0.00     0.173 A 
ATOM     75  F   UNL A   1      41.813  29.592  27.631  1.00  0.00    -0.203 F 
ATOM     76  C   UNL A   1      41.298  27.594  26.494  1.00  0.00     0.198 A 
ATOM     77  C   UNL A   1      39.859  25.972  27.522  1.00  0.00     0.198 A 
ATOM     78  F   UNL A   1      38.947  26.391  29.653  1.00  0.00    -0.203 F 
ATOM     79  F   UNL A   1      42.040  27.995  25.454  1.00  0.00    -0.200 F 
ATOM     80  C   UNL A   1      40.644  26.372  26.451  1.00  0.00     0.200 A 
ATOM     81  F   UNL A   1      39.236  24.786  27.489  1.00  0.00    -0.200 F 
ATOM     82  F   UNL A   1      40.767  25.582  25.376  1.00  0.00    -0.200 F 
ENDBRANCH  48  72
BRANCH  60  83
ATOM     83  C   UNL A   1      43.632  28.257  34.866  1.00  0.00     0.064 A 
ATOM     84  C   UNL A   1      44.972  28.656  34.782  1.00  0.00     0.173 A 
ATOM     85  C   UNL A   1      43.331  27.096  35.595  1.00  0.00     0.173 A 
ATOM     86  F   UNL A   1      45.308  29.752  34.083  1.00  0.00    -0.203 F 
ATOM     87  C   UNL A   1      45.976  27.916  35.399  1.00  0.00     0.198 A 
ATOM     88  C   UNL A   1      44.335  26.372  36.230  1.00  0.00     0.198 A 
ATOM     89  F   UNL A   1      42.061  26.678  35.707  1.00  0.00    -0.203 F 
ATOM     90  F   UNL A   1      47.255  28.300  35.284  1.00  0.00    -0.200 F 
ATOM     91  C   UNL A   1      45.656  26.781  36.131  1.00  0.00     0.200 A 
ATOM     92  F   UNL A   1      44.022  25.283  36.947  1.00  0.00    -0.200 F 
ATOM     93  F   UNL A   1      46.623  26.080  36.738  1.00  0.00    -0.200 F 
ENDBRANCH  60  83
ENDBRANCH  34  35
ENDBRANCH  26  29
ENDBRANCH  24  25
ENDBRANCH   1  24
TORSDOF 12
ENDMDL
MODEL 3
REMARK VINA RESULT:     -13.3      1.798      7.690
REMARK SMILES Cc1cc(=O)cc(C)n1-c1ccc(Cl)cc1C(=O)NCCCCNC(=O)c1ccc(-c2c3nc(c(-c4c(F)c(F)c(F)c(F)c4F)c4ccc([nH]4)c(-c4c(F)c(F)c(F)c(F)c4F)c4nc(c(-c5c(F)c(F)c(F)c(F)c5F)c5ccc2[nH]5)C=C4)C=C3)cc1
REMARK SMILES IDX 22 1 21 2 20 3 19 4 17 5 18 6 16 8 10 9 11 10 12 11 15 12
REMARK SMILES IDX 13 13 14 14 9 15 1 16 2 17 3 18 4 19 7 20 5 21 6 22 8 23
REMARK SMILES IDX 23 24 24 25 25 26 26 28 27 29 28 30 89 31 29 32 88 33 30 34
REMARK SMILES IDX 31 35 32 36 82 37 33 38 87 39 81 40 83 41 34 42 86 43 80 44
REMARK SMILES IDX 79 45 35 47 67 48 47 49 66 50 48 51 51 52 65 53 84 54 49 55
REMARK SMILES IDX 50 56 64 58 85 59 52 60 36 61 37 62 45 63 38 64 39 65 43 66
REMARK SMILES IDX 46 67 40 68 41 69 44 70 42 71 68 72 69 73 77 74 70 75 71 76
REMARK SMILES IDX 75 77 78 78 72 79 73 80 76 81 74 82 53 83 54 84 62 85 55 86
REMARK SMILES IDX 56 87 60 88 63 89 57 90 58 91 61 92 59 93
REMARK H PARENT 19 7 24 27 83 46 51 57
REMARK Flexibility Score: inf
ROOT
ATOM      1  C   UNL A   1      32.142  29.354  25.015  1.00  0.00     0.023 C 
ENDROOT
BRANCH   1   2
ATOM      2  C   UNL A   1      33.361  28.975  24.174  1.00  0.00     0.023 C 
BRANCH   2   3
ATOM      3  C   UNL A   1      33.185  29.021  22.664  1.00  0.00     0.116 C 
BRANCH   3   4
ATOM      4  N   UNL A   1      33.556  27.838  21.938  1.00  0.00    -0.352 N 
ATOM      5  C   UNL A   1      33.011  26.578  21.988  1.00  0.00     0.253 C 
ATOM      6  O   UNL A   1      33.471  25.745  21.202  1.00  0.00    -0.269 OA
ATOM      7  H   UNL A   1      34.310  27.945  21.315  1.00  0.00     0.163 HD
BRANCH   5   8
ATOM      8  C   UNL A   1      31.959  26.117  22.953  1.00  0.00     0.065 A 
ATOM      9  C   UNL A   1      32.074  25.185  24.011  1.00  0.00     0.058 A 
ATOM     10  C   UNL A   1      30.967  25.005  24.883  1.00  0.00     0.029 A 
ATOM     11  C   UNL A   1      29.771  25.698  24.714  1.00  0.00     0.023 A 
ATOM     12  C   UNL A   1      30.737  26.817  22.808  1.00  0.00     0.036 A 
ATOM     13  C   UNL A   1      29.662  26.602  23.671  1.00  0.00     0.041 A 
ATOM     14  Cl  UNL A   1      28.195  27.476  23.457  1.00  0.00    -0.084 Cl
BRANCH   9  15
ATOM     15  N   UNL A   1      33.235  24.406  24.321  1.00  0.00    -0.317 N 
ATOM     16  C   UNL A   1      34.006  26.216  25.936  1.00  0.00     0.065 C 
ATOM     17  C   UNL A   1      34.167  24.860  25.287  1.00  0.00     0.024 A 
ATOM     18  C   UNL A   1      35.206  24.100  25.684  1.00  0.00     0.073 A 
ATOM     19  C   UNL A   1      35.378  22.746  25.130  1.00  0.00     0.182 A 
ATOM     20  C   UNL A   1      33.369  23.090  23.793  1.00  0.00     0.024 A 
ATOM     21  O   UNL A   1      36.318  22.038  25.463  1.00  0.00    -0.290 OA
ATOM     22  C   UNL A   1      34.383  22.279  24.150  1.00  0.00     0.073 A 
ATOM     23  C   UNL A   1      32.438  22.555  22.720  1.00  0.00     0.065 C 
ENDBRANCH   9  15
ENDBRANCH   5   8
ENDBRANCH   3   4
ENDBRANCH   2   3
ENDBRANCH   1   2
BRANCH   1  24
ATOM     24  C   UNL A   1      32.386  29.715  26.479  1.00  0.00     0.116 C 
BRANCH  24  25
ATOM     25  N   UNL A   1      32.347  31.143  26.767  1.00  0.00    -0.352 N 
ATOM     26  C   UNL A   1      33.273  31.975  27.356  1.00  0.00     0.251 C 
ATOM     27  H   UNL A   1      31.514  31.591  26.494  1.00  0.00     0.163 HD
ATOM     28  O   UNL A   1      32.984  33.147  27.583  1.00  0.00    -0.269 OA
BRANCH  26  29
ATOM     29  C   UNL A   1      34.587  31.461  27.797  1.00  0.00     0.039 A 
ATOM     30  C   UNL A   1      35.621  32.381  27.992  1.00  0.00     0.014 A 
ATOM     31  C   UNL A   1      34.803  30.106  28.052  1.00  0.00     0.014 A 
ATOM     32  C   UNL A   1      36.818  31.966  28.577  1.00  0.00     0.010 A 
ATOM     33  C   UNL A   1      35.958  29.707  28.717  1.00  0.00     0.010 A 
ATOM     34  C   UNL A   1      36.963  30.640  29.013  1.00  0.00    -0.014 A 
BRANCH  34  35
ATOM     35  C   UNL A   1      38.136  30.229  29.823  1.00  0.00     0.031 A 
ATOM     36  C   UNL A   1      39.150  29.277  29.262  1.00  0.00     0.074 A 
ATOM     37  C   UNL A   1      38.246  30.670  31.093  1.00  0.00     0.049 A 
ATOM     38  N   UNL A   1      40.196  28.747  29.844  1.00  0.00    -0.248 NA
ATOM     39  C   UNL A   1      38.951  28.843  27.871  1.00  0.00     0.031 C 
ATOM     40  C   UNL A   1      37.297  31.563  31.763  1.00  0.00     0.029 A 
ATOM     41  N   UNL A   1      39.202  30.429  32.048  1.00  0.00    -0.354 N 
ATOM     42  C   UNL A   1      40.771  27.913  28.896  1.00  0.00     0.074 A 
ATOM     43  C   UNL A   1      39.931  27.963  27.719  1.00  0.00     0.031 C 
ATOM     44  C   UNL A   1      37.740  31.827  33.002  1.00  0.00     0.029 A 
ATOM     45  C   UNL A   1      38.980  31.093  33.230  1.00  0.00     0.049 A 
ATOM     46  H   UNL A   1      39.974  29.837  31.900  1.00  0.00     0.167 HD
ATOM     47  C   UNL A   1      41.913  27.193  28.990  1.00  0.00     0.037 A 
ATOM     48  C   UNL A   1      39.698  31.109  34.370  1.00  0.00     0.037 A 
ATOM     49  C   UNL A   1      42.759  27.166  30.153  1.00  0.00     0.049 A 
ATOM     50  C   UNL A   1      40.957  30.293  34.449  1.00  0.00     0.074 A 
ATOM     51  C   UNL A   1      43.953  26.491  30.336  1.00  0.00     0.029 A 
ATOM     52  N   UNL A   1      42.502  27.854  31.329  1.00  0.00    -0.354 N 
ATOM     53  N   UNL A   1      41.510  29.535  33.533  1.00  0.00    -0.248 NA
ATOM     54  C   UNL A   1      41.695  30.333  35.719  1.00  0.00     0.031 C 
ATOM     55  C   UNL A   1      44.405  26.750  31.634  1.00  0.00     0.029 A 
ATOM     56  C   UNL A   1      43.511  27.614  32.247  1.00  0.00     0.049 A 
ATOM     57  H   UNL A   1      41.718  28.429  31.488  1.00  0.00     0.167 HD
ATOM     58  C   UNL A   1      42.665  29.025  34.106  1.00  0.00     0.074 A 
ATOM     59  C   UNL A   1      42.744  29.570  35.445  1.00  0.00     0.031 C 
ATOM     60  C   UNL A   1      43.575  28.176  33.571  1.00  0.00     0.037 A 
BRANCH  47  61
ATOM     61  C   UNL A   1      42.324  26.389  27.793  1.00  0.00     0.064 A 
ATOM     62  C   UNL A   1      43.242  26.894  26.859  1.00  0.00     0.173 A 
ATOM     63  C   UNL A   1      41.832  25.092  27.594  1.00  0.00     0.173 A 
ATOM     64  F   UNL A   1      43.731  28.135  26.998  1.00  0.00    -0.203 F 
ATOM     65  C   UNL A   1      43.635  26.137  25.758  1.00  0.00     0.198 A 
ATOM     66  C   UNL A   1      42.247  24.327  26.507  1.00  0.00     0.198 A 
ATOM     67  F   UNL A   1      40.955  24.561  28.459  1.00  0.00    -0.203 F 
ATOM     68  F   UNL A   1      44.481  26.656  24.859  1.00  0.00    -0.200 F 
ATOM     69  C   UNL A   1      43.143  24.852  25.588  1.00  0.00     0.200 A 
ATOM     70  F   UNL A   1      41.778  23.082  26.347  1.00  0.00    -0.200 F 
ATOM     71  F   UNL A   1      43.528  24.121  24.532  1.00  0.00    -0.200 F 
ENDBRANCH  47  61
BRANCH  48  72
ATOM     72  C   UNL A   1      39.264  31.958  35.509  1.00  0.00     0.064 A 
ATOM     73  C   UNL A   1      39.668  33.298  35.592  1.00  0.00     0.173 A 
ATOM     74  C   UNL A   1      38.432  31.463  36.522  1.00  0.00     0.173 A 
ATOM     75  F   UNL A   1      40.480  33.811  34.656  1.00  0.00    -0.203 F 
ATOM     76  C   UNL A   1      39.266  34.108  36.653  1.00  0.00     0.198 A 
ATOM     77  C   UNL A   1      38.010  32.280  37.571  1.00  0.00     0.198 A 
ATOM     78  F   UNL A   1      38.012  30.190  36.486  1.00  0.00    -0.203 F 
ATOM     79  F   UNL A   1      39.694  35.375  36.725  1.00  0.00    -0.200 F 
ATOM     80  C   UNL A   1      38.433  33.599  37.638  1.00  0.00     0.200 A 
ATOM     81  F   UNL A   1      37.194  31.790  38.514  1.00  0.00    -0.200 F 
ATOM     82  F   UNL A   1      38.040  34.380  38.653  1.00  0.00    -0.200 F 
ENDBRANCH  48  72
BRANCH  60  83
ATOM     83  C   UNL A   1      44.748  27.797  34.423  1.00  0.00     0.064 A 
ATOM     84  C   UNL A   1      45.911  28.578  34.452  1.00  0.00     0.173 A 
ATOM     85  C   UNL A   1      44.678  26.683  35.274  1.00  0.00     0.173 A 
ATOM     86  F   UNL A   1      46.028  29.644  33.646  1.00  0.00    -0.203 F 
ATOM     87  C   UNL A   1      46.968  28.252  35.297  1.00  0.00     0.198 A 
ATOM     88  C   UNL A   1      45.727  26.374  36.134  1.00  0.00     0.198 A 
ATOM     89  F   UNL A   1      43.582  25.908  35.285  1.00  0.00    -0.203 F 
ATOM     90  F   UNL A   1      48.082  28.997  35.290  1.00  0.00    -0.200 F 
ATOM     91  C   UNL A   1      46.871  27.157  36.144  1.00  0.00     0.200 A 
ATOM     92  F   UNL A   1      45.627  25.323  36.960  1.00  0.00    -0.200 F 
ATOM     93  F   UNL A   1      47.884  26.855  36.968  1.00  0.00    -0.200 F 
ENDBRANCH  60  83
ENDBRANCH  34  35
ENDBRANCH  26  29
ENDBRANCH  24  25
ENDBRANCH   1  24
TORSDOF 12
ENDMDL
