MODEL 1
REMARK VINA RESULT:     -11.1      0.000      0.000
REMARK SMILES CC[C@@](C)(NS(=O)(=O)c1ccc(F)c(Cl)c1)C(=O)NCCCCNC(=O)c1ccc(-c2c3nc(c(-c4c(F)c(F)c(F)c(F)c4F)c4ccc([nH]4)c(-c4c(F)c(F)c(F)c(F)c4F)c4nc(c(-c5c(F)c(F)c(F)c(F)c5F)c5ccc2[nH]5)C=C4)C=C3)cc1
REMARK SMILES IDX 21 1 20 2 19 3 17 4 18 5 3 7 4 8 2 9 1 10 5 11 6 13 7 14
REMARK SMILES IDX 8 15 9 16 10 17 16 18 11 19 14 20 12 21 15 22 13 23 22 24
REMARK SMILES IDX 23 25 24 26 25 27 26 29 27 30 28 31 89 32 29 33 88 34 30 35
REMARK SMILES IDX 31 36 32 37 82 38 33 39 87 40 81 41 83 42 34 43 86 44 80 45
REMARK SMILES IDX 79 46 35 48 67 49 47 50 66 51 48 52 51 53 65 54 84 55 49 56
REMARK SMILES IDX 50 57 64 59 85 60 52 61 36 62 37 63 45 64 38 65 39 66 43 67
REMARK SMILES IDX 46 68 40 69 41 70 44 71 42 72 68 73 69 74 77 75 70 76 71 77
REMARK SMILES IDX 75 78 78 79 72 80 73 81 76 82 74 83 53 84 54 85 62 86 55 87
REMARK SMILES IDX 56 88 60 89 63 90 57 91 58 92 61 93 59 94
REMARK H PARENT 19 6 5 12 24 28 83 47 51 58
REMARK Flexibility Score: inf
ROOT
ATOM      1  C   UNL A   1      35.563  22.961  23.245  1.00  0.00     0.023 C 
ENDROOT
BRANCH   1   2
ATOM      2  C   UNL A   1      34.438  23.970  23.494  1.00  0.00     0.116 C 
BRANCH   2   3
ATOM      3  N   UNL A   1      33.112  23.377  23.550  1.00  0.00    -0.354 N 
ATOM      4  C   UNL A   1      32.100  23.335  24.453  1.00  0.00     0.241 C 
ATOM      5  O   UNL A   1      31.067  22.815  24.002  1.00  0.00    -0.273 OA
ATOM      6  H   UNL A   1      32.892  22.882  22.728  1.00  0.00     0.163 HD
BRANCH   4   7
ATOM      7  C   UNL A   1      32.164  23.767  25.944  1.00  0.00     0.108 C 
ATOM      8  C   UNL A   1      30.984  23.306  26.800  1.00  0.00     0.040 C 
BRANCH   7   9
ATOM      9  C   UNL A   1      33.473  23.146  26.568  1.00  0.00     0.030 C 
ATOM     10  C   UNL A   1      33.314  22.293  27.820  1.00  0.00     0.006 C 
ENDBRANCH   7   9
BRANCH   7  11
ATOM     11  N   UNL A   1      32.413  25.225  26.124  1.00  0.00    -0.196 NA
ATOM     12  H   UNL A   1      33.411  25.337  25.948  1.00  0.00     0.142 HD
BRANCH  11  13
ATOM     13  S   UNL A   1      31.705  26.496  25.334  1.00  0.00     0.241 S 
ATOM     14  O   UNL A   1      32.022  26.375  23.933  1.00  0.00    -0.207 OA
ATOM     15  O   UNL A   1      30.332  26.503  25.788  1.00  0.00    -0.207 OA
BRANCH  13  16
ATOM     16  C   UNL A   1      32.428  27.987  25.973  1.00  0.00     0.084 A 
ATOM     17  C   UNL A   1      33.706  27.913  26.546  1.00  0.00     0.025 A 
ATOM     18  C   UNL A   1      31.742  29.203  25.933  1.00  0.00     0.045 A 
ATOM     19  C   UNL A   1      34.269  29.048  27.133  1.00  0.00     0.042 A 
ATOM     20  C   UNL A   1      32.293  30.322  26.559  1.00  0.00     0.078 A 
ATOM     21  C   UNL A   1      33.549  30.240  27.159  1.00  0.00     0.141 A 
ATOM     22  Cl  UNL A   1      31.395  31.790  26.613  1.00  0.00    -0.081 Cl
ATOM     23  F   UNL A   1      34.081  31.300  27.784  1.00  0.00    -0.205 F 
ENDBRANCH  13  16
ENDBRANCH  11  13
ENDBRANCH   7  11
ENDBRANCH   4   7
ENDBRANCH   2   3
ENDBRANCH   1   2
BRANCH   1  24
ATOM     24  C   UNL A   1      36.922  23.312  23.844  1.00  0.00     0.023 C 
BRANCH  24  25
ATOM     25  C   UNL A   1      36.925  23.370  25.361  1.00  0.00     0.116 C 
BRANCH  25  26
ATOM     26  N   UNL A   1      37.917  22.465  25.926  1.00  0.00    -0.352 N 
ATOM     27  C   UNL A   1      39.115  22.720  26.547  1.00  0.00     0.251 C 
ATOM     28  H   UNL A   1      37.691  21.510  25.849  1.00  0.00     0.163 HD
ATOM     29  O   UNL A   1      39.914  21.801  26.707  1.00  0.00    -0.269 OA
BRANCH  27  30
ATOM     30  C   UNL A   1      39.462  24.078  27.027  1.00  0.00     0.039 A 
ATOM     31  C   UNL A   1      40.054  24.985  26.138  1.00  0.00     0.014 A 
ATOM     32  C   UNL A   1      39.282  24.446  28.361  1.00  0.00     0.014 A 
ATOM     33  C   UNL A   1      40.428  26.257  26.580  1.00  0.00     0.010 A 
ATOM     34  C   UNL A   1      39.544  25.747  28.771  1.00  0.00     0.010 A 
ATOM     35  C   UNL A   1      40.159  26.656  27.898  1.00  0.00    -0.014 A 
BRANCH  35  36
ATOM     36  C   UNL A   1      40.587  27.975  28.428  1.00  0.00     0.031 A 
ATOM     37  C   UNL A   1      42.041  28.203  28.757  1.00  0.00     0.074 A 
ATOM     38  C   UNL A   1      39.678  28.932  28.687  1.00  0.00     0.049 A 
ATOM     39  N   UNL A   1      42.609  29.209  29.371  1.00  0.00    -0.248 NA
ATOM     40  C   UNL A   1      42.975  27.125  28.390  1.00  0.00     0.031 C 
ATOM     41  C   UNL A   1      38.236  28.816  28.463  1.00  0.00     0.029 A 
ATOM     42  N   UNL A   1      39.833  30.190  29.213  1.00  0.00    -0.354 N 
ATOM     43  C   UNL A   1      43.947  28.862  29.507  1.00  0.00     0.074 A 
ATOM     44  C   UNL A   1      44.098  27.532  28.961  1.00  0.00     0.031 C 
ATOM     45  C   UNL A   1      37.641  29.964  28.827  1.00  0.00     0.029 A 
ATOM     46  C   UNL A   1      38.653  30.881  29.343  1.00  0.00     0.049 A 
ATOM     47  H   UNL A   1      40.706  30.562  29.474  1.00  0.00     0.167 HD
ATOM     48  C   UNL A   1      44.965  29.595  30.015  1.00  0.00     0.037 A 
ATOM     49  C   UNL A   1      38.418  32.116  29.827  1.00  0.00     0.037 A 
ATOM     50  C   UNL A   1      44.823  30.946  30.487  1.00  0.00     0.049 A 
ATOM     51  C   UNL A   1      39.576  32.940  30.319  1.00  0.00     0.074 A 
ATOM     52  C   UNL A   1      45.800  31.809  30.948  1.00  0.00     0.029 A 
ATOM     53  N   UNL A   1      43.620  31.637  30.535  1.00  0.00    -0.354 N 
ATOM     54  N   UNL A   1      40.844  32.619  30.402  1.00  0.00    -0.248 NA
ATOM     55  C   UNL A   1      39.272  34.302  30.777  1.00  0.00     0.031 C 
ATOM     56  C   UNL A   1      45.185  33.016  31.296  1.00  0.00     0.029 A 
ATOM     57  C   UNL A   1      43.831  32.916  31.019  1.00  0.00     0.049 A 
ATOM     58  H   UNL A   1      42.747  31.270  30.265  1.00  0.00     0.167 HD
ATOM     59  C   UNL A   1      41.492  33.741  30.900  1.00  0.00     0.074 A 
ATOM     60  C   UNL A   1      40.478  34.759  31.085  1.00  0.00     0.031 C 
ATOM     61  C   UNL A   1      42.806  33.914  31.183  1.00  0.00     0.037 A 
BRANCH  48  62
ATOM     62  C   UNL A   1      46.323  28.955  30.069  1.00  0.00     0.064 A 
ATOM     63  C   UNL A   1      46.764  28.257  31.204  1.00  0.00     0.173 A 
ATOM     64  C   UNL A   1      47.190  29.030  28.968  1.00  0.00     0.173 A 
ATOM     65  F   UNL A   1      45.979  28.169  32.289  1.00  0.00    -0.203 F 
ATOM     66  C   UNL A   1      48.035  27.693  31.250  1.00  0.00     0.198 A 
ATOM     67  C   UNL A   1      48.450  28.436  29.006  1.00  0.00     0.198 A 
ATOM     68  F   UNL A   1      46.817  29.680  27.856  1.00  0.00    -0.203 F 
ATOM     69  F   UNL A   1      48.456  27.085  32.368  1.00  0.00    -0.200 F 
ATOM     70  C   UNL A   1      48.875  27.778  30.151  1.00  0.00     0.200 A 
ATOM     71  F   UNL A   1      49.256  28.510  27.939  1.00  0.00    -0.200 F 
ATOM     72  F   UNL A   1      50.099  27.233  30.196  1.00  0.00    -0.200 F 
ENDBRANCH  48  62
BRANCH  49  73
ATOM     73  C   UNL A   1      37.037  32.658  29.826  1.00  0.00     0.064 A 
ATOM     74  C   UNL A   1      36.180  32.432  30.913  1.00  0.00     0.173 A 
ATOM     75  C   UNL A   1      36.549  33.423  28.757  1.00  0.00     0.173 A 
ATOM     76  F   UNL A   1      36.596  31.690  31.949  1.00  0.00    -0.203 F 
ATOM     77  C   UNL A   1      34.883  32.940  30.924  1.00  0.00     0.198 A 
ATOM     78  C   UNL A   1      35.259  33.951  28.781  1.00  0.00     0.198 A 
ATOM     79  F   UNL A   1      37.332  33.673  27.697  1.00  0.00    -0.203 F 
ATOM     80  F   UNL A   1      34.073  32.679  31.960  1.00  0.00    -0.200 F 
ATOM     81  C   UNL A   1      34.425  33.704  29.862  1.00  0.00     0.200 A 
ATOM     82  F   UNL A   1      34.825  34.699  27.758  1.00  0.00    -0.200 F 
ATOM     83  F   UNL A   1      33.180  34.198  29.876  1.00  0.00    -0.200 F 
ENDBRANCH  49  73
BRANCH  61  84
ATOM     84  C   UNL A   1      43.226  35.259  31.691  1.00  0.00     0.064 A 
ATOM     85  C   UNL A   1      43.713  36.248  30.824  1.00  0.00     0.173 A 
ATOM     86  C   UNL A   1      43.091  35.577  33.050  1.00  0.00     0.173 A 
ATOM     87  F   UNL A   1      43.871  35.983  29.519  1.00  0.00    -0.203 F 
ATOM     88  C   UNL A   1      44.070  37.504  31.305  1.00  0.00     0.198 A 
ATOM     89  C   UNL A   1      43.427  36.842  33.524  1.00  0.00     0.198 A 
ATOM     90  F   UNL A   1      42.624  34.666  33.915  1.00  0.00    -0.203 F 
ATOM     91  F   UNL A   1      44.568  38.424  30.468  1.00  0.00    -0.200 F 
ATOM     92  C   UNL A   1      43.920  37.802  32.652  1.00  0.00     0.200 A 
ATOM     93  F   UNL A   1      43.273  37.133  34.822  1.00  0.00    -0.200 F 
ATOM     94  F   UNL A   1      44.258  39.015  33.113  1.00  0.00    -0.200 F 
ENDBRANCH  61  84
ENDBRANCH  35  36
ENDBRANCH  27  30
ENDBRANCH  25  26
ENDBRANCH  24  25
ENDBRANCH   1  24
TORSDOF 15
ENDMDL
MODEL 2
REMARK VINA RESULT:     -11.1      4.059      9.312
REMARK SMILES CC[C@@](C)(NS(=O)(=O)c1ccc(F)c(Cl)c1)C(=O)NCCCCNC(=O)c1ccc(-c2c3nc(c(-c4c(F)c(F)c(F)c(F)c4F)c4ccc([nH]4)c(-c4c(F)c(F)c(F)c(F)c4F)c4nc(c(-c5c(F)c(F)c(F)c(F)c5F)c5ccc2[nH]5)C=C4)C=C3)cc1
REMARK SMILES IDX 21 1 20 2 19 3 17 4 18 5 3 7 4 8 2 9 1 10 5 11 6 13 7 14
REMARK SMILES IDX 8 15 9 16 10 17 16 18 11 19 14 20 12 21 15 22 13 23 22 24
REMARK SMILES IDX 23 25 24 26 25 27 26 29 27 30 28 31 89 32 29 33 88 34 30 35
REMARK SMILES IDX 31 36 32 37 82 38 33 39 87 40 81 41 83 42 34 43 86 44 80 45
REMARK SMILES IDX 79 46 35 48 67 49 47 50 66 51 48 52 51 53 65 54 84 55 49 56
REMARK SMILES IDX 50 57 64 59 85 60 52 61 36 62 37 63 45 64 38 65 39 66 43 67
REMARK SMILES IDX 46 68 40 69 41 70 44 71 42 72 68 73 69 74 77 75 70 76 71 77
REMARK SMILES IDX 75 78 78 79 72 80 73 81 76 82 74 83 53 84 54 85 62 86 55 87
REMARK SMILES IDX 56 88 60 89 63 90 57 91 58 92 61 93 59 94
REMARK H PARENT 19 6 5 12 24 28 83 47 51 58
REMARK Flexibility Score: inf
ROOT
ATOM      1  C   UNL A   1      36.749  20.292  24.977  1.00  0.00     0.023 C 
ENDROOT
BRANCH   1   2
ATOM      2  C   UNL A   1      36.971  21.772  24.649  1.00  0.00     0.116 C 
BRANCH   2   3
ATOM      3  N   UNL A   1      36.091  22.287  23.613  1.00  0.00    -0.354 N 
ATOM      4  C   UNL A   1      35.138  23.249  23.533  1.00  0.00     0.241 C 
ATOM      5  O   UNL A   1      34.737  23.441  22.374  1.00  0.00    -0.273 OA
ATOM      6  H   UNL A   1      36.218  21.823  22.754  1.00  0.00     0.163 HD
BRANCH   4   7
ATOM      7  C   UNL A   1      34.479  24.009  24.717  1.00  0.00     0.108 C 
ATOM      8  C   UNL A   1      35.395  24.248  25.918  1.00  0.00     0.040 C 
BRANCH   7   9
ATOM      9  C   UNL A   1      34.017  25.421  24.184  1.00  0.00     0.030 C 
ATOM     10  C   UNL A   1      33.781  26.514  25.218  1.00  0.00     0.006 C 
ENDBRANCH   7   9
BRANCH   7  11
ATOM     11  N   UNL A   1      33.181  23.416  25.148  1.00  0.00    -0.196 NA
ATOM     12  H   UNL A   1      32.648  23.314  24.285  1.00  0.00     0.142 HD
BRANCH  11  13
ATOM     13  S   UNL A   1      32.916  22.005  25.971  1.00  0.00     0.241 S 
ATOM     14  O   UNL A   1      34.054  21.773  26.825  1.00  0.00    -0.207 OA
ATOM     15  O   UNL A   1      31.586  22.136  26.524  1.00  0.00    -0.207 OA
BRANCH  13  16
ATOM     16  C   UNL A   1      32.809  20.702  24.770  1.00  0.00     0.084 A 
ATOM     17  C   UNL A   1      32.327  21.015  23.491  1.00  0.00     0.025 A 
ATOM     18  C   UNL A   1      33.169  19.390  25.086  1.00  0.00     0.045 A 
ATOM     19  C   UNL A   1      32.151  20.000  22.549  1.00  0.00     0.042 A 
ATOM     20  C   UNL A   1      32.949  18.375  24.153  1.00  0.00     0.078 A 
ATOM     21  C   UNL A   1      32.438  18.682  22.893  1.00  0.00     0.141 A 
ATOM     22  Cl  UNL A   1      33.282  16.742  24.586  1.00  0.00    -0.081 Cl
ATOM     23  F   UNL A   1      32.200  17.715  21.995  1.00  0.00    -0.205 F 
ENDBRANCH  13  16
ENDBRANCH  11  13
ENDBRANCH   7  11
ENDBRANCH   4   7
ENDBRANCH   2   3
ENDBRANCH   1   2
BRANCH   1  24
ATOM     24  C   UNL A   1      37.999  19.417  25.000  1.00  0.00     0.023 C 
BRANCH  24  25
ATOM     25  C   UNL A   1      39.163  20.034  25.754  1.00  0.00     0.116 C 
BRANCH  25  26
ATOM     26  N   UNL A   1      40.243  19.075  25.942  1.00  0.00    -0.352 N 
ATOM     27  C   UNL A   1      41.597  19.262  26.079  1.00  0.00     0.251 C 
ATOM     28  H   UNL A   1      39.955  18.134  25.976  1.00  0.00     0.163 HD
ATOM     29  O   UNL A   1      42.350  18.299  25.961  1.00  0.00    -0.269 OA
BRANCH  27  30
ATOM     30  C   UNL A   1      42.166  20.599  26.367  1.00  0.00     0.039 A 
ATOM     31  C   UNL A   1      42.297  21.010  27.700  1.00  0.00     0.014 A 
ATOM     32  C   UNL A   1      42.501  21.484  25.342  1.00  0.00     0.014 A 
ATOM     33  C   UNL A   1      42.792  22.285  27.994  1.00  0.00     0.010 A 
ATOM     34  C   UNL A   1      43.102  22.702  25.634  1.00  0.00     0.010 A 
ATOM     35  C   UNL A   1      43.217  23.135  26.963  1.00  0.00    -0.014 A 
BRANCH  35  36
ATOM     36  C   UNL A   1      43.697  24.516  27.224  1.00  0.00     0.031 A 
ATOM     37  C   UNL A   1      42.732  25.544  27.758  1.00  0.00     0.074 A 
ATOM     38  C   UNL A   1      44.957  24.869  26.912  1.00  0.00     0.049 A 
ATOM     39  N   UNL A   1      42.889  26.835  27.909  1.00  0.00    -0.248 NA
ATOM     40  C   UNL A   1      41.390  25.061  28.126  1.00  0.00     0.031 C 
ATOM     41  C   UNL A   1      45.969  23.981  26.339  1.00  0.00     0.029 A 
ATOM     42  N   UNL A   1      45.596  26.078  27.019  1.00  0.00    -0.354 N 
ATOM     43  C   UNL A   1      41.658  27.317  28.336  1.00  0.00     0.074 A 
ATOM     44  C   UNL A   1      40.750  26.193  28.369  1.00  0.00     0.031 C 
ATOM     45  C   UNL A   1      47.110  24.669  26.167  1.00  0.00     0.029 A 
ATOM     46  C   UNL A   1      46.898  26.053  26.582  1.00  0.00     0.049 A 
ATOM     47  H   UNL A   1      45.163  26.887  27.375  1.00  0.00     0.167 HD
ATOM     48  C   UNL A   1      41.321  28.578  28.695  1.00  0.00     0.037 A 
ATOM     49  C   UNL A   1      47.814  27.038  26.523  1.00  0.00     0.037 A 
ATOM     50  C   UNL A   1      42.248  29.676  28.732  1.00  0.00     0.049 A 
ATOM     51  C   UNL A   1      47.437  28.415  26.996  1.00  0.00     0.074 A 
ATOM     52  C   UNL A   1      42.034  30.976  29.155  1.00  0.00     0.029 A 
ATOM     53  N   UNL A   1      43.579  29.592  28.349  1.00  0.00    -0.354 N 
ATOM     54  N   UNL A   1      46.283  28.851  27.439  1.00  0.00    -0.248 NA
ATOM     55  C   UNL A   1      48.493  29.436  26.968  1.00  0.00     0.031 C 
ATOM     56  C   UNL A   1      43.231  31.684  29.007  1.00  0.00     0.029 A 
ATOM     57  C   UNL A   1      44.198  30.817  28.524  1.00  0.00     0.049 A 
ATOM     58  H   UNL A   1      44.017  28.780  28.003  1.00  0.00     0.167 HD
ATOM     59  C   UNL A   1      46.476  30.186  27.763  1.00  0.00     0.074 A 
ATOM     60  C   UNL A   1      47.865  30.487  27.480  1.00  0.00     0.031 C 
ATOM     61  C   UNL A   1      45.585  31.086  28.247  1.00  0.00     0.037 A 
BRANCH  48  62
ATOM     62  C   UNL A   1      39.894  28.829  29.092  1.00  0.00     0.064 A 
ATOM     63  C   UNL A   1      38.934  29.254  28.160  1.00  0.00     0.173 A 
ATOM     64  C   UNL A   1      39.478  28.632  30.417  1.00  0.00     0.173 A 
ATOM     65  F   UNL A   1      39.283  29.471  26.883  1.00  0.00    -0.203 F 
ATOM     66  C   UNL A   1      37.622  29.509  28.548  1.00  0.00     0.198 A 
ATOM     67  C   UNL A   1      38.156  28.858  30.795  1.00  0.00     0.198 A 
ATOM     68  F   UNL A   1      40.353  28.222  31.347  1.00  0.00    -0.203 F 
ATOM     69  F   UNL A   1      36.738  29.973  27.652  1.00  0.00    -0.200 F 
ATOM     70  C   UNL A   1      37.233  29.306  29.862  1.00  0.00     0.200 A 
ATOM     71  F   UNL A   1      37.779  28.651  32.063  1.00  0.00    -0.200 F 
ATOM     72  F   UNL A   1      35.968  29.552  30.234  1.00  0.00    -0.200 F 
ENDBRANCH  48  62
BRANCH  49  73
ATOM     73  C   UNL A   1      49.185  26.742  26.037  1.00  0.00     0.064 A 
ATOM     74  C   UNL A   1      49.536  26.978  24.701  1.00  0.00     0.173 A 
ATOM     75  C   UNL A   1      50.175  26.239  26.894  1.00  0.00     0.173 A 
ATOM     76  F   UNL A   1      48.617  27.441  23.840  1.00  0.00    -0.203 F 
ATOM     77  C   UNL A   1      50.821  26.708  24.235  1.00  0.00     0.198 A 
ATOM     78  C   UNL A   1      51.466  25.993  26.432  1.00  0.00     0.198 A 
ATOM     79  F   UNL A   1      49.890  26.003  28.183  1.00  0.00    -0.203 F 
ATOM     80  F   UNL A   1      51.118  26.909  22.944  1.00  0.00    -0.200 F 
ATOM     81  C   UNL A   1      51.787  26.222  25.102  1.00  0.00     0.200 A 
ATOM     82  F   UNL A   1      52.401  25.535  27.276  1.00  0.00    -0.200 F 
ATOM     83  F   UNL A   1      53.024  25.969  24.656  1.00  0.00    -0.200 F 
ENDBRANCH  49  73
BRANCH  61  84
ATOM     84  C   UNL A   1      46.092  32.467  28.530  1.00  0.00     0.064 A 
ATOM     85  C   UNL A   1      46.652  32.800  29.772  1.00  0.00     0.173 A 
ATOM     86  C   UNL A   1      46.062  33.451  27.532  1.00  0.00     0.173 A 
ATOM     87  F   UNL A   1      46.689  31.893  30.759  1.00  0.00    -0.203 F 
ATOM     88  C   UNL A   1      47.147  34.078  30.011  1.00  0.00     0.198 A 
ATOM     89  C   UNL A   1      46.580  34.722  27.766  1.00  0.00     0.198 A 
ATOM     90  F   UNL A   1      45.542  33.177  26.327  1.00  0.00    -0.203 F 
ATOM     91  F   UNL A   1      47.645  34.387  31.216  1.00  0.00    -0.200 F 
ATOM     92  C   UNL A   1      47.117  35.035  29.007  1.00  0.00     0.200 A 
ATOM     93  F   UNL A   1      46.560  35.642  26.793  1.00  0.00    -0.200 F 
ATOM     94  F   UNL A   1      47.601  36.264  29.236  1.00  0.00    -0.200 F 
ENDBRANCH  61  84
ENDBRANCH  35  36
ENDBRANCH  27  30
ENDBRANCH  25  26
ENDBRANCH  24  25
ENDBRANCH   1  24
TORSDOF 15
ENDMDL
MODEL 3
REMARK VINA RESULT:     -11.1      3.420      8.721
REMARK SMILES CC[C@@](C)(NS(=O)(=O)c1ccc(F)c(Cl)c1)C(=O)NCCCCNC(=O)c1ccc(-c2c3nc(c(-c4c(F)c(F)c(F)c(F)c4F)c4ccc([nH]4)c(-c4c(F)c(F)c(F)c(F)c4F)c4nc(c(-c5c(F)c(F)c(F)c(F)c5F)c5ccc2[nH]5)C=C4)C=C3)cc1
REMARK SMILES IDX 21 1 20 2 19 3 17 4 18 5 3 7 4 8 2 9 1 10 5 11 6 13 7 14
REMARK SMILES IDX 8 15 9 16 10 17 16 18 11 19 14 20 12 21 15 22 13 23 22 24
REMARK SMILES IDX 23 25 24 26 25 27 26 29 27 30 28 31 89 32 29 33 88 34 30 35
REMARK SMILES IDX 31 36 32 37 82 38 33 39 87 40 81 41 83 42 34 43 86 44 80 45
REMARK SMILES IDX 79 46 35 48 67 49 47 50 66 51 48 52 51 53 65 54 84 55 49 56
REMARK SMILES IDX 50 57 64 59 85 60 52 61 36 62 37 63 45 64 38 65 39 66 43 67
REMARK SMILES IDX 46 68 40 69 41 70 44 71 42 72 68 73 69 74 77 75 70 76 71 77
REMARK SMILES IDX 75 78 78 79 72 80 73 81 76 82 74 83 53 84 54 85 62 86 55 87
REMARK SMILES IDX 56 88 60 89 63 90 57 91 58 92 61 93 59 94
REMARK H PARENT 19 6 5 12 24 28 83 47 51 58
REMARK Flexibility Score: inf
ROOT
ATOM      1  C   UNL A   1      36.677  20.027  24.980  1.00  0.00     0.023 C 
ENDROOT
BRANCH   1   2
ATOM      2  C   UNL A   1      36.483  21.432  25.557  1.00  0.00     0.116 C 
BRANCH   2   3
ATOM      3  N   UNL A   1      35.420  21.524  26.547  1.00  0.00    -0.354 N 
ATOM      4  C   UNL A   1      34.065  21.562  26.521  1.00  0.00     0.241 C 
ATOM      5  O   UNL A   1      33.555  21.497  27.650  1.00  0.00    -0.273 OA
ATOM      6  H   UNL A   1      35.773  21.570  27.465  1.00  0.00     0.163 HD
BRANCH   4   7
ATOM      7  C   UNL A   1      33.163  21.770  25.273  1.00  0.00     0.108 C 
ATOM      8  C   UNL A   1      33.912  22.111  23.985  1.00  0.00     0.040 C 
BRANCH   7   9
ATOM      9  C   UNL A   1      32.375  20.426  25.021  1.00  0.00     0.030 C 
ATOM     10  C   UNL A   1      33.110  19.314  24.284  1.00  0.00     0.006 C 
ENDBRANCH   7   9
BRANCH   7  11
ATOM     11  N   UNL A   1      32.045  22.728  25.507  1.00  0.00    -0.196 NA
ATOM     12  H   UNL A   1      31.412  22.234  26.136  1.00  0.00     0.142 HD
BRANCH  11  13
ATOM     13  S   UNL A   1      32.118  24.267  26.114  1.00  0.00     0.241 S 
ATOM     14  O   UNL A   1      31.302  24.310  27.301  1.00  0.00    -0.207 OA
ATOM     15  O   UNL A   1      33.528  24.583  26.169  1.00  0.00    -0.207 OA
BRANCH  13  16
ATOM     16  C   UNL A   1      31.431  25.353  24.890  1.00  0.00     0.084 A 
ATOM     17  C   UNL A   1      32.312  26.036  24.039  1.00  0.00     0.025 A 
ATOM     18  C   UNL A   1      30.052  25.549  24.782  1.00  0.00     0.045 A 
ATOM     19  C   UNL A   1      31.810  26.962  23.120  1.00  0.00     0.042 A 
ATOM     20  C   UNL A   1      29.563  26.507  23.892  1.00  0.00     0.078 A 
ATOM     21  C   UNL A   1      30.441  27.210  23.070  1.00  0.00     0.141 A 
ATOM     22  Cl  UNL A   1      27.873  26.832  23.844  1.00  0.00    -0.081 Cl
ATOM     23  F   UNL A   1      29.989  28.149  22.226  1.00  0.00    -0.205 F 
ENDBRANCH  13  16
ENDBRANCH  11  13
ENDBRANCH   7  11
ENDBRANCH   4   7
ENDBRANCH   2   3
ENDBRANCH   1   2
BRANCH   1  24
ATOM     24  C   UNL A   1      38.118  19.616  24.691  1.00  0.00     0.023 C 
BRANCH  24  25
ATOM     25  C   UNL A   1      39.106  20.059  25.755  1.00  0.00     0.116 C 
BRANCH  25  26
ATOM     26  N   UNL A   1      40.183  19.092  25.916  1.00  0.00    -0.352 N 
ATOM     27  C   UNL A   1      41.538  19.272  26.057  1.00  0.00     0.251 C 
ATOM     28  H   UNL A   1      39.892  18.152  25.924  1.00  0.00     0.163 HD
ATOM     29  O   UNL A   1      42.288  18.310  25.912  1.00  0.00    -0.269 OA
BRANCH  27  30
ATOM     30  C   UNL A   1      42.110  20.599  26.381  1.00  0.00     0.039 A 
ATOM     31  C   UNL A   1      42.301  20.949  27.724  1.00  0.00     0.014 A 
ATOM     32  C   UNL A   1      42.391  21.534  25.385  1.00  0.00     0.014 A 
ATOM     33  C   UNL A   1      42.801  22.212  28.056  1.00  0.00     0.010 A 
ATOM     34  C   UNL A   1      42.996  22.742  25.706  1.00  0.00     0.010 A 
ATOM     35  C   UNL A   1      43.170  23.114  27.047  1.00  0.00    -0.014 A 
BRANCH  35  36
ATOM     36  C   UNL A   1      43.653  24.485  27.350  1.00  0.00     0.031 A 
ATOM     37  C   UNL A   1      42.687  25.503  27.902  1.00  0.00     0.074 A 
ATOM     38  C   UNL A   1      44.917  24.841  27.061  1.00  0.00     0.049 A 
ATOM     39  N   UNL A   1      42.846  26.788  28.090  1.00  0.00    -0.248 NA
ATOM     40  C   UNL A   1      41.339  25.015  28.242  1.00  0.00     0.031 C 
ATOM     41  C   UNL A   1      45.933  23.965  26.475  1.00  0.00     0.029 A 
ATOM     42  N   UNL A   1      45.560  26.045  27.207  1.00  0.00    -0.354 N 
ATOM     43  C   UNL A   1      41.613  27.264  28.516  1.00  0.00     0.074 A 
ATOM     44  C   UNL A   1      40.701  26.142  28.510  1.00  0.00     0.031 C 
ATOM     45  C   UNL A   1      47.077  24.654  26.333  1.00  0.00     0.029 A 
ATOM     46  C   UNL A   1      46.866  26.026  26.784  1.00  0.00     0.049 A 
ATOM     47  H   UNL A   1      45.126  26.846  27.581  1.00  0.00     0.167 HD
ATOM     48  C   UNL A   1      41.276  28.515  28.906  1.00  0.00     0.037 A 
ATOM     49  C   UNL A   1      47.786  27.009  26.761  1.00  0.00     0.037 A 
ATOM     50  C   UNL A   1      42.207  29.609  28.983  1.00  0.00     0.049 A 
ATOM     51  C   UNL A   1      47.410  28.375  27.267  1.00  0.00     0.074 A 
ATOM     52  C   UNL A   1      41.993  30.897  29.438  1.00  0.00     0.029 A 
ATOM     53  N   UNL A   1      43.542  29.530  28.611  1.00  0.00    -0.354 N 
ATOM     54  N   UNL A   1      46.252  28.802  27.710  1.00  0.00    -0.248 NA
ATOM     55  C   UNL A   1      48.469  29.392  27.278  1.00  0.00     0.031 C 
ATOM     56  C   UNL A   1      43.195  31.605  29.322  1.00  0.00     0.029 A 
ATOM     57  C   UNL A   1      44.164  30.746  28.826  1.00  0.00     0.049 A 
ATOM     58  H   UNL A   1      43.980  28.726  28.248  1.00  0.00     0.167 HD
ATOM     59  C   UNL A   1      46.447  30.128  28.072  1.00  0.00     0.074 A 
ATOM     60  C   UNL A   1      47.840  30.430  27.812  1.00  0.00     0.031 C 
ATOM     61  C   UNL A   1      45.554  31.018  28.570  1.00  0.00     0.037 A 
BRANCH  48  62
ATOM     62  C   UNL A   1      39.846  28.761  29.295  1.00  0.00     0.064 A 
ATOM     63  C   UNL A   1      38.897  29.213  28.364  1.00  0.00     0.173 A 
ATOM     64  C   UNL A   1      39.416  28.532  30.610  1.00  0.00     0.173 A 
ATOM     65  F   UNL A   1      39.261  29.461  27.097  1.00  0.00    -0.203 F 
ATOM     66  C   UNL A   1      37.582  29.463  28.745  1.00  0.00     0.198 A 
ATOM     67  C   UNL A   1      38.091  28.753  30.980  1.00  0.00     0.198 A 
ATOM     68  F   UNL A   1      40.280  28.095  31.538  1.00  0.00    -0.203 F 
ATOM     69  F   UNL A   1      36.710  29.952  27.853  1.00  0.00    -0.200 F 
ATOM     70  C   UNL A   1      37.179  29.228  30.050  1.00  0.00     0.200 A 
ATOM     71  F   UNL A   1      37.701  28.515  32.239  1.00  0.00    -0.200 F 
ATOM     72  F   UNL A   1      35.912  29.469  30.415  1.00  0.00    -0.200 F 
ENDBRANCH  48  62
BRANCH  49  73
ATOM     73  C   UNL A   1      49.161  26.721  26.282  1.00  0.00     0.064 A 
ATOM     74  C   UNL A   1      49.521  26.973  24.950  1.00  0.00     0.173 A 
ATOM     75  C   UNL A   1      50.146  26.210  27.140  1.00  0.00     0.173 A 
ATOM     76  F   UNL A   1      48.608  27.445  24.089  1.00  0.00    -0.203 F 
ATOM     77  C   UNL A   1      50.810  26.711  24.491  1.00  0.00     0.198 A 
ATOM     78  C   UNL A   1      51.441  25.971  26.684  1.00  0.00     0.198 A 
ATOM     79  F   UNL A   1      49.852  25.959  28.424  1.00  0.00    -0.203 F 
ATOM     80  F   UNL A   1      51.116  26.927  23.204  1.00  0.00    -0.200 F 
ATOM     81  C   UNL A   1      51.771  26.215  25.360  1.00  0.00     0.200 A 
ATOM     82  F   UNL A   1      52.370  25.504  27.529  1.00  0.00    -0.200 F 
ATOM     83  F   UNL A   1      53.012  25.970  24.919  1.00  0.00    -0.200 F 
ENDBRANCH  49  73
BRANCH  61  84
ATOM     84  C   UNL A   1      46.063  32.389  28.896  1.00  0.00     0.064 A 
ATOM     85  C   UNL A   1      46.607  32.687  30.154  1.00  0.00     0.173 A 
ATOM     86  C   UNL A   1      46.052  33.398  27.923  1.00  0.00     0.173 A 
ATOM     87  F   UNL A   1      46.625  31.755  31.119  1.00  0.00    -0.203 F 
ATOM     88  C   UNL A   1      47.104  33.956  30.433  1.00  0.00     0.198 A 
ATOM     89  C   UNL A   1      46.573  34.660  28.198  1.00  0.00     0.198 A 
ATOM     90  F   UNL A   1      45.549  33.158  26.704  1.00  0.00    -0.203 F 
ATOM     91  F   UNL A   1      47.586  34.232  31.652  1.00  0.00    -0.200 F 
ATOM     92  C   UNL A   1      47.093  34.939  29.453  1.00  0.00     0.200 A 
ATOM     93  F   UNL A   1      46.571  35.605  27.249  1.00  0.00    -0.200 F 
ATOM     94  F   UNL A   1      47.579  36.159  29.721  1.00  0.00    -0.200 F 
ENDBRANCH  61  84
ENDBRANCH  35  36
ENDBRANCH  27  30
ENDBRANCH  25  26
ENDBRANCH  24  25
ENDBRANCH   1  24
TORSDOF 15
ENDMDL
