MODEL 1
REMARK VINA RESULT:     -13.1      0.000      0.000
REMARK SMILES CC(=O)N1C[C@@H]2C[N@H+](CC(=O)NCc3ccccc3)C[C@]2(C(=O)NCCCCNC(=O)c2ccc(-c3c4nc(c(-c5c(F)c(F)c(F)c(F)c5F)c5ccc([nH]5)c(-c5c(F)c(F)c(F)c(F)c5F)c5nc(c(-c6c(F)c(F)c(F)c(F)c6F)c6ccc3[nH]6)C=C5)C=C4)cc2)C1
REMARK SMILES IDX 25 1 24 2 22 3 23 4 21 6 4 7 5 8 95 9 6 10 7 11 20 12 8 13
REMARK SMILES IDX 2 15 1 16 3 17 9 18 10 19 11 20 12 21 13 23 14 24 15 25
REMARK SMILES IDX 19 26 16 27 18 28 17 29 26 30 27 31 28 32 29 33 30 34 31 36
REMARK SMILES IDX 32 37 33 38 94 39 34 40 93 41 35 42 36 43 37 44 87 45 38 46
REMARK SMILES IDX 92 47 86 48 88 49 39 50 91 51 85 52 84 53 40 55 72 56 52 57
REMARK SMILES IDX 71 58 53 59 56 60 70 61 89 62 54 63 55 64 69 66 90 67 57 68
REMARK SMILES IDX 41 69 42 70 50 71 43 72 44 73 48 74 51 75 45 76 46 77 49 78
REMARK SMILES IDX 47 79 73 80 74 81 82 82 75 83 76 84 80 85 83 86 77 87 78 88
REMARK SMILES IDX 81 89 79 90 58 91 59 92 67 93 60 94 61 95 65 96 68 97 62 98
REMARK SMILES IDX 63 99 66 100 64 101
REMARK H PARENT 24 5 8 14 12 22 29 35 88 54 56 65
REMARK Flexibility Score: inf
ROOT
ATOM      1  C   UNL A   1      32.266  29.611  25.048  1.00  0.00     0.116 C 
ENDROOT
BRANCH   1   2
ATOM      2  N   UNL A   1      30.970  29.285  24.436  1.00  0.00    -0.355 N 
ATOM      3  C   UNL A   1      30.356  28.089  24.070  1.00  0.00     0.234 C 
ATOM      4  O   UNL A   1      29.258  28.212  23.518  1.00  0.00    -0.274 OA
ATOM      5  H   UNL A   1      30.419  30.079  24.246  1.00  0.00     0.163 HD
BRANCH   3   6
ATOM      6  C   UNL A   1      31.054  26.677  24.319  1.00  0.00     0.125 C 
ATOM      7  N   UNL A   1      32.678  25.551  22.708  1.00  0.00    -0.341 N 
ATOM      8  C   UNL A   1      33.187  25.163  23.962  1.00  0.00     0.130 C 
ATOM      9  C   UNL A   1      31.834  26.734  22.893  1.00  0.00     0.143 C 
ATOM     10  C   UNL A   1      32.564  26.164  24.902  1.00  0.00     0.087 C 
ATOM     11  C   UNL A   1      32.427  25.439  26.248  1.00  0.00     0.269 C 
ATOM     12  C   UNL A   1      30.824  26.907  25.850  1.00  0.00     0.282 C 
ATOM     13  N   UNL A   1      31.037  25.652  26.556  1.00  0.00    -0.326 N 
ATOM     14  H   UNL A   1      30.845  25.667  27.558  1.00  0.00     0.348 HD
BRANCH   7  15
ATOM     15  C   UNL A   1      33.083  24.815  21.623  1.00  0.00     0.219 C 
ATOM     16  C   UNL A   1      33.322  23.345  21.758  1.00  0.00     0.114 C 
ATOM     17  O   UNL A   1      33.204  25.326  20.504  1.00  0.00    -0.275 OA
ENDBRANCH   7  15
BRANCH  13  18
ATOM     18  C   UNL A   1      30.080  24.561  26.178  1.00  0.00     0.363 C 
BRANCH  18  19
ATOM     19  C   UNL A   1      30.210  23.199  26.884  1.00  0.00     0.275 C 
ATOM     20  O   UNL A   1      29.482  22.957  27.856  1.00  0.00    -0.268 OA
ATOM     21  N   UNL A   1      31.085  22.208  26.547  1.00  0.00    -0.347 N 
ATOM     22  H   UNL A   1      31.348  21.656  27.318  1.00  0.00     0.164 HD
BRANCH  21  23
ATOM     23  C   UNL A   1      31.722  21.781  25.304  1.00  0.00     0.151 C 
BRANCH  23  24
ATOM     24  C   UNL A   1      33.230  21.590  25.394  1.00  0.00    -0.029 A 
ATOM     25  C   UNL A   1      33.910  20.620  24.647  1.00  0.00     0.005 A 
ATOM     26  C   UNL A   1      34.025  22.442  26.179  1.00  0.00     0.005 A 
ATOM     27  C   UNL A   1      35.295  20.432  24.792  1.00  0.00     0.000 A 
ATOM     28  C   UNL A   1      35.394  22.214  26.379  1.00  0.00     0.000 A 
ATOM     29  C   UNL A   1      36.027  21.187  25.699  1.00  0.00     0.000 A 
ENDBRANCH  23  24
ENDBRANCH  21  23
ENDBRANCH  18  19
ENDBRANCH  13  18
ENDBRANCH   3   6
ENDBRANCH   1   2
BRANCH   1  30
ATOM     30  C   UNL A   1      32.254  30.042  26.526  1.00  0.00     0.023 C 
BRANCH  30  31
ATOM     31  C   UNL A   1      31.875  31.521  26.732  1.00  0.00     0.023 C 
BRANCH  31  32
ATOM     32  C   UNL A   1      32.924  32.439  27.370  1.00  0.00     0.116 C 
BRANCH  32  33
ATOM     33  N   UNL A   1      32.474  33.799  27.623  1.00  0.00    -0.352 N 
ATOM     34  C   UNL A   1      33.016  34.737  28.480  1.00  0.00     0.251 C 
ATOM     35  H   UNL A   1      31.680  34.088  27.120  1.00  0.00     0.163 HD
ATOM     36  O   UNL A   1      32.495  35.842  28.609  1.00  0.00    -0.269 OA
BRANCH  34  37
ATOM     37  C   UNL A   1      34.206  34.392  29.291  1.00  0.00     0.039 A 
ATOM     38  C   UNL A   1      34.020  33.870  30.575  1.00  0.00     0.014 A 
ATOM     39  C   UNL A   1      35.493  34.515  28.762  1.00  0.00     0.014 A 
ATOM     40  C   UNL A   1      35.117  33.370  31.284  1.00  0.00     0.010 A 
ATOM     41  C   UNL A   1      36.574  33.957  29.445  1.00  0.00     0.010 A 
ATOM     42  C   UNL A   1      36.396  33.356  30.702  1.00  0.00    -0.014 A 
BRANCH  42  43
ATOM     43  C   UNL A   1      37.546  32.695  31.376  1.00  0.00     0.031 A 
ATOM     44  C   UNL A   1      38.254  31.543  30.716  1.00  0.00     0.074 A 
ATOM     45  C   UNL A   1      37.913  33.085  32.615  1.00  0.00     0.049 A 
ATOM     46  N   UNL A   1      39.213  30.782  31.183  1.00  0.00    -0.248 NA
ATOM     47  C   UNL A   1      37.806  31.182  29.362  1.00  0.00     0.031 C 
ATOM     48  C   UNL A   1      37.283  34.158  33.388  1.00  0.00     0.029 A 
ATOM     49  N   UNL A   1      38.898  32.615  33.451  1.00  0.00    -0.354 N 
ATOM     50  C   UNL A   1      39.476  29.853  30.184  1.00  0.00     0.074 A 
ATOM     51  C   UNL A   1      38.538  30.107  29.112  1.00  0.00     0.031 C 
ATOM     52  C   UNL A   1      37.908  34.278  34.570  1.00  0.00     0.029 A 
ATOM     53  C   UNL A   1      38.959  33.268  34.660  1.00  0.00     0.049 A 
ATOM     54  H   UNL A   1      39.505  31.879  33.207  1.00  0.00     0.167 HD
ATOM     55  C   UNL A   1      40.434  28.895  30.150  1.00  0.00     0.037 A 
ATOM     56  C   UNL A   1      39.763  33.069  35.722  1.00  0.00     0.037 A 
ATOM     57  C   UNL A   1      41.385  28.657  31.204  1.00  0.00     0.049 A 
ATOM     58  C   UNL A   1      40.807  31.985  35.661  1.00  0.00     0.074 A 
ATOM     59  C   UNL A   1      42.411  27.729  31.247  1.00  0.00     0.029 A 
ATOM     60  N   UNL A   1      41.429  29.358  32.399  1.00  0.00    -0.354 N 
ATOM     61  N   UNL A   1      41.080  31.152  34.688  1.00  0.00    -0.248 NA
ATOM     62  C   UNL A   1      41.661  31.818  36.847  1.00  0.00     0.031 C 
ATOM     63  C   UNL A   1      43.055  27.846  32.482  1.00  0.00     0.029 A 
ATOM     64  C   UNL A   1      42.460  28.877  33.190  1.00  0.00     0.049 A 
ATOM     65  H   UNL A   1      40.818  30.089  32.650  1.00  0.00     0.167 HD
ATOM     66  C   UNL A   1      42.157  30.392  35.126  1.00  0.00     0.074 A 
ATOM     67  C   UNL A   1      42.498  30.871  36.449  1.00  0.00     0.031 C 
ATOM     68  C   UNL A   1      42.804  29.384  34.493  1.00  0.00     0.037 A 
BRANCH  55  69
ATOM     69  C   UNL A   1      40.520  28.042  28.918  1.00  0.00     0.064 A 
ATOM     70  C   UNL A   1      39.783  26.853  28.804  1.00  0.00     0.173 A 
ATOM     71  C   UNL A   1      41.294  28.443  27.820  1.00  0.00     0.173 A 
ATOM     72  F   UNL A   1      39.035  26.421  29.829  1.00  0.00    -0.203 F 
ATOM     73  C   UNL A   1      39.837  26.086  27.643  1.00  0.00     0.198 A 
ATOM     74  C   UNL A   1      41.323  27.688  26.650  1.00  0.00     0.198 A 
ATOM     75  F   UNL A   1      42.013  29.575  27.876  1.00  0.00    -0.203 F 
ATOM     76  F   UNL A   1      39.157  24.934  27.572  1.00  0.00    -0.200 F 
ATOM     77  C   UNL A   1      40.599  26.508  26.564  1.00  0.00     0.200 A 
ATOM     78  F   UNL A   1      42.050  28.104  25.604  1.00  0.00    -0.200 F 
ATOM     79  F   UNL A   1      40.639  25.775  25.444  1.00  0.00    -0.200 F 
ENDBRANCH  55  69
BRANCH  56  80
ATOM     80  C   UNL A   1      39.636  33.919  36.938  1.00  0.00     0.064 A 
ATOM     81  C   UNL A   1      38.849  33.509  38.025  1.00  0.00     0.173 A 
ATOM     82  C   UNL A   1      40.255  35.174  37.021  1.00  0.00     0.173 A 
ATOM     83  F   UNL A   1      38.218  32.326  37.985  1.00  0.00    -0.203 F 
ATOM     84  C   UNL A   1      38.655  34.337  39.129  1.00  0.00     0.198 A 
ATOM     85  C   UNL A   1      40.086  35.989  38.141  1.00  0.00     0.198 A 
ATOM     86  F   UNL A   1      41.022  35.614  36.014  1.00  0.00    -0.203 F 
ATOM     87  F   UNL A   1      37.844  33.946  40.122  1.00  0.00    -0.200 F 
ATOM     88  C   UNL A   1      39.275  35.575  39.187  1.00  0.00     0.200 A 
ATOM     89  F   UNL A   1      40.698  37.179  38.199  1.00  0.00    -0.200 F 
ATOM     90  F   UNL A   1      39.082  36.375  40.245  1.00  0.00    -0.200 F 
ENDBRANCH  56  80
BRANCH  68  91
ATOM     91  C   UNL A   1      43.979  28.768  35.194  1.00  0.00     0.064 A 
ATOM     92  C   UNL A   1      45.286  29.240  35.000  1.00  0.00     0.173 A 
ATOM     93  C   UNL A   1      43.788  27.718  36.106  1.00  0.00     0.173 A 
ATOM     94  F   UNL A   1      45.522  30.233  34.129  1.00  0.00    -0.203 F 
ATOM     95  C   UNL A   1      46.361  28.667  35.674  1.00  0.00     0.198 A 
ATOM     96  C   UNL A   1      44.862  27.168  36.800  1.00  0.00     0.198 A 
ATOM     97  F   UNL A   1      42.557  27.236  36.332  1.00  0.00    -0.203 F 
ATOM     98  F   UNL A   1      47.606  29.103  35.438  1.00  0.00    -0.200 F 
ATOM     99  C   UNL A   1      46.147  27.638  36.578  1.00  0.00     0.200 A 
ATOM    100  F   UNL A   1      44.652  26.183  37.683  1.00  0.00    -0.200 F 
ATOM    101  F   UNL A   1      47.182  27.093  37.232  1.00  0.00    -0.200 F 
ENDBRANCH  68  91
ENDBRANCH  42  43
ENDBRANCH  34  37
ENDBRANCH  32  33
ENDBRANCH  31  32
ENDBRANCH  30  31
ENDBRANCH   1  30
TORSDOF 16
ENDMDL
MODEL 2
REMARK VINA RESULT:     -13.1      4.518      7.984
REMARK SMILES CC(=O)N1C[C@@H]2C[N@H+](CC(=O)NCc3ccccc3)C[C@]2(C(=O)NCCCCNC(=O)c2ccc(-c3c4nc(c(-c5c(F)c(F)c(F)c(F)c5F)c5ccc([nH]5)c(-c5c(F)c(F)c(F)c(F)c5F)c5nc(c(-c6c(F)c(F)c(F)c(F)c6F)c6ccc3[nH]6)C=C5)C=C4)cc2)C1
REMARK SMILES IDX 25 1 24 2 22 3 23 4 21 6 4 7 5 8 95 9 6 10 7 11 20 12 8 13
REMARK SMILES IDX 2 15 1 16 3 17 9 18 10 19 11 20 12 21 13 23 14 24 15 25
REMARK SMILES IDX 19 26 16 27 18 28 17 29 26 30 27 31 28 32 29 33 30 34 31 36
REMARK SMILES IDX 32 37 33 38 94 39 34 40 93 41 35 42 36 43 37 44 87 45 38 46
REMARK SMILES IDX 92 47 86 48 88 49 39 50 91 51 85 52 84 53 40 55 72 56 52 57
REMARK SMILES IDX 71 58 53 59 56 60 70 61 89 62 54 63 55 64 69 66 90 67 57 68
REMARK SMILES IDX 41 69 42 70 50 71 43 72 44 73 48 74 51 75 45 76 46 77 49 78
REMARK SMILES IDX 47 79 73 80 74 81 82 82 75 83 76 84 80 85 83 86 77 87 78 88
REMARK SMILES IDX 81 89 79 90 58 91 59 92 67 93 60 94 61 95 65 96 68 97 62 98
REMARK SMILES IDX 63 99 66 100 64 101
REMARK H PARENT 24 5 8 14 12 22 29 35 88 54 56 65
REMARK Flexibility Score: inf
ROOT
ATOM      1  C   UNL A   1      34.737  23.992  23.876  1.00  0.00     0.116 C 
ENDROOT
BRANCH   1   2
ATOM      2  N   UNL A   1      34.353  25.113  23.006  1.00  0.00    -0.355 N 
ATOM      3  C   UNL A   1      33.577  26.254  23.197  1.00  0.00     0.234 C 
ATOM      4  O   UNL A   1      33.428  26.960  22.194  1.00  0.00    -0.274 OA
ATOM      5  H   UNL A   1      34.724  25.042  22.096  1.00  0.00     0.163 HD
BRANCH   3   6
ATOM      6  C   UNL A   1      32.908  26.587  24.606  1.00  0.00     0.125 C 
ATOM      7  N   UNL A   1      33.260  28.751  25.908  1.00  0.00    -0.341 N 
ATOM      8  C   UNL A   1      31.921  28.436  26.210  1.00  0.00     0.130 C 
ATOM      9  C   UNL A   1      33.643  28.036  24.688  1.00  0.00     0.143 C 
ATOM     10  C   UNL A   1      31.549  27.466  25.117  1.00  0.00     0.087 C 
ATOM     11  C   UNL A   1      30.483  26.545  25.727  1.00  0.00     0.269 C 
ATOM     12  C   UNL A   1      31.789  25.553  24.246  1.00  0.00     0.282 C 
ATOM     13  N   UNL A   1      31.027  25.241  25.446  1.00  0.00    -0.326 N 
ATOM     14  H   UNL A   1      30.312  24.521  25.345  1.00  0.00     0.348 HD
BRANCH   7  15
ATOM     15  C   UNL A   1      33.888  29.642  26.741  1.00  0.00     0.219 C 
ATOM     16  C   UNL A   1      35.212  29.300  27.348  1.00  0.00     0.114 C 
ATOM     17  O   UNL A   1      33.414  30.760  26.967  1.00  0.00    -0.275 OA
ENDBRANCH   7  15
BRANCH  13  18
ATOM     18  C   UNL A   1      31.827  24.588  26.534  1.00  0.00     0.363 C 
BRANCH  18  19
ATOM     19  C   UNL A   1      31.342  23.235  27.085  1.00  0.00     0.275 C 
ATOM     20  O   UNL A   1      30.169  23.131  27.469  1.00  0.00    -0.268 OA
ATOM     21  N   UNL A   1      32.101  22.109  27.217  1.00  0.00    -0.347 N 
ATOM     22  H   UNL A   1      31.804  21.536  27.958  1.00  0.00     0.164 HD
BRANCH  21  23
ATOM     23  C   UNL A   1      33.255  21.562  26.507  1.00  0.00     0.151 C 
BRANCH  23  24
ATOM     24  C   UNL A   1      32.911  20.613  25.367  1.00  0.00    -0.029 A 
ATOM     25  C   UNL A   1      32.983  19.221  25.501  1.00  0.00     0.005 A 
ATOM     26  C   UNL A   1      32.423  21.095  24.141  1.00  0.00     0.005 A 
ATOM     27  C   UNL A   1      32.713  18.372  24.415  1.00  0.00     0.000 A 
ATOM     28  C   UNL A   1      32.219  20.258  23.035  1.00  0.00     0.000 A 
ATOM     29  C   UNL A   1      32.388  18.890  23.168  1.00  0.00     0.000 A 
ENDBRANCH  23  24
ENDBRANCH  21  23
ENDBRANCH  18  19
ENDBRANCH  13  18
ENDBRANCH   3   6
ENDBRANCH   1   2
BRANCH   1  30
ATOM     30  C   UNL A   1      36.044  23.255  23.534  1.00  0.00     0.023 C 
BRANCH  30  31
ATOM     31  C   UNL A   1      36.182  21.889  24.234  1.00  0.00     0.023 C 
BRANCH  31  32
ATOM     32  C   UNL A   1      36.933  21.851  25.569  1.00  0.00     0.116 C 
BRANCH  32  33
ATOM     33  N   UNL A   1      38.050  20.919  25.616  1.00  0.00    -0.352 N 
ATOM     34  C   UNL A   1      39.326  21.130  26.100  1.00  0.00     0.251 C 
ATOM     35  H   UNL A   1      37.872  20.021  25.255  1.00  0.00     0.163 HD
ATOM     36  O   UNL A   1      40.174  20.243  26.038  1.00  0.00    -0.269 OA
BRANCH  34  37
ATOM     37  C   UNL A   1      39.692  22.454  26.653  1.00  0.00     0.039 A 
ATOM     38  C   UNL A   1      40.683  22.525  27.636  1.00  0.00     0.014 A 
ATOM     39  C   UNL A   1      39.112  23.623  26.154  1.00  0.00     0.014 A 
ATOM     40  C   UNL A   1      41.171  23.773  28.039  1.00  0.00     0.010 A 
ATOM     41  C   UNL A   1      39.645  24.862  26.510  1.00  0.00     0.010 A 
ATOM     42  C   UNL A   1      40.696  24.951  27.438  1.00  0.00    -0.014 A 
BRANCH  42  43
ATOM     43  C   UNL A   1      41.305  26.275  27.742  1.00  0.00     0.031 A 
ATOM     44  C   UNL A   1      42.734  26.558  27.368  1.00  0.00     0.074 A 
ATOM     45  C   UNL A   1      40.594  27.201  28.419  1.00  0.00     0.049 A 
ATOM     46  N   UNL A   1      43.466  27.612  27.629  1.00  0.00    -0.248 NA
ATOM     47  C   UNL A   1      43.442  25.505  26.623  1.00  0.00     0.031 C 
ATOM     48  C   UNL A   1      39.213  27.039  28.881  1.00  0.00     0.029 A 
ATOM     49  N   UNL A   1      40.937  28.461  28.847  1.00  0.00    -0.354 N 
ATOM     50  C   UNL A   1      44.718  27.346  27.087  1.00  0.00     0.074 A 
ATOM     51  C   UNL A   1      44.664  26.010  26.536  1.00  0.00     0.031 C 
ATOM     52  C   UNL A   1      38.822  28.160  29.508  1.00  0.00     0.029 A 
ATOM     53  C   UNL A   1      39.932  29.109  29.528  1.00  0.00     0.049 A 
ATOM     54  H   UNL A   1      41.820  28.864  28.683  1.00  0.00     0.167 HD
ATOM     55  C   UNL A   1      45.804  28.154  27.028  1.00  0.00     0.037 A 
ATOM     56  C   UNL A   1      39.911  30.324  30.108  1.00  0.00     0.037 A 
ATOM     57  C   UNL A   1      45.852  29.493  27.553  1.00  0.00     0.049 A 
ATOM     58  C   UNL A   1      41.140  31.193  30.040  1.00  0.00     0.074 A 
ATOM     59  C   UNL A   1      46.898  30.399  27.513  1.00  0.00     0.029 A 
ATOM     60  N   UNL A   1      44.805  30.121  28.210  1.00  0.00    -0.354 N 
ATOM     61  N   UNL A   1      42.297  30.949  29.475  1.00  0.00    -0.248 NA
ATOM     62  C   UNL A   1      41.057  32.513  30.685  1.00  0.00     0.031 C 
ATOM     63  C   UNL A   1      46.495  31.563  28.175  1.00  0.00     0.029 A 
ATOM     64  C   UNL A   1      45.183  31.399  28.588  1.00  0.00     0.049 A 
ATOM     65  H   UNL A   1      43.923  29.718  28.384  1.00  0.00     0.167 HD
ATOM     66  C   UNL A   1      43.062  32.093  29.663  1.00  0.00     0.074 A 
ATOM     67  C   UNL A   1      42.235  33.038  30.381  1.00  0.00     0.031 C 
ATOM     68  C   UNL A   1      44.338  32.338  29.277  1.00  0.00     0.037 A 
BRANCH  55  69
ATOM     69  C   UNL A   1      47.030  27.621  26.346  1.00  0.00     0.064 A 
ATOM     70  C   UNL A   1      47.192  27.721  24.955  1.00  0.00     0.173 A 
ATOM     71  C   UNL A   1      48.078  27.060  27.090  1.00  0.00     0.173 A 
ATOM     72  F   UNL A   1      46.214  28.240  24.198  1.00  0.00    -0.203 F 
ATOM     73  C   UNL A   1      48.349  27.260  24.334  1.00  0.00     0.198 A 
ATOM     74  C   UNL A   1      49.246  26.626  26.467  1.00  0.00     0.198 A 
ATOM     75  F   UNL A   1      47.976  26.946  28.423  1.00  0.00    -0.203 F 
ATOM     76  F   UNL A   1      48.463  27.330  23.000  1.00  0.00    -0.200 F 
ATOM     77  C   UNL A   1      49.378  26.721  25.091  1.00  0.00     0.200 A 
ATOM     78  F   UNL A   1      50.245  26.117  27.201  1.00  0.00    -0.200 F 
ATOM     79  F   UNL A   1      50.496  26.289  24.491  1.00  0.00    -0.200 F 
ENDBRANCH  55  69
BRANCH  56  80
ATOM     80  C   UNL A   1      38.685  30.814  30.797  1.00  0.00     0.064 A 
ATOM     81  C   UNL A   1      37.670  31.467  30.082  1.00  0.00     0.173 A 
ATOM     82  C   UNL A   1      38.524  30.686  32.184  1.00  0.00     0.173 A 
ATOM     83  F   UNL A   1      37.787  31.635  28.756  1.00  0.00    -0.203 F 
ATOM     84  C   UNL A   1      36.561  32.006  30.732  1.00  0.00     0.198 A 
ATOM     85  C   UNL A   1      37.399  31.197  32.829  1.00  0.00     0.198 A 
ATOM     86  F   UNL A   1      39.462  30.066  32.915  1.00  0.00    -0.203 F 
ATOM     87  F   UNL A   1      35.640  32.683  30.032  1.00  0.00    -0.200 F 
ATOM     88  C   UNL A   1      36.425  31.869  32.104  1.00  0.00     0.200 A 
ATOM     89  F   UNL A   1      37.265  31.050  34.154  1.00  0.00    -0.200 F 
ATOM     90  F   UNL A   1      35.363  32.394  32.731  1.00  0.00    -0.200 F 
ENDBRANCH  56  80
BRANCH  68  91
ATOM     91  C   UNL A   1      44.901  33.697  29.574  1.00  0.00     0.064 A 
ATOM     92  C   UNL A   1      44.738  34.773  28.689  1.00  0.00     0.173 A 
ATOM     93  C   UNL A   1      45.575  33.936  30.782  1.00  0.00     0.173 A 
ATOM     94  F   UNL A   1      44.114  34.593  27.515  1.00  0.00    -0.203 F 
ATOM     95  C   UNL A   1      45.253  36.031  28.991  1.00  0.00     0.198 A 
ATOM     96  C   UNL A   1      46.061  35.202  31.094  1.00  0.00     0.198 A 
ATOM     97  F   UNL A   1      45.749  32.941  31.665  1.00  0.00    -0.203 F 
ATOM     98  F   UNL A   1      45.127  37.033  28.109  1.00  0.00    -0.200 F 
ATOM     99  C   UNL A   1      45.906  36.246  30.195  1.00  0.00     0.200 A 
ATOM    100  F   UNL A   1      46.680  35.411  32.264  1.00  0.00    -0.200 F 
ATOM    101  F   UNL A   1      46.392  37.460  30.487  1.00  0.00    -0.200 F 
ENDBRANCH  68  91
ENDBRANCH  42  43
ENDBRANCH  34  37
ENDBRANCH  32  33
ENDBRANCH  31  32
ENDBRANCH  30  31
ENDBRANCH   1  30
TORSDOF 16
ENDMDL
MODEL 3
REMARK VINA RESULT:     -13.0      5.288      9.761
REMARK SMILES CC(=O)N1C[C@@H]2C[N@H+](CC(=O)NCc3ccccc3)C[C@]2(C(=O)NCCCCNC(=O)c2ccc(-c3c4nc(c(-c5c(F)c(F)c(F)c(F)c5F)c5ccc([nH]5)c(-c5c(F)c(F)c(F)c(F)c5F)c5nc(c(-c6c(F)c(F)c(F)c(F)c6F)c6ccc3[nH]6)C=C5)C=C4)cc2)C1
REMARK SMILES IDX 25 1 24 2 22 3 23 4 21 6 4 7 5 8 95 9 6 10 7 11 20 12 8 13
REMARK SMILES IDX 2 15 1 16 3 17 9 18 10 19 11 20 12 21 13 23 14 24 15 25
REMARK SMILES IDX 19 26 16 27 18 28 17 29 26 30 27 31 28 32 29 33 30 34 31 36
REMARK SMILES IDX 32 37 33 38 94 39 34 40 93 41 35 42 36 43 37 44 87 45 38 46
REMARK SMILES IDX 92 47 86 48 88 49 39 50 91 51 85 52 84 53 40 55 72 56 52 57
REMARK SMILES IDX 71 58 53 59 56 60 70 61 89 62 54 63 55 64 69 66 90 67 57 68
REMARK SMILES IDX 41 69 42 70 50 71 43 72 44 73 48 74 51 75 45 76 46 77 49 78
REMARK SMILES IDX 47 79 73 80 74 81 82 82 75 83 76 84 80 85 83 86 77 87 78 88
REMARK SMILES IDX 81 89 79 90 58 91 59 92 67 93 60 94 61 95 65 96 68 97 62 98
REMARK SMILES IDX 63 99 66 100 64 101
REMARK H PARENT 24 5 8 14 12 22 29 35 88 54 56 65
REMARK Flexibility Score: inf
ROOT
ATOM      1  C   UNL A   1      35.622  21.082  25.476  1.00  0.00     0.116 C 
ENDROOT
BRANCH   1   2
ATOM      2  N   UNL A   1      34.540  20.415  24.737  1.00  0.00    -0.355 N 
ATOM      3  C   UNL A   1      33.332  20.855  24.200  1.00  0.00     0.234 C 
ATOM      4  O   UNL A   1      32.637  19.975  23.683  1.00  0.00    -0.274 OA
ATOM      5  H   UNL A   1      34.704  19.455  24.592  1.00  0.00     0.163 HD
BRANCH   3   6
ATOM      6  C   UNL A   1      32.881  22.383  24.289  1.00  0.00     0.125 C 
ATOM      7  N   UNL A   1      31.439  23.368  26.147  1.00  0.00    -0.341 N 
ATOM      8  C   UNL A   1      32.303  24.437  25.842  1.00  0.00     0.130 C 
ATOM      9  C   UNL A   1      32.045  22.126  25.661  1.00  0.00     0.143 C 
ATOM     10  C   UNL A   1      33.436  23.757  25.116  1.00  0.00     0.087 C 
ATOM     11  C   UNL A   1      33.995  24.807  24.145  1.00  0.00     0.269 C 
ATOM     12  C   UNL A   1      34.117  22.732  23.395  1.00  0.00     0.282 C 
ATOM     13  N   UNL A   1      33.972  24.092  22.895  1.00  0.00    -0.326 N 
ATOM     14  H   UNL A   1      34.690  24.404  22.241  1.00  0.00     0.348 HD
BRANCH   7  15
ATOM     15  C   UNL A   1      30.292  23.677  26.833  1.00  0.00     0.219 C 
ATOM     16  C   UNL A   1      29.547  24.938  26.525  1.00  0.00     0.114 C 
ATOM     17  O   UNL A   1      29.815  22.908  27.674  1.00  0.00    -0.275 OA
ENDBRANCH   7  15
BRANCH  13  18
ATOM     18  C   UNL A   1      32.779  24.301  22.011  1.00  0.00     0.363 C 
BRANCH  18  19
ATOM     19  C   UNL A   1      32.729  25.569  21.140  1.00  0.00     0.275 C 
ATOM     20  O   UNL A   1      33.117  25.505  19.965  1.00  0.00    -0.268 OA
ATOM     21  N   UNL A   1      32.306  26.800  21.549  1.00  0.00    -0.347 N 
ATOM     22  H   UNL A   1      32.749  27.533  21.065  1.00  0.00     0.164 HD
BRANCH  21  23
ATOM     23  C   UNL A   1      31.347  27.277  22.541  1.00  0.00     0.151 C 
BRANCH  23  24
ATOM     24  C   UNL A   1      31.965  27.742  23.853  1.00  0.00    -0.029 A 
ATOM     25  C   UNL A   1      33.301  28.154  23.950  1.00  0.00     0.005 A 
ATOM     26  C   UNL A   1      31.193  27.856  25.021  1.00  0.00     0.005 A 
ATOM     27  C   UNL A   1      33.858  28.524  25.185  1.00  0.00     0.000 A 
ATOM     28  C   UNL A   1      31.760  28.159  26.267  1.00  0.00     0.000 A 
ATOM     29  C   UNL A   1      33.107  28.473  26.352  1.00  0.00     0.000 A 
ENDBRANCH  23  24
ENDBRANCH  21  23
ENDBRANCH  18  19
ENDBRANCH  13  18
ENDBRANCH   3   6
ENDBRANCH   1   2
BRANCH   1  30
ATOM     30  C   UNL A   1      36.976  21.221  24.758  1.00  0.00     0.023 C 
BRANCH  30  31
ATOM     31  C   UNL A   1      37.933  20.041  25.017  1.00  0.00     0.023 C 
BRANCH  31  32
ATOM     32  C   UNL A   1      39.225  20.333  25.789  1.00  0.00     0.116 C 
BRANCH  32  33
ATOM     33  N   UNL A   1      40.164  19.223  25.851  1.00  0.00    -0.352 N 
ATOM     34  C   UNL A   1      41.512  19.255  26.150  1.00  0.00     0.251 C 
ATOM     35  H   UNL A   1      39.790  18.335  25.653  1.00  0.00     0.163 HD
ATOM     36  O   UNL A   1      42.182  18.225  26.128  1.00  0.00    -0.269 OA
BRANCH  34  37
ATOM     37  C   UNL A   1      42.168  20.548  26.449  1.00  0.00     0.039 A 
ATOM     38  C   UNL A   1      42.644  21.326  25.388  1.00  0.00     0.014 A 
ATOM     39  C   UNL A   1      42.251  21.023  27.760  1.00  0.00     0.014 A 
ATOM     40  C   UNL A   1      43.101  22.625  25.633  1.00  0.00     0.010 A 
ATOM     41  C   UNL A   1      42.646  22.341  27.992  1.00  0.00     0.010 A 
ATOM     42  C   UNL A   1      43.052  23.164  26.929  1.00  0.00    -0.014 A 
BRANCH  42  43
ATOM     43  C   UNL A   1      43.391  24.591  27.186  1.00  0.00     0.031 A 
ATOM     44  C   UNL A   1      44.788  25.095  26.946  1.00  0.00     0.074 A 
ATOM     45  C   UNL A   1      42.460  25.420  27.702  1.00  0.00     0.049 A 
ATOM     46  N   UNL A   1      45.298  26.276  27.196  1.00  0.00    -0.248 NA
ATOM     47  C   UNL A   1      45.746  24.137  26.373  1.00  0.00     0.031 C 
ATOM     48  C   UNL A   1      41.080  25.049  28.024  1.00  0.00     0.029 A 
ATOM     49  N   UNL A   1      42.534  26.745  28.059  1.00  0.00    -0.354 N 
ATOM     50  C   UNL A   1      46.632  26.199  26.817  1.00  0.00     0.074 A 
ATOM     51  C   UNL A   1      46.868  24.841  26.376  1.00  0.00     0.031 C 
ATOM     52  C   UNL A   1      40.434  26.122  28.509  1.00  0.00     0.029 A 
ATOM     53  C   UNL A   1      41.361  27.250  28.570  1.00  0.00     0.049 A 
ATOM     54  H   UNL A   1      43.351  27.285  27.958  1.00  0.00     0.167 HD
ATOM     55  C   UNL A   1      47.568  27.178  26.808  1.00  0.00     0.037 A 
ATOM     56  C   UNL A   1      41.068  28.477  29.041  1.00  0.00     0.037 A 
ATOM     57  C   UNL A   1      47.329  28.536  27.223  1.00  0.00     0.049 A 
ATOM     58  C   UNL A   1      42.135  29.541  29.034  1.00  0.00     0.074 A 
ATOM     59  C   UNL A   1      48.207  29.607  27.220  1.00  0.00     0.029 A 
ATOM     60  N   UNL A   1      46.120  29.011  27.708  1.00  0.00    -0.354 N 
ATOM     61  N   UNL A   1      43.375  29.467  28.621  1.00  0.00    -0.248 NA
ATOM     62  C   UNL A   1      41.756  30.864  29.554  1.00  0.00     0.031 C 
ATOM     63  C   UNL A   1      47.539  30.721  27.735  1.00  0.00     0.029 A 
ATOM     64  C   UNL A   1      46.233  30.357  28.016  1.00  0.00     0.049 A 
ATOM     65  H   UNL A   1      45.303  28.473  27.818  1.00  0.00     0.167 HD
ATOM     66  C   UNL A   1      43.912  30.737  28.794  1.00  0.00     0.074 A 
ATOM     67  C   UNL A   1      42.858  31.567  29.337  1.00  0.00     0.031 C 
ATOM     68  C   UNL A   1      45.166  31.177  28.529  1.00  0.00     0.037 A 
BRANCH  55  69
ATOM     69  C   UNL A   1      48.939  26.825  26.310  1.00  0.00     0.064 A 
ATOM     70  C   UNL A   1      49.881  26.207  27.147  1.00  0.00     0.173 A 
ATOM     71  C   UNL A   1      49.296  27.049  24.973  1.00  0.00     0.173 A 
ATOM     72  F   UNL A   1      49.591  25.981  28.437  1.00  0.00    -0.203 F 
ATOM     73  C   UNL A   1      51.137  25.846  26.668  1.00  0.00     0.198 A 
ATOM     74  C   UNL A   1      50.544  26.661  24.490  1.00  0.00     0.198 A 
ATOM     75  F   UNL A   1      48.430  27.631  24.129  1.00  0.00    -0.203 F 
ATOM     76  F   UNL A   1      52.034  25.294  27.497  1.00  0.00    -0.200 F 
ATOM     77  C   UNL A   1      51.464  26.065  25.339  1.00  0.00     0.200 A 
ATOM     78  F   UNL A   1      50.854  26.860  23.202  1.00  0.00    -0.200 F 
ATOM     79  F   UNL A   1      52.669  25.706  24.877  1.00  0.00    -0.200 F 
ENDBRANCH  55  69
BRANCH  56  80
ATOM     80  C   UNL A   1      39.704  28.788  29.550  1.00  0.00     0.064 A 
ATOM     81  C   UNL A   1      39.350  28.514  30.880  1.00  0.00     0.173 A 
ATOM     82  C   UNL A   1      38.713  29.317  28.710  1.00  0.00     0.173 A 
ATOM     83  F   UNL A   1      40.256  27.987  31.717  1.00  0.00    -0.203 F 
ATOM     84  C   UNL A   1      38.051  28.720  31.339  1.00  0.00     0.198 A 
ATOM     85  C   UNL A   1      37.421  29.553  29.179  1.00  0.00     0.198 A 
ATOM     86  F   UNL A   1      38.997  29.602  27.431  1.00  0.00    -0.203 F 
ATOM     87  F   UNL A   1      37.726  28.387  32.595  1.00  0.00    -0.200 F 
ATOM     88  C   UNL A   1      37.088  29.242  30.489  1.00  0.00     0.200 A 
ATOM     89  F   UNL A   1      36.497  30.070  28.358  1.00  0.00    -0.200 F 
ATOM     90  F   UNL A   1      35.836  29.433  30.928  1.00  0.00    -0.200 F 
ENDBRANCH  56  80
BRANCH  68  91
ATOM     91  C   UNL A   1      45.455  32.629  28.771  1.00  0.00     0.064 A 
ATOM     92  C   UNL A   1      45.168  33.609  27.809  1.00  0.00     0.173 A 
ATOM     93  C   UNL A   1      45.986  33.050  30.000  1.00  0.00     0.173 A 
ATOM     94  F   UNL A   1      44.672  33.256  26.613  1.00  0.00    -0.203 F 
ATOM     95  C   UNL A   1      45.427  34.954  28.059  1.00  0.00     0.198 A 
ATOM     96  C   UNL A   1      46.215  34.398  30.258  1.00  0.00     0.198 A 
ATOM     97  F   UNL A   1      46.270  32.152  30.955  1.00  0.00    -0.203 F 
ATOM     98  F   UNL A   1      45.190  35.868  27.108  1.00  0.00    -0.200 F 
ATOM     99  C   UNL A   1      45.942  35.348  29.285  1.00  0.00     0.200 A 
ATOM    100  F   UNL A   1      46.700  34.778  31.448  1.00  0.00    -0.200 F 
ATOM    101  F   UNL A   1      46.183  36.643  29.527  1.00  0.00    -0.200 F 
ENDBRANCH  68  91
ENDBRANCH  42  43
ENDBRANCH  34  37
ENDBRANCH  32  33
ENDBRANCH  31  32
ENDBRANCH  30  31
ENDBRANCH   1  30
TORSDOF 16
ENDMDL
