MODEL 1
REMARK VINA RESULT:     -11.5      0.000      0.000
REMARK SMILES CC1(CNS(=O)(=O)Cc2ccc(C(=O)NCCCCNC(=O)c3ccc(-c4c5nc(c(-c6c(F)c(F)c(F)c(F)c6F)c6ccc([nH]6)c(-c6c(F)c(F)c(F)c(F)c6F)c6nc(c(-c7c(F)c(F)c(F)c(F)c7F)c7ccc4[nH]7)C=C6)C=C5)cc3)cc2)COC1
REMARK SMILES IDX 16 1 15 2 13 3 14 4 12 6 9 7 10 8 87 9 11 10 86 11 8 12 5 13
REMARK SMILES IDX 6 14 7 15 4 16 3 18 2 19 1 20 88 21 90 22 89 23 17 24 18 25
REMARK SMILES IDX 19 26 20 27 21 28 22 30 23 31 24 32 85 33 25 34 84 35 26 36
REMARK SMILES IDX 27 37 28 38 78 39 29 40 83 41 77 42 79 43 30 44 82 45 76 46
REMARK SMILES IDX 75 47 31 49 63 50 43 51 62 52 44 53 47 54 61 55 80 56 45 57
REMARK SMILES IDX 46 58 60 60 81 61 48 62 32 63 33 64 41 65 34 66 35 67 39 68
REMARK SMILES IDX 42 69 36 70 37 71 40 72 38 73 64 74 65 75 73 76 66 77 67 78
REMARK SMILES IDX 71 79 74 80 68 81 69 82 72 83 70 84 49 85 50 86 58 87 51 88
REMARK SMILES IDX 52 89 56 90 59 91 53 92 54 93 57 94 55 95
REMARK H PARENT 15 5 4 17 20 29 79 48 47 59
REMARK Flexibility Score: inf
ROOT
ATOM      1  C   UNL A   1      31.196  29.996  25.045  1.00  0.00     0.116 C 
ENDROOT
BRANCH   1   2
ATOM      2  N   UNL A   1      30.678  29.961  23.691  1.00  0.00    -0.352 N 
ATOM      3  C   UNL A   1      30.390  28.912  22.854  1.00  0.00     0.251 C 
ATOM      4  O   UNL A   1      29.938  29.174  21.740  1.00  0.00    -0.269 OA
ATOM      5  H   UNL A   1      30.502  30.849  23.302  1.00  0.00     0.163 HD
BRANCH   3   6
ATOM      6  C   UNL A   1      30.535  27.489  23.266  1.00  0.00     0.039 A 
ATOM      7  C   UNL A   1      30.739  24.851  24.254  1.00  0.00    -0.032 A 
ATOM      8  C   UNL A   1      29.626  25.642  24.566  1.00  0.00     0.005 A 
ATOM      9  C   UNL A   1      31.721  25.378  23.410  1.00  0.00     0.005 A 
ATOM     10  C   UNL A   1      29.528  26.950  24.078  1.00  0.00     0.014 A 
ATOM     11  C   UNL A   1      31.596  26.665  22.889  1.00  0.00     0.014 A 
BRANCH   7  12
ATOM     12  C   UNL A   1      30.896  23.468  24.825  1.00  0.00     0.189 C 
BRANCH  12  13
ATOM     13  S   UNL A   1      31.138  23.520  26.610  1.00  0.00     0.215 S 
ATOM     14  O   UNL A   1      29.903  23.114  27.251  1.00  0.00    -0.212 OA
ATOM     15  O   UNL A   1      31.784  24.757  26.988  1.00  0.00    -0.212 OA
BRANCH  13  16
ATOM     16  N   UNL A   1      32.265  22.302  26.902  1.00  0.00    -0.214 NA
ATOM     17  H   UNL A   1      31.950  21.784  27.721  1.00  0.00     0.141 HD
BRANCH  16  18
ATOM     18  C   UNL A   1      33.658  22.716  27.150  1.00  0.00     0.110 C 
BRANCH  18  19
ATOM     19  C   UNL A   1      34.500  22.701  25.874  1.00  0.00     0.028 C 
ATOM     20  C   UNL A   1      34.686  24.065  25.223  1.00  0.00     0.018 C 
ATOM     21  C   UNL A   1      34.020  21.611  24.895  1.00  0.00     0.170 C 
ATOM     22  C   UNL A   1      35.759  21.817  25.974  1.00  0.00     0.170 C 
ATOM     23  O   UNL A   1      35.055  20.706  25.357  1.00  0.00    -0.380 OA
ENDBRANCH  18  19
ENDBRANCH  16  18
ENDBRANCH  13  16
ENDBRANCH  12  13
ENDBRANCH   7  12
ENDBRANCH   3   6
ENDBRANCH   1   2
BRANCH   1  24
ATOM     24  C   UNL A   1      32.680  29.620  25.055  1.00  0.00     0.023 C 
BRANCH  24  25
ATOM     25  C   UNL A   1      32.992  28.375  25.883  1.00  0.00     0.023 C 
BRANCH  25  26
ATOM     26  C   UNL A   1      33.698  28.659  27.201  1.00  0.00     0.116 C 
BRANCH  26  27
ATOM     27  N   UNL A   1      33.687  30.069  27.568  1.00  0.00    -0.352 N 
ATOM     28  C   UNL A   1      34.703  30.791  28.150  1.00  0.00     0.251 C 
ATOM     29  H   UNL A   1      32.856  30.562  27.379  1.00  0.00     0.163 HD
ATOM     30  O   UNL A   1      34.537  31.948  28.513  1.00  0.00    -0.269 OA
BRANCH  28  31
ATOM     31  C   UNL A   1      35.994  30.113  28.364  1.00  0.00     0.039 A 
ATOM     32  C   UNL A   1      36.960  30.157  27.358  1.00  0.00     0.014 A 
ATOM     33  C   UNL A   1      36.278  29.544  29.608  1.00  0.00     0.014 A 
ATOM     34  C   UNL A   1      38.248  29.693  27.628  1.00  0.00     0.010 A 
ATOM     35  C   UNL A   1      37.580  29.162  29.900  1.00  0.00     0.010 A 
ATOM     36  C   UNL A   1      38.579  29.236  28.915  1.00  0.00    -0.014 A 
BRANCH  36  37
ATOM     37  C   UNL A   1      39.959  28.823  29.265  1.00  0.00     0.031 A 
ATOM     38  C   UNL A   1      40.845  29.771  30.020  1.00  0.00     0.074 A 
ATOM     39  C   UNL A   1      40.443  27.645  28.826  1.00  0.00     0.049 A 
ATOM     40  N   UNL A   1      42.119  29.669  30.305  1.00  0.00    -0.248 NA
ATOM     41  C   UNL A   1      40.223  31.020  30.488  1.00  0.00     0.031 C 
ATOM     42  C   UNL A   1      39.691  26.655  28.053  1.00  0.00     0.029 A 
ATOM     43  N   UNL A   1      41.693  27.089  28.950  1.00  0.00    -0.354 N 
ATOM     44  C   UNL A   1      42.450  30.845  30.966  1.00  0.00     0.074 A 
ATOM     45  C   UNL A   1      41.262  31.670  30.988  1.00  0.00     0.031 C 
ATOM     46  C   UNL A   1      40.489  25.607  27.786  1.00  0.00     0.029 A 
ATOM     47  C   UNL A   1      41.820  25.873  28.323  1.00  0.00     0.049 A 
ATOM     48  H   UNL A   1      42.427  27.521  29.443  1.00  0.00     0.167 HD
ATOM     49  C   UNL A   1      43.632  31.192  31.526  1.00  0.00     0.037 A 
ATOM     50  C   UNL A   1      42.895  25.073  28.181  1.00  0.00     0.037 A 
ATOM     51  C   UNL A   1      44.803  30.356  31.518  1.00  0.00     0.049 A 
ATOM     52  C   UNL A   1      44.209  25.498  28.784  1.00  0.00     0.074 A 
ATOM     53  C   UNL A   1      46.034  30.591  32.104  1.00  0.00     0.029 A 
ATOM     54  N   UNL A   1      44.889  29.122  30.886  1.00  0.00    -0.354 N 
ATOM     55  N   UNL A   1      44.497  26.583  29.462  1.00  0.00    -0.248 NA
ATOM     56  C   UNL A   1      45.348  24.587  28.603  1.00  0.00     0.031 C 
ATOM     57  C   UNL A   1      46.883  29.531  31.775  1.00  0.00     0.029 A 
ATOM     58  C   UNL A   1      46.162  28.600  31.044  1.00  0.00     0.049 A 
ATOM     59  H   UNL A   1      44.154  28.685  30.399  1.00  0.00     0.167 HD
ATOM     60  C   UNL A   1      45.833  26.467  29.820  1.00  0.00     0.074 A 
ATOM     61  C   UNL A   1      46.299  25.204  29.291  1.00  0.00     0.031 C 
ATOM     62  C   UNL A   1      46.605  27.329  30.527  1.00  0.00     0.037 A 
BRANCH  49  63
ATOM     63  C   UNL A   1      43.721  32.536  32.188  1.00  0.00     0.064 A 
ATOM     64  C   UNL A   1      43.445  32.706  33.554  1.00  0.00     0.173 A 
ATOM     65  C   UNL A   1      44.116  33.666  31.455  1.00  0.00     0.173 A 
ATOM     66  F   UNL A   1      43.052  31.662  34.300  1.00  0.00    -0.203 F 
ATOM     67  C   UNL A   1      43.530  33.961  34.153  1.00  0.00     0.198 A 
ATOM     68  C   UNL A   1      44.234  34.912  32.066  1.00  0.00     0.198 A 
ATOM     69  F   UNL A   1      44.395  33.560  30.147  1.00  0.00    -0.203 F 
ATOM     70  F   UNL A   1      43.207  34.107  35.445  1.00  0.00    -0.200 F 
ATOM     71  C   UNL A   1      43.933  35.060  33.410  1.00  0.00     0.200 A 
ATOM     72  F   UNL A   1      44.639  35.970  31.350  1.00  0.00    -0.200 F 
ATOM     73  F   UNL A   1      44.023  36.265  33.989  1.00  0.00    -0.200 F 
ENDBRANCH  49  63
BRANCH  50  74
ATOM     74  C   UNL A   1      42.777  23.786  27.445  1.00  0.00     0.064 A 
ATOM     75  C   UNL A   1      43.132  23.695  26.092  1.00  0.00     0.173 A 
ATOM     76  C   UNL A   1      42.295  22.626  28.070  1.00  0.00     0.173 A 
ATOM     77  F   UNL A   1      43.581  24.780  25.443  1.00  0.00    -0.203 F 
ATOM     78  C   UNL A   1      42.985  22.502  25.386  1.00  0.00     0.198 A 
ATOM     79  C   UNL A   1      42.179  21.426  27.372  1.00  0.00     0.198 A 
ATOM     80  F   UNL A   1      41.945  22.657  29.364  1.00  0.00    -0.203 F 
ATOM     81  F   UNL A   1      43.281  22.459  24.080  1.00  0.00    -0.200 F 
ATOM     82  C   UNL A   1      42.514  21.367  26.028  1.00  0.00     0.200 A 
ATOM     83  F   UNL A   1      41.738  20.328  28.001  1.00  0.00    -0.200 F 
ATOM     84  F   UNL A   1      42.374  20.220  25.350  1.00  0.00    -0.200 F 
ENDBRANCH  50  74
BRANCH  62  85
ATOM     85  C   UNL A   1      48.019  26.921  30.822  1.00  0.00     0.064 A 
ATOM     86  C   UNL A   1      48.344  26.115  31.922  1.00  0.00     0.173 A 
ATOM     87  C   UNL A   1      49.054  27.287  29.946  1.00  0.00     0.173 A 
ATOM     88  F   UNL A   1      47.395  25.750  32.797  1.00  0.00    -0.203 F 
ATOM     89  C   UNL A   1      49.656  25.703  32.143  1.00  0.00     0.198 A 
ATOM     90  C   UNL A   1      50.357  26.845  30.152  1.00  0.00     0.198 A 
ATOM     91  F   UNL A   1      48.795  28.051  28.874  1.00  0.00    -0.203 F 
ATOM     92  F   UNL A   1      49.952  24.967  33.223  1.00  0.00    -0.200 F 
ATOM     93  C   UNL A   1      50.659  26.058  31.253  1.00  0.00     0.200 A 
ATOM     94  F   UNL A   1      51.320  27.174  29.280  1.00  0.00    -0.200 F 
ATOM     95  F   UNL A   1      51.917  25.645  31.458  1.00  0.00    -0.200 F 
ENDBRANCH  62  85
ENDBRANCH  36  37
ENDBRANCH  28  31
ENDBRANCH  26  27
ENDBRANCH  25  26
ENDBRANCH  24  25
ENDBRANCH   1  24
TORSDOF 16
ENDMDL
MODEL 2
REMARK VINA RESULT:     -11.1      3.982      6.829
REMARK SMILES CC1(CNS(=O)(=O)Cc2ccc(C(=O)NCCCCNC(=O)c3ccc(-c4c5nc(c(-c6c(F)c(F)c(F)c(F)c6F)c6ccc([nH]6)c(-c6c(F)c(F)c(F)c(F)c6F)c6nc(c(-c7c(F)c(F)c(F)c(F)c7F)c7ccc4[nH]7)C=C6)C=C5)cc3)cc2)COC1
REMARK SMILES IDX 16 1 15 2 13 3 14 4 12 6 9 7 10 8 87 9 11 10 86 11 8 12 5 13
REMARK SMILES IDX 6 14 7 15 4 16 3 18 2 19 1 20 88 21 90 22 89 23 17 24 18 25
REMARK SMILES IDX 19 26 20 27 21 28 22 30 23 31 24 32 85 33 25 34 84 35 26 36
REMARK SMILES IDX 27 37 28 38 78 39 29 40 83 41 77 42 79 43 30 44 82 45 76 46
REMARK SMILES IDX 75 47 31 49 63 50 43 51 62 52 44 53 47 54 61 55 80 56 45 57
REMARK SMILES IDX 46 58 60 60 81 61 48 62 32 63 33 64 41 65 34 66 35 67 39 68
REMARK SMILES IDX 42 69 36 70 37 71 40 72 38 73 64 74 65 75 73 76 66 77 67 78
REMARK SMILES IDX 71 79 74 80 68 81 69 82 72 83 70 84 49 85 50 86 58 87 51 88
REMARK SMILES IDX 52 89 56 90 59 91 53 92 54 93 57 94 55 95
REMARK H PARENT 15 5 4 17 20 29 79 48 47 59
REMARK Flexibility Score: inf
ROOT
ATOM      1  C   UNL A   1      37.705  32.970  31.648  1.00  0.00     0.116 C 
ENDROOT
BRANCH   1   2
ATOM      2  N   UNL A   1      37.226  32.960  33.017  1.00  0.00    -0.352 N 
ATOM      3  C   UNL A   1      37.522  32.143  34.078  1.00  0.00     0.251 C 
ATOM      4  O   UNL A   1      36.970  32.374  35.153  1.00  0.00    -0.269 OA
ATOM      5  H   UNL A   1      36.572  33.668  33.221  1.00  0.00     0.163 HD
BRANCH   3   6
ATOM      6  C   UNL A   1      38.525  31.045  33.996  1.00  0.00     0.039 A 
ATOM      7  C   UNL A   1      40.583  29.123  33.791  1.00  0.00    -0.032 A 
ATOM      8  C   UNL A   1      40.804  30.331  34.464  1.00  0.00     0.005 A 
ATOM      9  C   UNL A   1      39.313  28.871  33.264  1.00  0.00     0.005 A 
ATOM     10  C   UNL A   1      39.784  31.283  34.562  1.00  0.00     0.014 A 
ATOM     11  C   UNL A   1      38.287  29.804  33.405  1.00  0.00     0.014 A 
BRANCH   7  12
ATOM     12  C   UNL A   1      41.687  28.115  33.615  1.00  0.00     0.189 C 
BRANCH  12  13
ATOM     13  S   UNL A   1      42.261  27.489  35.203  1.00  0.00     0.215 S 
ATOM     14  O   UNL A   1      41.125  27.403  36.099  1.00  0.00    -0.212 OA
ATOM     15  O   UNL A   1      43.460  28.188  35.610  1.00  0.00    -0.212 OA
BRANCH  13  16
ATOM     16  N   UNL A   1      42.741  25.908  34.867  1.00  0.00    -0.214 NA
ATOM     17  H   UNL A   1      43.116  25.513  35.728  1.00  0.00     0.141 HD
BRANCH  16  18
ATOM     18  C   UNL A   1      43.756  25.720  33.814  1.00  0.00     0.110 C 
BRANCH  18  19
ATOM     19  C   UNL A   1      44.166  24.255  33.664  1.00  0.00     0.028 C 
ATOM     20  C   UNL A   1      44.391  23.806  32.227  1.00  0.00     0.018 C 
ATOM     21  C   UNL A   1      43.233  23.324  34.462  1.00  0.00     0.170 C 
ATOM     22  C   UNL A   1      45.220  23.800  34.693  1.00  0.00     0.170 C 
ATOM     23  O   UNL A   1      44.179  23.275  35.560  1.00  0.00    -0.380 OA
ENDBRANCH  18  19
ENDBRANCH  16  18
ENDBRANCH  13  16
ENDBRANCH  12  13
ENDBRANCH   7  12
ENDBRANCH   3   6
ENDBRANCH   1   2
BRANCH   1  24
ATOM     24  C   UNL A   1      36.976  34.046  30.838  1.00  0.00     0.023 C 
BRANCH  24  25
ATOM     25  C   UNL A   1      36.112  33.485  29.710  1.00  0.00     0.023 C 
BRANCH  25  26
ATOM     26  C   UNL A   1      35.233  32.312  30.119  1.00  0.00     0.116 C 
BRANCH  26  27
ATOM     27  N   UNL A   1      34.436  31.779  29.023  1.00  0.00    -0.352 N 
ATOM     28  C   UNL A   1      34.787  30.789  28.135  1.00  0.00     0.251 C 
ATOM     29  H   UNL A   1      33.542  32.173  28.903  1.00  0.00     0.163 HD
ATOM     30  O   UNL A   1      34.073  30.501  27.184  1.00  0.00    -0.269 OA
BRANCH  28  31
ATOM     31  C   UNL A   1      36.080  30.110  28.337  1.00  0.00     0.039 A 
ATOM     32  C   UNL A   1      37.077  30.245  27.370  1.00  0.00     0.014 A 
ATOM     33  C   UNL A   1      36.331  29.445  29.540  1.00  0.00     0.014 A 
ATOM     34  C   UNL A   1      38.361  29.774  27.645  1.00  0.00     0.010 A 
ATOM     35  C   UNL A   1      37.627  29.054  29.843  1.00  0.00     0.010 A 
ATOM     36  C   UNL A   1      38.657  29.218  28.901  1.00  0.00    -0.014 A 
BRANCH  36  37
ATOM     37  C   UNL A   1      40.030  28.793  29.263  1.00  0.00     0.031 A 
ATOM     38  C   UNL A   1      40.913  29.728  30.039  1.00  0.00     0.074 A 
ATOM     39  C   UNL A   1      40.513  27.617  28.816  1.00  0.00     0.049 A 
ATOM     40  N   UNL A   1      42.182  29.615  30.338  1.00  0.00    -0.248 NA
ATOM     41  C   UNL A   1      40.293  30.975  30.514  1.00  0.00     0.031 C 
ATOM     42  C   UNL A   1      39.764  26.641  28.023  1.00  0.00     0.029 A 
ATOM     43  N   UNL A   1      41.757  27.052  28.949  1.00  0.00    -0.354 N 
ATOM     44  C   UNL A   1      42.513  30.780  31.016  1.00  0.00     0.074 A 
ATOM     45  C   UNL A   1      41.330  31.613  31.034  1.00  0.00     0.031 C 
ATOM     46  C   UNL A   1      40.558  25.591  27.753  1.00  0.00     0.029 A 
ATOM     47  C   UNL A   1      41.885  25.843  28.310  1.00  0.00     0.049 A 
ATOM     48  H   UNL A   1      42.489  27.474  29.455  1.00  0.00     0.167 HD
ATOM     49  C   UNL A   1      43.690  31.114  31.594  1.00  0.00     0.037 A 
ATOM     50  C   UNL A   1      42.957  25.038  28.171  1.00  0.00     0.037 A 
ATOM     51  C   UNL A   1      44.856  30.271  31.590  1.00  0.00     0.049 A 
ATOM     52  C   UNL A   1      44.266  25.448  28.795  1.00  0.00     0.074 A 
ATOM     53  C   UNL A   1      46.081  30.492  32.193  1.00  0.00     0.029 A 
ATOM     54  N   UNL A   1      44.942  29.044  30.946  1.00  0.00    -0.354 N 
ATOM     55  N   UNL A   1      44.552  26.524  29.488  1.00  0.00    -0.248 NA
ATOM     56  C   UNL A   1      45.401  24.533  28.616  1.00  0.00     0.031 C 
ATOM     57  C   UNL A   1      46.927  29.430  31.863  1.00  0.00     0.029 A 
ATOM     58  C   UNL A   1      46.210  28.513  31.113  1.00  0.00     0.049 A 
ATOM     59  H   UNL A   1      44.211  28.617  30.444  1.00  0.00     0.167 HD
ATOM     60  C   UNL A   1      45.883  26.396  29.861  1.00  0.00     0.074 A 
ATOM     61  C   UNL A   1      46.348  25.136  29.322  1.00  0.00     0.031 C 
ATOM     62  C   UNL A   1      46.651  27.245  30.587  1.00  0.00     0.037 A 
BRANCH  49  63
ATOM     63  C   UNL A   1      43.779  32.450  32.272  1.00  0.00     0.064 A 
ATOM     64  C   UNL A   1      43.713  32.575  33.669  1.00  0.00     0.173 A 
ATOM     65  C   UNL A   1      43.962  33.620  31.519  1.00  0.00     0.173 A 
ATOM     66  F   UNL A   1      43.527  31.490  34.437  1.00  0.00    -0.203 F 
ATOM     67  C   UNL A   1      43.795  33.823  34.283  1.00  0.00     0.198 A 
ATOM     68  C   UNL A   1      44.080  34.861  32.139  1.00  0.00     0.198 A 
ATOM     69  F   UNL A   1      44.035  33.558  30.181  1.00  0.00    -0.203 F 
ATOM     70  F   UNL A   1      43.673  33.921  35.614  1.00  0.00    -0.200 F 
ATOM     71  C   UNL A   1      43.987  34.963  33.518  1.00  0.00     0.200 A 
ATOM     72  F   UNL A   1      44.280  35.960  31.399  1.00  0.00    -0.200 F 
ATOM     73  F   UNL A   1      44.074  36.162  34.110  1.00  0.00    -0.200 F 
ENDBRANCH  49  63
BRANCH  50  74
ATOM     74  C   UNL A   1      42.840  23.760  27.419  1.00  0.00     0.064 A 
ATOM     75  C   UNL A   1      42.395  22.591  28.052  1.00  0.00     0.173 A 
ATOM     76  C   UNL A   1      43.183  23.674  26.062  1.00  0.00     0.173 A 
ATOM     77  F   UNL A   1      42.074  22.615  29.354  1.00  0.00    -0.203 F 
ATOM     78  C   UNL A   1      42.323  21.381  27.365  1.00  0.00     0.198 A 
ATOM     79  C   UNL A   1      43.079  22.471  25.367  1.00  0.00     0.198 A 
ATOM     80  F   UNL A   1      43.610  24.763  25.406  1.00  0.00    -0.203 F 
ATOM     81  F   UNL A   1      41.947  20.268  28.009  1.00  0.00    -0.200 F 
ATOM     82  C   UNL A   1      42.660  21.322  26.021  1.00  0.00     0.200 A 
ATOM     83  F   UNL A   1      43.391  22.423  24.064  1.00  0.00    -0.200 F 
ATOM     84  F   UNL A   1      42.589  20.160  25.359  1.00  0.00    -0.200 F 
ENDBRANCH  50  74
BRANCH  62  85
ATOM     85  C   UNL A   1      48.059  26.825  30.893  1.00  0.00     0.064 A 
ATOM     86  C   UNL A   1      48.361  25.962  31.956  1.00  0.00     0.173 A 
ATOM     87  C   UNL A   1      49.115  27.240  30.064  1.00  0.00     0.173 A 
ATOM     88  F   UNL A   1      47.392  25.548  32.786  1.00  0.00    -0.203 F 
ATOM     89  C   UNL A   1      49.669  25.541  32.186  1.00  0.00     0.198 A 
ATOM     90  C   UNL A   1      50.414  26.791  30.277  1.00  0.00     0.198 A 
ATOM     91  F   UNL A   1      48.878  28.060  29.029  1.00  0.00    -0.203 F 
ATOM     92  F   UNL A   1      49.941  24.749  33.232  1.00  0.00    -0.200 F 
ATOM     93  C   UNL A   1      50.692  25.947  31.341  1.00  0.00     0.200 A 
ATOM     94  F   UNL A   1      51.396  27.169  29.448  1.00  0.00    -0.200 F 
ATOM     95  F   UNL A   1      51.946  25.526  31.555  1.00  0.00    -0.200 F 
ENDBRANCH  62  85
ENDBRANCH  36  37
ENDBRANCH  28  31
ENDBRANCH  26  27
ENDBRANCH  25  26
ENDBRANCH  24  25
ENDBRANCH   1  24
TORSDOF 16
ENDMDL
MODEL 3
REMARK VINA RESULT:     -11.0      4.504      7.320
REMARK SMILES CC1(CNS(=O)(=O)Cc2ccc(C(=O)NCCCCNC(=O)c3ccc(-c4c5nc(c(-c6c(F)c(F)c(F)c(F)c6F)c6ccc([nH]6)c(-c6c(F)c(F)c(F)c(F)c6F)c6nc(c(-c7c(F)c(F)c(F)c(F)c7F)c7ccc4[nH]7)C=C6)C=C5)cc3)cc2)COC1
REMARK SMILES IDX 16 1 15 2 13 3 14 4 12 6 9 7 10 8 87 9 11 10 86 11 8 12 5 13
REMARK SMILES IDX 6 14 7 15 4 16 3 18 2 19 1 20 88 21 90 22 89 23 17 24 18 25
REMARK SMILES IDX 19 26 20 27 21 28 22 30 23 31 24 32 85 33 25 34 84 35 26 36
REMARK SMILES IDX 27 37 28 38 78 39 29 40 83 41 77 42 79 43 30 44 82 45 76 46
REMARK SMILES IDX 75 47 31 49 63 50 43 51 62 52 44 53 47 54 61 55 80 56 45 57
REMARK SMILES IDX 46 58 60 60 81 61 48 62 32 63 33 64 41 65 34 66 35 67 39 68
REMARK SMILES IDX 42 69 36 70 37 71 40 72 38 73 64 74 65 75 73 76 66 77 67 78
REMARK SMILES IDX 71 79 74 80 68 81 69 82 72 83 70 84 49 85 50 86 58 87 51 88
REMARK SMILES IDX 52 89 56 90 59 91 53 92 54 93 57 94 55 95
REMARK H PARENT 15 5 4 17 20 29 79 48 47 59
REMARK Flexibility Score: inf
ROOT
ATOM      1  C   UNL A   1      34.579  32.731  27.826  1.00  0.00     0.116 C 
ENDROOT
BRANCH   1   2
ATOM      2  N   UNL A   1      35.198  31.503  28.284  1.00  0.00    -0.352 N 
ATOM      3  C   UNL A   1      34.965  30.190  27.958  1.00  0.00     0.251 C 
ATOM      4  O   UNL A   1      35.662  29.331  28.498  1.00  0.00    -0.269 OA
ATOM      5  H   UNL A   1      35.914  31.634  28.948  1.00  0.00     0.163 HD
BRANCH   3   6
ATOM      6  C   UNL A   1      33.962  29.778  26.937  1.00  0.00     0.039 A 
ATOM      7  C   UNL A   1      31.899  29.070  25.144  1.00  0.00    -0.032 A 
ATOM      8  C   UNL A   1      31.857  30.291  25.828  1.00  0.00     0.005 A 
ATOM      9  C   UNL A   1      33.002  28.232  25.333  1.00  0.00     0.005 A 
ATOM     10  C   UNL A   1      32.879  30.640  26.718  1.00  0.00     0.014 A 
ATOM     11  C   UNL A   1      34.040  28.605  26.187  1.00  0.00     0.014 A 
BRANCH   7  12
ATOM     12  C   UNL A   1      30.776  28.647  24.235  1.00  0.00     0.189 C 
BRANCH  12  13
ATOM     13  S   UNL A   1      31.310  28.595  22.516  1.00  0.00     0.215 S 
ATOM     14  O   UNL A   1      30.904  27.325  21.949  1.00  0.00    -0.212 OA
ATOM     15  O   UNL A   1      32.683  29.036  22.408  1.00  0.00    -0.212 OA
BRANCH  13  16
ATOM     16  N   UNL A   1      30.382  29.786  21.767  1.00  0.00    -0.214 NA
ATOM     17  H   UNL A   1      30.949  30.192  21.022  1.00  0.00     0.141 HD
BRANCH  16  18
ATOM     18  C   UNL A   1      29.898  30.895  22.609  1.00  0.00     0.110 C 
BRANCH  18  19
ATOM     19  C   UNL A   1      28.424  31.210  22.356  1.00  0.00     0.028 C 
ATOM     20  C   UNL A   1      27.474  30.693  23.427  1.00  0.00     0.018 C 
ATOM     21  C   UNL A   1      28.004  30.827  20.923  1.00  0.00     0.170 C 
ATOM     22  C   UNL A   1      28.176  32.649  21.862  1.00  0.00     0.170 C 
ATOM     23  O   UNL A   1      28.173  32.198  20.481  1.00  0.00    -0.380 OA
ENDBRANCH  18  19
ENDBRANCH  16  18
ENDBRANCH  13  16
ENDBRANCH  12  13
ENDBRANCH   7  12
ENDBRANCH   3   6
ENDBRANCH   1   2
BRANCH   1  24
ATOM     24  C   UNL A   1      35.368  33.943  28.329  1.00  0.00     0.023 C 
BRANCH  24  25
ATOM     25  C   UNL A   1      34.492  35.032  28.946  1.00  0.00     0.023 C 
BRANCH  25  26
ATOM     26  C   UNL A   1      33.203  34.520  29.572  1.00  0.00     0.116 C 
BRANCH  26  27
ATOM     27  N   UNL A   1      32.543  35.503  30.419  1.00  0.00    -0.352 N 
ATOM     28  C   UNL A   1      32.804  35.780  31.742  1.00  0.00     0.251 C 
ATOM     29  H   UNL A   1      31.827  36.032  29.998  1.00  0.00     0.163 HD
ATOM     30  O   UNL A   1      32.106  36.555  32.381  1.00  0.00    -0.269 OA
BRANCH  28  31
ATOM     31  C   UNL A   1      33.930  35.076  32.383  1.00  0.00     0.039 A 
ATOM     32  C   UNL A   1      33.729  33.789  32.883  1.00  0.00     0.014 A 
ATOM     33  C   UNL A   1      35.201  35.654  32.374  1.00  0.00     0.014 A 
ATOM     34  C   UNL A   1      34.830  33.044  33.309  1.00  0.00     0.010 A 
ATOM     35  C   UNL A   1      36.302  34.882  32.718  1.00  0.00     0.010 A 
ATOM     36  C   UNL A   1      36.128  33.568  33.186  1.00  0.00    -0.014 A 
BRANCH  36  37
ATOM     37  C   UNL A   1      37.328  32.772  33.539  1.00  0.00     0.031 A 
ATOM     38  C   UNL A   1      38.062  33.068  34.815  1.00  0.00     0.074 A 
ATOM     39  C   UNL A   1      37.809  31.857  32.675  1.00  0.00     0.049 A 
ATOM     40  N   UNL A   1      39.203  32.592  35.246  1.00  0.00    -0.248 NA
ATOM     41  C   UNL A   1      37.447  34.058  35.713  1.00  0.00     0.031 C 
ATOM     42  C   UNL A   1      37.205  31.507  31.388  1.00  0.00     0.029 A 
ATOM     43  N   UNL A   1      38.930  31.067  32.741  1.00  0.00    -0.354 N 
ATOM     44  C   UNL A   1      39.447  33.238  36.450  1.00  0.00     0.074 A 
ATOM     45  C   UNL A   1      38.370  34.182  36.654  1.00  0.00     0.031 C 
ATOM     46  C   UNL A   1      37.953  30.563  30.794  1.00  0.00     0.029 A 
ATOM     47  C   UNL A   1      39.114  30.277  31.631  1.00  0.00     0.049 A 
ATOM     48  H   UNL A   1      39.544  31.066  33.510  1.00  0.00     0.167 HD
ATOM     49  C   UNL A   1      40.467  33.044  37.319  1.00  0.00     0.037 A 
ATOM     50  C   UNL A   1      40.118  29.435  31.318  1.00  0.00     0.037 A 
ATOM     51  C   UNL A   1      41.523  32.088  37.120  1.00  0.00     0.049 A 
ATOM     52  C   UNL A   1      41.258  29.260  32.287  1.00  0.00     0.074 A 
ATOM     53  C   UNL A   1      42.573  31.774  37.965  1.00  0.00     0.029 A 
ATOM     54  N   UNL A   1      41.667  31.293  35.990  1.00  0.00    -0.354 N 
ATOM     55  N   UNL A   1      41.449  29.829  33.453  1.00  0.00    -0.248 NA
ATOM     56  C   UNL A   1      42.323  28.326  31.897  1.00  0.00     0.031 C 
ATOM     57  C   UNL A   1      43.385  30.837  37.321  1.00  0.00     0.029 A 
ATOM     58  C   UNL A   1      42.805  30.513  36.105  1.00  0.00     0.049 A 
ATOM     59  H   UNL A   1      41.052  31.287  35.222  1.00  0.00     0.167 HD
ATOM     60  C   UNL A   1      42.630  29.295  33.950  1.00  0.00     0.074 A 
ATOM     61  C   UNL A   1      43.110  28.352  32.964  1.00  0.00     0.031 C 
ATOM     62  C   UNL A   1      43.259  29.561  35.122  1.00  0.00     0.037 A 
BRANCH  49  63
ATOM     63  C   UNL A   1      40.492  33.885  38.563  1.00  0.00     0.064 A 
ATOM     64  C   UNL A   1      41.190  35.101  38.618  1.00  0.00     0.173 A 
ATOM     65  C   UNL A   1      39.783  33.485  39.706  1.00  0.00     0.173 A 
ATOM     66  F   UNL A   1      41.894  35.526  37.557  1.00  0.00    -0.203 F 
ATOM     67  C   UNL A   1      41.204  35.869  39.780  1.00  0.00     0.198 A 
ATOM     68  C   UNL A   1      39.771  34.273  40.854  1.00  0.00     0.198 A 
ATOM     69  F   UNL A   1      39.096  32.333  39.708  1.00  0.00    -0.203 F 
ATOM     70  F   UNL A   1      41.925  36.998  39.825  1.00  0.00    -0.200 F 
ATOM     71  C   UNL A   1      40.488  35.458  40.894  1.00  0.00     0.200 A 
ATOM     72  F   UNL A   1      39.065  33.882  41.924  1.00  0.00    -0.200 F 
ATOM     73  F   UNL A   1      40.496  36.201  42.008  1.00  0.00    -0.200 F 
ENDBRANCH  49  63
BRANCH  50  74
ATOM     74  C   UNL A   1      40.088  28.682  30.035  1.00  0.00     0.064 A 
ATOM     75  C   UNL A   1      39.489  27.417  29.955  1.00  0.00     0.173 A 
ATOM     76  C   UNL A   1      40.669  29.201  28.867  1.00  0.00     0.173 A 
ATOM     77  F   UNL A   1      38.937  26.868  31.048  1.00  0.00    -0.203 F 
ATOM     78  C   UNL A   1      39.495  26.689  28.767  1.00  0.00     0.198 A 
ATOM     79  C   UNL A   1      40.645  28.486  27.671  1.00  0.00     0.198 A 
ATOM     80  F   UNL A   1      41.251  30.408  28.886  1.00  0.00    -0.203 F 
ATOM     81  F   UNL A   1      38.963  25.459  28.735  1.00  0.00    -0.200 F 
ATOM     82  C   UNL A   1      40.067  27.226  27.624  1.00  0.00     0.200 A 
ATOM     83  F   UNL A   1      41.186  29.016  26.566  1.00  0.00    -0.200 F 
ATOM     84  F   UNL A   1      40.072  26.527  26.482  1.00  0.00    -0.200 F 
ENDBRANCH  50  74
BRANCH  62  85
ATOM     85  C   UNL A   1      44.506  28.788  35.436  1.00  0.00     0.064 A 
ATOM     86  C   UNL A   1      45.783  29.290  35.146  1.00  0.00     0.173 A 
ATOM     87  C   UNL A   1      44.421  27.553  36.100  1.00  0.00     0.173 A 
ATOM     88  F   UNL A   1      45.919  30.457  34.500  1.00  0.00    -0.203 F 
ATOM     89  C   UNL A   1      46.928  28.578  35.497  1.00  0.00     0.198 A 
ATOM     90  C   UNL A   1      45.567  26.862  36.479  1.00  0.00     0.198 A 
ATOM     91  F   UNL A   1      43.223  27.032  36.406  1.00  0.00    -0.203 F 
ATOM     92  F   UNL A   1      48.137  29.058  35.175  1.00  0.00    -0.200 F 
ATOM     93  C   UNL A   1      46.819  27.371  36.173  1.00  0.00     0.200 A 
ATOM     94  F   UNL A   1      45.460  25.706  37.148  1.00  0.00    -0.200 F 
ATOM     95  F   UNL A   1      47.923  26.698  36.525  1.00  0.00    -0.200 F 
ENDBRANCH  62  85
ENDBRANCH  36  37
ENDBRANCH  28  31
ENDBRANCH  26  27
ENDBRANCH  25  26
ENDBRANCH  24  25
ENDBRANCH   1  24
TORSDOF 16
ENDMDL
