MODEL 1
REMARK VINA RESULT:     -11.1      0.000      0.000
REMARK SMILES C#CCN(CC(=O)NCCCCNC(=O)c1ccc(-c2c3nc(c(-c4c(F)c(F)c(F)c(F)c4F)c4ccc([nH]4)c(-c4c(F)c(F)c(F)c(F)c4F)c4nc(c(-c5c(F)c(F)c(F)c(F)c5F)c5ccc2[nH]5)C=C4)C=C3)cc1)C(=O)NCCc1ccco1
REMARK SMILES IDX 9 1 8 2 6 3 7 4 5 6 4 7 3 8 2 9 1 10 79 11 80 12 81 13 82 15
REMARK SMILES IDX 83 16 84 17 85 18 88 19 86 20 87 21 10 22 11 23 12 24 13 25
REMARK SMILES IDX 14 26 15 28 16 29 17 30 78 31 18 32 77 33 19 34 20 35 21 36
REMARK SMILES IDX 71 37 22 38 76 39 70 40 72 41 23 42 75 43 69 44 68 45 24 47
REMARK SMILES IDX 56 48 36 49 55 50 37 51 40 52 54 53 73 54 38 55 39 56 53 58
REMARK SMILES IDX 74 59 41 60 25 61 26 62 34 63 27 64 28 65 32 66 35 67 29 68
REMARK SMILES IDX 30 69 33 70 31 71 57 72 58 73 66 74 59 75 60 76 64 77 67 78
REMARK SMILES IDX 61 79 62 80 65 81 63 82 42 83 43 84 51 85 44 86 45 87 49 88
REMARK SMILES IDX 52 89 46 90 47 91 50 92 48 93
REMARK H PARENT 8 5 81 14 13 27 72 46 40 57
REMARK Flexibility Score: inf
ROOT
ATOM      1  C   UNL A   1      33.125  30.007  26.241  1.00  0.00     0.116 C 
ENDROOT
BRANCH   1   2
ATOM      2  N   UNL A   1      33.717  29.494  25.027  1.00  0.00    -0.355 N 
ATOM      3  C   UNL A   1      33.930  28.200  24.649  1.00  0.00     0.239 C 
ATOM      4  O   UNL A   1      34.156  27.995  23.451  1.00  0.00    -0.273 OA
ATOM      5  H   UNL A   1      34.010  30.175  24.380  1.00  0.00     0.163 HD
BRANCH   3   6
ATOM      6  C   UNL A   1      33.749  27.023  25.623  1.00  0.00     0.222 C 
BRANCH   6   7
ATOM      7  N   UNL A   1      32.479  26.315  25.507  1.00  0.00    -0.304 N 
BRANCH   7   8
ATOM      8  C   UNL A   1      32.559  24.916  25.091  1.00  0.00     0.211 C 
BRANCH   8   9
ATOM      9  C   UNL A   1      33.747  24.190  25.699  1.00  0.00    -0.085 C 
ATOM     10  C   UNL A   1      34.767  23.566  26.220  1.00  0.00     0.006 C 
ENDBRANCH   8   9
ENDBRANCH   7   8
BRANCH   7  11
ATOM     11  C   UNL A   1      31.225  26.814  25.730  1.00  0.00     0.318 C 
ATOM     12  O   UNL A   1      30.769  26.906  26.875  1.00  0.00    -0.249 OA
ATOM     13  N   UNL A   1      30.387  27.212  24.762  1.00  0.00    -0.337 N 
ATOM     14  H   UNL A   1      29.525  27.496  25.145  1.00  0.00     0.165 HD
BRANCH  13  15
ATOM     15  C   UNL A   1      30.372  27.351  23.310  1.00  0.00     0.125 C 
BRANCH  15  16
ATOM     16  C   UNL A   1      30.800  28.752  22.865  1.00  0.00     0.096 C 
BRANCH  16  17
ATOM     17  C   UNL A   1      29.626  29.624  22.589  1.00  0.00     0.105 A 
ATOM     18  C   UNL A   1      28.725  30.269  23.410  1.00  0.00     0.045 A 
ATOM     19  O   UNL A   1      29.328  29.867  21.282  1.00  0.00    -0.469 OA
ATOM     20  C   UNL A   1      27.822  30.944  22.554  1.00  0.00     0.042 A 
ATOM     21  C   UNL A   1      28.233  30.670  21.272  1.00  0.00     0.195 A 
ENDBRANCH  16  17
ENDBRANCH  15  16
ENDBRANCH  13  15
ENDBRANCH   7  11
ENDBRANCH   6   7
ENDBRANCH   3   6
ENDBRANCH   1   2
BRANCH   1  22
ATOM     22  C   UNL A   1      31.790  30.714  26.015  1.00  0.00     0.023 C 
BRANCH  22  23
ATOM     23  C   UNL A   1      31.498  31.884  26.950  1.00  0.00     0.023 C 
BRANCH  23  24
ATOM     24  C   UNL A   1      32.695  32.759  27.298  1.00  0.00     0.116 C 
BRANCH  24  25
ATOM     25  N   UNL A   1      32.344  34.135  27.614  1.00  0.00    -0.352 N 
ATOM     26  C   UNL A   1      32.938  34.983  28.517  1.00  0.00     0.251 C 
ATOM     27  H   UNL A   1      31.581  34.507  27.115  1.00  0.00     0.163 HD
ATOM     28  O   UNL A   1      32.476  36.102  28.717  1.00  0.00    -0.269 OA
BRANCH  26  29
ATOM     29  C   UNL A   1      34.111  34.518  29.283  1.00  0.00     0.039 A 
ATOM     30  C   UNL A   1      33.904  33.942  30.540  1.00  0.00     0.014 A 
ATOM     31  C   UNL A   1      35.399  34.607  28.750  1.00  0.00     0.014 A 
ATOM     32  C   UNL A   1      34.982  33.389  31.231  1.00  0.00     0.010 A 
ATOM     33  C   UNL A   1      36.460  33.992  29.407  1.00  0.00     0.010 A 
ATOM     34  C   UNL A   1      36.262  33.375  30.651  1.00  0.00    -0.014 A 
BRANCH  34  35
ATOM     35  C   UNL A   1      37.403  32.711  31.326  1.00  0.00     0.031 A 
ATOM     36  C   UNL A   1      38.094  31.550  30.669  1.00  0.00     0.074 A 
ATOM     37  C   UNL A   1      37.769  33.107  32.560  1.00  0.00     0.049 A 
ATOM     38  N   UNL A   1      39.056  30.790  31.129  1.00  0.00    -0.248 NA
ATOM     39  C   UNL A   1      37.620  31.173  29.328  1.00  0.00     0.031 C 
ATOM     40  C   UNL A   1      37.140  34.187  33.323  1.00  0.00     0.029 A 
ATOM     41  N   UNL A   1      38.750  32.638  33.396  1.00  0.00    -0.354 N 
ATOM     42  C   UNL A   1      39.290  29.841  30.144  1.00  0.00     0.074 A 
ATOM     43  C   UNL A   1      38.337  30.086  29.083  1.00  0.00     0.031 C 
ATOM     44  C   UNL A   1      37.763  34.310  34.506  1.00  0.00     0.029 A 
ATOM     45  C   UNL A   1      38.811  33.298  34.599  1.00  0.00     0.049 A 
ATOM     46  H   UNL A   1      39.355  31.899  33.157  1.00  0.00     0.167 HD
ATOM     47  C   UNL A   1      40.231  28.868  30.118  1.00  0.00     0.037 A 
ATOM     48  C   UNL A   1      39.617  33.104  35.660  1.00  0.00     0.037 A 
ATOM     49  C   UNL A   1      41.197  28.647  31.161  1.00  0.00     0.049 A 
ATOM     50  C   UNL A   1      40.660  32.020  35.599  1.00  0.00     0.074 A 
ATOM     51  C   UNL A   1      42.232  27.728  31.199  1.00  0.00     0.029 A 
ATOM     52  N   UNL A   1      41.247  29.355  32.352  1.00  0.00    -0.354 N 
ATOM     53  N   UNL A   1      40.919  31.173  34.633  1.00  0.00    -0.248 NA
ATOM     54  C   UNL A   1      41.529  31.872  36.776  1.00  0.00     0.031 C 
ATOM     55  C   UNL A   1      42.885  27.855  32.430  1.00  0.00     0.029 A 
ATOM     56  C   UNL A   1      42.284  28.883  33.140  1.00  0.00     0.049 A 
ATOM     57  H   UNL A   1      40.636  30.086  32.601  1.00  0.00     0.167 HD
ATOM     58  C   UNL A   1      41.994  30.413  35.070  1.00  0.00     0.074 A 
ATOM     59  C   UNL A   1      42.348  30.907  36.385  1.00  0.00     0.031 C 
ATOM     60  C   UNL A   1      42.630  29.394  34.441  1.00  0.00     0.037 A 
BRANCH  47  61
ATOM     61  C   UNL A   1      40.267  27.970  28.916  1.00  0.00     0.064 A 
ATOM     62  C   UNL A   1      41.002  28.306  27.770  1.00  0.00     0.173 A 
ATOM     63  C   UNL A   1      39.591  26.740  28.925  1.00  0.00     0.173 A 
ATOM     64  F   UNL A   1      41.656  29.476  27.707  1.00  0.00    -0.203 F 
ATOM     65  C   UNL A   1      41.039  27.457  26.667  1.00  0.00     0.198 A 
ATOM     66  C   UNL A   1      39.653  25.881  27.831  1.00  0.00     0.198 A 
ATOM     67  F   UNL A   1      38.876  26.368  29.998  1.00  0.00    -0.203 F 
ATOM     68  F   UNL A   1      41.711  27.821  25.566  1.00  0.00    -0.200 F 
ATOM     69  C   UNL A   1      40.371  26.243  26.701  1.00  0.00     0.200 A 
ATOM     70  F   UNL A   1      39.016  24.702  27.870  1.00  0.00    -0.200 F 
ATOM     71  F   UNL A   1      40.414  25.423  25.642  1.00  0.00    -0.200 F 
ENDBRANCH  47  61
BRANCH  48  72
ATOM     72  C   UNL A   1      39.490  33.970  36.859  1.00  0.00     0.064 A 
ATOM     73  C   UNL A   1      40.141  35.208  36.923  1.00  0.00     0.173 A 
ATOM     74  C   UNL A   1      38.724  33.577  37.968  1.00  0.00     0.173 A 
ATOM     75  F   UNL A   1      40.903  35.617  35.897  1.00  0.00    -0.203 F 
ATOM     76  C   UNL A   1      40.052  36.012  38.059  1.00  0.00     0.198 A 
ATOM     77  C   UNL A   1      38.613  34.393  39.091  1.00  0.00     0.198 A 
ATOM     78  F   UNL A   1      38.077  32.402  37.955  1.00  0.00    -0.203 F 
ATOM     79  F   UNL A   1      40.725  37.170  38.111  1.00  0.00    -0.200 F 
ATOM     80  C   UNL A   1      39.284  35.606  39.139  1.00  0.00     0.200 A 
ATOM     81  F   UNL A   1      37.861  34.003  40.128  1.00  0.00    -0.200 F 
ATOM     82  F   UNL A   1      39.197  36.379  40.230  1.00  0.00    -0.200 F 
ENDBRANCH  48  72
BRANCH  60  83
ATOM     83  C   UNL A   1      43.795  28.770  35.149  1.00  0.00     0.064 A 
ATOM     84  C   UNL A   1      43.628  27.703  36.042  1.00  0.00     0.173 A 
ATOM     85  C   UNL A   1      45.101  29.221  34.899  1.00  0.00     0.173 A 
ATOM     86  F   UNL A   1      42.399  27.246  36.326  1.00  0.00    -0.203 F 
ATOM     87  C   UNL A   1      44.723  27.124  36.678  1.00  0.00     0.198 A 
ATOM     88  C   UNL A   1      46.195  28.622  35.514  1.00  0.00     0.198 A 
ATOM     89  F   UNL A   1      45.314  30.236  34.048  1.00  0.00    -0.203 F 
ATOM     90  F   UNL A   1      44.537  26.134  37.562  1.00  0.00    -0.200 F 
ATOM     91  C   UNL A   1      46.006  27.578  36.408  1.00  0.00     0.200 A 
ATOM     92  F   UNL A   1      47.434  29.054  35.242  1.00  0.00    -0.200 F 
ATOM     93  F   UNL A   1      47.059  27.016  37.015  1.00  0.00    -0.200 F 
ENDBRANCH  60  83
ENDBRANCH  34  35
ENDBRANCH  26  29
ENDBRANCH  24  25
ENDBRANCH  23  24
ENDBRANCH  22  23
ENDBRANCH   1  22
TORSDOF 18
ENDMDL
MODEL 2
REMARK VINA RESULT:     -11.1      1.410      2.986
REMARK SMILES C#CCN(CC(=O)NCCCCNC(=O)c1ccc(-c2c3nc(c(-c4c(F)c(F)c(F)c(F)c4F)c4ccc([nH]4)c(-c4c(F)c(F)c(F)c(F)c4F)c4nc(c(-c5c(F)c(F)c(F)c(F)c5F)c5ccc2[nH]5)C=C4)C=C3)cc1)C(=O)NCCc1ccco1
REMARK SMILES IDX 9 1 8 2 6 3 7 4 5 6 4 7 3 8 2 9 1 10 79 11 80 12 81 13 82 15
REMARK SMILES IDX 83 16 84 17 85 18 88 19 86 20 87 21 10 22 11 23 12 24 13 25
REMARK SMILES IDX 14 26 15 28 16 29 17 30 78 31 18 32 77 33 19 34 20 35 21 36
REMARK SMILES IDX 71 37 22 38 76 39 70 40 72 41 23 42 75 43 69 44 68 45 24 47
REMARK SMILES IDX 56 48 36 49 55 50 37 51 40 52 54 53 73 54 38 55 39 56 53 58
REMARK SMILES IDX 74 59 41 60 25 61 26 62 34 63 27 64 28 65 32 66 35 67 29 68
REMARK SMILES IDX 30 69 33 70 31 71 57 72 58 73 66 74 59 75 60 76 64 77 67 78
REMARK SMILES IDX 61 79 62 80 65 81 63 82 42 83 43 84 51 85 44 86 45 87 49 88
REMARK SMILES IDX 52 89 46 90 47 91 50 92 48 93
REMARK H PARENT 8 5 81 14 13 27 72 46 40 57
REMARK Flexibility Score: inf
ROOT
ATOM      1  C   UNL A   1      31.749  29.671  25.381  1.00  0.00     0.116 C 
ENDROOT
BRANCH   1   2
ATOM      2  N   UNL A   1      32.935  29.691  24.557  1.00  0.00    -0.355 N 
ATOM      3  C   UNL A   1      33.475  28.697  23.794  1.00  0.00     0.239 C 
ATOM      4  O   UNL A   1      34.302  29.031  22.939  1.00  0.00    -0.273 OA
ATOM      5  H   UNL A   1      33.425  30.545  24.544  1.00  0.00     0.163 HD
BRANCH   3   6
ATOM      6  C   UNL A   1      32.978  27.243  23.875  1.00  0.00     0.222 C 
BRANCH   6   7
ATOM      7  N   UNL A   1      32.280  26.762  22.688  1.00  0.00    -0.304 N 
BRANCH   7   8
ATOM      8  C   UNL A   1      31.008  27.412  22.384  1.00  0.00     0.211 C 
BRANCH   8   9
ATOM      9  C   UNL A   1      29.872  26.924  23.268  1.00  0.00    -0.085 C 
ATOM     10  C   UNL A   1      28.897  26.505  24.026  1.00  0.00     0.006 C 
ENDBRANCH   8   9
ENDBRANCH   7   8
BRANCH   7  11
ATOM     11  C   UNL A   1      32.675  25.765  21.838  1.00  0.00     0.318 C 
ATOM     12  O   UNL A   1      33.234  26.024  20.767  1.00  0.00    -0.249 OA
ATOM     13  N   UNL A   1      32.477  24.458  22.063  1.00  0.00    -0.337 N 
ATOM     14  H   UNL A   1      32.802  23.924  21.303  1.00  0.00     0.165 HD
BRANCH  13  15
ATOM     15  C   UNL A   1      31.923  23.593  23.098  1.00  0.00     0.125 C 
BRANCH  15  16
ATOM     16  C   UNL A   1      32.630  22.236  23.148  1.00  0.00     0.096 C 
BRANCH  16  17
ATOM     17  C   UNL A   1      34.055  22.372  23.549  1.00  0.00     0.105 A 
ATOM     18  C   UNL A   1      34.775  21.899  24.627  1.00  0.00     0.045 A 
ATOM     19  O   UNL A   1      34.863  23.104  22.730  1.00  0.00    -0.469 OA
ATOM     20  C   UNL A   1      36.098  22.370  24.458  1.00  0.00     0.042 A 
ATOM     21  C   UNL A   1      36.101  23.094  23.290  1.00  0.00     0.195 A 
ENDBRANCH  16  17
ENDBRANCH  15  16
ENDBRANCH  13  15
ENDBRANCH   7  11
ENDBRANCH   6   7
ENDBRANCH   3   6
ENDBRANCH   1   2
BRANCH   1  22
ATOM     22  C   UNL A   1      31.930  30.373  26.725  1.00  0.00     0.023 C 
BRANCH  22  23
ATOM     23  C   UNL A   1      31.660  31.875  26.724  1.00  0.00     0.023 C 
BRANCH  23  24
ATOM     24  C   UNL A   1      32.803  32.746  27.228  1.00  0.00     0.116 C 
BRANCH  24  25
ATOM     25  N   UNL A   1      32.397  34.094  27.594  1.00  0.00    -0.352 N 
ATOM     26  C   UNL A   1      32.944  34.924  28.543  1.00  0.00     0.251 C 
ATOM     27  H   UNL A   1      31.630  34.460  27.097  1.00  0.00     0.163 HD
ATOM     28  O   UNL A   1      32.438  36.017  28.781  1.00  0.00    -0.269 OA
BRANCH  26  29
ATOM     29  C   UNL A   1      34.119  34.469  29.311  1.00  0.00     0.039 A 
ATOM     30  C   UNL A   1      33.913  33.849  30.547  1.00  0.00     0.014 A 
ATOM     31  C   UNL A   1      35.412  34.611  28.799  1.00  0.00     0.014 A 
ATOM     32  C   UNL A   1      34.997  33.306  31.235  1.00  0.00     0.010 A 
ATOM     33  C   UNL A   1      36.482  34.007  29.452  1.00  0.00     0.010 A 
ATOM     34  C   UNL A   1      36.284  33.346  30.673  1.00  0.00    -0.014 A 
BRANCH  34  35
ATOM     35  C   UNL A   1      37.436  32.695  31.344  1.00  0.00     0.031 A 
ATOM     36  C   UNL A   1      38.142  31.547  30.681  1.00  0.00     0.074 A 
ATOM     37  C   UNL A   1      37.798  33.090  32.580  1.00  0.00     0.049 A 
ATOM     38  N   UNL A   1      39.115  30.798  31.135  1.00  0.00    -0.248 NA
ATOM     39  C   UNL A   1      37.672  31.170  29.338  1.00  0.00     0.031 C 
ATOM     40  C   UNL A   1      37.154  34.157  33.348  1.00  0.00     0.029 A 
ATOM     41  N   UNL A   1      38.786  32.629  33.413  1.00  0.00    -0.354 N 
ATOM     42  C   UNL A   1      39.361  29.857  30.146  1.00  0.00     0.074 A 
ATOM     43  C   UNL A   1      38.403  30.094  29.087  1.00  0.00     0.031 C 
ATOM     44  C   UNL A   1      37.777  34.283  34.532  1.00  0.00     0.029 A 
ATOM     45  C   UNL A   1      38.839  33.284  34.619  1.00  0.00     0.049 A 
ATOM     46  H   UNL A   1      39.400  31.900  33.168  1.00  0.00     0.167 HD
ATOM     47  C   UNL A   1      40.315  28.897  30.113  1.00  0.00     0.037 A 
ATOM     48  C   UNL A   1      39.649  33.096  35.678  1.00  0.00     0.037 A 
ATOM     49  C   UNL A   1      41.285  28.684  31.154  1.00  0.00     0.049 A 
ATOM     50  C   UNL A   1      40.706  32.027  35.611  1.00  0.00     0.074 A 
ATOM     51  C   UNL A   1      42.333  27.780  31.187  1.00  0.00     0.029 A 
ATOM     52  N   UNL A   1      41.326  29.387  32.349  1.00  0.00    -0.354 N 
ATOM     53  N   UNL A   1      40.976  31.189  34.639  1.00  0.00    -0.248 NA
ATOM     54  C   UNL A   1      41.579  31.885  36.785  1.00  0.00     0.031 C 
ATOM     55  C   UNL A   1      42.985  27.909  32.417  1.00  0.00     0.029 A 
ATOM     56  C   UNL A   1      42.371  28.925  33.133  1.00  0.00     0.049 A 
ATOM     57  H   UNL A   1      40.705  30.108  32.602  1.00  0.00     0.167 HD
ATOM     58  C   UNL A   1      42.062  30.441  35.072  1.00  0.00     0.074 A 
ATOM     59  C   UNL A   1      42.411  30.933  36.389  1.00  0.00     0.031 C 
ATOM     60  C   UNL A   1      42.711  29.434  34.437  1.00  0.00     0.037 A 
BRANCH  47  61
ATOM     61  C   UNL A   1      40.362  28.006  28.907  1.00  0.00     0.064 A 
ATOM     62  C   UNL A   1      41.121  28.341  27.776  1.00  0.00     0.173 A 
ATOM     63  C   UNL A   1      39.673  26.784  28.897  1.00  0.00     0.173 A 
ATOM     64  F   UNL A   1      41.787  29.505  27.731  1.00  0.00    -0.203 F 
ATOM     65  C   UNL A   1      41.167  27.498  26.669  1.00  0.00     0.198 A 
ATOM     66  C   UNL A   1      39.745  25.930  27.799  1.00  0.00     0.198 A 
ATOM     67  F   UNL A   1      38.935  26.413  29.955  1.00  0.00    -0.203 F 
ATOM     68  F   UNL A   1      41.862  27.861  25.581  1.00  0.00    -0.200 F 
ATOM     69  C   UNL A   1      40.485  26.291  26.684  1.00  0.00     0.200 A 
ATOM     70  F   UNL A   1      39.095  24.758  27.820  1.00  0.00    -0.200 F 
ATOM     71  F   UNL A   1      40.538  25.477  25.621  1.00  0.00    -0.200 F 
ENDBRANCH  47  61
BRANCH  48  72
ATOM     72  C   UNL A   1      39.511  33.954  36.882  1.00  0.00     0.064 A 
ATOM     73  C   UNL A   1      40.141  35.203  36.949  1.00  0.00     0.173 A 
ATOM     74  C   UNL A   1      38.756  33.543  37.991  1.00  0.00     0.173 A 
ATOM     75  F   UNL A   1      40.892  35.630  35.923  1.00  0.00    -0.203 F 
ATOM     76  C   UNL A   1      40.042  36.000  38.089  1.00  0.00     0.198 A 
ATOM     77  C   UNL A   1      38.635  34.352  39.118  1.00  0.00     0.198 A 
ATOM     78  F   UNL A   1      38.130  32.357  37.975  1.00  0.00    -0.203 F 
ATOM     79  F   UNL A   1      40.695  37.169  38.144  1.00  0.00    -0.200 F 
ATOM     80  C   UNL A   1      39.285  35.576  39.170  1.00  0.00     0.200 A 
ATOM     81  F   UNL A   1      37.893  33.944  40.156  1.00  0.00    -0.200 F 
ATOM     82  F   UNL A   1      39.189  36.342  40.264  1.00  0.00    -0.200 F 
ENDBRANCH  48  72
BRANCH  60  83
ATOM     83  C   UNL A   1      43.886  28.823  35.141  1.00  0.00     0.064 A 
ATOM     84  C   UNL A   1      43.736  27.738  36.016  1.00  0.00     0.173 A 
ATOM     85  C   UNL A   1      45.183  29.304  34.904  1.00  0.00     0.173 A 
ATOM     86  F   UNL A   1      42.516  27.252  36.286  1.00  0.00    -0.203 F 
ATOM     87  C   UNL A   1      44.840  27.172  36.648  1.00  0.00     0.198 A 
ATOM     88  C   UNL A   1      46.286  28.717  35.514  1.00  0.00     0.198 A 
ATOM     89  F   UNL A   1      45.380  30.336  34.070  1.00  0.00    -0.203 F 
ATOM     90  F   UNL A   1      44.670  26.164  37.515  1.00  0.00    -0.200 F 
ATOM     91  C   UNL A   1      46.114  27.656  36.391  1.00  0.00     0.200 A 
ATOM     92  F   UNL A   1      47.518  29.179  35.255  1.00  0.00    -0.200 F 
ATOM     93  F   UNL A   1      47.176  27.105  36.994  1.00  0.00    -0.200 F 
ENDBRANCH  60  83
ENDBRANCH  34  35
ENDBRANCH  26  29
ENDBRANCH  24  25
ENDBRANCH  23  24
ENDBRANCH  22  23
ENDBRANCH   1  22
TORSDOF 18
ENDMDL
MODEL 3
REMARK VINA RESULT:     -10.9      0.880      1.888
REMARK SMILES C#CCN(CC(=O)NCCCCNC(=O)c1ccc(-c2c3nc(c(-c4c(F)c(F)c(F)c(F)c4F)c4ccc([nH]4)c(-c4c(F)c(F)c(F)c(F)c4F)c4nc(c(-c5c(F)c(F)c(F)c(F)c5F)c5ccc2[nH]5)C=C4)C=C3)cc1)C(=O)NCCc1ccco1
REMARK SMILES IDX 9 1 8 2 6 3 7 4 5 6 4 7 3 8 2 9 1 10 79 11 80 12 81 13 82 15
REMARK SMILES IDX 83 16 84 17 85 18 88 19 86 20 87 21 10 22 11 23 12 24 13 25
REMARK SMILES IDX 14 26 15 28 16 29 17 30 78 31 18 32 77 33 19 34 20 35 21 36
REMARK SMILES IDX 71 37 22 38 76 39 70 40 72 41 23 42 75 43 69 44 68 45 24 47
REMARK SMILES IDX 56 48 36 49 55 50 37 51 40 52 54 53 73 54 38 55 39 56 53 58
REMARK SMILES IDX 74 59 41 60 25 61 26 62 34 63 27 64 28 65 32 66 35 67 29 68
REMARK SMILES IDX 30 69 33 70 31 71 57 72 58 73 66 74 59 75 60 76 64 77 67 78
REMARK SMILES IDX 61 79 62 80 65 81 63 82 42 83 43 84 51 85 44 86 45 87 49 88
REMARK SMILES IDX 52 89 46 90 47 91 50 92 48 93
REMARK H PARENT 8 5 81 14 13 27 72 46 40 57
REMARK Flexibility Score: inf
ROOT
ATOM      1  C   UNL A   1      33.169  29.889  26.587  1.00  0.00     0.116 C 
ENDROOT
BRANCH   1   2
ATOM      2  N   UNL A   1      33.716  29.715  25.260  1.00  0.00    -0.355 N 
ATOM      3  C   UNL A   1      33.711  28.609  24.461  1.00  0.00     0.239 C 
ATOM      4  O   UNL A   1      33.952  28.782  23.262  1.00  0.00    -0.273 OA
ATOM      5  H   UNL A   1      34.156  30.509  24.878  1.00  0.00     0.163 HD
BRANCH   3   6
ATOM      6  C   UNL A   1      33.276  27.227  24.981  1.00  0.00     0.222 C 
BRANCH   6   7
ATOM      7  N   UNL A   1      31.943  26.803  24.566  1.00  0.00    -0.304 N 
BRANCH   7   8
ATOM      8  C   UNL A   1      30.946  26.690  25.627  1.00  0.00     0.211 C 
BRANCH   8   9
ATOM      9  C   UNL A   1      30.703  25.252  26.055  1.00  0.00    -0.085 C 
ATOM     10  C   UNL A   1      30.495  24.018  26.422  1.00  0.00     0.006 C 
ENDBRANCH   8   9
ENDBRANCH   7   8
BRANCH   7  11
ATOM     11  C   UNL A   1      31.528  26.488  23.301  1.00  0.00     0.318 C 
ATOM     12  O   UNL A   1      31.589  25.327  22.880  1.00  0.00    -0.249 OA
ATOM     13  N   UNL A   1      31.055  27.378  22.417  1.00  0.00    -0.337 N 
ATOM     14  H   UNL A   1      30.855  26.940  21.559  1.00  0.00     0.165 HD
BRANCH  13  15
ATOM     15  C   UNL A   1      30.748  28.802  22.350  1.00  0.00     0.125 C 
BRANCH  15  16
ATOM     16  C   UNL A   1      29.464  29.147  23.110  1.00  0.00     0.096 C 
BRANCH  16  17
ATOM     17  C   UNL A   1      29.094  30.578  22.945  1.00  0.00     0.105 A 
ATOM     18  C   UNL A   1      28.924  31.611  23.843  1.00  0.00     0.045 A 
ATOM     19  O   UNL A   1      28.860  31.016  21.676  1.00  0.00    -0.469 OA
ATOM     20  C   UNL A   1      28.562  32.746  23.078  1.00  0.00     0.042 A 
ATOM     21  C   UNL A   1      28.540  32.333  21.768  1.00  0.00     0.195 A 
ENDBRANCH  16  17
ENDBRANCH  15  16
ENDBRANCH  13  15
ENDBRANCH   7  11
ENDBRANCH   6   7
ENDBRANCH   3   6
ENDBRANCH   1   2
BRANCH   1  22
ATOM     22  C   UNL A   1      31.743  30.436  26.589  1.00  0.00     0.023 C 
BRANCH  22  23
ATOM     23  C   UNL A   1      31.621  31.957  26.568  1.00  0.00     0.023 C 
BRANCH  23  24
ATOM     24  C   UNL A   1      32.704  32.711  27.328  1.00  0.00     0.116 C 
BRANCH  24  25
ATOM     25  N   UNL A   1      32.351  34.087  27.644  1.00  0.00    -0.352 N 
ATOM     26  C   UNL A   1      32.949  34.939  28.540  1.00  0.00     0.251 C 
ATOM     27  H   UNL A   1      31.583  34.455  27.150  1.00  0.00     0.163 HD
ATOM     28  O   UNL A   1      32.484  36.057  28.741  1.00  0.00    -0.269 OA
BRANCH  26  29
ATOM     29  C   UNL A   1      34.130  34.480  29.298  1.00  0.00     0.039 A 
ATOM     30  C   UNL A   1      33.935  33.906  30.557  1.00  0.00     0.014 A 
ATOM     31  C   UNL A   1      35.414  34.574  28.754  1.00  0.00     0.014 A 
ATOM     32  C   UNL A   1      35.021  33.358  31.240  1.00  0.00     0.010 A 
ATOM     33  C   UNL A   1      36.483  33.965  29.403  1.00  0.00     0.010 A 
ATOM     34  C   UNL A   1      36.296  33.349  30.650  1.00  0.00    -0.014 A 
BRANCH  34  35
ATOM     35  C   UNL A   1      37.446  32.691  31.317  1.00  0.00     0.031 A 
ATOM     36  C   UNL A   1      38.151  31.547  30.646  1.00  0.00     0.074 A 
ATOM     37  C   UNL A   1      37.807  33.077  32.556  1.00  0.00     0.049 A 
ATOM     38  N   UNL A   1      39.123  30.793  31.097  1.00  0.00    -0.248 NA
ATOM     39  C   UNL A   1      37.682  31.180  29.301  1.00  0.00     0.031 C 
ATOM     40  C   UNL A   1      37.164  34.139  33.332  1.00  0.00     0.029 A 
ATOM     41  N   UNL A   1      38.794  32.609  33.387  1.00  0.00    -0.354 N 
ATOM     42  C   UNL A   1      39.369  29.859  30.101  1.00  0.00     0.074 A 
ATOM     43  C   UNL A   1      38.413  30.105  29.042  1.00  0.00     0.031 C 
ATOM     44  C   UNL A   1      37.786  34.256  34.516  1.00  0.00     0.029 A 
ATOM     45  C   UNL A   1      38.846  33.255  34.598  1.00  0.00     0.049 A 
ATOM     46  H   UNL A   1      39.408  31.881  33.138  1.00  0.00     0.167 HD
ATOM     47  C   UNL A   1      40.322  28.898  30.063  1.00  0.00     0.037 A 
ATOM     48  C   UNL A   1      39.655  33.059  35.656  1.00  0.00     0.037 A 
ATOM     49  C   UNL A   1      41.290  28.676  31.103  1.00  0.00     0.049 A 
ATOM     50  C   UNL A   1      40.711  31.989  35.582  1.00  0.00     0.074 A 
ATOM     51  C   UNL A   1      42.337  27.771  31.130  1.00  0.00     0.029 A 
ATOM     52  N   UNL A   1      41.331  29.371  32.303  1.00  0.00    -0.354 N 
ATOM     53  N   UNL A   1      40.981  31.157  34.605  1.00  0.00    -0.248 NA
ATOM     54  C   UNL A   1      41.582  31.837  36.757  1.00  0.00     0.031 C 
ATOM     55  C   UNL A   1      42.987  27.891  32.362  1.00  0.00     0.029 A 
ATOM     56  C   UNL A   1      42.375  28.902  33.085  1.00  0.00     0.049 A 
ATOM     57  H   UNL A   1      40.711  30.091  32.561  1.00  0.00     0.167 HD
ATOM     58  C   UNL A   1      42.065  30.405  35.034  1.00  0.00     0.074 A 
ATOM     59  C   UNL A   1      42.414  30.887  36.354  1.00  0.00     0.031 C 
ATOM     60  C   UNL A   1      42.714  29.402  34.392  1.00  0.00     0.037 A 
BRANCH  47  61
ATOM     61  C   UNL A   1      40.368  28.016  28.850  1.00  0.00     0.064 A 
ATOM     62  C   UNL A   1      41.112  28.367  27.714  1.00  0.00     0.173 A 
ATOM     63  C   UNL A   1      39.696  26.784  28.838  1.00  0.00     0.173 A 
ATOM     64  F   UNL A   1      41.763  29.540  27.671  1.00  0.00    -0.203 F 
ATOM     65  C   UNL A   1      41.159  27.533  26.601  1.00  0.00     0.198 A 
ATOM     66  C   UNL A   1      39.768  25.939  27.734  1.00  0.00     0.198 A 
ATOM     67  F   UNL A   1      38.973  26.397  29.901  1.00  0.00    -0.203 F 
ATOM     68  F   UNL A   1      41.838  27.912  25.509  1.00  0.00    -0.200 F 
ATOM     69  C   UNL A   1      40.493  26.317  26.615  1.00  0.00     0.200 A 
ATOM     70  F   UNL A   1      39.133  24.758  27.753  1.00  0.00    -0.200 F 
ATOM     71  F   UNL A   1      40.547  25.510  25.546  1.00  0.00    -0.200 F 
ENDBRANCH  47  61
BRANCH  48  72
ATOM     72  C   UNL A   1      39.517  33.908  36.866  1.00  0.00     0.064 A 
ATOM     73  C   UNL A   1      38.761  33.477  37.964  1.00  0.00     0.173 A 
ATOM     74  C   UNL A   1      40.128  35.169  36.948  1.00  0.00     0.173 A 
ATOM     75  F   UNL A   1      38.140  32.288  37.923  1.00  0.00    -0.203 F 
ATOM     76  C   UNL A   1      38.601  34.282  39.090  1.00  0.00     0.198 A 
ATOM     77  C   UNL A   1      39.990  35.961  38.086  1.00  0.00     0.198 A 
ATOM     78  F   UNL A   1      40.866  35.626  35.926  1.00  0.00    -0.203 F 
ATOM     79  F   UNL A   1      37.833  33.865  40.105  1.00  0.00    -0.200 F 
ATOM     80  C   UNL A   1      39.220  35.521  39.152  1.00  0.00     0.200 A 
ATOM     81  F   UNL A   1      40.599  37.153  38.147  1.00  0.00    -0.200 F 
ATOM     82  F   UNL A   1      39.067  36.295  40.235  1.00  0.00    -0.200 F 
ENDBRANCH  48  72
BRANCH  60  83
ATOM     83  C   UNL A   1      43.887  28.784  35.093  1.00  0.00     0.064 A 
ATOM     84  C   UNL A   1      45.188  29.278  34.925  1.00  0.00     0.173 A 
ATOM     85  C   UNL A   1      43.699  27.709  35.976  1.00  0.00     0.173 A 
ATOM     86  F   UNL A   1      45.421  30.294  34.081  1.00  0.00    -0.203 F 
ATOM     87  C   UNL A   1      46.263  28.703  35.597  1.00  0.00     0.198 A 
ATOM     88  C   UNL A   1      44.772  27.156  36.667  1.00  0.00     0.198 A 
ATOM     89  F   UNL A   1      42.472  27.204  36.176  1.00  0.00    -0.203 F 
ATOM     90  F   UNL A   1      47.505  29.161  35.388  1.00  0.00    -0.200 F 
ATOM     91  C   UNL A   1      46.054  27.648  36.473  1.00  0.00     0.200 A 
ATOM     92  F   UNL A   1      44.565  26.144  37.523  1.00  0.00    -0.200 F 
ATOM     93  F   UNL A   1      47.088  27.100  37.124  1.00  0.00    -0.200 F 
ENDBRANCH  60  83
ENDBRANCH  34  35
ENDBRANCH  26  29
ENDBRANCH  24  25
ENDBRANCH  23  24
ENDBRANCH  22  23
ENDBRANCH   1  22
TORSDOF 18
ENDMDL
