MODEL 1
REMARK VINA RESULT:     -13.1      0.000      0.000
REMARK SMILES O=C(NCCCCNC(=O)c1ccc(S(=O)(=O)Cc2ncccn2)c(F)c1)c1ccc(-c2c3nc(c(-c4c(F)c(F)c(F)c(F)c4F)c4ccc([nH]4)c(-c4c(F)c(F)c(F)c(F)c4F)c4nc(c(-c5c(F)c(F)c(F)c(F)c5F)c5ccc2[nH]5)C=C4)C=C3)cc1
REMARK SMILES IDX 6 1 5 2 4 3 3 4 1 5 2 6 28 8 29 9 90 10 30 11 89 12 31 13
REMARK SMILES IDX 32 14 33 15 83 16 34 17 88 18 82 19 84 20 35 21 87 22 81 23
REMARK SMILES IDX 80 24 36 26 68 27 48 28 67 29 49 30 52 31 66 32 85 33 50 34
REMARK SMILES IDX 51 35 65 37 86 38 53 39 37 40 38 41 46 42 39 43 40 44 44 45
REMARK SMILES IDX 47 46 41 47 42 48 45 49 43 50 69 51 70 52 78 53 71 54 72 55
REMARK SMILES IDX 76 56 79 57 73 58 74 59 77 60 75 61 54 62 55 63 63 64 56 65
REMARK SMILES IDX 57 66 61 67 64 68 58 69 59 70 62 71 60 72 7 73 8 74 9 75
REMARK SMILES IDX 10 77 11 78 12 79 27 80 13 81 25 82 14 83 26 84 15 85 16 86
REMARK SMILES IDX 17 87 18 88 19 89 20 90 24 91 21 92 23 93 22 94
REMARK H PARENT 3 7 84 25 52 36 8 76
REMARK Flexibility Score: inf
ROOT
ATOM      1  C   UNL A   1      31.650  30.578  26.844  1.00  0.00     0.023 C 
ENDROOT
BRANCH   1   2
ATOM      2  C   UNL A   1      31.569  32.095  26.686  1.00  0.00     0.023 C 
BRANCH   2   3
ATOM      3  C   UNL A   1      32.751  32.878  27.244  1.00  0.00     0.116 C 
BRANCH   3   4
ATOM      4  N   UNL A   1      32.403  34.222  27.680  1.00  0.00    -0.352 N 
ATOM      5  O   UNL A   1      32.500  36.089  28.946  1.00  0.00    -0.269 OA
ATOM      6  C   UNL A   1      32.993  35.008  28.642  1.00  0.00     0.251 C 
ATOM      7  H   UNL A   1      31.633  34.628  27.221  1.00  0.00     0.163 HD
BRANCH   6   8
ATOM      8  C   UNL A   1      34.202  34.527  29.345  1.00  0.00     0.039 A 
ATOM      9  C   UNL A   1      35.473  34.718  28.800  1.00  0.00     0.014 A 
ATOM     10  C   UNL A   1      34.053  33.846  30.558  1.00  0.00     0.014 A 
ATOM     11  C   UNL A   1      36.570  34.084  29.373  1.00  0.00     0.010 A 
ATOM     12  C   UNL A   1      35.170  33.278  31.177  1.00  0.00     0.010 A 
ATOM     13  C   UNL A   1      36.429  33.349  30.562  1.00  0.00    -0.014 A 
BRANCH  13  14
ATOM     14  C   UNL A   1      37.617  32.668  31.137  1.00  0.00     0.031 A 
ATOM     15  C   UNL A   1      38.095  32.989  32.526  1.00  0.00     0.074 A 
ATOM     16  C   UNL A   1      38.226  31.705  30.421  1.00  0.00     0.049 A 
ATOM     17  N   UNL A   1      39.076  32.450  33.206  1.00  0.00    -0.248 NA
ATOM     18  C   UNL A   1      37.386  34.057  33.248  1.00  0.00     0.031 C 
ATOM     19  C   UNL A   1      37.856  31.309  29.062  1.00  0.00     0.029 A 
ATOM     20  N   UNL A   1      39.261  30.865  30.744  1.00  0.00    -0.354 N 
ATOM     21  C   UNL A   1      39.115  33.122  34.420  1.00  0.00     0.074 A 
ATOM     22  C   UNL A   1      38.074  34.127  34.380  1.00  0.00     0.031 C 
ATOM     23  C   UNL A   1      38.607  30.262  28.691  1.00  0.00     0.029 A 
ATOM     24  C   UNL A   1      39.544  29.946  29.765  1.00  0.00     0.049 A 
ATOM     25  H   UNL A   1      39.752  30.915  31.596  1.00  0.00     0.167 HD
ATOM     26  C   UNL A   1      39.939  32.913  35.475  1.00  0.00     0.037 A 
ATOM     27  C   UNL A   1      40.452  28.953  29.735  1.00  0.00     0.037 A 
ATOM     28  C   UNL A   1      40.958  31.898  35.525  1.00  0.00     0.049 A 
ATOM     29  C   UNL A   1      41.343  28.734  30.922  1.00  0.00     0.074 A 
ATOM     30  C   UNL A   1      41.838  31.606  36.553  1.00  0.00     0.029 A 
ATOM     31  N   UNL A   1      41.229  31.001  34.502  1.00  0.00    -0.354 N 
ATOM     32  N   UNL A   1      41.369  29.378  32.062  1.00  0.00    -0.248 NA
ATOM     33  C   UNL A   1      42.333  27.654  30.818  1.00  0.00     0.031 C 
ATOM     34  C   UNL A   1      42.660  30.551  36.143  1.00  0.00     0.029 A 
ATOM     35  C   UNL A   1      42.266  30.161  34.874  1.00  0.00     0.049 A 
ATOM     36  H   UNL A   1      40.755  30.967  33.639  1.00  0.00     0.167 HD
ATOM     37  C   UNL A   1      42.367  28.779  32.816  1.00  0.00     0.074 A 
ATOM     38  C   UNL A   1      42.913  27.705  32.009  1.00  0.00     0.031 C 
ATOM     39  C   UNL A   1      42.796  29.095  34.061  1.00  0.00     0.037 A 
BRANCH  26  40
ATOM     40  C   UNL A   1      39.779  33.806  36.671  1.00  0.00     0.064 A 
ATOM     41  C   UNL A   1      38.914  33.448  37.716  1.00  0.00     0.173 A 
ATOM     42  C   UNL A   1      40.438  35.041  36.756  1.00  0.00     0.173 A 
ATOM     43  F   UNL A   1      38.257  32.279  37.678  1.00  0.00    -0.203 F 
ATOM     44  C   UNL A   1      38.708  34.298  38.798  1.00  0.00     0.198 A 
ATOM     45  C   UNL A   1      40.246  35.879  37.851  1.00  0.00     0.198 A 
ATOM     46  F   UNL A   1      41.286  35.423  35.789  1.00  0.00    -0.203 F 
ATOM     47  F   UNL A   1      37.859  33.947  39.773  1.00  0.00    -0.200 F 
ATOM     48  C   UNL A   1      39.376  35.511  38.868  1.00  0.00     0.200 A 
ATOM     49  F   UNL A   1      40.909  37.041  37.928  1.00  0.00    -0.200 F 
ATOM     50  F   UNL A   1      39.186  36.324  39.916  1.00  0.00    -0.200 F 
ENDBRANCH  26  40
BRANCH  27  51
ATOM     51  C   UNL A   1      40.525  28.077  28.541  1.00  0.00     0.064 A 
ATOM     52  C   UNL A   1      39.859  26.844  28.501  1.00  0.00     0.173 A 
ATOM     53  C   UNL A   1      41.316  28.433  27.440  1.00  0.00     0.173 A 
ATOM     54  F   UNL A   1      39.098  26.460  29.536  1.00  0.00    -0.203 F 
ATOM     55  C   UNL A   1      40.002  25.986  27.414  1.00  0.00     0.198 A 
ATOM     56  C   UNL A   1      41.440  27.583  26.343  1.00  0.00     0.198 A 
ATOM     57  F   UNL A   1      41.959  29.609  27.429  1.00  0.00    -0.203 F 
ATOM     58  F   UNL A   1      39.387  24.796  27.418  1.00  0.00    -0.200 F 
ATOM     59  C   UNL A   1      40.791  26.357  26.335  1.00  0.00     0.200 A 
ATOM     60  F   UNL A   1      42.189  27.951  25.295  1.00  0.00    -0.200 F 
ATOM     61  F   UNL A   1      40.927  25.531  25.288  1.00  0.00    -0.200 F 
ENDBRANCH  27  51
BRANCH  39  62
ATOM     62  C   UNL A   1      43.898  28.263  34.642  1.00  0.00     0.064 A 
ATOM     63  C   UNL A   1      45.239  28.622  34.441  1.00  0.00     0.173 A 
ATOM     64  C   UNL A   1      43.628  27.082  35.347  1.00  0.00     0.173 A 
ATOM     65  F   UNL A   1      45.546  29.741  33.768  1.00  0.00    -0.203 F 
ATOM     66  C   UNL A   1      46.272  27.821  34.919  1.00  0.00     0.198 A 
ATOM     67  C   UNL A   1      44.663  26.294  35.842  1.00  0.00     0.198 A 
ATOM     68  F   UNL A   1      42.360  26.707  35.573  1.00  0.00    -0.203 F 
ATOM     69  F   UNL A   1      47.547  28.170  34.698  1.00  0.00    -0.200 F 
ATOM     70  C   UNL A   1      45.983  26.660  35.621  1.00  0.00     0.200 A 
ATOM     71  F   UNL A   1      44.384  25.184  36.538  1.00  0.00    -0.200 F 
ATOM     72  F   UNL A   1      46.979  25.896  36.091  1.00  0.00    -0.200 F 
ENDBRANCH  39  62
ENDBRANCH  13  14
ENDBRANCH   6   8
ENDBRANCH   3   4
ENDBRANCH   2   3
ENDBRANCH   1   2
BRANCH   1  73
ATOM     73  C   UNL A   1      33.034  29.976  26.610  1.00  0.00     0.116 C 
BRANCH  73  74
ATOM     74  N   UNL A   1      33.325  29.787  25.197  1.00  0.00    -0.352 N 
ATOM     75  C   UNL A   1      33.233  28.637  24.457  1.00  0.00     0.251 C 
ATOM     76  H   UNL A   1      33.626  30.588  24.709  1.00  0.00     0.163 HD
ATOM     77  O   UNL A   1      33.587  28.593  23.285  1.00  0.00    -0.269 OA
BRANCH  75  78
ATOM     78  C   UNL A   1      32.714  27.429  25.114  1.00  0.00     0.042 A 
ATOM     79  C   UNL A   1      33.604  26.478  25.626  1.00  0.00     0.015 A 
ATOM     80  C   UNL A   1      31.336  27.220  25.136  1.00  0.00     0.054 A 
ATOM     81  C   UNL A   1      33.104  25.276  26.127  1.00  0.00     0.024 A 
ATOM     82  C   UNL A   1      30.850  26.013  25.622  1.00  0.00     0.142 A 
ATOM     83  C   UNL A   1      31.722  25.045  26.109  1.00  0.00     0.103 A 
ATOM     84  F   UNL A   1      29.529  25.801  25.579  1.00  0.00    -0.206 F 
BRANCH  83  85
ATOM     85  S   UNL A   1      31.116  23.485  26.674  1.00  0.00     0.188 S 
ATOM     86  O   UNL A   1      32.193  22.959  27.501  1.00  0.00    -0.223 OA
ATOM     87  O   UNL A   1      29.820  23.726  27.291  1.00  0.00    -0.223 OA
BRANCH  85  88
ATOM     88  C   UNL A   1      30.901  22.370  25.335  1.00  0.00     0.219 C 
BRANCH  88  89
ATOM     89  C   UNL A   1      32.120  21.553  25.059  1.00  0.00     0.143 A 
ATOM     90  N   UNL A   1      33.276  22.136  24.694  1.00  0.00    -0.240 NA
ATOM     91  N   UNL A   1      32.013  20.239  25.346  1.00  0.00    -0.240 NA
ATOM     92  C   UNL A   1      34.358  21.341  24.571  1.00  0.00     0.115 A 
ATOM     93  C   UNL A   1      33.124  19.488  25.220  1.00  0.00     0.115 A 
ATOM     94  C   UNL A   1      34.338  19.994  24.829  1.00  0.00     0.040 A 
ENDBRANCH  88  89
ENDBRANCH  85  88
ENDBRANCH  83  85
ENDBRANCH  75  78
ENDBRANCH  73  74
ENDBRANCH   1  73
TORSDOF 14
ENDMDL
MODEL 2
REMARK VINA RESULT:     -13.0      0.263      1.605
REMARK SMILES O=C(NCCCCNC(=O)c1ccc(S(=O)(=O)Cc2ncccn2)c(F)c1)c1ccc(-c2c3nc(c(-c4c(F)c(F)c(F)c(F)c4F)c4ccc([nH]4)c(-c4c(F)c(F)c(F)c(F)c4F)c4nc(c(-c5c(F)c(F)c(F)c(F)c5F)c5ccc2[nH]5)C=C4)C=C3)cc1
REMARK SMILES IDX 6 1 5 2 4 3 3 4 1 5 2 6 28 8 29 9 90 10 30 11 89 12 31 13
REMARK SMILES IDX 32 14 33 15 83 16 34 17 88 18 82 19 84 20 35 21 87 22 81 23
REMARK SMILES IDX 80 24 36 26 68 27 48 28 67 29 49 30 52 31 66 32 85 33 50 34
REMARK SMILES IDX 51 35 65 37 86 38 53 39 37 40 38 41 46 42 39 43 40 44 44 45
REMARK SMILES IDX 47 46 41 47 42 48 45 49 43 50 69 51 70 52 78 53 71 54 72 55
REMARK SMILES IDX 76 56 79 57 73 58 74 59 77 60 75 61 54 62 55 63 63 64 56 65
REMARK SMILES IDX 57 66 61 67 64 68 58 69 59 70 62 71 60 72 7 73 8 74 9 75
REMARK SMILES IDX 10 77 11 78 12 79 27 80 13 81 25 82 14 83 26 84 15 85 16 86
REMARK SMILES IDX 17 87 18 88 19 89 20 90 24 91 21 92 23 93 22 94
REMARK H PARENT 3 7 84 25 52 36 8 76
REMARK Flexibility Score: inf
ROOT
ATOM      1  C   UNL A   1      31.767  30.638  26.156  1.00  0.00     0.023 C 
ENDROOT
BRANCH   1   2
ATOM      2  C   UNL A   1      31.590  31.827  27.098  1.00  0.00     0.023 C 
BRANCH   2   3
ATOM      3  C   UNL A   1      32.793  32.754  27.221  1.00  0.00     0.116 C 
BRANCH   3   4
ATOM      4  N   UNL A   1      32.443  34.108  27.621  1.00  0.00    -0.352 N 
ATOM      5  O   UNL A   1      32.522  36.000  28.851  1.00  0.00    -0.269 OA
ATOM      6  C   UNL A   1      33.015  34.910  28.582  1.00  0.00     0.251 C 
ATOM      7  H   UNL A   1      31.689  34.510  27.133  1.00  0.00     0.163 HD
BRANCH   6   8
ATOM      8  C   UNL A   1      34.202  34.434  29.325  1.00  0.00     0.039 A 
ATOM      9  C   UNL A   1      35.492  34.717  28.875  1.00  0.00     0.014 A 
ATOM     10  C   UNL A   1      34.014  33.665  30.479  1.00  0.00     0.014 A 
ATOM     11  C   UNL A   1      36.582  34.094  29.472  1.00  0.00     0.010 A 
ATOM     12  C   UNL A   1      35.118  33.105  31.128  1.00  0.00     0.010 A 
ATOM     13  C   UNL A   1      36.406  33.273  30.599  1.00  0.00    -0.014 A 
BRANCH  13  14
ATOM     14  C   UNL A   1      37.588  32.607  31.201  1.00  0.00     0.031 A 
ATOM     15  C   UNL A   1      38.036  32.940  32.597  1.00  0.00     0.074 A 
ATOM     16  C   UNL A   1      38.221  31.646  30.502  1.00  0.00     0.049 A 
ATOM     17  N   UNL A   1      39.009  32.414  33.299  1.00  0.00    -0.248 NA
ATOM     18  C   UNL A   1      37.303  34.006  33.298  1.00  0.00     0.031 C 
ATOM     19  C   UNL A   1      37.881  31.239  29.139  1.00  0.00     0.029 A 
ATOM     20  N   UNL A   1      39.256  30.817  30.850  1.00  0.00    -0.354 N 
ATOM     21  C   UNL A   1      39.018  33.093  34.509  1.00  0.00     0.074 A 
ATOM     22  C   UNL A   1      37.969  34.088  34.443  1.00  0.00     0.031 C 
ATOM     23  C   UNL A   1      38.648  30.196  28.789  1.00  0.00     0.029 A 
ATOM     24  C   UNL A   1      39.567  29.895  29.882  1.00  0.00     0.049 A 
ATOM     25  H   UNL A   1      39.730  30.877  31.712  1.00  0.00     0.167 HD
ATOM     26  C   UNL A   1      39.823  32.898  35.582  1.00  0.00     0.037 A 
ATOM     27  C   UNL A   1      40.485  28.911  29.876  1.00  0.00     0.037 A 
ATOM     28  C   UNL A   1      40.850  31.893  35.657  1.00  0.00     0.049 A 
ATOM     29  C   UNL A   1      41.354  28.707  31.081  1.00  0.00     0.074 A 
ATOM     30  C   UNL A   1      41.713  31.615  36.704  1.00  0.00     0.029 A 
ATOM     31  N   UNL A   1      41.149  30.993  34.645  1.00  0.00    -0.354 N 
ATOM     32  N   UNL A   1      41.352  29.357  32.218  1.00  0.00    -0.248 NA
ATOM     33  C   UNL A   1      42.356  27.635  31.002  1.00  0.00     0.031 C 
ATOM     34  C   UNL A   1      42.552  30.566  36.316  1.00  0.00     0.029 A 
ATOM     35  C   UNL A   1      42.187  30.164  35.041  1.00  0.00     0.049 A 
ATOM     36  H   UNL A   1      40.693  30.949  33.773  1.00  0.00     0.167 HD
ATOM     37  C   UNL A   1      42.341  28.772  32.994  1.00  0.00     0.074 A 
ATOM     38  C   UNL A   1      42.912  27.699  32.204  1.00  0.00     0.031 C 
ATOM     39  C   UNL A   1      42.742  29.099  34.246  1.00  0.00     0.037 A 
BRANCH  26  40
ATOM     40  C   UNL A   1      39.632  33.796  36.768  1.00  0.00     0.064 A 
ATOM     41  C   UNL A   1      38.807  33.402  37.833  1.00  0.00     0.173 A 
ATOM     42  C   UNL A   1      40.218  35.069  36.827  1.00  0.00     0.173 A 
ATOM     43  F   UNL A   1      38.219  32.197  37.822  1.00  0.00    -0.203 F 
ATOM     44  C   UNL A   1      38.570  34.254  38.908  1.00  0.00     0.198 A 
ATOM     45  C   UNL A   1      39.997  35.908  37.915  1.00  0.00     0.198 A 
ATOM     46  F   UNL A   1      41.026  35.486  35.840  1.00  0.00    -0.203 F 
ATOM     47  F   UNL A   1      37.760  33.866  39.903  1.00  0.00    -0.200 F 
ATOM     48  C   UNL A   1      39.167  35.504  38.951  1.00  0.00     0.200 A 
ATOM     49  F   UNL A   1      40.592  37.108  37.965  1.00  0.00    -0.200 F 
ATOM     50  F   UNL A   1      38.948  36.319  39.992  1.00  0.00    -0.200 F 
ENDBRANCH  26  40
BRANCH  27  51
ATOM     51  C   UNL A   1      40.589  28.029  28.688  1.00  0.00     0.064 A 
ATOM     52  C   UNL A   1      41.366  28.392  27.578  1.00  0.00     0.173 A 
ATOM     53  C   UNL A   1      39.862  26.833  28.618  1.00  0.00     0.173 A 
ATOM     54  F   UNL A   1      42.071  29.532  27.598  1.00  0.00    -0.203 F 
ATOM     55  C   UNL A   1      41.390  27.604  26.431  1.00  0.00     0.198 A 
ATOM     56  C   UNL A   1      39.906  26.035  27.478  1.00  0.00     0.198 A 
ATOM     57  F   UNL A   1      39.119  26.440  29.662  1.00  0.00    -0.203 F 
ATOM     58  F   UNL A   1      42.108  27.993  25.369  1.00  0.00    -0.200 F 
ATOM     59  C   UNL A   1      40.662  26.425  26.383  1.00  0.00     0.200 A 
ATOM     60  F   UNL A   1      39.214  24.887  27.441  1.00  0.00    -0.200 F 
ATOM     61  F   UNL A   1      40.687  25.665  25.279  1.00  0.00    -0.200 F 
ENDBRANCH  27  51
BRANCH  39  62
ATOM     62  C   UNL A   1      43.841  28.281  34.852  1.00  0.00     0.064 A 
ATOM     63  C   UNL A   1      43.542  27.131  35.598  1.00  0.00     0.173 A 
ATOM     64  C   UNL A   1      45.184  28.668  34.743  1.00  0.00     0.173 A 
ATOM     65  F   UNL A   1      42.271  26.726  35.734  1.00  0.00    -0.203 F 
ATOM     66  C   UNL A   1      44.550  26.402  36.221  1.00  0.00     0.198 A 
ATOM     67  C   UNL A   1      46.192  27.924  35.350  1.00  0.00     0.198 A 
ATOM     68  F   UNL A   1      45.517  29.754  34.029  1.00  0.00    -0.203 F 
ATOM     69  F   UNL A   1      44.242  25.318  36.947  1.00  0.00    -0.200 F 
ATOM     70  C   UNL A   1      45.874  26.797  36.094  1.00  0.00     0.200 A 
ATOM     71  F   UNL A   1      47.473  28.294  35.210  1.00  0.00    -0.200 F 
ATOM     72  F   UNL A   1      46.845  26.087  36.685  1.00  0.00    -0.200 F 
ENDBRANCH  39  62
ENDBRANCH  13  14
ENDBRANCH   6   8
ENDBRANCH   3   4
ENDBRANCH   2   3
ENDBRANCH   1   2
BRANCH   1  73
ATOM     73  C   UNL A   1      33.139  29.968  26.211  1.00  0.00     0.116 C 
BRANCH  73  74
ATOM     74  N   UNL A   1      33.643  29.628  24.889  1.00  0.00    -0.352 N 
ATOM     75  C   UNL A   1      33.654  28.404  24.273  1.00  0.00     0.251 C 
ATOM     76  H   UNL A   1      34.026  30.373  24.371  1.00  0.00     0.163 HD
ATOM     77  O   UNL A   1      34.185  28.235  23.182  1.00  0.00    -0.269 OA
BRANCH  75  78
ATOM     78  C   UNL A   1      33.025  27.272  24.967  1.00  0.00     0.042 A 
ATOM     79  C   UNL A   1      33.818  26.366  25.682  1.00  0.00     0.015 A 
ATOM     80  C   UNL A   1      31.652  27.080  24.825  1.00  0.00     0.054 A 
ATOM     81  C   UNL A   1      33.229  25.225  26.224  1.00  0.00     0.024 A 
ATOM     82  C   UNL A   1      31.077  25.932  25.356  1.00  0.00     0.142 A 
ATOM     83  C   UNL A   1      31.856  25.007  26.045  1.00  0.00     0.103 A 
ATOM     84  F   UNL A   1      29.769  25.731  25.158  1.00  0.00    -0.206 F 
BRANCH  83  85
ATOM     85  S   UNL A   1      31.144  23.516  26.670  1.00  0.00     0.188 S 
ATOM     86  O   UNL A   1      32.168  22.971  27.549  1.00  0.00    -0.223 OA
ATOM     87  O   UNL A   1      29.851  23.865  27.241  1.00  0.00    -0.223 OA
BRANCH  85  88
ATOM     88  C   UNL A   1      30.893  22.349  25.383  1.00  0.00     0.219 C 
BRANCH  88  89
ATOM     89  C   UNL A   1      32.112  21.539  25.089  1.00  0.00     0.143 A 
ATOM     90  N   UNL A   1      33.279  22.131  24.776  1.00  0.00    -0.240 NA
ATOM     91  N   UNL A   1      31.991  20.212  25.305  1.00  0.00    -0.240 NA
ATOM     92  C   UNL A   1      34.357  21.336  24.633  1.00  0.00     0.115 A 
ATOM     93  C   UNL A   1      33.100  19.461  25.162  1.00  0.00     0.115 A 
ATOM     94  C   UNL A   1      34.324  19.978  24.821  1.00  0.00     0.040 A 
ENDBRANCH  88  89
ENDBRANCH  85  88
ENDBRANCH  83  85
ENDBRANCH  75  78
ENDBRANCH  73  74
ENDBRANCH   1  73
TORSDOF 14
ENDMDL
MODEL 3
REMARK VINA RESULT:     -12.8      0.584      7.383
REMARK SMILES O=C(NCCCCNC(=O)c1ccc(S(=O)(=O)Cc2ncccn2)c(F)c1)c1ccc(-c2c3nc(c(-c4c(F)c(F)c(F)c(F)c4F)c4ccc([nH]4)c(-c4c(F)c(F)c(F)c(F)c4F)c4nc(c(-c5c(F)c(F)c(F)c(F)c5F)c5ccc2[nH]5)C=C4)C=C3)cc1
REMARK SMILES IDX 6 1 5 2 4 3 3 4 1 5 2 6 28 8 29 9 90 10 30 11 89 12 31 13
REMARK SMILES IDX 32 14 33 15 83 16 34 17 88 18 82 19 84 20 35 21 87 22 81 23
REMARK SMILES IDX 80 24 36 26 68 27 48 28 67 29 49 30 52 31 66 32 85 33 50 34
REMARK SMILES IDX 51 35 65 37 86 38 53 39 37 40 38 41 46 42 39 43 40 44 44 45
REMARK SMILES IDX 47 46 41 47 42 48 45 49 43 50 69 51 70 52 78 53 71 54 72 55
REMARK SMILES IDX 76 56 79 57 73 58 74 59 77 60 75 61 54 62 55 63 63 64 56 65
REMARK SMILES IDX 57 66 61 67 64 68 58 69 59 70 62 71 60 72 7 73 8 74 9 75
REMARK SMILES IDX 10 77 11 78 12 79 27 80 13 81 25 82 14 83 26 84 15 85 16 86
REMARK SMILES IDX 17 87 18 88 19 89 20 90 24 91 21 92 23 93 22 94
REMARK H PARENT 3 7 84 25 52 36 8 76
REMARK Flexibility Score: inf
ROOT
ATOM      1  C   UNL A   1      31.715  30.540  26.863  1.00  0.00     0.023 C 
ENDROOT
BRANCH   1   2
ATOM      2  C   UNL A   1      31.624  32.056  26.695  1.00  0.00     0.023 C 
BRANCH   2   3
ATOM      3  C   UNL A   1      32.813  32.849  27.225  1.00  0.00     0.116 C 
BRANCH   3   4
ATOM      4  N   UNL A   1      32.475  34.208  27.618  1.00  0.00    -0.352 N 
ATOM      5  O   UNL A   1      32.517  36.081  28.879  1.00  0.00    -0.269 OA
ATOM      6  C   UNL A   1      32.997  34.979  28.630  1.00  0.00     0.251 C 
ATOM      7  H   UNL A   1      31.772  34.639  27.081  1.00  0.00     0.163 HD
BRANCH   6   8
ATOM      8  C   UNL A   1      34.109  34.457  29.453  1.00  0.00     0.039 A 
ATOM      9  C   UNL A   1      35.436  34.632  29.058  1.00  0.00     0.014 A 
ATOM     10  C   UNL A   1      33.812  33.756  30.627  1.00  0.00     0.014 A 
ATOM     11  C   UNL A   1      36.449  33.963  29.737  1.00  0.00     0.010 A 
ATOM     12  C   UNL A   1      34.840  33.152  31.355  1.00  0.00     0.010 A 
ATOM     13  C   UNL A   1      36.161  33.208  30.886  1.00  0.00    -0.014 A 
BRANCH  13  14
ATOM     14  C   UNL A   1      37.263  32.490  31.575  1.00  0.00     0.031 A 
ATOM     15  C   UNL A   1      38.034  31.403  30.877  1.00  0.00     0.074 A 
ATOM     16  C   UNL A   1      37.612  32.870  32.818  1.00  0.00     0.049 A 
ATOM     17  N   UNL A   1      39.062  30.714  31.307  1.00  0.00    -0.248 NA
ATOM     18  C   UNL A   1      37.593  31.034  29.523  1.00  0.00     0.031 C 
ATOM     19  C   UNL A   1      36.937  33.907  33.598  1.00  0.00     0.029 A 
ATOM     20  N   UNL A   1      38.636  32.454  33.630  1.00  0.00    -0.354 N 
ATOM     21  C   UNL A   1      39.376  29.823  30.291  1.00  0.00     0.074 A 
ATOM     22  C   UNL A   1      38.418  30.038  29.228  1.00  0.00     0.031 C 
ATOM     23  C   UNL A   1      37.601  34.092  34.748  1.00  0.00     0.029 A 
ATOM     24  C   UNL A   1      38.717  33.153  34.809  1.00  0.00     0.049 A 
ATOM     25  H   UNL A   1      39.253  31.724  33.391  1.00  0.00     0.167 HD
ATOM     26  C   UNL A   1      40.381  28.914  30.245  1.00  0.00     0.037 A 
ATOM     27  C   UNL A   1      39.595  33.055  35.824  1.00  0.00     0.037 A 
ATOM     28  C   UNL A   1      41.349  28.716  31.291  1.00  0.00     0.049 A 
ATOM     29  C   UNL A   1      40.705  32.050  35.743  1.00  0.00     0.074 A 
ATOM     30  C   UNL A   1      42.406  27.823  31.333  1.00  0.00     0.029 A 
ATOM     31  N   UNL A   1      41.382  29.430  32.480  1.00  0.00    -0.354 N 
ATOM     32  N   UNL A   1      40.990  31.213  34.776  1.00  0.00    -0.248 NA
ATOM     33  C   UNL A   1      41.614  31.972  36.894  1.00  0.00     0.031 C 
ATOM     34  C   UNL A   1      43.063  27.976  32.558  1.00  0.00     0.029 A 
ATOM     35  C   UNL A   1      42.439  28.992  33.263  1.00  0.00     0.049 A 
ATOM     36  H   UNL A   1      40.750  30.141  32.731  1.00  0.00     0.167 HD
ATOM     37  C   UNL A   1      42.114  30.516  35.193  1.00  0.00     0.074 A 
ATOM     38  C   UNL A   1      42.471  31.041  36.497  1.00  0.00     0.031 C 
ATOM     39  C   UNL A   1      42.784  29.526  34.556  1.00  0.00     0.037 A 
BRANCH  26  40
ATOM     40  C   UNL A   1      40.484  28.052  29.021  1.00  0.00     0.064 A 
ATOM     41  C   UNL A   1      41.244  28.470  27.918  1.00  0.00     0.173 A 
ATOM     42  C   UNL A   1      39.786  26.840  28.917  1.00  0.00     0.173 A 
ATOM     43  F   UNL A   1      41.925  29.625  27.966  1.00  0.00    -0.203 F 
ATOM     44  C   UNL A   1      41.294  27.710  26.753  1.00  0.00     0.198 A 
ATOM     45  C   UNL A   1      39.858  26.071  27.758  1.00  0.00     0.198 A 
ATOM     46  F   UNL A   1      39.056  26.390  29.949  1.00  0.00    -0.203 F 
ATOM     47  F   UNL A   1      42.008  28.141  25.703  1.00  0.00    -0.200 F 
ATOM     48  C   UNL A   1      40.605  26.510  26.674  1.00  0.00     0.200 A 
ATOM     49  F   UNL A   1      39.208  24.901  27.691  1.00  0.00    -0.200 F 
ATOM     50  F   UNL A   1      40.663  25.774  25.557  1.00  0.00    -0.200 F 
ENDBRANCH  26  40
BRANCH  27  51
ATOM     51  C   UNL A   1      39.463  33.970  36.983  1.00  0.00     0.064 A 
ATOM     52  C   UNL A   1      40.078  35.231  36.989  1.00  0.00     0.173 A 
ATOM     53  C   UNL A   1      38.769  33.573  38.133  1.00  0.00     0.173 A 
ATOM     54  F   UNL A   1      40.760  35.648  35.913  1.00  0.00    -0.203 F 
ATOM     55  C   UNL A   1      40.025  36.049  38.114  1.00  0.00     0.198 A 
ATOM     56  C   UNL A   1      38.698  34.403  39.249  1.00  0.00     0.198 A 
ATOM     57  F   UNL A   1      38.153  32.382  38.166  1.00  0.00    -0.203 F 
ATOM     58  F   UNL A   1      40.655  37.232  38.109  1.00  0.00    -0.200 F 
ATOM     59  C   UNL A   1      39.333  35.636  39.242  1.00  0.00     0.200 A 
ATOM     60  F   UNL A   1      38.014  34.008  40.332  1.00  0.00    -0.200 F 
ATOM     61  F   UNL A   1      39.281  36.425  40.324  1.00  0.00    -0.200 F 
ENDBRANCH  27  51
BRANCH  39  62
ATOM     62  C   UNL A   1      43.983  28.951  35.246  1.00  0.00     0.064 A 
ATOM     63  C   UNL A   1      45.265  29.448  34.972  1.00  0.00     0.173 A 
ATOM     64  C   UNL A   1      43.867  27.873  36.134  1.00  0.00     0.173 A 
ATOM     65  F   UNL A   1      45.426  30.476  34.126  1.00  0.00    -0.203 F 
ATOM     66  C   UNL A   1      46.392  28.877  35.557  1.00  0.00     0.198 A 
ATOM     67  C   UNL A   1      44.993  27.318  36.733  1.00  0.00     0.198 A 
ATOM     68  F   UNL A   1      42.658  27.373  36.434  1.00  0.00    -0.203 F 
ATOM     69  F   UNL A   1      47.611  29.353  35.266  1.00  0.00    -0.200 F 
ATOM     70  C   UNL A   1      46.255  27.815  36.439  1.00  0.00     0.200 A 
ATOM     71  F   UNL A   1      44.860  26.305  37.601  1.00  0.00    -0.200 F 
ATOM     72  F   UNL A   1      47.340  27.274  37.010  1.00  0.00    -0.200 F 
ENDBRANCH  39  62
ENDBRANCH  13  14
ENDBRANCH   6   8
ENDBRANCH   3   4
ENDBRANCH   2   3
ENDBRANCH   1   2
BRANCH   1  73
ATOM     73  C   UNL A   1      33.095  29.942  26.600  1.00  0.00     0.116 C 
BRANCH  73  74
ATOM     74  N   UNL A   1      33.352  29.745  25.181  1.00  0.00    -0.352 N 
ATOM     75  C   UNL A   1      33.227  28.594  24.447  1.00  0.00     0.251 C 
ATOM     76  H   UNL A   1      33.655  30.540  24.684  1.00  0.00     0.163 HD
ATOM     77  O   UNL A   1      33.555  28.541  23.268  1.00  0.00    -0.269 OA
BRANCH  75  78
ATOM     78  C   UNL A   1      32.705  27.396  25.118  1.00  0.00     0.042 A 
ATOM     79  C   UNL A   1      33.593  26.444  25.635  1.00  0.00     0.015 A 
ATOM     80  C   UNL A   1      31.327  27.194  25.150  1.00  0.00     0.054 A 
ATOM     81  C   UNL A   1      33.089  25.251  26.151  1.00  0.00     0.024 A 
ATOM     82  C   UNL A   1      30.836  25.995  25.651  1.00  0.00     0.142 A 
ATOM     83  C   UNL A   1      31.706  25.027  26.143  1.00  0.00     0.103 A 
ATOM     84  F   UNL A   1      29.514  25.791  25.617  1.00  0.00    -0.206 F 
BRANCH  83  85
ATOM     85  S   UNL A   1      31.094  23.477  26.727  1.00  0.00     0.188 S 
ATOM     86  O   UNL A   1      32.140  22.989  27.613  1.00  0.00    -0.223 OA
ATOM     87  O   UNL A   1      29.770  23.719  27.281  1.00  0.00    -0.223 OA
BRANCH  85  88
ATOM     88  C   UNL A   1      30.949  22.321  25.413  1.00  0.00     0.219 C 
BRANCH  88  89
ATOM     89  C   UNL A   1      32.156  21.454  25.268  1.00  0.00     0.143 A 
ATOM     90  N   UNL A   1      32.074  20.120  25.421  1.00  0.00    -0.240 NA
ATOM     91  N   UNL A   1      33.270  22.082  24.834  1.00  0.00    -0.240 NA
ATOM     92  C   UNL A   1      33.184  19.399  25.166  1.00  0.00     0.115 A 
ATOM     93  C   UNL A   1      34.349  21.317  24.581  1.00  0.00     0.115 A 
ATOM     94  C   UNL A   1      34.362  19.953  24.734  1.00  0.00     0.040 A 
ENDBRANCH  88  89
ENDBRANCH  85  88
ENDBRANCH  83  85
ENDBRANCH  75  78
ENDBRANCH  73  74
ENDBRANCH   1  73
TORSDOF 14
ENDMDL
