MODEL 1
REMARK VINA RESULT:     -11.9      0.000      0.000
REMARK SMILES CC(C)c1nc(OCC(=O)NCCCCNC(=O)c2ccc(-c3c4nc(c(-c5c(F)c(F)c(F)c(F)c5F)c5ccc([nH]5)c(-c5c(F)c(F)c(F)c(F)c5F)c5nc(c(-c6c(F)c(F)c(F)c(F)c6F)c6ccc3[nH]6)C=C5)C=C4)cc2)cc(-c2ccccn2)n1
REMARK SMILES IDX 13 1 12 2 11 3 9 4 10 5 8 7 7 8 6 9 4 10 5 11 90 12 83 13
REMARK SMILES IDX 82 14 2 15 1 16 3 17 84 18 85 19 89 20 86 21 88 22 87 23
REMARK SMILES IDX 14 24 15 25 16 26 17 27 18 29 19 30 20 31 81 32 21 33 80 34
REMARK SMILES IDX 22 35 23 36 24 37 74 38 25 39 79 40 73 41 75 42 26 43 78 44
REMARK SMILES IDX 72 45 71 46 27 48 59 49 39 50 58 51 40 52 43 53 57 54 76 55
REMARK SMILES IDX 41 56 42 57 56 59 77 60 44 61 28 62 29 63 37 64 30 65 31 66
REMARK SMILES IDX 35 67 38 68 32 69 33 70 36 71 34 72 60 73 61 74 69 75 62 76
REMARK SMILES IDX 63 77 67 78 70 79 64 80 65 81 68 82 66 83 45 84 46 85 54 86
REMARK SMILES IDX 47 87 48 88 52 89 55 90 49 91 50 92 53 93 51 94
REMARK H PARENT 11 6 16 28 75 47 43 58
REMARK Flexibility Score: inf
ROOT
ATOM      1  C   UNL A   1      32.715  26.867  25.332  1.00  0.00     0.023 C 
ENDROOT
BRANCH   1   2
ATOM      2  C   UNL A   1      32.754  25.391  25.725  1.00  0.00     0.116 C 
BRANCH   2   3
ATOM      3  N   UNL A   1      31.661  25.028  26.607  1.00  0.00    -0.353 N 
ATOM      4  C   UNL A   1      30.757  24.017  26.462  1.00  0.00     0.258 C 
ATOM      5  O   UNL A   1      29.873  23.889  27.312  1.00  0.00    -0.271 OA
ATOM      6  H   UNL A   1      31.558  25.583  27.413  1.00  0.00     0.163 HD
BRANCH   4   7
ATOM      7  C   UNL A   1      30.864  23.060  25.268  1.00  0.00     0.331 C 
BRANCH   7   8
ATOM      8  O   UNL A   1      31.108  21.699  25.574  1.00  0.00    -0.467 OA
BRANCH   8   9
ATOM      9  C   UNL A   1      32.360  21.206  25.346  1.00  0.00     0.217 A 
ATOM     10  C   UNL A   1      33.514  19.341  24.669  1.00  0.00     0.135 A 
ATOM     11  N   UNL A   1      32.333  19.939  24.905  1.00  0.00    -0.198 NA
ATOM     12  N   UNL A   1      34.709  19.907  24.905  1.00  0.00    -0.231 NA
ATOM     13  C   UNL A   1      34.704  21.187  25.334  1.00  0.00     0.096 A 
ATOM     14  C   UNL A   1      33.534  21.889  25.548  1.00  0.00     0.099 A 
BRANCH  10  15
ATOM     15  C   UNL A   1      33.476  17.927  24.134  1.00  0.00     0.051 C 
ATOM     16  C   UNL A   1      32.870  16.955  25.147  1.00  0.00     0.016 C 
ATOM     17  C   UNL A   1      32.726  17.875  22.806  1.00  0.00     0.016 C 
ENDBRANCH  10  15
BRANCH  13  18
ATOM     18  C   UNL A   1      36.006  21.812  25.606  1.00  0.00     0.089 A 
ATOM     19  C   UNL A   1      36.100  23.160  25.961  1.00  0.00     0.030 A 
ATOM     20  N   UNL A   1      37.104  21.036  25.422  1.00  0.00    -0.255 NA
ATOM     21  C   UNL A   1      37.359  23.729  26.135  1.00  0.00     0.004 A 
ATOM     22  C   UNL A   1      38.311  21.613  25.604  1.00  0.00     0.112 A 
ATOM     23  C   UNL A   1      38.487  22.943  25.952  1.00  0.00     0.020 A 
ENDBRANCH  13  18
ENDBRANCH   8   9
ENDBRANCH   7   8
ENDBRANCH   4   7
ENDBRANCH   2   3
ENDBRANCH   1   2
BRANCH   1  24
ATOM     24  C   UNL A   1      33.739  27.764  26.038  1.00  0.00     0.023 C 
BRANCH  24  25
ATOM     25  C   UNL A   1      33.330  28.306  27.407  1.00  0.00     0.116 C 
BRANCH  25  26
ATOM     26  N   UNL A   1      33.321  29.756  27.473  1.00  0.00    -0.352 N 
ATOM     27  C   UNL A   1      34.303  30.627  27.873  1.00  0.00     0.251 C 
ATOM     28  H   UNL A   1      32.481  30.181  27.187  1.00  0.00     0.163 HD
ATOM     29  O   UNL A   1      34.049  31.830  27.932  1.00  0.00    -0.269 OA
BRANCH  27  30
ATOM     30  C   UNL A   1      35.648  30.148  28.270  1.00  0.00     0.039 A 
ATOM     31  C   UNL A   1      36.665  30.175  27.309  1.00  0.00     0.014 A 
ATOM     32  C   UNL A   1      35.914  29.639  29.543  1.00  0.00     0.014 A 
ATOM     33  C   UNL A   1      37.953  29.746  27.639  1.00  0.00     0.010 A 
ATOM     34  C   UNL A   1      37.215  29.267  29.891  1.00  0.00     0.010 A 
ATOM     35  C   UNL A   1      38.247  29.314  28.942  1.00  0.00    -0.014 A 
BRANCH  35  36
ATOM     36  C   UNL A   1      39.631  28.921  29.313  1.00  0.00     0.031 A 
ATOM     37  C   UNL A   1      40.467  29.798  30.202  1.00  0.00     0.074 A 
ATOM     38  C   UNL A   1      40.150  27.780  28.819  1.00  0.00     0.049 A 
ATOM     39  N   UNL A   1      41.691  29.614  30.633  1.00  0.00    -0.248 NA
ATOM     40  C   UNL A   1      39.859  31.060  30.648  1.00  0.00     0.031 C 
ATOM     41  C   UNL A   1      39.464  26.869  27.903  1.00  0.00     0.029 A 
ATOM     42  N   UNL A   1      41.375  27.192  29.018  1.00  0.00    -0.354 N 
ATOM     43  C   UNL A   1      42.001  30.735  31.390  1.00  0.00     0.074 A 
ATOM     44  C   UNL A   1      40.856  31.618  31.322  1.00  0.00     0.031 C 
ATOM     45  C   UNL A   1      40.266  25.824  27.640  1.00  0.00     0.029 A 
ATOM     46  C   UNL A   1      41.529  26.002  28.351  1.00  0.00     0.049 A 
ATOM     47  H   UNL A   1      42.076  27.588  29.585  1.00  0.00     0.167 HD
ATOM     48  C   UNL A   1      43.127  30.996  32.097  1.00  0.00     0.037 A 
ATOM     49  C   UNL A   1      42.567  25.147  28.321  1.00  0.00     0.037 A 
ATOM     50  C   UNL A   1      44.257  30.107  32.188  1.00  0.00     0.049 A 
ATOM     51  C   UNL A   1      43.795  25.447  29.138  1.00  0.00     0.074 A 
ATOM     52  C   UNL A   1      45.421  30.260  32.923  1.00  0.00     0.029 A 
ATOM     53  N   UNL A   1      44.364  28.897  31.520  1.00  0.00    -0.354 N 
ATOM     54  N   UNL A   1      44.046  26.477  29.906  1.00  0.00    -0.248 NA
ATOM     55  C   UNL A   1      44.877  24.453  29.092  1.00  0.00     0.031 C 
ATOM     56  C   UNL A   1      46.246  29.157  32.674  1.00  0.00     0.029 A 
ATOM     57  C   UNL A   1      45.579  28.298  31.816  1.00  0.00     0.049 A 
ATOM     58  H   UNL A   1      43.678  28.518  30.923  1.00  0.00     0.167 HD
ATOM     59  C   UNL A   1      45.300  26.247  30.455  1.00  0.00     0.074 A 
ATOM     60  C   UNL A   1      45.751  24.969  29.944  1.00  0.00     0.031 C 
ATOM     61  C   UNL A   1      46.013  27.024  31.305  1.00  0.00     0.037 A 
BRANCH  48  62
ATOM     62  C   UNL A   1      43.192  32.298  32.840  1.00  0.00     0.064 A 
ATOM     63  C   UNL A   1      42.770  32.402  34.174  1.00  0.00     0.173 A 
ATOM     64  C   UNL A   1      43.714  33.446  32.225  1.00  0.00     0.173 A 
ATOM     65  F   UNL A   1      42.252  31.336  34.803  1.00  0.00    -0.203 F 
ATOM     66  C   UNL A   1      42.844  33.613  34.857  1.00  0.00     0.198 A 
ATOM     67  C   UNL A   1      43.812  34.649  32.921  1.00  0.00     0.198 A 
ATOM     68  F   UNL A   1      44.136  33.400  30.954  1.00  0.00    -0.203 F 
ATOM     69  F   UNL A   1      42.393  33.699  36.116  1.00  0.00    -0.200 F 
ATOM     70  C   UNL A   1      43.370  34.734  34.232  1.00  0.00     0.200 A 
ATOM     71  F   UNL A   1      44.331  35.729  32.319  1.00  0.00    -0.200 F 
ATOM     72  F   UNL A   1      43.446  35.897  34.892  1.00  0.00    -0.200 F 
ENDBRANCH  48  62
BRANCH  49  73
ATOM     73  C   UNL A   1      42.473  23.898  27.524  1.00  0.00     0.064 A 
ATOM     74  C   UNL A   1      41.930  22.731  28.079  1.00  0.00     0.173 A 
ATOM     75  C   UNL A   1      42.924  23.843  26.198  1.00  0.00     0.173 A 
ATOM     76  F   UNL A   1      41.505  22.731  29.352  1.00  0.00    -0.203 F 
ATOM     77  C   UNL A   1      41.858  21.551  27.344  1.00  0.00     0.198 A 
ATOM     78  C   UNL A   1      42.829  22.668  25.455  1.00  0.00     0.198 A 
ATOM     79  F   UNL A   1      43.448  24.934  25.620  1.00  0.00    -0.203 F 
ATOM     80  F   UNL A   1      41.372  20.438  27.913  1.00  0.00    -0.200 F 
ATOM     81  C   UNL A   1      42.302  21.521  26.031  1.00  0.00     0.200 A 
ATOM     82  F   UNL A   1      43.249  22.646  24.183  1.00  0.00    -0.200 F 
ATOM     83  F   UNL A   1      42.231  20.386  25.323  1.00  0.00    -0.200 F 
ENDBRANCH  49  73
BRANCH  61  84
ATOM     84  C   UNL A   1      47.344  26.498  31.759  1.00  0.00     0.064 A 
ATOM     85  C   UNL A   1      48.535  26.859  31.112  1.00  0.00     0.173 A 
ATOM     86  C   UNL A   1      47.428  25.640  32.864  1.00  0.00     0.173 A 
ATOM     87  F   UNL A   1      48.504  27.665  30.041  1.00  0.00    -0.203 F 
ATOM     88  C   UNL A   1      49.761  26.352  31.537  1.00  0.00     0.198 A 
ATOM     89  C   UNL A   1      48.659  25.157  33.303  1.00  0.00     0.198 A 
ATOM     90  F   UNL A   1      46.318  25.269  33.521  1.00  0.00    -0.203 F 
ATOM     91  F   UNL A   1      50.881  26.669  30.873  1.00  0.00    -0.200 F 
ATOM     92  C   UNL A   1      49.822  25.507  32.635  1.00  0.00     0.200 A 
ATOM     93  F   UNL A   1      48.718  24.348  34.370  1.00  0.00    -0.200 F 
ATOM     94  F   UNL A   1      51.003  25.021  33.042  1.00  0.00    -0.200 F 
ENDBRANCH  61  84
ENDBRANCH  35  36
ENDBRANCH  27  30
ENDBRANCH  25  26
ENDBRANCH  24  25
ENDBRANCH   1  24
TORSDOF 15
ENDMDL
MODEL 2
REMARK VINA RESULT:     -11.8      2.502      3.894
REMARK SMILES CC(C)c1nc(OCC(=O)NCCCCNC(=O)c2ccc(-c3c4nc(c(-c5c(F)c(F)c(F)c(F)c5F)c5ccc([nH]5)c(-c5c(F)c(F)c(F)c(F)c5F)c5nc(c(-c6c(F)c(F)c(F)c(F)c6F)c6ccc3[nH]6)C=C5)C=C4)cc2)cc(-c2ccccn2)n1
REMARK SMILES IDX 13 1 12 2 11 3 9 4 10 5 8 7 7 8 6 9 4 10 5 11 90 12 83 13
REMARK SMILES IDX 82 14 2 15 1 16 3 17 84 18 85 19 89 20 86 21 88 22 87 23
REMARK SMILES IDX 14 24 15 25 16 26 17 27 18 29 19 30 20 31 81 32 21 33 80 34
REMARK SMILES IDX 22 35 23 36 24 37 74 38 25 39 79 40 73 41 75 42 26 43 78 44
REMARK SMILES IDX 72 45 71 46 27 48 59 49 39 50 58 51 40 52 43 53 57 54 76 55
REMARK SMILES IDX 41 56 42 57 56 59 77 60 44 61 28 62 29 63 37 64 30 65 31 66
REMARK SMILES IDX 35 67 38 68 32 69 33 70 36 71 34 72 60 73 61 74 69 75 62 76
REMARK SMILES IDX 63 77 67 78 70 79 64 80 65 81 68 82 66 83 45 84 46 85 54 86
REMARK SMILES IDX 47 87 48 88 52 89 55 90 49 91 50 92 53 93 51 94
REMARK H PARENT 11 6 16 28 75 47 43 58
REMARK Flexibility Score: inf
ROOT
ATOM      1  C   UNL A   1      32.237  26.879  25.336  1.00  0.00     0.023 C 
ENDROOT
BRANCH   1   2
ATOM      2  C   UNL A   1      31.025  26.138  25.897  1.00  0.00     0.116 C 
BRANCH   2   3
ATOM      3  N   UNL A   1      31.404  25.099  26.838  1.00  0.00    -0.353 N 
ATOM      4  C   UNL A   1      31.282  23.748  26.700  1.00  0.00     0.258 C 
ATOM      5  O   UNL A   1      31.635  23.025  27.634  1.00  0.00    -0.271 OA
ATOM      6  H   UNL A   1      31.799  25.411  27.684  1.00  0.00     0.163 HD
BRANCH   4   7
ATOM      7  C   UNL A   1      30.729  23.158  25.397  1.00  0.00     0.331 C 
BRANCH   7   8
ATOM      8  O   UNL A   1      31.657  22.992  24.340  1.00  0.00    -0.467 OA
BRANCH   8   9
ATOM      9  C   UNL A   1      32.648  22.066  24.497  1.00  0.00     0.217 A 
ATOM     10  C   UNL A   1      34.925  21.800  24.599  1.00  0.00     0.135 A 
ATOM     11  N   UNL A   1      33.869  22.622  24.477  1.00  0.00    -0.198 NA
ATOM     12  N   UNL A   1      34.837  20.462  24.676  1.00  0.00    -0.231 NA
ATOM     13  C   UNL A   1      33.595  19.933  24.709  1.00  0.00     0.096 A 
ATOM     14  C   UNL A   1      32.458  20.714  24.643  1.00  0.00     0.099 A 
BRANCH  10  15
ATOM     15  C   UNL A   1      36.297  22.437  24.616  1.00  0.00     0.051 C 
ATOM     16  C   UNL A   1      36.718  22.911  23.224  1.00  0.00     0.016 C 
ATOM     17  C   UNL A   1      36.344  23.583  25.623  1.00  0.00     0.016 C 
ENDBRANCH  10  15
BRANCH  13  18
ATOM     18  C   UNL A   1      33.488  18.469  24.782  1.00  0.00     0.089 A 
ATOM     19  C   UNL A   1      34.254  17.647  23.952  1.00  0.00     0.030 A 
ATOM     20  N   UNL A   1      32.562  17.969  25.638  1.00  0.00    -0.255 NA
ATOM     21  C   UNL A   1      34.065  16.268  24.004  1.00  0.00     0.004 A 
ATOM     22  C   UNL A   1      32.405  16.628  25.671  1.00  0.00     0.112 A 
ATOM     23  C   UNL A   1      33.122  15.747  24.877  1.00  0.00     0.020 A 
ENDBRANCH  13  18
ENDBRANCH   8   9
ENDBRANCH   7   8
ENDBRANCH   4   7
ENDBRANCH   2   3
ENDBRANCH   1   2
BRANCH   1  24
ATOM     24  C   UNL A   1      31.995  28.346  24.959  1.00  0.00     0.023 C 
BRANCH  24  25
ATOM     25  C   UNL A   1      33.124  29.321  25.288  1.00  0.00     0.116 C 
BRANCH  25  26
ATOM     26  N   UNL A   1      32.660  30.562  25.881  1.00  0.00    -0.352 N 
ATOM     27  C   UNL A   1      33.172  31.286  26.927  1.00  0.00     0.251 C 
ATOM     28  H   UNL A   1      31.853  30.945  25.467  1.00  0.00     0.163 HD
ATOM     29  O   UNL A   1      32.563  32.279  27.326  1.00  0.00    -0.269 OA
BRANCH  27  30
ATOM     30  C   UNL A   1      34.422  30.879  27.612  1.00  0.00     0.039 A 
ATOM     31  C   UNL A   1      35.467  31.806  27.679  1.00  0.00     0.014 A 
ATOM     32  C   UNL A   1      34.597  29.600  28.147  1.00  0.00     0.014 A 
ATOM     33  C   UNL A   1      36.661  31.474  28.325  1.00  0.00     0.010 A 
ATOM     34  C   UNL A   1      35.767  29.288  28.846  1.00  0.00     0.010 A 
ATOM     35  C   UNL A   1      36.811  30.220  28.939  1.00  0.00    -0.014 A 
BRANCH  35  36
ATOM     36  C   UNL A   1      38.053  29.889  29.684  1.00  0.00     0.031 A 
ATOM     37  C   UNL A   1      38.284  30.425  31.070  1.00  0.00     0.074 A 
ATOM     38  C   UNL A   1      38.994  29.126  29.096  1.00  0.00     0.049 A 
ATOM     39  N   UNL A   1      39.305  30.238  31.870  1.00  0.00    -0.248 NA
ATOM     40  C   UNL A   1      37.245  31.306  31.621  1.00  0.00     0.031 C 
ATOM     41  C   UNL A   1      38.917  28.589  27.738  1.00  0.00     0.029 A 
ATOM     42  N   UNL A   1      40.201  28.668  29.567  1.00  0.00    -0.354 N 
ATOM     43  C   UNL A   1      39.035  30.982  33.011  1.00  0.00     0.074 A 
ATOM     44  C   UNL A   1      37.779  31.663  32.782  1.00  0.00     0.031 C 
ATOM     45  C   UNL A   1      40.013  27.854  27.493  1.00  0.00     0.029 A 
ATOM     46  C   UNL A   1      40.880  27.885  28.667  1.00  0.00     0.049 A 
ATOM     47  H   UNL A   1      40.546  28.883  30.464  1.00  0.00     0.167 HD
ATOM     48  C   UNL A   1      39.757  31.072  34.154  1.00  0.00     0.037 A 
ATOM     49  C   UNL A   1      42.065  27.256  28.779  1.00  0.00     0.037 A 
ATOM     50  C   UNL A   1      40.994  30.375  34.395  1.00  0.00     0.049 A 
ATOM     51  C   UNL A   1      42.832  27.349  30.070  1.00  0.00     0.074 A 
ATOM     52  C   UNL A   1      41.770  30.360  35.542  1.00  0.00     0.029 A 
ATOM     53  N   UNL A   1      41.637  29.567  33.470  1.00  0.00    -0.354 N 
ATOM     54  N   UNL A   1      42.531  27.998  31.167  1.00  0.00    -0.248 NA
ATOM     55  C   UNL A   1      44.099  26.607  30.139  1.00  0.00     0.031 C 
ATOM     56  C   UNL A   1      42.899  29.570  35.299  1.00  0.00     0.029 A 
ATOM     57  C   UNL A   1      42.807  29.059  34.014  1.00  0.00     0.049 A 
ATOM     58  H   UNL A   1      41.312  29.381  32.558  1.00  0.00     0.167 HD
ATOM     59  C   UNL A   1      43.553  27.725  32.064  1.00  0.00     0.074 A 
ATOM     60  C   UNL A   1      44.475  26.836  31.390  1.00  0.00     0.031 C 
ATOM     61  C   UNL A   1      43.713  28.171  33.334  1.00  0.00     0.037 A 
BRANCH  48  62
ATOM     62  C   UNL A   1      39.220  31.954  35.243  1.00  0.00     0.064 A 
ATOM     63  C   UNL A   1      38.444  31.435  36.291  1.00  0.00     0.173 A 
ATOM     64  C   UNL A   1      39.514  33.326  35.262  1.00  0.00     0.173 A 
ATOM     65  F   UNL A   1      38.125  30.132  36.312  1.00  0.00    -0.203 F 
ATOM     66  C   UNL A   1      37.960  32.260  37.301  1.00  0.00     0.198 A 
ATOM     67  C   UNL A   1      39.051  34.143  36.290  1.00  0.00     0.198 A 
ATOM     68  F   UNL A   1      40.257  33.871  34.288  1.00  0.00    -0.203 F 
ATOM     69  F   UNL A   1      37.182  31.750  38.267  1.00  0.00    -0.200 F 
ATOM     70  C   UNL A   1      38.269  33.613  37.303  1.00  0.00     0.200 A 
ATOM     71  F   UNL A   1      39.360  35.448  36.297  1.00  0.00    -0.200 F 
ATOM     72  F   UNL A   1      37.806  34.405  38.280  1.00  0.00    -0.200 F 
ENDBRANCH  48  62
BRANCH  49  73
ATOM     73  C   UNL A   1      42.578  26.441  27.649  1.00  0.00     0.064 A 
ATOM     74  C   UNL A   1      42.198  25.099  27.501  1.00  0.00     0.173 A 
ATOM     75  C   UNL A   1      43.455  26.980  26.699  1.00  0.00     0.173 A 
ATOM     76  F   UNL A   1      41.377  24.534  28.399  1.00  0.00    -0.203 F 
ATOM     77  C   UNL A   1      42.692  24.323  26.456  1.00  0.00     0.198 A 
ATOM     78  C   UNL A   1      43.929  26.210  25.639  1.00  0.00     0.198 A 
ATOM     79  F   UNL A   1      43.845  28.260  26.794  1.00  0.00    -0.203 F 
ATOM     80  F   UNL A   1      42.346  23.031  26.363  1.00  0.00    -0.200 F 
ATOM     81  C   UNL A   1      43.552  24.880  25.524  1.00  0.00     0.200 A 
ATOM     82  F   UNL A   1      44.752  26.754  24.733  1.00  0.00    -0.200 F 
ATOM     83  F   UNL A   1      44.026  24.133  24.516  1.00  0.00    -0.200 F 
ENDBRANCH  49  73
BRANCH  61  84
ATOM     84  C   UNL A   1      44.916  27.680  34.085  1.00  0.00     0.064 A 
ATOM     85  C   UNL A   1      46.132  28.379  34.061  1.00  0.00     0.173 A 
ATOM     86  C   UNL A   1      44.845  26.507  34.850  1.00  0.00     0.173 A 
ATOM     87  F   UNL A   1      46.254  29.497  33.331  1.00  0.00    -0.203 F 
ATOM     88  C   UNL A   1      47.243  27.903  34.753  1.00  0.00     0.198 A 
ATOM     89  C   UNL A   1      45.950  26.049  35.562  1.00  0.00     0.198 A 
ATOM     90  F   UNL A   1      43.703  25.805  34.910  1.00  0.00    -0.203 F 
ATOM     91  F   UNL A   1      48.409  28.559  34.676  1.00  0.00    -0.200 F 
ATOM     92  C   UNL A   1      47.150  26.742  35.507  1.00  0.00     0.200 A 
ATOM     93  F   UNL A   1      45.856  24.933  36.298  1.00  0.00    -0.200 F 
ATOM     94  F   UNL A   1      48.220  26.286  36.172  1.00  0.00    -0.200 F 
ENDBRANCH  61  84
ENDBRANCH  35  36
ENDBRANCH  27  30
ENDBRANCH  25  26
ENDBRANCH  24  25
ENDBRANCH   1  24
TORSDOF 15
ENDMDL
MODEL 3
REMARK VINA RESULT:     -11.7      2.293      3.320
REMARK SMILES CC(C)c1nc(OCC(=O)NCCCCNC(=O)c2ccc(-c3c4nc(c(-c5c(F)c(F)c(F)c(F)c5F)c5ccc([nH]5)c(-c5c(F)c(F)c(F)c(F)c5F)c5nc(c(-c6c(F)c(F)c(F)c(F)c6F)c6ccc3[nH]6)C=C5)C=C4)cc2)cc(-c2ccccn2)n1
REMARK SMILES IDX 13 1 12 2 11 3 9 4 10 5 8 7 7 8 6 9 4 10 5 11 90 12 83 13
REMARK SMILES IDX 82 14 2 15 1 16 3 17 84 18 85 19 89 20 86 21 88 22 87 23
REMARK SMILES IDX 14 24 15 25 16 26 17 27 18 29 19 30 20 31 81 32 21 33 80 34
REMARK SMILES IDX 22 35 23 36 24 37 74 38 25 39 79 40 73 41 75 42 26 43 78 44
REMARK SMILES IDX 72 45 71 46 27 48 59 49 39 50 58 51 40 52 43 53 57 54 76 55
REMARK SMILES IDX 41 56 42 57 56 59 77 60 44 61 28 62 29 63 37 64 30 65 31 66
REMARK SMILES IDX 35 67 38 68 32 69 33 70 36 71 34 72 60 73 61 74 69 75 62 76
REMARK SMILES IDX 63 77 67 78 70 79 64 80 65 81 68 82 66 83 45 84 46 85 54 86
REMARK SMILES IDX 47 87 48 88 52 89 55 90 49 91 50 92 53 93 51 94
REMARK H PARENT 11 6 16 28 75 47 43 58
REMARK Flexibility Score: inf
ROOT
ATOM      1  C   UNL A   1      32.098  26.973  24.940  1.00  0.00     0.023 C 
ENDROOT
BRANCH   1   2
ATOM      2  C   UNL A   1      30.859  26.436  25.654  1.00  0.00     0.116 C 
BRANCH   2   3
ATOM      3  N   UNL A   1      31.193  25.468  26.682  1.00  0.00    -0.353 N 
ATOM      4  C   UNL A   1      31.230  24.108  26.584  1.00  0.00     0.258 C 
ATOM      5  O   UNL A   1      31.509  23.451  27.589  1.00  0.00    -0.271 OA
ATOM      6  H   UNL A   1      31.422  25.841  27.563  1.00  0.00     0.163 HD
BRANCH   4   7
ATOM      7  C   UNL A   1      30.943  23.430  25.239  1.00  0.00     0.331 C 
BRANCH   7   8
ATOM      8  O   UNL A   1      32.004  23.421  24.301  1.00  0.00    -0.467 OA
BRANCH   8   9
ATOM      9  C   UNL A   1      33.078  22.618  24.555  1.00  0.00     0.217 A 
ATOM     10  C   UNL A   1      33.755  20.429  24.691  1.00  0.00     0.135 A 
ATOM     11  N   UNL A   1      32.777  21.316  24.439  1.00  0.00    -0.198 NA
ATOM     12  N   UNL A   1      34.988  20.762  25.109  1.00  0.00    -0.231 NA
ATOM     13  C   UNL A   1      35.266  22.080  25.202  1.00  0.00     0.096 A 
ATOM     14  C   UNL A   1      34.332  23.054  24.908  1.00  0.00     0.099 A 
BRANCH  10  15
ATOM     15  C   UNL A   1      33.420  18.965  24.521  1.00  0.00     0.051 C 
ATOM     16  C   UNL A   1      32.493  18.732  23.327  1.00  0.00     0.016 C 
ATOM     17  C   UNL A   1      34.694  18.133  24.398  1.00  0.00     0.016 C 
ENDBRANCH  10  15
BRANCH  13  18
ATOM     18  C   UNL A   1      36.608  22.454  25.668  1.00  0.00     0.089 A 
ATOM     19  C   UNL A   1      36.890  23.757  26.087  1.00  0.00     0.030 A 
ATOM     20  N   UNL A   1      37.565  21.495  25.600  1.00  0.00    -0.255 NA
ATOM     21  C   UNL A   1      38.193  24.085  26.450  1.00  0.00     0.004 A 
ATOM     22  C   UNL A   1      38.820  21.841  25.964  1.00  0.00     0.112 A 
ATOM     23  C   UNL A   1      39.179  23.111  26.386  1.00  0.00     0.020 A 
ENDBRANCH  13  18
ENDBRANCH   8   9
ENDBRANCH   7   8
ENDBRANCH   4   7
ENDBRANCH   2   3
ENDBRANCH   1   2
BRANCH   1  24
ATOM     24  C   UNL A   1      33.180  27.563  25.853  1.00  0.00     0.023 C 
BRANCH  24  25
ATOM     25  C   UNL A   1      33.846  28.849  25.365  1.00  0.00     0.116 C 
BRANCH  25  26
ATOM     26  N   UNL A   1      33.214  30.053  25.872  1.00  0.00    -0.352 N 
ATOM     27  C   UNL A   1      33.578  30.869  26.913  1.00  0.00     0.251 C 
ATOM     28  H   UNL A   1      32.399  30.328  25.395  1.00  0.00     0.163 HD
ATOM     29  O   UNL A   1      32.841  31.803  27.230  1.00  0.00    -0.269 OA
BRANCH  27  30
ATOM     30  C   UNL A   1      34.818  30.628  27.688  1.00  0.00     0.039 A 
ATOM     31  C   UNL A   1      34.924  29.431  28.404  1.00  0.00     0.014 A 
ATOM     32  C   UNL A   1      35.850  31.568  27.757  1.00  0.00     0.014 A 
ATOM     33  C   UNL A   1      36.079  29.152  29.139  1.00  0.00     0.010 A 
ATOM     34  C   UNL A   1      37.030  31.264  28.442  1.00  0.00     0.010 A 
ATOM     35  C   UNL A   1      37.155  30.055  29.142  1.00  0.00    -0.014 A 
BRANCH  35  36
ATOM     36  C   UNL A   1      38.410  29.731  29.869  1.00  0.00     0.031 A 
ATOM     37  C   UNL A   1      38.687  30.320  31.224  1.00  0.00     0.074 A 
ATOM     38  C   UNL A   1      39.321  28.926  29.290  1.00  0.00     0.049 A 
ATOM     39  N   UNL A   1      39.725  30.147  32.005  1.00  0.00    -0.248 NA
ATOM     40  C   UNL A   1      37.679  31.244  31.763  1.00  0.00     0.031 C 
ATOM     41  C   UNL A   1      39.199  28.334  27.957  1.00  0.00     0.029 A 
ATOM     42  N   UNL A   1      40.531  28.465  29.748  1.00  0.00    -0.354 N 
ATOM     43  C   UNL A   1      39.499  30.943  33.120  1.00  0.00     0.074 A 
ATOM     44  C   UNL A   1      38.249  31.638  32.894  1.00  0.00     0.031 C 
ATOM     45  C   UNL A   1      40.275  27.568  27.716  1.00  0.00     0.029 A 
ATOM     46  C   UNL A   1      41.172  27.631  28.866  1.00  0.00     0.049 A 
ATOM     47  H   UNL A   1      40.903  28.710  30.627  1.00  0.00     0.167 HD
ATOM     48  C   UNL A   1      40.252  31.067  34.240  1.00  0.00     0.037 A 
ATOM     49  C   UNL A   1      42.348  26.985  28.975  1.00  0.00     0.037 A 
ATOM     50  C   UNL A   1      41.482  30.357  34.478  1.00  0.00     0.049 A 
ATOM     51  C   UNL A   1      43.150  27.117  30.240  1.00  0.00     0.074 A 
ATOM     52  C   UNL A   1      42.287  30.375  35.605  1.00  0.00     0.029 A 
ATOM     53  N   UNL A   1      42.086  29.499  33.572  1.00  0.00    -0.354 N 
ATOM     54  N   UNL A   1      42.889  27.817  31.316  1.00  0.00    -0.248 NA
ATOM     55  C   UNL A   1      44.404  26.354  30.309  1.00  0.00     0.031 C 
ATOM     56  C   UNL A   1      43.394  29.553  35.367  1.00  0.00     0.029 A 
ATOM     57  C   UNL A   1      43.259  28.991  34.108  1.00  0.00     0.049 A 
ATOM     58  H   UNL A   1      41.733  29.281  32.678  1.00  0.00     0.167 HD
ATOM     59  C   UNL A   1      43.929  27.562  32.198  1.00  0.00     0.074 A 
ATOM     60  C   UNL A   1      44.818  26.628  31.538  1.00  0.00     0.031 C 
ATOM     61  C   UNL A   1      44.131  28.058  33.443  1.00  0.00     0.037 A 
BRANCH  48  62
ATOM     62  C   UNL A   1      39.760  32.004  35.303  1.00  0.00     0.064 A 
ATOM     63  C   UNL A   1      40.183  33.341  35.355  1.00  0.00     0.173 A 
ATOM     64  C   UNL A   1      38.827  31.574  36.259  1.00  0.00     0.173 A 
ATOM     65  F   UNL A   1      41.082  33.799  34.470  1.00  0.00    -0.203 F 
ATOM     66  C   UNL A   1      39.711  34.205  36.339  1.00  0.00     0.198 A 
ATOM     67  C   UNL A   1      38.337  32.448  37.226  1.00  0.00     0.198 A 
ATOM     68  F   UNL A   1      38.386  30.308  36.250  1.00  0.00    -0.203 F 
ATOM     69  F   UNL A   1      40.164  35.465  36.396  1.00  0.00    -0.200 F 
ATOM     70  C   UNL A   1      38.785  33.759  37.271  1.00  0.00     0.200 A 
ATOM     71  F   UNL A   1      37.433  32.020  38.118  1.00  0.00    -0.200 F 
ATOM     72  F   UNL A   1      38.328  34.593  38.215  1.00  0.00    -0.200 F 
ENDBRANCH  48  62
BRANCH  49  73
ATOM     73  C   UNL A   1      42.816  26.113  27.867  1.00  0.00     0.064 A 
ATOM     74  C   UNL A   1      43.675  26.609  26.876  1.00  0.00     0.173 A 
ATOM     75  C   UNL A   1      42.416  24.773  27.775  1.00  0.00     0.173 A 
ATOM     76  F   UNL A   1      44.067  27.892  26.913  1.00  0.00    -0.203 F 
ATOM     77  C   UNL A   1      44.101  25.804  25.824  1.00  0.00     0.198 A 
ATOM     78  C   UNL A   1      42.863  23.960  26.735  1.00  0.00     0.198 A 
ATOM     79  F   UNL A   1      41.598  24.250  28.700  1.00  0.00    -0.203 F 
ATOM     80  F   UNL A   1      44.888  26.315  24.868  1.00  0.00    -0.200 F 
ATOM     81  C   UNL A   1      43.699  24.479  25.757  1.00  0.00     0.200 A 
ATOM     82  F   UNL A   1      42.482  22.677  26.678  1.00  0.00    -0.200 F 
ATOM     83  F   UNL A   1      44.111  23.703  24.746  1.00  0.00    -0.200 F 
ENDBRANCH  49  73
BRANCH  61  84
ATOM     84  C   UNL A   1      45.344  27.575  34.183  1.00  0.00     0.064 A 
ATOM     85  C   UNL A   1      46.570  28.252  34.104  1.00  0.00     0.173 A 
ATOM     86  C   UNL A   1      45.273  26.434  34.994  1.00  0.00     0.173 A 
ATOM     87  F   UNL A   1      46.692  29.340  33.330  1.00  0.00    -0.203 F 
ATOM     88  C   UNL A   1      47.690  27.784  34.787  1.00  0.00     0.198 A 
ATOM     89  C   UNL A   1      46.388  25.985  35.697  1.00  0.00     0.198 A 
ATOM     90  F   UNL A   1      44.121  25.754  35.108  1.00  0.00    -0.203 F 
ATOM     91  F   UNL A   1      48.864  28.417  34.658  1.00  0.00    -0.200 F 
ATOM     92  C   UNL A   1      47.596  26.655  35.587  1.00  0.00     0.200 A 
ATOM     93  F   UNL A   1      46.294  24.898  36.477  1.00  0.00    -0.200 F 
ATOM     94  F   UNL A   1      48.676  26.206  36.243  1.00  0.00    -0.200 F 
ENDBRANCH  61  84
ENDBRANCH  35  36
ENDBRANCH  27  30
ENDBRANCH  25  26
ENDBRANCH  24  25
ENDBRANCH   1  24
TORSDOF 15
ENDMDL
