MODEL 1
REMARK VINA RESULT:     -12.8      0.000      0.000
REMARK SMILES COC(=O)c1c(NC(=O)[C@@H]2[C@H]3CC[C@H](CC3)[C@H]2C(=O)NCCCCNC(=O)c2ccc(-c3c4nc(c(-c5c(F)c(F)c(F)c(F)c5F)c5ccc([nH]5)c(-c5c(F)c(F)c(F)c(F)c5F)c5nc(c(-c6c(F)c(F)c(F)c(F)c6F)c6ccc3[nH]6)C=C5)C=C4)cc2)sc(C)c1-c1ccc(C)cc1
REMARK SMILES IDX 21 1 20 2 18 3 19 4 17 6 10 7 11 8 16 9 12 10 14 11 15 12
REMARK SMILES IDX 13 13 8 14 7 15 9 17 6 18 5 19 94 20 91 21 92 22 93 23 3 24
REMARK SMILES IDX 4 25 2 26 1 27 95 28 96 29 101 30 97 31 100 32 98 33 99 34
REMARK SMILES IDX 22 35 23 36 24 37 25 38 26 39 27 41 28 42 29 43 90 44 30 45
REMARK SMILES IDX 89 46 31 47 32 48 33 49 83 50 34 51 88 52 82 53 84 54 35 55
REMARK SMILES IDX 87 56 81 57 80 58 36 60 68 61 48 62 67 63 49 64 52 65 66 66
REMARK SMILES IDX 85 67 50 68 51 69 65 71 86 72 53 73 37 74 38 75 46 76 39 77
REMARK SMILES IDX 40 78 44 79 47 80 41 81 42 82 45 83 43 84 69 85 70 86 78 87
REMARK SMILES IDX 71 88 72 89 76 90 79 91 73 92 74 93 77 94 75 95 54 96 55 97
REMARK SMILES IDX 63 98 56 99 57 100 61 101 64 102 58 103 59 104 62 105 60 106
REMARK H PARENT 20 5 7 16 25 40 84 59 52 70
REMARK Flexibility Score: inf
ROOT
ATOM      1  C   UNL A   1      34.409  25.147  23.423  1.00  0.00     0.116 C 
ENDROOT
BRANCH   1   2
ATOM      2  N   UNL A   1      33.337  25.397  22.499  1.00  0.00    -0.356 N 
ATOM      3  C   UNL A   1      32.287  26.259  22.586  1.00  0.00     0.224 C 
ATOM      4  O   UNL A   1      31.621  26.401  21.553  1.00  0.00    -0.275 OA
ATOM      5  H   UNL A   1      33.368  24.861  21.674  1.00  0.00     0.163 HD
BRANCH   3   6
ATOM      6  C   UNL A   1      31.896  27.049  23.848  1.00  0.00     0.094 C 
ATOM      7  C   UNL A   1      32.286  26.457  25.225  1.00  0.00     0.094 C 
ATOM      8  C   UNL A   1      32.805  27.645  26.135  1.00  0.00     0.002 C 
ATOM      9  C   UNL A   1      34.053  28.310  25.504  1.00  0.00     0.005 C 
ATOM     10  C   UNL A   1      31.791  28.808  26.249  1.00  0.00     0.005 C 
ATOM     11  C   UNL A   1      32.222  28.572  23.777  1.00  0.00     0.002 C 
ATOM     12  C   UNL A   1      33.682  28.911  24.132  1.00  0.00     0.005 C 
ATOM     13  C   UNL A   1      31.356  29.272  24.852  1.00  0.00     0.005 C 
BRANCH   7  14
ATOM     14  C   UNL A   1      31.063  25.760  25.875  1.00  0.00     0.229 C 
ATOM     15  N   UNL A   1      30.738  24.438  25.795  1.00  0.00    -0.317 N 
ATOM     16  H   UNL A   1      29.993  24.208  26.396  1.00  0.00     0.170 HD
ATOM     17  O   UNL A   1      30.281  26.423  26.572  1.00  0.00    -0.274 OA
BRANCH  15  18
ATOM     18  C   UNL A   1      31.186  23.340  25.087  1.00  0.00     0.111 A 
ATOM     19  C   UNL A   1      31.903  22.254  25.582  1.00  0.00     0.102 A 
ATOM     20  C   UNL A   1      32.268  21.338  24.508  1.00  0.00     0.012 A 
ATOM     21  S   UNL A   1      30.764  23.108  23.486  1.00  0.00    -0.122 S 
ATOM     22  C   UNL A   1      31.773  21.757  23.285  1.00  0.00     0.012 A 
ATOM     23  C   UNL A   1      31.959  21.197  21.912  1.00  0.00     0.057 C 
BRANCH  19  24
ATOM     24  C   UNL A   1      32.231  22.128  27.005  1.00  0.00     0.341 C 
ATOM     25  O   UNL A   1      31.520  22.580  27.889  1.00  0.00    -0.246 OA
BRANCH  24  26
ATOM     26  O   UNL A   1      33.400  21.463  27.227  1.00  0.00    -0.465 OA
ATOM     27  C   UNL A   1      34.501  22.277  27.626  1.00  0.00     0.282 C 
ENDBRANCH  24  26
ENDBRANCH  19  24
BRANCH  20  28
ATOM     28  C   UNL A   1      33.010  20.087  24.610  1.00  0.00    -0.016 A 
ATOM     29  C   UNL A   1      32.314  18.878  24.710  1.00  0.00     0.009 A 
ATOM     30  C   UNL A   1      34.409  20.080  24.595  1.00  0.00     0.009 A 
ATOM     31  C   UNL A   1      33.012  17.672  24.809  1.00  0.00     0.004 A 
ATOM     32  C   UNL A   1      35.105  18.871  24.681  1.00  0.00     0.004 A 
ATOM     33  C   UNL A   1      34.412  17.660  24.790  1.00  0.00    -0.051 A 
ATOM     34  C   UNL A   1      35.147  16.358  24.918  1.00  0.00     0.044 C 
ENDBRANCH  20  28
ENDBRANCH  15  18
ENDBRANCH   7  14
ENDBRANCH   3   6
ENDBRANCH   1   2
BRANCH   1  35
ATOM     35  C   UNL A   1      34.780  23.695  23.684  1.00  0.00     0.023 C 
BRANCH  35  36
ATOM     36  C   UNL A   1      36.269  23.421  23.755  1.00  0.00     0.023 C 
BRANCH  36  37
ATOM     37  C   UNL A   1      36.860  23.638  25.137  1.00  0.00     0.116 C 
BRANCH  37  38
ATOM     38  N   UNL A   1      37.874  22.652  25.495  1.00  0.00    -0.352 N 
ATOM     39  C   UNL A   1      39.046  22.840  26.183  1.00  0.00     0.251 C 
ATOM     40  H   UNL A   1      37.693  21.729  25.205  1.00  0.00     0.163 HD
ATOM     41  O   UNL A   1      39.857  21.931  26.303  1.00  0.00    -0.269 OA
BRANCH  39  42
ATOM     42  C   UNL A   1      39.322  24.173  26.742  1.00  0.00     0.039 A 
ATOM     43  C   UNL A   1      38.951  24.445  28.059  1.00  0.00     0.014 A 
ATOM     44  C   UNL A   1      40.014  25.118  25.981  1.00  0.00     0.014 A 
ATOM     45  C   UNL A   1      39.330  25.657  28.632  1.00  0.00     0.010 A 
ATOM     46  C   UNL A   1      40.486  26.269  26.588  1.00  0.00     0.010 A 
ATOM     47  C   UNL A   1      40.128  26.562  27.912  1.00  0.00    -0.014 A 
BRANCH  47  48
ATOM     48  C   UNL A   1      40.555  27.847  28.510  1.00  0.00     0.031 A 
ATOM     49  C   UNL A   1      42.003  28.058  28.856  1.00  0.00     0.074 A 
ATOM     50  C   UNL A   1      39.639  28.794  28.782  1.00  0.00     0.049 A 
ATOM     51  N   UNL A   1      42.581  29.097  29.400  1.00  0.00    -0.248 NA
ATOM     52  C   UNL A   1      42.920  26.937  28.589  1.00  0.00     0.031 C 
ATOM     53  C   UNL A   1      38.198  28.671  28.559  1.00  0.00     0.029 A 
ATOM     54  N   UNL A   1      39.787  30.053  29.305  1.00  0.00    -0.354 N 
ATOM     55  C   UNL A   1      43.915  28.748  29.552  1.00  0.00     0.074 A 
ATOM     56  C   UNL A   1      44.051  27.377  29.117  1.00  0.00     0.031 C 
ATOM     57  C   UNL A   1      37.599  29.822  28.904  1.00  0.00     0.029 A 
ATOM     58  C   UNL A   1      38.609  30.752  29.398  1.00  0.00     0.049 A 
ATOM     59  H   UNL A   1      40.655  30.420  29.588  1.00  0.00     0.167 HD
ATOM     60  C   UNL A   1      44.946  29.515  29.978  1.00  0.00     0.037 A 
ATOM     61  C   UNL A   1      38.379  32.007  29.825  1.00  0.00     0.037 A 
ATOM     62  C   UNL A   1      44.810  30.891  30.370  1.00  0.00     0.049 A 
ATOM     63  C   UNL A   1      39.545  32.848  30.269  1.00  0.00     0.074 A 
ATOM     64  C   UNL A   1      45.795  31.782  30.753  1.00  0.00     0.029 A 
ATOM     65  N   UNL A   1      43.604  31.576  30.427  1.00  0.00    -0.354 N 
ATOM     66  N   UNL A   1      40.818  32.537  30.328  1.00  0.00    -0.248 NA
ATOM     67  C   UNL A   1      39.243  34.222  30.695  1.00  0.00     0.031 C 
ATOM     68  C   UNL A   1      45.181  32.995  31.082  1.00  0.00     0.029 A 
ATOM     69  C   UNL A   1      43.819  32.875  30.856  1.00  0.00     0.049 A 
ATOM     70  H   UNL A   1      42.727  31.195  30.195  1.00  0.00     0.167 HD
ATOM     71  C   UNL A   1      41.471  33.679  30.770  1.00  0.00     0.074 A 
ATOM     72  C   UNL A   1      40.455  34.698  30.943  1.00  0.00     0.031 C 
ATOM     73  C   UNL A   1      42.790  33.871  31.016  1.00  0.00     0.037 A 
BRANCH  60  74
ATOM     74  C   UNL A   1      46.306  28.882  30.022  1.00  0.00     0.064 A 
ATOM     75  C   UNL A   1      47.167  28.911  28.914  1.00  0.00     0.173 A 
ATOM     76  C   UNL A   1      46.762  28.251  31.190  1.00  0.00     0.173 A 
ATOM     77  F   UNL A   1      46.775  29.486  27.768  1.00  0.00    -0.203 F 
ATOM     78  C   UNL A   1      48.419  28.302  28.962  1.00  0.00     0.198 A 
ATOM     79  C   UNL A   1      48.027  27.674  31.245  1.00  0.00     0.198 A 
ATOM     80  F   UNL A   1      45.979  28.196  32.278  1.00  0.00    -0.203 F 
ATOM     81  F   UNL A   1      49.199  28.292  27.872  1.00  0.00    -0.200 F 
ATOM     82  C   UNL A   1      48.851  27.692  30.129  1.00  0.00     0.200 A 
ATOM     83  F   UNL A   1      48.448  27.092  32.376  1.00  0.00    -0.200 F 
ATOM     84  F   UNL A   1      50.058  27.111  30.176  1.00  0.00    -0.200 F 
ENDBRANCH  60  74
BRANCH  61  85
ATOM     85  C   UNL A   1      36.999  32.560  29.807  1.00  0.00     0.064 A 
ATOM     86  C   UNL A   1      36.521  33.263  28.692  1.00  0.00     0.173 A 
ATOM     87  C   UNL A   1      36.135  32.406  30.901  1.00  0.00     0.173 A 
ATOM     88  F   UNL A   1      37.316  33.451  27.628  1.00  0.00    -0.203 F 
ATOM     89  C   UNL A   1      35.241  33.814  28.682  1.00  0.00     0.198 A 
ATOM     90  C   UNL A   1      34.845  32.932  30.878  1.00  0.00     0.198 A 
ATOM     91  F   UNL A   1      36.541  31.733  31.988  1.00  0.00    -0.203 F 
ATOM     92  F   UNL A   1      34.828  34.522  27.623  1.00  0.00    -0.200 F 
ATOM     93  C   UNL A   1      34.402  33.643  29.773  1.00  0.00     0.200 A 
ATOM     94  F   UNL A   1      34.032  32.752  31.928  1.00  0.00    -0.200 F 
ATOM     95  F   UNL A   1      33.171  34.171  29.762  1.00  0.00    -0.200 F 
ENDBRANCH  61  85
BRANCH  73  96
ATOM     96  C   UNL A   1      43.209  35.237  31.474  1.00  0.00     0.064 A 
ATOM     97  C   UNL A   1      43.209  35.589  32.831  1.00  0.00     0.173 A 
ATOM     98  C   UNL A   1      43.639  36.196  30.544  1.00  0.00     0.173 A 
ATOM     99  F   UNL A   1      42.793  34.713  33.757  1.00  0.00    -0.203 F 
ATOM    100  C   UNL A   1      43.594  36.864  33.238  1.00  0.00     0.198 A 
ATOM    101  C   UNL A   1      44.055  37.458  30.958  1.00  0.00     0.198 A 
ATOM    102  F   UNL A   1      43.666  35.905  29.235  1.00  0.00    -0.203 F 
ATOM    103  F   UNL A   1      43.533  37.197  34.535  1.00  0.00    -0.200 F 
ATOM    104  C   UNL A   1      44.023  37.794  32.302  1.00  0.00     0.200 A 
ATOM    105  F   UNL A   1      44.483  38.350  30.054  1.00  0.00    -0.200 F 
ATOM    106  F   UNL A   1      44.397  39.019  32.697  1.00  0.00    -0.200 F 
ENDBRANCH  73  96
ENDBRANCH  47  48
ENDBRANCH  39  42
ENDBRANCH  37  38
ENDBRANCH  36  37
ENDBRANCH  35  36
ENDBRANCH   1  35
TORSDOF 16
ENDMDL
MODEL 2
REMARK VINA RESULT:     -12.8      3.214      8.980
REMARK SMILES COC(=O)c1c(NC(=O)[C@@H]2[C@H]3CC[C@H](CC3)[C@H]2C(=O)NCCCCNC(=O)c2ccc(-c3c4nc(c(-c5c(F)c(F)c(F)c(F)c5F)c5ccc([nH]5)c(-c5c(F)c(F)c(F)c(F)c5F)c5nc(c(-c6c(F)c(F)c(F)c(F)c6F)c6ccc3[nH]6)C=C5)C=C4)cc2)sc(C)c1-c1ccc(C)cc1
REMARK SMILES IDX 21 1 20 2 18 3 19 4 17 6 10 7 11 8 16 9 12 10 14 11 15 12
REMARK SMILES IDX 13 13 8 14 7 15 9 17 6 18 5 19 94 20 91 21 92 22 93 23 3 24
REMARK SMILES IDX 4 25 2 26 1 27 95 28 96 29 101 30 97 31 100 32 98 33 99 34
REMARK SMILES IDX 22 35 23 36 24 37 25 38 26 39 27 41 28 42 29 43 90 44 30 45
REMARK SMILES IDX 89 46 31 47 32 48 33 49 83 50 34 51 88 52 82 53 84 54 35 55
REMARK SMILES IDX 87 56 81 57 80 58 36 60 68 61 48 62 67 63 49 64 52 65 66 66
REMARK SMILES IDX 85 67 50 68 51 69 65 71 86 72 53 73 37 74 38 75 46 76 39 77
REMARK SMILES IDX 40 78 44 79 47 80 41 81 42 82 45 83 43 84 69 85 70 86 78 87
REMARK SMILES IDX 71 88 72 89 76 90 79 91 73 92 74 93 77 94 75 95 54 96 55 97
REMARK SMILES IDX 63 98 56 99 57 100 61 101 64 102 58 103 59 104 62 105 60 106
REMARK H PARENT 20 5 7 16 25 40 84 59 52 70
REMARK Flexibility Score: inf
ROOT
ATOM      1  C   UNL A   1      32.160  25.556  26.505  1.00  0.00     0.116 C 
ENDROOT
BRANCH   1   2
ATOM      2  N   UNL A   1      31.261  24.453  26.306  1.00  0.00    -0.356 N 
ATOM      3  C   UNL A   1      31.509  23.187  25.871  1.00  0.00     0.224 C 
ATOM      4  O   UNL A   1      30.570  22.388  25.979  1.00  0.00    -0.275 OA
ATOM      5  H   UNL A   1      30.319  24.643  26.519  1.00  0.00     0.163 HD
BRANCH   3   6
ATOM      6  C   UNL A   1      32.845  22.703  25.280  1.00  0.00     0.094 C 
ATOM      7  C   UNL A   1      33.822  23.769  24.725  1.00  0.00     0.094 C 
ATOM      8  C   UNL A   1      35.287  23.367  25.177  1.00  0.00     0.002 C 
ATOM      9  C   UNL A   1      35.394  23.345  26.721  1.00  0.00     0.005 C 
ATOM     10  C   UNL A   1      35.674  21.928  24.763  1.00  0.00     0.005 C 
ATOM     11  C   UNL A   1      33.594  21.656  26.160  1.00  0.00     0.002 C 
ATOM     12  C   UNL A   1      34.430  22.283  27.292  1.00  0.00     0.005 C 
ATOM     13  C   UNL A   1      34.608  20.933  25.242  1.00  0.00     0.005 C 
BRANCH   7  14
ATOM     14  C   UNL A   1      33.723  23.836  23.179  1.00  0.00     0.229 C 
ATOM     15  N   UNL A   1      32.891  24.631  22.448  1.00  0.00    -0.317 N 
ATOM     16  H   UNL A   1      33.100  24.594  21.486  1.00  0.00     0.170 HD
ATOM     17  O   UNL A   1      34.472  23.131  22.487  1.00  0.00    -0.274 OA
BRANCH  15  18
ATOM     18  C   UNL A   1      31.830  25.476  22.710  1.00  0.00     0.111 A 
ATOM     19  C   UNL A   1      31.806  26.862  22.586  1.00  0.00     0.102 A 
ATOM     20  C   UNL A   1      30.531  27.404  23.039  1.00  0.00     0.012 A 
ATOM     21  S   UNL A   1      30.315  24.876  23.088  1.00  0.00    -0.122 S 
ATOM     22  C   UNL A   1      29.658  26.404  23.431  1.00  0.00     0.012 A 
ATOM     23  C   UNL A   1      28.292  26.479  24.035  1.00  0.00     0.057 C 
BRANCH  19  24
ATOM     24  C   UNL A   1      32.960  27.614  22.083  1.00  0.00     0.341 C 
ATOM     25  O   UNL A   1      33.629  27.237  21.133  1.00  0.00    -0.246 OA
BRANCH  24  26
ATOM     26  O   UNL A   1      33.200  28.758  22.782  1.00  0.00    -0.465 OA
ATOM     27  C   UNL A   1      33.971  28.600  23.971  1.00  0.00     0.282 C 
ENDBRANCH  24  26
ENDBRANCH  19  24
BRANCH  20  28
ATOM     28  C   UNL A   1      30.107  28.799  23.065  1.00  0.00    -0.016 A 
ATOM     29  C   UNL A   1      29.449  29.342  21.957  1.00  0.00     0.009 A 
ATOM     30  C   UNL A   1      30.340  29.598  24.190  1.00  0.00     0.009 A 
ATOM     31  C   UNL A   1      29.038  30.676  21.967  1.00  0.00     0.004 A 
ATOM     32  C   UNL A   1      29.917  30.930  24.204  1.00  0.00     0.004 A 
ATOM     33  C   UNL A   1      29.265  31.478  23.093  1.00  0.00    -0.051 A 
ATOM     34  C   UNL A   1      28.836  32.916  23.080  1.00  0.00     0.044 C 
ENDBRANCH  20  28
ENDBRANCH  15  18
ENDBRANCH   7  14
ENDBRANCH   3   6
ENDBRANCH   1   2
BRANCH   1  35
ATOM     35  C   UNL A   1      31.563  26.955  26.474  1.00  0.00     0.023 C 
BRANCH  35  36
ATOM     36  C   UNL A   1      32.006  27.862  27.605  1.00  0.00     0.023 C 
BRANCH  36  37
ATOM     37  C   UNL A   1      33.373  28.485  27.384  1.00  0.00     0.116 C 
BRANCH  37  38
ATOM     38  N   UNL A   1      33.367  29.941  27.473  1.00  0.00    -0.352 N 
ATOM     39  C   UNL A   1      34.358  30.774  27.926  1.00  0.00     0.251 C 
ATOM     40  H   UNL A   1      32.543  30.384  27.169  1.00  0.00     0.163 HD
ATOM     41  O   UNL A   1      34.159  31.976  28.053  1.00  0.00    -0.269 OA
BRANCH  39  42
ATOM     42  C   UNL A   1      35.655  30.184  28.291  1.00  0.00     0.039 A 
ATOM     43  C   UNL A   1      36.693  30.203  27.359  1.00  0.00     0.014 A 
ATOM     44  C   UNL A   1      35.856  29.685  29.580  1.00  0.00     0.014 A 
ATOM     45  C   UNL A   1      37.958  29.767  27.747  1.00  0.00     0.010 A 
ATOM     46  C   UNL A   1      37.137  29.360  29.994  1.00  0.00     0.010 A 
ATOM     47  C   UNL A   1      38.196  29.374  29.075  1.00  0.00    -0.014 A 
BRANCH  47  48
ATOM     48  C   UNL A   1      39.538  28.925  29.510  1.00  0.00     0.031 A 
ATOM     49  C   UNL A   1      40.310  29.749  30.503  1.00  0.00     0.074 A 
ATOM     50  C   UNL A   1      40.073  27.810  28.980  1.00  0.00     0.049 A 
ATOM     51  N   UNL A   1      41.502  29.543  30.999  1.00  0.00    -0.248 NA
ATOM     52  C   UNL A   1      39.673  30.991  30.972  1.00  0.00     0.031 C 
ATOM     53  C   UNL A   1      39.447  26.972  27.955  1.00  0.00     0.029 A 
ATOM     54  N   UNL A   1      41.268  27.187  29.233  1.00  0.00    -0.354 N 
ATOM     55  C   UNL A   1      41.759  30.632  31.821  1.00  0.00     0.074 A 
ATOM     56  C   UNL A   1      40.637  31.534  31.699  1.00  0.00     0.031 C 
ATOM     57  C   UNL A   1      40.245  25.923  27.697  1.00  0.00     0.029 A 
ATOM     58  C   UNL A   1      41.448  26.031  28.516  1.00  0.00     0.049 A 
ATOM     59  H   UNL A   1      41.934  27.537  29.868  1.00  0.00     0.167 HD
ATOM     60  C   UNL A   1      42.817  30.843  32.638  1.00  0.00     0.037 A 
ATOM     61  C   UNL A   1      42.469  25.153  28.530  1.00  0.00     0.037 A 
ATOM     62  C   UNL A   1      43.910  29.921  32.784  1.00  0.00     0.049 A 
ATOM     63  C   UNL A   1      43.622  25.397  29.466  1.00  0.00     0.074 A 
ATOM     64  C   UNL A   1      44.999  30.000  33.631  1.00  0.00     0.029 A 
ATOM     65  N   UNL A   1      44.047  28.745  32.060  1.00  0.00    -0.354 N 
ATOM     66  N   UNL A   1      43.816  26.387  30.304  1.00  0.00    -0.248 NA
ATOM     67  C   UNL A   1      44.694  24.393  29.467  1.00  0.00     0.031 C 
ATOM     68  C   UNL A   1      45.819  28.892  33.391  1.00  0.00     0.029 A 
ATOM     69  C   UNL A   1      45.215  28.097  32.430  1.00  0.00     0.049 A 
ATOM     70  H   UNL A   1      43.409  28.419  31.386  1.00  0.00     0.167 HD
ATOM     71  C   UNL A   1      45.014  26.113  30.949  1.00  0.00     0.074 A 
ATOM     72  C   UNL A   1      45.492  24.852  30.420  1.00  0.00     0.031 C 
ATOM     73  C   UNL A   1      45.665  26.840  31.891  1.00  0.00     0.037 A 
BRANCH  60  74
ATOM     74  C   UNL A   1      42.828  32.110  33.441  1.00  0.00     0.064 A 
ATOM     75  C   UNL A   1      43.435  33.281  32.960  1.00  0.00     0.173 A 
ATOM     76  C   UNL A   1      42.215  32.162  34.702  1.00  0.00     0.173 A 
ATOM     77  F   UNL A   1      44.051  33.282  31.768  1.00  0.00    -0.203 F 
ATOM     78  C   UNL A   1      43.455  34.445  33.724  1.00  0.00     0.198 A 
ATOM     79  C   UNL A   1      42.208  33.337  35.449  1.00  0.00     0.198 A 
ATOM     80  F   UNL A   1      41.620  31.072  35.210  1.00  0.00    -0.203 F 
ATOM     81  F   UNL A   1      44.092  35.533  33.267  1.00  0.00    -0.200 F 
ATOM     82  C   UNL A   1      42.836  34.474  34.963  1.00  0.00     0.200 A 
ATOM     83  F   UNL A   1      41.600  33.367  36.642  1.00  0.00    -0.200 F 
ATOM     84  F   UNL A   1      42.852  35.597  35.695  1.00  0.00    -0.200 F 
ENDBRANCH  60  74
BRANCH  61  85
ATOM     85  C   UNL A   1      42.424  23.942  27.670  1.00  0.00     0.064 A 
ATOM     86  C   UNL A   1      41.969  22.717  28.176  1.00  0.00     0.173 A 
ATOM     87  C   UNL A   1      42.840  23.980  26.331  1.00  0.00     0.173 A 
ATOM     88  F   UNL A   1      41.577  22.626  29.456  1.00  0.00    -0.203 F 
ATOM     89  C   UNL A   1      41.957  21.569  27.386  1.00  0.00     0.198 A 
ATOM     90  C   UNL A   1      42.800  22.840  25.532  1.00  0.00     0.198 A 
ATOM     91  F   UNL A   1      43.275  25.131  25.795  1.00  0.00    -0.203 F 
ATOM     92  F   UNL A   1      41.563  20.401  27.910  1.00  0.00    -0.200 F 
ATOM     93  C   UNL A   1      42.367  21.633  26.063  1.00  0.00     0.200 A 
ATOM     94  F   UNL A   1      43.183  22.907  24.250  1.00  0.00    -0.200 F 
ATOM     95  F   UNL A   1      42.353  20.531  25.302  1.00  0.00    -0.200 F 
ENDBRANCH  61  85
BRANCH  73  96
ATOM     96  C   UNL A   1      46.949  26.273  32.423  1.00  0.00     0.064 A 
ATOM     97  C   UNL A   1      46.968  25.404  33.523  1.00  0.00     0.173 A 
ATOM     98  C   UNL A   1      48.171  26.585  31.808  1.00  0.00     0.173 A 
ATOM     99  F   UNL A   1      45.828  25.087  34.154  1.00  0.00    -0.203 F 
ATOM    100  C   UNL A   1      48.169  24.892  34.008  1.00  0.00     0.198 A 
ATOM    101  C   UNL A   1      49.365  26.045  32.276  1.00  0.00     0.198 A 
ATOM    102  F   UNL A   1      48.205  27.405  30.747  1.00  0.00    -0.203 F 
ATOM    103  F   UNL A   1      48.168  24.108  35.095  1.00  0.00    -0.200 F 
ATOM    104  C   UNL A   1      49.365  25.207  33.381  1.00  0.00     0.200 A 
ATOM    105  F   UNL A   1      50.518  26.340  31.659  1.00  0.00    -0.200 F 
ATOM    106  F   UNL A   1      50.518  24.711  33.847  1.00  0.00    -0.200 F 
ENDBRANCH  73  96
ENDBRANCH  47  48
ENDBRANCH  39  42
ENDBRANCH  37  38
ENDBRANCH  36  37
ENDBRANCH  35  36
ENDBRANCH   1  35
TORSDOF 16
ENDMDL
MODEL 3
REMARK VINA RESULT:     -12.7      3.721      8.189
REMARK SMILES COC(=O)c1c(NC(=O)[C@@H]2[C@H]3CC[C@H](CC3)[C@H]2C(=O)NCCCCNC(=O)c2ccc(-c3c4nc(c(-c5c(F)c(F)c(F)c(F)c5F)c5ccc([nH]5)c(-c5c(F)c(F)c(F)c(F)c5F)c5nc(c(-c6c(F)c(F)c(F)c(F)c6F)c6ccc3[nH]6)C=C5)C=C4)cc2)sc(C)c1-c1ccc(C)cc1
REMARK SMILES IDX 21 1 20 2 18 3 19 4 17 6 10 7 11 8 16 9 12 10 14 11 15 12
REMARK SMILES IDX 13 13 8 14 7 15 9 17 6 18 5 19 94 20 91 21 92 22 93 23 3 24
REMARK SMILES IDX 4 25 2 26 1 27 95 28 96 29 101 30 97 31 100 32 98 33 99 34
REMARK SMILES IDX 22 35 23 36 24 37 25 38 26 39 27 41 28 42 29 43 90 44 30 45
REMARK SMILES IDX 89 46 31 47 32 48 33 49 83 50 34 51 88 52 82 53 84 54 35 55
REMARK SMILES IDX 87 56 81 57 80 58 36 60 68 61 48 62 67 63 49 64 52 65 66 66
REMARK SMILES IDX 85 67 50 68 51 69 65 71 86 72 53 73 37 74 38 75 46 76 39 77
REMARK SMILES IDX 40 78 44 79 47 80 41 81 42 82 45 83 43 84 69 85 70 86 78 87
REMARK SMILES IDX 71 88 72 89 76 90 79 91 73 92 74 93 77 94 75 95 54 96 55 97
REMARK SMILES IDX 63 98 56 99 57 100 61 101 64 102 58 103 59 104 62 105 60 106
REMARK H PARENT 20 5 7 16 25 40 84 59 52 70
REMARK Flexibility Score: inf
ROOT
ATOM      1  C   UNL A   1      30.130  30.917  25.077  1.00  0.00     0.116 C 
ENDROOT
BRANCH   1   2
ATOM      2  N   UNL A   1      30.101  30.351  23.756  1.00  0.00    -0.356 N 
ATOM      3  C   UNL A   1      30.711  29.237  23.266  1.00  0.00     0.224 C 
ATOM      4  O   UNL A   1      30.356  28.882  22.135  1.00  0.00    -0.275 OA
ATOM      5  H   UNL A   1      29.554  30.846  23.105  1.00  0.00     0.163 HD
BRANCH   3   6
ATOM      6  C   UNL A   1      31.777  28.414  24.012  1.00  0.00     0.094 C 
ATOM      7  C   UNL A   1      31.744  26.872  23.856  1.00  0.00     0.094 C 
ATOM      8  C   UNL A   1      33.237  26.369  23.693  1.00  0.00     0.002 C 
ATOM      9  C   UNL A   1      33.885  26.985  22.430  1.00  0.00     0.005 C 
ATOM     10  C   UNL A   1      34.162  26.834  24.842  1.00  0.00     0.005 C 
ATOM     11  C   UNL A   1      33.229  28.963  23.867  1.00  0.00     0.002 C 
ATOM     12  C   UNL A   1      33.932  28.522  22.568  1.00  0.00     0.005 C 
ATOM     13  C   UNL A   1      34.062  28.356  25.021  1.00  0.00     0.005 C 
BRANCH   7  14
ATOM     14  C   UNL A   1      31.077  26.222  25.096  1.00  0.00     0.229 C 
ATOM     15  N   UNL A   1      31.041  24.895  25.403  1.00  0.00    -0.317 N 
ATOM     16  H   UNL A   1      30.677  24.736  26.304  1.00  0.00     0.170 HD
ATOM     17  O   UNL A   1      30.525  26.943  25.941  1.00  0.00    -0.274 OA
BRANCH  15  18
ATOM     18  C   UNL A   1      31.387  23.715  24.773  1.00  0.00     0.111 A 
ATOM     19  C   UNL A   1      32.032  22.617  25.335  1.00  0.00     0.102 A 
ATOM     20  C   UNL A   1      32.299  21.597  24.329  1.00  0.00     0.012 A 
ATOM     21  S   UNL A   1      30.905  23.394  23.204  1.00  0.00    -0.122 S 
ATOM     22  C   UNL A   1      31.804  21.959  23.088  1.00  0.00     0.012 A 
ATOM     23  C   UNL A   1      31.910  21.283  21.759  1.00  0.00     0.057 C 
BRANCH  19  24
ATOM     24  C   UNL A   1      32.389  22.574  26.757  1.00  0.00     0.341 C 
ATOM     25  O   UNL A   1      31.584  22.806  27.646  1.00  0.00    -0.246 OA
BRANCH  24  26
ATOM     26  O   UNL A   1      33.696  22.254  26.971  1.00  0.00    -0.465 OA
ATOM     27  C   UNL A   1      34.637  23.276  26.650  1.00  0.00     0.282 C 
ENDBRANCH  24  26
ENDBRANCH  19  24
BRANCH  20  28
ATOM     28  C   UNL A   1      32.947  20.303  24.512  1.00  0.00    -0.016 A 
ATOM     29  C   UNL A   1      34.343  20.224  24.512  1.00  0.00     0.009 A 
ATOM     30  C   UNL A   1      32.188  19.143  24.703  1.00  0.00     0.009 A 
ATOM     31  C   UNL A   1      34.976  18.991  24.686  1.00  0.00     0.004 A 
ATOM     32  C   UNL A   1      32.824  17.912  24.890  1.00  0.00     0.004 A 
ATOM     33  C   UNL A   1      34.221  17.828  24.881  1.00  0.00    -0.051 A 
ATOM     34  C   UNL A   1      34.917  16.509  25.047  1.00  0.00     0.044 C 
ENDBRANCH  20  28
ENDBRANCH  15  18
ENDBRANCH   7  14
ENDBRANCH   3   6
ENDBRANCH   1   2
BRANCH   1  35
ATOM     35  C   UNL A   1      31.491  31.068  25.740  1.00  0.00     0.023 C 
BRANCH  35  36
ATOM     36  C   UNL A   1      31.495  31.909  27.001  1.00  0.00     0.023 C 
BRANCH  36  37
ATOM     37  C   UNL A   1      32.719  32.797  27.134  1.00  0.00     0.116 C 
BRANCH  37  38
ATOM     38  N   UNL A   1      32.407  34.152  27.575  1.00  0.00    -0.352 N 
ATOM     39  C   UNL A   1      32.995  34.883  28.576  1.00  0.00     0.251 C 
ATOM     40  H   UNL A   1      31.678  34.601  27.091  1.00  0.00     0.163 HD
ATOM     41  O   UNL A   1      32.541  35.970  28.910  1.00  0.00    -0.269 OA
BRANCH  39  42
ATOM     42  C   UNL A   1      34.163  34.312  29.264  1.00  0.00     0.039 A 
ATOM     43  C   UNL A   1      33.960  33.438  30.332  1.00  0.00     0.014 A 
ATOM     44  C   UNL A   1      35.450  34.588  28.797  1.00  0.00     0.014 A 
ATOM     45  C   UNL A   1      35.058  32.794  30.898  1.00  0.00     0.010 A 
ATOM     46  C   UNL A   1      36.524  33.862  29.285  1.00  0.00     0.010 A 
ATOM     47  C   UNL A   1      36.342  32.977  30.357  1.00  0.00    -0.014 A 
BRANCH  47  48
ATOM     48  C   UNL A   1      37.518  32.287  30.934  1.00  0.00     0.031 A 
ATOM     49  C   UNL A   1      37.996  32.659  32.310  1.00  0.00     0.074 A 
ATOM     50  C   UNL A   1      38.176  31.366  30.205  1.00  0.00     0.049 A 
ATOM     51  N   UNL A   1      39.011  32.191  32.989  1.00  0.00    -0.248 NA
ATOM     52  C   UNL A   1      37.256  33.728  33.003  1.00  0.00     0.031 C 
ATOM     53  C   UNL A   1      37.848  30.978  28.832  1.00  0.00     0.029 A 
ATOM     54  N   UNL A   1      39.259  30.587  30.520  1.00  0.00    -0.354 N 
ATOM     55  C   UNL A   1      39.038  32.916  34.171  1.00  0.00     0.074 A 
ATOM     56  C   UNL A   1      37.990  33.908  34.089  1.00  0.00     0.031 C 
ATOM     57  C   UNL A   1      38.686  30.005  28.438  1.00  0.00     0.029 A 
ATOM     58  C   UNL A   1      39.625  29.723  29.518  1.00  0.00     0.049 A 
ATOM     59  H   UNL A   1      39.730  30.643  31.382  1.00  0.00     0.167 HD
ATOM     60  C   UNL A   1      39.838  32.745  35.249  1.00  0.00     0.037 A 
ATOM     61  C   UNL A   1      40.604  28.800  29.486  1.00  0.00     0.037 A 
ATOM     62  C   UNL A   1      40.852  31.730  35.339  1.00  0.00     0.049 A 
ATOM     63  C   UNL A   1      41.464  28.612  30.707  1.00  0.00     0.074 A 
ATOM     64  C   UNL A   1      41.674  31.423  36.406  1.00  0.00     0.029 A 
ATOM     65  N   UNL A   1      41.178  30.854  34.314  1.00  0.00    -0.354 N 
ATOM     66  N   UNL A   1      41.426  29.245  31.854  1.00  0.00    -0.248 NA
ATOM     67  C   UNL A   1      42.497  27.570  30.631  1.00  0.00     0.031 C 
ATOM     68  C   UNL A   1      42.529  30.386  36.014  1.00  0.00     0.029 A 
ATOM     69  C   UNL A   1      42.204  30.015  34.719  1.00  0.00     0.049 A 
ATOM     70  H   UNL A   1      40.744  30.831  33.431  1.00  0.00     0.167 HD
ATOM     71  C   UNL A   1      42.407  28.663  32.645  1.00  0.00     0.074 A 
ATOM     72  C   UNL A   1      43.009  27.611  31.852  1.00  0.00     0.031 C 
ATOM     73  C   UNL A   1      42.783  28.972  33.911  1.00  0.00     0.037 A 
BRANCH  60  74
ATOM     74  C   UNL A   1      39.634  33.667  36.415  1.00  0.00     0.064 A 
ATOM     75  C   UNL A   1      40.250  34.927  36.474  1.00  0.00     0.173 A 
ATOM     76  C   UNL A   1      38.801  33.296  37.482  1.00  0.00     0.173 A 
ATOM     77  F   UNL A   1      41.069  35.325  35.489  1.00  0.00    -0.203 F 
ATOM     78  C   UNL A   1      40.067  35.765  37.571  1.00  0.00     0.198 A 
ATOM     79  C   UNL A   1      38.595  34.150  38.562  1.00  0.00     0.198 A 
ATOM     80  F   UNL A   1      38.188  32.103  37.477  1.00  0.00    -0.203 F 
ATOM     81  F   UNL A   1      40.714  36.938  37.631  1.00  0.00    -0.200 F 
ATOM     82  C   UNL A   1      39.235  35.379  38.610  1.00  0.00     0.200 A 
ATOM     83  F   UNL A   1      37.781  33.781  39.560  1.00  0.00    -0.200 F 
ATOM     84  F   UNL A   1      39.056  36.189  39.663  1.00  0.00    -0.200 F 
ENDBRANCH  60  74
BRANCH  61  85
ATOM     85  C   UNL A   1      40.792  27.954  28.279  1.00  0.00     0.064 A 
ATOM     86  C   UNL A   1      40.200  26.686  28.192  1.00  0.00     0.173 A 
ATOM     87  C   UNL A   1      41.569  28.387  27.195  1.00  0.00     0.173 A 
ATOM     88  F   UNL A   1      39.462  26.220  29.211  1.00  0.00    -0.203 F 
ATOM     89  C   UNL A   1      40.400  25.871  27.078  1.00  0.00     0.198 A 
ATOM     90  C   UNL A   1      41.744  27.585  26.069  1.00  0.00     0.198 A 
ATOM     91  F   UNL A   1      42.149  29.596  27.225  1.00  0.00    -0.203 F 
ATOM     92  F   UNL A   1      39.863  24.645  27.043  1.00  0.00    -0.200 F 
ATOM     93  C   UNL A   1      41.168  26.324  26.016  1.00  0.00     0.200 A 
ATOM     94  F   UNL A   1      42.474  28.031  25.038  1.00  0.00    -0.200 F 
ATOM     95  F   UNL A   1      41.358  25.543  24.944  1.00  0.00    -0.200 F 
ENDBRANCH  61  85
BRANCH  73  96
ATOM     96  C   UNL A   1      43.876  28.145  34.521  1.00  0.00     0.064 A 
ATOM     97  C   UNL A   1      45.221  28.534  34.444  1.00  0.00     0.173 A 
ATOM     98  C   UNL A   1      43.570  26.963  35.212  1.00  0.00     0.173 A 
ATOM     99  F   UNL A   1      45.566  29.648  33.782  1.00  0.00    -0.203 F 
ATOM    100  C   UNL A   1      46.224  27.750  35.010  1.00  0.00     0.198 A 
ATOM    101  C   UNL A   1      44.572  26.200  35.805  1.00  0.00     0.198 A 
ATOM    102  F   UNL A   1      42.297  26.553  35.321  1.00  0.00    -0.203 F 
ATOM    103  F   UNL A   1      47.508  28.112  34.876  1.00  0.00    -0.200 F 
ATOM    104  C   UNL A   1      45.898  26.589  35.695  1.00  0.00     0.200 A 
ATOM    105  F   UNL A   1      44.254  25.086  36.479  1.00  0.00    -0.200 F 
ATOM    106  F   UNL A   1      46.865  25.840  36.242  1.00  0.00    -0.200 F 
ENDBRANCH  73  96
ENDBRANCH  47  48
ENDBRANCH  39  42
ENDBRANCH  37  38
ENDBRANCH  36  37
ENDBRANCH  35  36
ENDBRANCH   1  35
TORSDOF 16
ENDMDL
