MODEL 1
REMARK VINA RESULT:     -11.4      0.000      0.000
REMARK SMILES CCCC[C@@H](C(=O)NCCCCNC(=O)c1ccc(-c2c3nc(c(-c4c(F)c(F)c(F)c(F)c4F)c4ccc([nH]4)c(-c4c(F)c(F)c(F)c(F)c4F)c4nc(c(-c5c(F)c(F)c(F)c(F)c5F)c5ccc2[nH]5)C=C4)C=C3)cc1)[C@@H](O)c1cccc(C(F)(F)F)c1
REMARK SMILES IDX 10 1 9 2 8 3 6 4 7 5 5 7 4 8 3 9 2 10 1 11 79 12 80 13 81 15
REMARK SMILES IDX 82 16 90 17 83 18 85 19 84 20 86 21 87 22 88 23 89 24 11 25
REMARK SMILES IDX 12 26 13 27 14 28 15 30 16 31 17 32 78 33 18 34 77 35 19 36
REMARK SMILES IDX 20 37 21 38 71 39 22 40 76 41 70 42 72 43 23 44 75 45 69 46
REMARK SMILES IDX 68 47 24 49 56 50 36 51 55 52 37 53 40 54 54 55 73 56 38 57
REMARK SMILES IDX 39 58 53 60 74 61 41 62 25 63 26 64 34 65 27 66 28 67 32 68
REMARK SMILES IDX 35 69 29 70 30 71 33 72 31 73 57 74 58 75 66 76 59 77 60 78
REMARK SMILES IDX 64 79 67 80 61 81 62 82 65 83 63 84 42 85 43 86 51 87 44 88
REMARK SMILES IDX 45 89 49 90 52 91 46 92 47 93 50 94 48 95
REMARK H PARENT 8 6 80 14 13 29 72 48 40 59
REMARK Flexibility Score: inf
ROOT
ATOM      1  C   UNL A   1      34.838  22.628  25.613  1.00  0.00     0.023 C 
ENDROOT
BRANCH   1   2
ATOM      2  C   UNL A   1      33.681  23.416  24.990  1.00  0.00     0.116 C 
BRANCH   2   3
ATOM      3  N   UNL A   1      32.521  23.345  25.853  1.00  0.00    -0.356 N 
ATOM      4  C   UNL A   1      31.719  24.335  26.330  1.00  0.00     0.226 C 
ATOM      5  O   UNL A   1      31.023  24.050  27.310  1.00  0.00    -0.275 OA
ATOM      6  H   UNL A   1      32.274  22.436  26.140  1.00  0.00     0.163 HD
BRANCH   4   7
ATOM      7  C   UNL A   1      31.666  25.727  25.686  1.00  0.00     0.111 C 
BRANCH   7   8
ATOM      8  C   UNL A   1      31.448  26.833  26.759  1.00  0.00     0.016 C 
BRANCH   8   9
ATOM      9  C   UNL A   1      32.450  27.988  26.834  1.00  0.00     0.001 C 
BRANCH   9  10
ATOM     10  C   UNL A   1      31.865  29.389  27.024  1.00  0.00    -0.003 C 
ATOM     11  C   UNL A   1      31.800  30.182  25.730  1.00  0.00     0.004 C 
ENDBRANCH   9  10
ENDBRANCH   8   9
ENDBRANCH   7   8
BRANCH   7  12
ATOM     12  C   UNL A   1      30.453  25.718  24.695  1.00  0.00     0.157 C 
BRANCH  12  13
ATOM     13  O   UNL A   1      29.217  25.600  25.417  1.00  0.00    -0.388 OA
ATOM     14  H   UNL A   1      29.357  25.066  26.215  1.00  0.00     0.211 HD
ENDBRANCH  12  13
BRANCH  12  15
ATOM     15  C   UNL A   1      30.330  26.953  23.811  1.00  0.00    -0.018 A 
ATOM     16  C   UNL A   1      31.444  27.486  23.142  1.00  0.00     0.006 A 
ATOM     17  C   UNL A   1      29.105  27.634  23.705  1.00  0.00     0.019 A 
ATOM     18  C   UNL A   1      31.349  28.678  22.423  1.00  0.00     0.001 A 
ATOM     19  C   UNL A   1      28.990  28.824  22.965  1.00  0.00     0.056 A 
ATOM     20  C   UNL A   1      30.130  29.346  22.337  1.00  0.00     0.013 A 
BRANCH  19  21
ATOM     21  C   UNL A   1      27.678  29.564  22.867  1.00  0.00     0.416 C 
ATOM     22  F   UNL A   1      27.520  30.192  21.669  1.00  0.00    -0.166 F 
ATOM     23  F   UNL A   1      26.603  28.735  22.997  1.00  0.00    -0.166 F 
ATOM     24  F   UNL A   1      27.517  30.526  23.818  1.00  0.00    -0.166 F 
ENDBRANCH  19  21
ENDBRANCH  12  15
ENDBRANCH   7  12
ENDBRANCH   4   7
ENDBRANCH   2   3
ENDBRANCH   1   2
BRANCH   1  25
ATOM     25  C   UNL A   1      36.052  23.461  25.999  1.00  0.00     0.023 C 
BRANCH  25  26
ATOM     26  C   UNL A   1      37.232  23.315  25.056  1.00  0.00     0.116 C 
BRANCH  26  27
ATOM     27  N   UNL A   1      38.265  22.413  25.546  1.00  0.00    -0.352 N 
ATOM     28  C   UNL A   1      39.339  22.717  26.357  1.00  0.00     0.251 C 
ATOM     29  H   UNL A   1      38.187  21.471  25.267  1.00  0.00     0.163 HD
ATOM     30  O   UNL A   1      40.179  21.880  26.641  1.00  0.00    -0.269 OA
BRANCH  28  31
ATOM     31  C   UNL A   1      39.473  24.110  26.830  1.00  0.00     0.039 A 
ATOM     32  C   UNL A   1      39.085  24.421  28.135  1.00  0.00     0.014 A 
ATOM     33  C   UNL A   1      40.094  25.062  26.020  1.00  0.00     0.014 A 
ATOM     34  C   UNL A   1      39.404  25.673  28.661  1.00  0.00     0.010 A 
ATOM     35  C   UNL A   1      40.487  26.271  26.575  1.00  0.00     0.010 A 
ATOM     36  C   UNL A   1      40.148  26.587  27.900  1.00  0.00    -0.014 A 
BRANCH  36  37
ATOM     37  C   UNL A   1      40.570  27.902  28.444  1.00  0.00     0.031 A 
ATOM     38  C   UNL A   1      42.014  28.115  28.801  1.00  0.00     0.074 A 
ATOM     39  C   UNL A   1      39.655  28.854  28.708  1.00  0.00     0.049 A 
ATOM     40  N   UNL A   1      42.572  29.103  29.451  1.00  0.00    -0.248 NA
ATOM     41  C   UNL A   1      42.950  27.048  28.410  1.00  0.00     0.031 C 
ATOM     42  C   UNL A   1      38.219  28.752  28.445  1.00  0.00     0.029 A 
ATOM     43  N   UNL A   1      39.800  30.096  29.274  1.00  0.00    -0.354 N 
ATOM     44  C   UNL A   1      43.910  28.758  29.579  1.00  0.00     0.074 A 
ATOM     45  C   UNL A   1      44.073  27.449  28.983  1.00  0.00     0.031 C 
ATOM     46  C   UNL A   1      37.618  29.891  28.829  1.00  0.00     0.029 A 
ATOM     47  C   UNL A   1      38.619  30.786  29.401  1.00  0.00     0.049 A 
ATOM     48  H   UNL A   1      40.669  30.458  29.561  1.00  0.00     0.167 HD
ATOM     49  C   UNL A   1      44.918  29.478  30.123  1.00  0.00     0.037 A 
ATOM     50  C   UNL A   1      38.377  32.002  29.928  1.00  0.00     0.037 A 
ATOM     51  C   UNL A   1      44.763  30.799  30.664  1.00  0.00     0.049 A 
ATOM     52  C   UNL A   1      39.523  32.797  30.492  1.00  0.00     0.074 A 
ATOM     53  C   UNL A   1      45.727  31.632  31.202  1.00  0.00     0.029 A 
ATOM     54  N   UNL A   1      43.561  31.490  30.714  1.00  0.00    -0.354 N 
ATOM     55  N   UNL A   1      40.790  32.474  30.582  1.00  0.00    -0.248 NA
ATOM     56  C   UNL A   1      39.206  34.130  31.025  1.00  0.00     0.031 C 
ATOM     57  C   UNL A   1      45.105  32.824  31.592  1.00  0.00     0.029 A 
ATOM     58  C   UNL A   1      43.761  32.743  31.266  1.00  0.00     0.049 A 
ATOM     59  H   UNL A   1      42.695  31.141  30.402  1.00  0.00     0.167 HD
ATOM     60  C   UNL A   1      41.425  33.571  31.145  1.00  0.00     0.074 A 
ATOM     61  C   UNL A   1      40.406  34.575  31.373  1.00  0.00     0.031 C 
ATOM     62  C   UNL A   1      42.735  33.736  31.447  1.00  0.00     0.037 A 
BRANCH  49  63
ATOM     63  C   UNL A   1      46.280  28.852  30.141  1.00  0.00     0.064 A 
ATOM     64  C   UNL A   1      47.175  29.015  29.073  1.00  0.00     0.173 A 
ATOM     65  C   UNL A   1      46.704  28.094  31.243  1.00  0.00     0.173 A 
ATOM     66  F   UNL A   1      46.809  29.716  27.988  1.00  0.00    -0.203 F 
ATOM     67  C   UNL A   1      48.432  28.420  29.093  1.00  0.00     0.198 A 
ATOM     68  C   UNL A   1      47.974  27.523  31.273  1.00  0.00     0.198 A 
ATOM     69  F   UNL A   1      45.886  27.907  32.290  1.00  0.00    -0.203 F 
ATOM     70  F   UNL A   1      49.250  28.547  28.039  1.00  0.00    -0.200 F 
ATOM     71  C   UNL A   1      48.833  27.680  30.197  1.00  0.00     0.200 A 
ATOM     72  F   UNL A   1      48.363  26.816  32.342  1.00  0.00    -0.200 F 
ATOM     73  F   UNL A   1      50.046  27.110  30.216  1.00  0.00    -0.200 F 
ENDBRANCH  49  63
BRANCH  50  74
ATOM     74  C   UNL A   1      37.000  32.562  29.917  1.00  0.00     0.064 A 
ATOM     75  C   UNL A   1      36.533  33.286  28.810  1.00  0.00     0.173 A 
ATOM     76  C   UNL A   1      36.134  32.408  31.008  1.00  0.00     0.173 A 
ATOM     77  F   UNL A   1      37.334  33.476  27.751  1.00  0.00    -0.203 F 
ATOM     78  C   UNL A   1      35.263  33.856  28.805  1.00  0.00     0.198 A 
ATOM     79  C   UNL A   1      34.854  32.959  30.992  1.00  0.00     0.198 A 
ATOM     80  F   UNL A   1      36.532  31.722  32.089  1.00  0.00    -0.203 F 
ATOM     81  F   UNL A   1      34.861  34.583  27.754  1.00  0.00    -0.200 F 
ATOM     82  C   UNL A   1      34.422  33.689  29.895  1.00  0.00     0.200 A 
ATOM     83  F   UNL A   1      34.040  32.788  32.043  1.00  0.00    -0.200 F 
ATOM     84  F   UNL A   1      33.202  34.241  29.893  1.00  0.00    -0.200 F 
ENDBRANCH  50  74
BRANCH  62  85
ATOM     85  C   UNL A   1      43.154  35.065  31.995  1.00  0.00     0.064 A 
ATOM     86  C   UNL A   1      43.126  35.338  33.370  1.00  0.00     0.173 A 
ATOM     87  C   UNL A   1      43.647  36.059  31.134  1.00  0.00     0.173 A 
ATOM     88  F   UNL A   1      42.650  34.423  34.229  1.00  0.00    -0.203 F 
ATOM     89  C   UNL A   1      43.562  36.564  33.863  1.00  0.00     0.198 A 
ATOM     90  C   UNL A   1      44.104  37.274  31.633  1.00  0.00     0.198 A 
ATOM     91  F   UNL A   1      43.698  35.840  29.811  1.00  0.00    -0.203 F 
ATOM     92  F   UNL A   1      43.496  36.817  35.177  1.00  0.00    -0.200 F 
ATOM     93  C   UNL A   1      44.057  37.527  32.996  1.00  0.00     0.200 A 
ATOM     94  F   UNL A   1      44.592  38.199  30.795  1.00  0.00    -0.200 F 
ATOM     95  F   UNL A   1      44.486  38.703  33.474  1.00  0.00    -0.200 F 
ENDBRANCH  62  85
ENDBRANCH  36  37
ENDBRANCH  28  31
ENDBRANCH  26  27
ENDBRANCH  25  26
ENDBRANCH   1  25
TORSDOF 18
ENDMDL
MODEL 2
REMARK VINA RESULT:     -11.4      4.024      8.711
REMARK SMILES CCCC[C@@H](C(=O)NCCCCNC(=O)c1ccc(-c2c3nc(c(-c4c(F)c(F)c(F)c(F)c4F)c4ccc([nH]4)c(-c4c(F)c(F)c(F)c(F)c4F)c4nc(c(-c5c(F)c(F)c(F)c(F)c5F)c5ccc2[nH]5)C=C4)C=C3)cc1)[C@@H](O)c1cccc(C(F)(F)F)c1
REMARK SMILES IDX 10 1 9 2 8 3 6 4 7 5 5 7 4 8 3 9 2 10 1 11 79 12 80 13 81 15
REMARK SMILES IDX 82 16 90 17 83 18 85 19 84 20 86 21 87 22 88 23 89 24 11 25
REMARK SMILES IDX 12 26 13 27 14 28 15 30 16 31 17 32 78 33 18 34 77 35 19 36
REMARK SMILES IDX 20 37 21 38 71 39 22 40 76 41 70 42 72 43 23 44 75 45 69 46
REMARK SMILES IDX 68 47 24 49 56 50 36 51 55 52 37 53 40 54 54 55 73 56 38 57
REMARK SMILES IDX 39 58 53 60 74 61 41 62 25 63 26 64 34 65 27 66 28 67 32 68
REMARK SMILES IDX 35 69 29 70 30 71 33 72 31 73 57 74 58 75 66 76 59 77 60 78
REMARK SMILES IDX 64 79 67 80 61 81 62 82 65 83 63 84 42 85 43 86 51 87 44 88
REMARK SMILES IDX 45 89 49 90 52 91 46 92 47 93 50 94 48 95
REMARK H PARENT 8 6 80 14 13 29 72 48 40 59
REMARK Flexibility Score: inf
ROOT
ATOM      1  C   UNL A   1      32.221  30.463  26.867  1.00  0.00     0.023 C 
ENDROOT
BRANCH   1   2
ATOM      2  C   UNL A   1      31.776  29.694  25.619  1.00  0.00     0.116 C 
BRANCH   2   3
ATOM      3  N   UNL A   1      32.836  29.707  24.634  1.00  0.00    -0.356 N 
ATOM      4  C   UNL A   1      33.255  28.732  23.781  1.00  0.00     0.226 C 
ATOM      5  O   UNL A   1      34.383  28.876  23.299  1.00  0.00    -0.275 OA
ATOM      6  H   UNL A   1      33.333  30.554  24.570  1.00  0.00     0.163 HD
BRANCH   4   7
ATOM      7  C   UNL A   1      32.378  27.525  23.424  1.00  0.00     0.111 C 
BRANCH   7   8
ATOM      8  C   UNL A   1      33.242  26.338  22.905  1.00  0.00     0.016 C 
BRANCH   8   9
ATOM      9  C   UNL A   1      33.132  24.987  23.616  1.00  0.00     0.001 C 
BRANCH   9  10
ATOM     10  C   UNL A   1      32.134  23.986  23.029  1.00  0.00    -0.003 C 
ATOM     11  C   UNL A   1      30.710  24.230  23.498  1.00  0.00     0.004 C 
ENDBRANCH   9  10
ENDBRANCH   8   9
ENDBRANCH   7   8
BRANCH   7  12
ATOM     12  C   UNL A   1      31.406  27.995  22.289  1.00  0.00     0.157 C 
BRANCH  12  13
ATOM     13  O   UNL A   1      31.208  26.943  21.331  1.00  0.00    -0.388 OA
ATOM     14  H   UNL A   1      31.040  27.329  20.456  1.00  0.00     0.211 HD
ENDBRANCH  12  13
BRANCH  12  15
ATOM     15  C   UNL A   1      30.023  28.428  22.760  1.00  0.00    -0.018 A 
ATOM     16  C   UNL A   1      29.049  27.487  23.130  1.00  0.00     0.006 A 
ATOM     17  C   UNL A   1      29.665  29.788  22.763  1.00  0.00     0.019 A 
ATOM     18  C   UNL A   1      27.752  27.883  23.455  1.00  0.00     0.001 A 
ATOM     19  C   UNL A   1      28.367  30.203  23.110  1.00  0.00     0.056 A 
ATOM     20  C   UNL A   1      27.410  29.233  23.442  1.00  0.00     0.013 A 
BRANCH  19  21
ATOM     21  C   UNL A   1      27.979  31.661  23.095  1.00  0.00     0.416 C 
ATOM     22  F   UNL A   1      28.983  32.474  23.525  1.00  0.00    -0.166 F 
ATOM     23  F   UNL A   1      27.655  32.100  21.845  1.00  0.00    -0.166 F 
ATOM     24  F   UNL A   1      26.902  31.952  23.877  1.00  0.00    -0.166 F 
ENDBRANCH  19  21
ENDBRANCH  12  15
ENDBRANCH   7  12
ENDBRANCH   4   7
ENDBRANCH   2   3
ENDBRANCH   1   2
BRANCH   1  25
ATOM     25  C   UNL A   1      31.834  31.935  26.890  1.00  0.00     0.023 C 
BRANCH  25  26
ATOM     26  C   UNL A   1      32.975  32.873  27.238  1.00  0.00     0.116 C 
BRANCH  26  27
ATOM     27  N   UNL A   1      32.537  34.199  27.654  1.00  0.00    -0.352 N 
ATOM     28  C   UNL A   1      33.023  34.963  28.694  1.00  0.00     0.251 C 
ATOM     29  H   UNL A   1      31.806  34.598  27.128  1.00  0.00     0.163 HD
ATOM     30  O   UNL A   1      32.521  36.035  28.985  1.00  0.00    -0.269 OA
BRANCH  28  31
ATOM     31  C   UNL A   1      34.145  34.417  29.484  1.00  0.00     0.039 A 
ATOM     32  C   UNL A   1      33.864  33.635  30.606  1.00  0.00     0.014 A 
ATOM     33  C   UNL A   1      35.456  34.582  29.035  1.00  0.00     0.014 A 
ATOM     34  C   UNL A   1      34.900  32.940  31.231  1.00  0.00     0.010 A 
ATOM     35  C   UNL A   1      36.468  33.821  29.603  1.00  0.00     0.010 A 
ATOM     36  C   UNL A   1      36.200  32.992  30.704  1.00  0.00    -0.014 A 
BRANCH  36  37
ATOM     37  C   UNL A   1      37.318  32.214  31.293  1.00  0.00     0.031 A 
ATOM     38  C   UNL A   1      37.816  32.577  32.663  1.00  0.00     0.074 A 
ATOM     39  C   UNL A   1      37.942  31.265  30.570  1.00  0.00     0.049 A 
ATOM     40  N   UNL A   1      38.883  32.163  33.296  1.00  0.00    -0.248 NA
ATOM     41  C   UNL A   1      37.027  33.575  33.404  1.00  0.00     0.031 C 
ATOM     42  C   UNL A   1      37.579  30.851  29.213  1.00  0.00     0.029 A 
ATOM     43  N   UNL A   1      39.029  30.485  30.873  1.00  0.00    -0.354 N 
ATOM     44  C   UNL A   1      38.913  32.877  34.485  1.00  0.00     0.074 A 
ATOM     45  C   UNL A   1      37.786  33.784  34.468  1.00  0.00     0.031 C 
ATOM     46  C   UNL A   1      38.415  29.879  28.811  1.00  0.00     0.029 A 
ATOM     47  C   UNL A   1      39.396  29.629  29.863  1.00  0.00     0.049 A 
ATOM     48  H   UNL A   1      39.503  30.534  31.735  1.00  0.00     0.167 HD
ATOM     49  C   UNL A   1      39.788  32.768  35.512  1.00  0.00     0.037 A 
ATOM     50  C   UNL A   1      40.414  28.751  29.797  1.00  0.00     0.037 A 
ATOM     51  C   UNL A   1      40.873  31.828  35.549  1.00  0.00     0.049 A 
ATOM     52  C   UNL A   1      41.350  28.623  30.968  1.00  0.00     0.074 A 
ATOM     53  C   UNL A   1      41.793  31.608  36.559  1.00  0.00     0.029 A 
ATOM     54  N   UNL A   1      41.170  30.932  34.532  1.00  0.00    -0.354 N 
ATOM     55  N   UNL A   1      41.352  29.282  32.101  1.00  0.00    -0.248 NA
ATOM     56  C   UNL A   1      42.424  27.626  30.853  1.00  0.00     0.031 C 
ATOM     57  C   UNL A   1      42.657  30.588  36.146  1.00  0.00     0.029 A 
ATOM     58  C   UNL A   1      42.254  30.152  34.893  1.00  0.00     0.049 A 
ATOM     59  H   UNL A   1      40.681  30.862  33.680  1.00  0.00     0.167 HD
ATOM     60  C   UNL A   1      42.398  28.757  32.846  1.00  0.00     0.074 A 
ATOM     61  C   UNL A   1      43.008  27.721  32.040  1.00  0.00     0.031 C 
ATOM     62  C   UNL A   1      42.817  29.101  34.088  1.00  0.00     0.037 A 
BRANCH  49  63
ATOM     63  C   UNL A   1      39.590  33.681  36.685  1.00  0.00     0.064 A 
ATOM     64  C   UNL A   1      38.777  33.316  37.768  1.00  0.00     0.173 A 
ATOM     65  C   UNL A   1      40.233  34.927  36.736  1.00  0.00     0.173 A 
ATOM     66  F   UNL A   1      38.127  32.142  37.756  1.00  0.00    -0.203 F 
ATOM     67  C   UNL A   1      38.590  34.175  38.846  1.00  0.00     0.198 A 
ATOM     68  C   UNL A   1      40.067  35.773  37.830  1.00  0.00     0.198 A 
ATOM     69  F   UNL A   1      41.022  35.324  35.726  1.00  0.00    -0.203 F 
ATOM     70  F   UNL A   1      37.767  33.827  39.844  1.00  0.00    -0.200 F 
ATOM     71  C   UNL A   1      39.241  35.400  38.879  1.00  0.00     0.200 A 
ATOM     72  F   UNL A   1      40.702  36.952  37.866  1.00  0.00    -0.200 F 
ATOM     73  F   UNL A   1      39.062  36.225  39.920  1.00  0.00    -0.200 F 
ENDBRANCH  49  63
BRANCH  50  74
ATOM     74  C   UNL A   1      40.586  27.894  28.595  1.00  0.00     0.064 A 
ATOM     75  C   UNL A   1      41.365  28.331  27.513  1.00  0.00     0.173 A 
ATOM     76  C   UNL A   1      39.969  26.641  28.489  1.00  0.00     0.173 A 
ATOM     77  F   UNL A   1      41.959  29.533  27.560  1.00  0.00    -0.203 F 
ATOM     78  C   UNL A   1      41.498  27.559  26.362  1.00  0.00     0.198 A 
ATOM     79  C   UNL A   1      40.122  25.858  27.346  1.00  0.00     0.198 A 
ATOM     80  F   UNL A   1      39.217  26.175  29.497  1.00  0.00    -0.203 F 
ATOM     81  F   UNL A   1      42.208  28.023  25.324  1.00  0.00    -0.200 F 
ATOM     82  C   UNL A   1      40.878  26.321  26.280  1.00  0.00     0.200 A 
ATOM     83  F   UNL A   1      39.531  24.658  27.274  1.00  0.00    -0.200 F 
ATOM     84  F   UNL A   1      41.002  25.581  25.171  1.00  0.00    -0.200 F 
ENDBRANCH  50  74
BRANCH  62  85
ATOM     85  C   UNL A   1      43.946  28.313  34.677  1.00  0.00     0.064 A 
ATOM     86  C   UNL A   1      43.722  27.127  35.391  1.00  0.00     0.173 A 
ATOM     87  C   UNL A   1      45.273  28.721  34.471  1.00  0.00     0.173 A 
ATOM     88  F   UNL A   1      42.469  26.706  35.624  1.00  0.00    -0.203 F 
ATOM     89  C   UNL A   1      44.787  26.385  35.892  1.00  0.00     0.198 A 
ATOM     90  C   UNL A   1      46.335  27.964  34.953  1.00  0.00     0.198 A 
ATOM     91  F   UNL A   1      45.535  29.845  33.789  1.00  0.00    -0.203 F 
ATOM     92  F   UNL A   1      44.551  25.272  36.600  1.00  0.00    -0.200 F 
ATOM     93  C   UNL A   1      46.092  26.799  35.666  1.00  0.00     0.200 A 
ATOM     94  F   UNL A   1      47.596  28.359  34.725  1.00  0.00    -0.200 F 
ATOM     95  F   UNL A   1      47.117  26.077  36.141  1.00  0.00    -0.200 F 
ENDBRANCH  62  85
ENDBRANCH  36  37
ENDBRANCH  28  31
ENDBRANCH  26  27
ENDBRANCH  25  26
ENDBRANCH   1  25
TORSDOF 18
ENDMDL
MODEL 3
REMARK VINA RESULT:     -11.3      2.015      2.831
REMARK SMILES CCCC[C@@H](C(=O)NCCCCNC(=O)c1ccc(-c2c3nc(c(-c4c(F)c(F)c(F)c(F)c4F)c4ccc([nH]4)c(-c4c(F)c(F)c(F)c(F)c4F)c4nc(c(-c5c(F)c(F)c(F)c(F)c5F)c5ccc2[nH]5)C=C4)C=C3)cc1)[C@@H](O)c1cccc(C(F)(F)F)c1
REMARK SMILES IDX 10 1 9 2 8 3 6 4 7 5 5 7 4 8 3 9 2 10 1 11 79 12 80 13 81 15
REMARK SMILES IDX 82 16 90 17 83 18 85 19 84 20 86 21 87 22 88 23 89 24 11 25
REMARK SMILES IDX 12 26 13 27 14 28 15 30 16 31 17 32 78 33 18 34 77 35 19 36
REMARK SMILES IDX 20 37 21 38 71 39 22 40 76 41 70 42 72 43 23 44 75 45 69 46
REMARK SMILES IDX 68 47 24 49 56 50 36 51 55 52 37 53 40 54 54 55 73 56 38 57
REMARK SMILES IDX 39 58 53 60 74 61 41 62 25 63 26 64 34 65 27 66 28 67 32 68
REMARK SMILES IDX 35 69 29 70 30 71 33 72 31 73 57 74 58 75 66 76 59 77 60 78
REMARK SMILES IDX 64 79 67 80 61 81 62 82 65 83 63 84 42 85 43 86 51 87 44 88
REMARK SMILES IDX 45 89 49 90 52 91 46 92 47 93 50 94 48 95
REMARK H PARENT 8 6 80 14 13 29 72 48 40 59
REMARK Flexibility Score: inf
ROOT
ATOM      1  C   UNL A   1      35.531  21.798  25.890  1.00  0.00     0.023 C 
ENDROOT
BRANCH   1   2
ATOM      2  C   UNL A   1      34.032  21.507  25.758  1.00  0.00     0.116 C 
BRANCH   2   3
ATOM      3  N   UNL A   1      33.677  21.400  24.359  1.00  0.00    -0.356 N 
ATOM      4  C   UNL A   1      32.939  22.232  23.574  1.00  0.00     0.226 C 
ATOM      5  O   UNL A   1      32.498  21.746  22.528  1.00  0.00    -0.275 OA
ATOM      6  H   UNL A   1      34.023  20.599  23.904  1.00  0.00     0.163 HD
BRANCH   4   7
ATOM      7  C   UNL A   1      32.677  23.695  23.954  1.00  0.00     0.111 C 
BRANCH   7   8
ATOM      8  C   UNL A   1      31.269  24.154  23.474  1.00  0.00     0.016 C 
BRANCH   8   9
ATOM      9  C   UNL A   1      30.442  25.060  24.390  1.00  0.00     0.001 C 
BRANCH   9  10
ATOM     10  C   UNL A   1      29.637  26.168  23.708  1.00  0.00    -0.003 C 
ATOM     11  C   UNL A   1      30.153  27.559  24.037  1.00  0.00     0.004 C 
ENDBRANCH   9  10
ENDBRANCH   8   9
ENDBRANCH   7   8
BRANCH   7  12
ATOM     12  C   UNL A   1      33.775  24.550  23.235  1.00  0.00     0.157 C 
BRANCH  12  13
ATOM     13  O   UNL A   1      33.742  24.320  21.818  1.00  0.00    -0.388 OA
ATOM     14  H   UNL A   1      34.616  24.024  21.517  1.00  0.00     0.211 HD
ENDBRANCH  12  13
BRANCH  12  15
ATOM     15  C   UNL A   1      33.659  26.055  23.439  1.00  0.00    -0.018 A 
ATOM     16  C   UNL A   1      33.552  26.934  22.349  1.00  0.00     0.006 A 
ATOM     17  C   UNL A   1      33.733  26.608  24.730  1.00  0.00     0.019 A 
ATOM     18  C   UNL A   1      33.556  28.317  22.535  1.00  0.00     0.001 A 
ATOM     19  C   UNL A   1      33.716  27.999  24.934  1.00  0.00     0.056 A 
ATOM     20  C   UNL A   1      33.641  28.848  23.820  1.00  0.00     0.013 A 
BRANCH  19  21
ATOM     21  C   UNL A   1      33.814  28.590  26.319  1.00  0.00     0.416 C 
ATOM     22  F   UNL A   1      35.063  28.478  26.848  1.00  0.00    -0.166 F 
ATOM     23  F   UNL A   1      33.519  29.921  26.338  1.00  0.00    -0.166 F 
ATOM     24  F   UNL A   1      32.972  28.015  27.223  1.00  0.00    -0.166 F 
ENDBRANCH  19  21
ENDBRANCH  12  15
ENDBRANCH   7  12
ENDBRANCH   4   7
ENDBRANCH   2   3
ENDBRANCH   1   2
BRANCH   1  25
ATOM     25  C   UNL A   1      35.886  23.264  26.098  1.00  0.00     0.023 C 
BRANCH  25  26
ATOM     26  C   UNL A   1      37.129  23.714  25.352  1.00  0.00     0.116 C 
BRANCH  26  27
ATOM     27  N   UNL A   1      38.287  22.858  25.572  1.00  0.00    -0.352 N 
ATOM     28  C   UNL A   1      39.445  23.161  26.258  1.00  0.00     0.251 C 
ATOM     29  H   UNL A   1      38.236  21.954  25.186  1.00  0.00     0.163 HD
ATOM     30  O   UNL A   1      40.376  22.376  26.311  1.00  0.00    -0.269 OA
BRANCH  28  31
ATOM     31  C   UNL A   1      39.545  24.494  26.886  1.00  0.00     0.039 A 
ATOM     32  C   UNL A   1      39.096  24.659  28.198  1.00  0.00     0.014 A 
ATOM     33  C   UNL A   1      40.195  25.531  26.214  1.00  0.00     0.014 A 
ATOM     34  C   UNL A   1      39.381  25.847  28.871  1.00  0.00     0.010 A 
ATOM     35  C   UNL A   1      40.553  26.673  26.915  1.00  0.00     0.010 A 
ATOM     36  C   UNL A   1      40.152  26.842  28.250  1.00  0.00    -0.014 A 
BRANCH  36  37
ATOM     37  C   UNL A   1      40.538  28.091  28.953  1.00  0.00     0.031 A 
ATOM     38  C   UNL A   1      41.922  28.208  29.524  1.00  0.00     0.074 A 
ATOM     39  C   UNL A   1      39.629  29.061  29.163  1.00  0.00     0.049 A 
ATOM     40  N   UNL A   1      42.417  29.117  30.324  1.00  0.00    -0.248 NA
ATOM     41  C   UNL A   1      42.866  27.131  29.182  1.00  0.00     0.031 C 
ATOM     42  C   UNL A   1      38.242  29.046  28.695  1.00  0.00     0.029 A 
ATOM     43  N   UNL A   1      39.735  30.248  29.843  1.00  0.00    -0.354 N 
ATOM     44  C   UNL A   1      43.709  28.701  30.610  1.00  0.00     0.074 A 
ATOM     45  C   UNL A   1      43.909  27.435  29.938  1.00  0.00     0.031 C 
ATOM     46  C   UNL A   1      37.633  30.180  29.082  1.00  0.00     0.029 A 
ATOM     47  C   UNL A   1      38.573  30.982  29.860  1.00  0.00     0.049 A 
ATOM     48  H   UNL A   1      40.566  30.547  30.277  1.00  0.00     0.167 HD
ATOM     49  C   UNL A   1      44.654  29.330  31.346  1.00  0.00     0.037 A 
ATOM     50  C   UNL A   1      38.302  32.164  30.445  1.00  0.00     0.037 A 
ATOM     51  C   UNL A   1      44.470  30.612  31.965  1.00  0.00     0.049 A 
ATOM     52  C   UNL A   1      39.383  32.860  31.227  1.00  0.00     0.074 A 
ATOM     53  C   UNL A   1      45.377  31.356  32.699  1.00  0.00     0.029 A 
ATOM     54  N   UNL A   1      43.298  31.353  31.903  1.00  0.00    -0.354 N 
ATOM     55  N   UNL A   1      40.612  32.472  31.466  1.00  0.00    -0.248 NA
ATOM     56  C   UNL A   1      39.040  34.162  31.817  1.00  0.00     0.031 C 
ATOM     57  C   UNL A   1      44.748  32.542  33.095  1.00  0.00     0.029 A 
ATOM     58  C   UNL A   1      43.462  32.549  32.579  1.00  0.00     0.049 A 
ATOM     59  H   UNL A   1      42.475  31.069  31.446  1.00  0.00     0.167 HD
ATOM     60  C   UNL A   1      41.198  33.493  32.200  1.00  0.00     0.074 A 
ATOM     61  C   UNL A   1      40.193  34.522  32.364  1.00  0.00     0.031 C 
ATOM     62  C   UNL A   1      42.457  33.573  32.695  1.00  0.00     0.037 A 
BRANCH  49  63
ATOM     63  C   UNL A   1      45.977  28.641  31.503  1.00  0.00     0.064 A 
ATOM     64  C   UNL A   1      47.022  28.848  30.591  1.00  0.00     0.173 A 
ATOM     65  C   UNL A   1      46.209  27.778  32.584  1.00  0.00     0.173 A 
ATOM     66  F   UNL A   1      46.842  29.650  29.530  1.00  0.00    -0.203 F 
ATOM     67  C   UNL A   1      48.242  28.195  30.738  1.00  0.00     0.198 A 
ATOM     68  C   UNL A   1      47.440  27.148  32.745  1.00  0.00     0.198 A 
ATOM     69  F   UNL A   1      45.242  27.547  33.485  1.00  0.00    -0.203 F 
ATOM     70  F   UNL A   1      49.208  28.367  29.825  1.00  0.00    -0.200 F 
ATOM     71  C   UNL A   1      48.452  27.351  31.819  1.00  0.00     0.200 A 
ATOM     72  F   UNL A   1      47.646  26.340  33.794  1.00  0.00    -0.200 F 
ATOM     73  F   UNL A   1      49.629  26.725  31.961  1.00  0.00    -0.200 F 
ENDBRANCH  49  63
BRANCH  50  74
ATOM     74  C   UNL A   1      36.962  32.787  30.288  1.00  0.00     0.064 A 
ATOM     75  C   UNL A   1      36.030  32.747  31.336  1.00  0.00     0.173 A 
ATOM     76  C   UNL A   1      36.576  33.413  29.095  1.00  0.00     0.173 A 
ATOM     77  F   UNL A   1      36.347  32.141  32.489  1.00  0.00    -0.203 F 
ATOM     78  C   UNL A   1      34.754  33.286  31.187  1.00  0.00     0.198 A 
ATOM     79  C   UNL A   1      35.307  33.973  28.956  1.00  0.00     0.198 A 
ATOM     80  F   UNL A   1      37.431  33.481  28.065  1.00  0.00    -0.203 F 
ATOM     81  F   UNL A   1      33.868  33.190  32.187  1.00  0.00    -0.200 F 
ATOM     82  C   UNL A   1      34.394  33.901  29.998  1.00  0.00     0.200 A 
ATOM     83  F   UNL A   1      34.965  34.576  27.809  1.00  0.00    -0.200 F 
ATOM     84  F   UNL A   1      33.166  34.415  29.853  1.00  0.00    -0.200 F 
ENDBRANCH  50  74
BRANCH  62  85
ATOM     85  C   UNL A   1      42.840  34.836  33.402  1.00  0.00     0.064 A 
ATOM     86  C   UNL A   1      42.758  34.953  34.797  1.00  0.00     0.173 A 
ATOM     87  C   UNL A   1      43.353  35.922  32.676  1.00  0.00     0.173 A 
ATOM     88  F   UNL A   1      42.261  33.945  35.530  1.00  0.00    -0.203 F 
ATOM     89  C   UNL A   1      43.161  36.120  35.439  1.00  0.00     0.198 A 
ATOM     90  C   UNL A   1      43.777  37.077  33.324  1.00  0.00     0.198 A 
ATOM     91  F   UNL A   1      43.455  35.853  31.340  1.00  0.00    -0.203 F 
ATOM     92  F   UNL A   1      43.044  36.224  36.770  1.00  0.00    -0.200 F 
ATOM     93  C   UNL A   1      43.678  37.177  34.704  1.00  0.00     0.200 A 
ATOM     94  F   UNL A   1      44.285  38.094  32.613  1.00  0.00    -0.200 F 
ATOM     95  F   UNL A   1      44.075  38.296  35.325  1.00  0.00    -0.200 F 
ENDBRANCH  62  85
ENDBRANCH  36  37
ENDBRANCH  28  31
ENDBRANCH  26  27
ENDBRANCH  25  26
ENDBRANCH   1  25
TORSDOF 18
ENDMDL
