MODEL 1
REMARK VINA RESULT:     -11.6      0.000      0.000
REMARK SMILES C=CCN(CC(=O)NCCCCNC(=O)c1ccc(-c2c3nc(c(-c4c(F)c(F)c(F)c(F)c4F)c4ccc([nH]4)c(-c4c(F)c(F)c(F)c(F)c4F)c4nc(c(-c5c(F)c(F)c(F)c(F)c5F)c5ccc2[nH]5)C=C4)C=C3)cc1)C(=O)[C@@H]1[C@H](C)[C@H](C)O[C@@H]1C
REMARK SMILES IDX 10 1 9 2 8 3 6 4 7 5 5 7 4 8 3 9 2 10 1 11 79 12 80 13 81 14
REMARK SMILES IDX 82 15 87 16 83 17 84 18 86 19 88 20 85 21 11 22 12 23 13 24
REMARK SMILES IDX 14 25 15 27 16 28 17 29 78 30 18 31 77 32 19 33 20 34 21 35
REMARK SMILES IDX 71 36 22 37 76 38 70 39 72 40 23 41 75 42 69 43 68 44 24 46
REMARK SMILES IDX 56 47 36 48 55 49 37 50 40 51 54 52 73 53 38 54 39 55 53 57
REMARK SMILES IDX 74 58 41 59 25 60 26 61 34 62 27 63 28 64 32 65 35 66 29 67
REMARK SMILES IDX 30 68 33 69 31 70 57 71 58 72 66 73 59 74 60 75 64 76 67 77
REMARK SMILES IDX 61 78 62 79 65 80 63 81 42 82 43 83 51 84 44 85 45 86 49 87
REMARK SMILES IDX 52 88 46 89 47 90 50 91 48 92
REMARK H PARENT 8 6 13 26 72 45 40 56
REMARK Flexibility Score: inf
ROOT
ATOM      1  C   UNL A   1      31.737  30.663  26.235  1.00  0.00     0.023 C 
ENDROOT
BRANCH   1   2
ATOM      2  C   UNL A   1      33.181  30.204  26.421  1.00  0.00     0.116 C 
BRANCH   2   3
ATOM      3  N   UNL A   1      33.670  29.434  25.298  1.00  0.00    -0.355 N 
ATOM      4  C   UNL A   1      33.776  28.082  25.160  1.00  0.00     0.239 C 
ATOM      5  O   UNL A   1      34.053  27.639  24.042  1.00  0.00    -0.273 OA
ATOM      6  H   UNL A   1      33.969  29.962  24.523  1.00  0.00     0.163 HD
BRANCH   4   7
ATOM      7  C   UNL A   1      33.473  27.128  26.326  1.00  0.00     0.219 C 
BRANCH   7   8
ATOM      8  N   UNL A   1      32.265  26.309  26.161  1.00  0.00    -0.329 N 
BRANCH   8   9
ATOM      9  C   UNL A   1      31.015  27.001  25.849  1.00  0.00     0.147 C 
BRANCH   9  10
ATOM     10  C   UNL A   1      30.544  26.655  24.469  1.00  0.00    -0.014 C 
ATOM     11  C   UNL A   1      29.325  26.156  24.219  1.00  0.00     0.006 C 
ENDBRANCH   9  10
ENDBRANCH   8   9
BRANCH   8  12
ATOM     12  C   UNL A   1      32.221  24.925  26.330  1.00  0.00     0.229 C 
ATOM     13  O   UNL A   1      31.506  24.435  27.209  1.00  0.00    -0.274 OA
BRANCH  12  14
ATOM     14  C   UNL A   1      33.140  24.023  25.501  1.00  0.00     0.113 C 
ATOM     15  C   UNL A   1      32.568  22.855  24.696  1.00  0.00     0.030 C 
ATOM     16  C   UNL A   1      34.256  23.356  26.315  1.00  0.00     0.128 C 
ATOM     17  C   UNL A   1      31.342  22.176  25.303  1.00  0.00     0.011 C 
ATOM     18  C   UNL A   1      33.801  21.952  24.494  1.00  0.00     0.119 C 
ATOM     19  O   UNL A   1      34.815  22.373  25.423  1.00  0.00    -0.374 OA
ATOM     20  C   UNL A   1      33.877  22.627  27.605  1.00  0.00     0.039 C 
ATOM     21  C   UNL A   1      33.597  20.453  24.648  1.00  0.00     0.039 C 
ENDBRANCH  12  14
ENDBRANCH   8  12
ENDBRANCH   7   8
ENDBRANCH   4   7
ENDBRANCH   2   3
ENDBRANCH   1   2
BRANCH   1  22
ATOM     22  C   UNL A   1      31.441  32.077  26.737  1.00  0.00     0.023 C 
BRANCH  22  23
ATOM     23  C   UNL A   1      32.635  32.836  27.299  1.00  0.00     0.116 C 
BRANCH  23  24
ATOM     24  N   UNL A   1      32.334  34.219  27.636  1.00  0.00    -0.352 N 
ATOM     25  C   UNL A   1      32.947  35.034  28.558  1.00  0.00     0.251 C 
ATOM     26  H   UNL A   1      31.591  34.626  27.137  1.00  0.00     0.163 HD
ATOM     27  O   UNL A   1      32.497  36.151  28.792  1.00  0.00    -0.269 OA
BRANCH  25  28
ATOM     28  C   UNL A   1      34.130  34.544  29.296  1.00  0.00     0.039 A 
ATOM     29  C   UNL A   1      33.946  33.970  30.556  1.00  0.00     0.014 A 
ATOM     30  C   UNL A   1      35.410  34.623  28.740  1.00  0.00     0.014 A 
ATOM     31  C   UNL A   1      35.035  33.412  31.228  1.00  0.00     0.010 A 
ATOM     32  C   UNL A   1      36.480  34.001  29.376  1.00  0.00     0.010 A 
ATOM     33  C   UNL A   1      36.303  33.387  30.626  1.00  0.00    -0.014 A 
BRANCH  33  34
ATOM     34  C   UNL A   1      37.452  32.712  31.283  1.00  0.00     0.031 A 
ATOM     35  C   UNL A   1      38.133  31.552  30.614  1.00  0.00     0.074 A 
ATOM     36  C   UNL A   1      37.840  33.105  32.513  1.00  0.00     0.049 A 
ATOM     37  N   UNL A   1      39.106  30.795  31.055  1.00  0.00    -0.248 NA
ATOM     38  C   UNL A   1      37.639  31.171  29.280  1.00  0.00     0.031 C 
ATOM     39  C   UNL A   1      37.225  34.183  33.290  1.00  0.00     0.029 A 
ATOM     40  N   UNL A   1      38.836  32.634  33.332  1.00  0.00    -0.354 N 
ATOM     41  C   UNL A   1      39.327  29.846  30.066  1.00  0.00     0.074 A 
ATOM     42  C   UNL A   1      38.356  30.088  29.021  1.00  0.00     0.031 C 
ATOM     43  C   UNL A   1      37.867  34.303  34.463  1.00  0.00     0.029 A 
ATOM     44  C   UNL A   1      38.913  33.287  34.538  1.00  0.00     0.049 A 
ATOM     45  H   UNL A   1      39.439  31.898  33.079  1.00  0.00     0.167 HD
ATOM     46  C   UNL A   1      40.270  28.876  30.024  1.00  0.00     0.037 A 
ATOM     47  C   UNL A   1      39.728  33.083  35.591  1.00  0.00     0.037 A 
ATOM     48  C   UNL A   1      41.256  28.657  31.051  1.00  0.00     0.049 A 
ATOM     49  C   UNL A   1      40.769  31.997  35.514  1.00  0.00     0.074 A 
ATOM     50  C   UNL A   1      42.298  27.746  31.066  1.00  0.00     0.029 A 
ATOM     51  N   UNL A   1      41.319  29.357  32.246  1.00  0.00    -0.354 N 
ATOM     52  N   UNL A   1      41.021  31.160  34.538  1.00  0.00    -0.248 NA
ATOM     53  C   UNL A   1      41.644  31.834  36.683  1.00  0.00     0.031 C 
ATOM     54  C   UNL A   1      42.959  27.858  32.292  1.00  0.00     0.029 A 
ATOM     55  C   UNL A   1      42.367  28.878  33.017  1.00  0.00     0.049 A 
ATOM     56  H   UNL A   1      40.711  30.084  32.509  1.00  0.00     0.167 HD
ATOM     57  C   UNL A   1      42.100  30.395  34.960  1.00  0.00     0.074 A 
ATOM     58  C   UNL A   1      42.466  30.879  36.274  1.00  0.00     0.031 C 
ATOM     59  C   UNL A   1      42.728  29.379  34.318  1.00  0.00     0.037 A 
BRANCH  46  60
ATOM     60  C   UNL A   1      40.295  27.973  28.824  1.00  0.00     0.064 A 
ATOM     61  C   UNL A   1      41.032  28.297  27.675  1.00  0.00     0.173 A 
ATOM     62  C   UNL A   1      39.629  26.739  28.850  1.00  0.00     0.173 A 
ATOM     63  F   UNL A   1      41.679  29.470  27.595  1.00  0.00    -0.203 F 
ATOM     64  C   UNL A   1      41.084  27.428  26.589  1.00  0.00     0.198 A 
ATOM     65  C   UNL A   1      39.708  25.859  27.774  1.00  0.00     0.198 A 
ATOM     66  F   UNL A   1      38.914  26.378  29.927  1.00  0.00    -0.203 F 
ATOM     67  F   UNL A   1      41.761  27.776  25.486  1.00  0.00    -0.200 F 
ATOM     68  C   UNL A   1      40.430  26.205  26.643  1.00  0.00     0.200 A 
ATOM     69  F   UNL A   1      39.087  24.672  27.834  1.00  0.00    -0.200 F 
ATOM     70  F   UNL A   1      40.494  25.363  25.603  1.00  0.00    -0.200 F 
ENDBRANCH  46  60
BRANCH  47  71
ATOM     71  C   UNL A   1      39.605  33.928  36.810  1.00  0.00     0.064 A 
ATOM     72  C   UNL A   1      38.826  33.514  37.900  1.00  0.00     0.173 A 
ATOM     73  C   UNL A   1      40.236  35.177  36.898  1.00  0.00     0.173 A 
ATOM     74  F   UNL A   1      38.185  32.337  37.856  1.00  0.00    -0.203 F 
ATOM     75  C   UNL A   1      38.657  34.331  39.016  1.00  0.00     0.198 A 
ATOM     76  C   UNL A   1      40.094  35.979  38.028  1.00  0.00     0.198 A 
ATOM     77  F   UNL A   1      40.999  35.618  35.885  1.00  0.00    -0.203 F 
ATOM     78  F   UNL A   1      37.858  33.937  40.016  1.00  0.00    -0.200 F 
ATOM     79  C   UNL A   1      39.294  35.561  39.081  1.00  0.00     0.200 A 
ATOM     80  F   UNL A   1      40.724  37.160  38.094  1.00  0.00    -0.200 F 
ATOM     81  F   UNL A   1      39.128  36.347  40.153  1.00  0.00    -0.200 F 
ENDBRANCH  47  71
BRANCH  59  82
ATOM     82  C   UNL A   1      43.906  28.752  35.008  1.00  0.00     0.064 A 
ATOM     83  C   UNL A   1      45.209  29.242  34.838  1.00  0.00     0.173 A 
ATOM     84  C   UNL A   1      43.720  27.669  35.882  1.00  0.00     0.173 A 
ATOM     85  F   UNL A   1      45.442  30.266  34.002  1.00  0.00    -0.203 F 
ATOM     86  C   UNL A   1      46.286  28.653  35.494  1.00  0.00     0.198 A 
ATOM     87  C   UNL A   1      44.796  27.104  36.562  1.00  0.00     0.198 A 
ATOM     88  F   UNL A   1      42.494  27.168  36.087  1.00  0.00    -0.203 F 
ATOM     89  F   UNL A   1      47.529  29.105  35.275  1.00  0.00    -0.200 F 
ATOM     90  C   UNL A   1      46.079  27.591  36.360  1.00  0.00     0.200 A 
ATOM     91  F   UNL A   1      44.590  26.089  37.411  1.00  0.00    -0.200 F 
ATOM     92  F   UNL A   1      47.116  27.031  36.997  1.00  0.00    -0.200 F 
ENDBRANCH  59  82
ENDBRANCH  33  34
ENDBRANCH  25  28
ENDBRANCH  23  24
ENDBRANCH  22  23
ENDBRANCH   1  22
TORSDOF 16
ENDMDL
MODEL 2
REMARK VINA RESULT:     -11.4      0.908      1.712
REMARK SMILES C=CCN(CC(=O)NCCCCNC(=O)c1ccc(-c2c3nc(c(-c4c(F)c(F)c(F)c(F)c4F)c4ccc([nH]4)c(-c4c(F)c(F)c(F)c(F)c4F)c4nc(c(-c5c(F)c(F)c(F)c(F)c5F)c5ccc2[nH]5)C=C4)C=C3)cc1)C(=O)[C@@H]1[C@H](C)[C@H](C)O[C@@H]1C
REMARK SMILES IDX 10 1 9 2 8 3 6 4 7 5 5 7 4 8 3 9 2 10 1 11 79 12 80 13 81 14
REMARK SMILES IDX 82 15 87 16 83 17 84 18 86 19 88 20 85 21 11 22 12 23 13 24
REMARK SMILES IDX 14 25 15 27 16 28 17 29 78 30 18 31 77 32 19 33 20 34 21 35
REMARK SMILES IDX 71 36 22 37 76 38 70 39 72 40 23 41 75 42 69 43 68 44 24 46
REMARK SMILES IDX 56 47 36 48 55 49 37 50 40 51 54 52 73 53 38 54 39 55 53 57
REMARK SMILES IDX 74 58 41 59 25 60 26 61 34 62 27 63 28 64 32 65 35 66 29 67
REMARK SMILES IDX 30 68 33 69 31 70 57 71 58 72 66 73 59 74 60 75 64 76 67 77
REMARK SMILES IDX 61 78 62 79 65 80 63 81 42 82 43 83 51 84 44 85 45 86 49 87
REMARK SMILES IDX 52 88 46 89 47 90 50 91 48 92
REMARK H PARENT 8 6 13 26 72 45 40 56
REMARK Flexibility Score: inf
ROOT
ATOM      1  C   UNL A   1      31.680  30.440  26.444  1.00  0.00     0.023 C 
ENDROOT
BRANCH   1   2
ATOM      2  C   UNL A   1      33.080  29.954  26.079  1.00  0.00     0.116 C 
BRANCH   2   3
ATOM      3  N   UNL A   1      33.232  29.703  24.662  1.00  0.00    -0.355 N 
ATOM      4  C   UNL A   1      33.526  28.537  24.019  1.00  0.00     0.239 C 
ATOM      5  O   UNL A   1      33.427  28.519  22.789  1.00  0.00    -0.273 OA
ATOM      6  H   UNL A   1      33.102  30.485  24.079  1.00  0.00     0.163 HD
BRANCH   4   7
ATOM      7  C   UNL A   1      33.883  27.259  24.795  1.00  0.00     0.219 C 
BRANCH   7   8
ATOM      8  N   UNL A   1      33.348  26.017  24.222  1.00  0.00    -0.329 N 
BRANCH   8   9
ATOM      9  C   UNL A   1      31.896  25.895  24.104  1.00  0.00     0.147 C 
BRANCH   9  10
ATOM     10  C   UNL A   1      31.298  25.378  25.376  1.00  0.00    -0.014 C 
ATOM     11  C   UNL A   1      30.166  25.869  25.902  1.00  0.00     0.006 C 
ENDBRANCH   9  10
ENDBRANCH   8   9
BRANCH   8  12
ATOM     12  C   UNL A   1      34.128  24.928  23.832  1.00  0.00     0.229 C 
ATOM     13  O   UNL A   1      34.212  24.628  22.637  1.00  0.00    -0.274 OA
BRANCH  12  14
ATOM     14  C   UNL A   1      34.788  24.041  24.892  1.00  0.00     0.113 C 
ATOM     15  C   UNL A   1      36.172  23.435  24.649  1.00  0.00     0.030 C 
ATOM     16  C   UNL A   1      33.951  22.819  25.289  1.00  0.00     0.128 C 
ATOM     17  C   UNL A   1      36.493  23.087  23.198  1.00  0.00     0.011 C 
ATOM     18  C   UNL A   1      36.199  22.255  25.641  1.00  0.00     0.119 C 
ATOM     19  O   UNL A   1      34.848  22.004  26.068  1.00  0.00    -0.374 OA
ATOM     20  C   UNL A   1      33.389  21.931  24.177  1.00  0.00     0.039 C 
ATOM     21  C   UNL A   1      36.801  20.948  25.150  1.00  0.00     0.039 C 
ENDBRANCH  12  14
ENDBRANCH   8  12
ENDBRANCH   7   8
ENDBRANCH   4   7
ENDBRANCH   2   3
ENDBRANCH   1   2
BRANCH   1  22
ATOM     22  C   UNL A   1      31.529  31.958  26.540  1.00  0.00     0.023 C 
BRANCH  22  23
ATOM     23  C   UNL A   1      32.653  32.683  27.267  1.00  0.00     0.116 C 
BRANCH  23  24
ATOM     24  N   UNL A   1      32.331  34.062  27.602  1.00  0.00    -0.352 N 
ATOM     25  C   UNL A   1      32.930  34.887  28.523  1.00  0.00     0.251 C 
ATOM     26  H   UNL A   1      31.583  34.457  27.100  1.00  0.00     0.163 HD
ATOM     27  O   UNL A   1      32.463  35.998  28.755  1.00  0.00    -0.269 OA
BRANCH  25  28
ATOM     28  C   UNL A   1      34.119  34.416  29.265  1.00  0.00     0.039 A 
ATOM     29  C   UNL A   1      33.934  33.765  30.486  1.00  0.00     0.014 A 
ATOM     30  C   UNL A   1      35.406  34.590  28.747  1.00  0.00     0.014 A 
ATOM     31  C   UNL A   1      35.034  33.225  31.155  1.00  0.00     0.010 A 
ATOM     32  C   UNL A   1      36.491  33.988  29.377  1.00  0.00     0.010 A 
ATOM     33  C   UNL A   1      36.316  33.296  30.586  1.00  0.00    -0.014 A 
BRANCH  33  34
ATOM     34  C   UNL A   1      37.482  32.644  31.236  1.00  0.00     0.031 A 
ATOM     35  C   UNL A   1      38.182  31.498  30.560  1.00  0.00     0.074 A 
ATOM     36  C   UNL A   1      37.869  33.042  32.463  1.00  0.00     0.049 A 
ATOM     37  N   UNL A   1      39.173  30.761  30.995  1.00  0.00    -0.248 NA
ATOM     38  C   UNL A   1      37.688  31.110  29.229  1.00  0.00     0.031 C 
ATOM     39  C   UNL A   1      37.237  34.106  33.246  1.00  0.00     0.029 A 
ATOM     40  N   UNL A   1      38.879  32.591  33.276  1.00  0.00    -0.354 N 
ATOM     41  C   UNL A   1      39.408  29.818  30.003  1.00  0.00     0.074 A 
ATOM     42  C   UNL A   1      38.426  30.042  28.964  1.00  0.00     0.031 C 
ATOM     43  C   UNL A   1      37.884  34.238  34.415  1.00  0.00     0.029 A 
ATOM     44  C   UNL A   1      38.951  33.243  34.483  1.00  0.00     0.049 A 
ATOM     45  H   UNL A   1      39.495  31.867  33.018  1.00  0.00     0.167 HD
ATOM     46  C   UNL A   1      40.370  28.867  29.953  1.00  0.00     0.037 A 
ATOM     47  C   UNL A   1      39.776  33.054  35.531  1.00  0.00     0.037 A 
ATOM     48  C   UNL A   1      41.366  28.667  30.974  1.00  0.00     0.049 A 
ATOM     49  C   UNL A   1      40.837  31.990  35.445  1.00  0.00     0.074 A 
ATOM     50  C   UNL A   1      42.426  27.776  30.981  1.00  0.00     0.029 A 
ATOM     51  N   UNL A   1      41.421  29.365  32.170  1.00  0.00    -0.354 N 
ATOM     52  N   UNL A   1      41.100  31.159  34.466  1.00  0.00    -0.248 NA
ATOM     53  C   UNL A   1      41.723  31.842  36.610  1.00  0.00     0.031 C 
ATOM     54  C   UNL A   1      43.092  27.900  32.204  1.00  0.00     0.029 A 
ATOM     55  C   UNL A   1      42.484  28.907  32.934  1.00  0.00     0.049 A 
ATOM     56  H   UNL A   1      40.800  30.080  32.438  1.00  0.00     0.167 HD
ATOM     57  C   UNL A   1      42.197  30.415  34.881  1.00  0.00     0.074 A 
ATOM     58  C   UNL A   1      42.562  30.905  36.193  1.00  0.00     0.031 C 
ATOM     59  C   UNL A   1      42.842  29.413  34.234  1.00  0.00     0.037 A 
BRANCH  46  60
ATOM     60  C   UNL A   1      40.406  27.967  28.752  1.00  0.00     0.064 A 
ATOM     61  C   UNL A   1      41.160  28.289  27.614  1.00  0.00     0.173 A 
ATOM     62  C   UNL A   1      39.732  26.736  28.766  1.00  0.00     0.173 A 
ATOM     63  F   UNL A   1      41.815  29.458  27.545  1.00  0.00    -0.203 F 
ATOM     64  C   UNL A   1      41.222  27.422  26.526  1.00  0.00     0.198 A 
ATOM     65  C   UNL A   1      39.820  25.858  27.689  1.00  0.00     0.198 A 
ATOM     66  F   UNL A   1      39.000  26.377  29.832  1.00  0.00    -0.203 F 
ATOM     67  F   UNL A   1      41.916  27.768  25.434  1.00  0.00    -0.200 F 
ATOM     68  C   UNL A   1      40.560  26.203  26.569  1.00  0.00     0.200 A 
ATOM     69  F   UNL A   1      39.192  24.675  27.738  1.00  0.00    -0.200 F 
ATOM     70  F   UNL A   1      40.634  25.363  25.528  1.00  0.00    -0.200 F 
ENDBRANCH  46  60
BRANCH  47  71
ATOM     71  C   UNL A   1      39.643  33.895  36.751  1.00  0.00     0.064 A 
ATOM     72  C   UNL A   1      38.863  33.472  37.837  1.00  0.00     0.173 A 
ATOM     73  C   UNL A   1      40.266  35.148  36.845  1.00  0.00     0.173 A 
ATOM     74  F   UNL A   1      38.229  32.292  37.787  1.00  0.00    -0.203 F 
ATOM     75  C   UNL A   1      38.684  34.285  38.955  1.00  0.00     0.198 A 
ATOM     76  C   UNL A   1      40.114  35.945  37.978  1.00  0.00     0.198 A 
ATOM     77  F   UNL A   1      41.029  35.596  35.837  1.00  0.00    -0.203 F 
ATOM     78  F   UNL A   1      37.884  33.882  39.951  1.00  0.00    -0.200 F 
ATOM     79  C   UNL A   1      39.313  35.519  39.026  1.00  0.00     0.200 A 
ATOM     80  F   UNL A   1      40.736  37.130  38.049  1.00  0.00    -0.200 F 
ATOM     81  F   UNL A   1      39.139  36.300  40.100  1.00  0.00    -0.200 F 
ENDBRANCH  47  71
BRANCH  59  82
ATOM     82  C   UNL A   1      44.036  28.809  34.916  1.00  0.00     0.064 A 
ATOM     83  C   UNL A   1      43.920  27.689  35.753  1.00  0.00     0.173 A 
ATOM     84  C   UNL A   1      45.319  29.335  34.697  1.00  0.00     0.173 A 
ATOM     85  F   UNL A   1      42.714  27.157  36.007  1.00  0.00    -0.203 F 
ATOM     86  C   UNL A   1      45.040  27.138  36.369  1.00  0.00     0.198 A 
ATOM     87  C   UNL A   1      46.441  28.760  35.288  1.00  0.00     0.198 A 
ATOM     88  F   UNL A   1      45.487  30.399  33.898  1.00  0.00    -0.203 F 
ATOM     89  F   UNL A   1      44.898  26.101  37.207  1.00  0.00    -0.200 F 
ATOM     90  C   UNL A   1      46.299  27.668  36.131  1.00  0.00     0.200 A 
ATOM     91  F   UNL A   1      47.657  29.263  35.043  1.00  0.00    -0.200 F 
ATOM     92  F   UNL A   1      47.376  27.129  36.718  1.00  0.00    -0.200 F 
ENDBRANCH  59  82
ENDBRANCH  33  34
ENDBRANCH  25  28
ENDBRANCH  23  24
ENDBRANCH  22  23
ENDBRANCH   1  22
TORSDOF 16
ENDMDL
MODEL 3
REMARK VINA RESULT:     -11.4      1.011      7.457
REMARK SMILES C=CCN(CC(=O)NCCCCNC(=O)c1ccc(-c2c3nc(c(-c4c(F)c(F)c(F)c(F)c4F)c4ccc([nH]4)c(-c4c(F)c(F)c(F)c(F)c4F)c4nc(c(-c5c(F)c(F)c(F)c(F)c5F)c5ccc2[nH]5)C=C4)C=C3)cc1)C(=O)[C@@H]1[C@H](C)[C@H](C)O[C@@H]1C
REMARK SMILES IDX 10 1 9 2 8 3 6 4 7 5 5 7 4 8 3 9 2 10 1 11 79 12 80 13 81 14
REMARK SMILES IDX 82 15 87 16 83 17 84 18 86 19 88 20 85 21 11 22 12 23 13 24
REMARK SMILES IDX 14 25 15 27 16 28 17 29 78 30 18 31 77 32 19 33 20 34 21 35
REMARK SMILES IDX 71 36 22 37 76 38 70 39 72 40 23 41 75 42 69 43 68 44 24 46
REMARK SMILES IDX 56 47 36 48 55 49 37 50 40 51 54 52 73 53 38 54 39 55 53 57
REMARK SMILES IDX 74 58 41 59 25 60 26 61 34 62 27 63 28 64 32 65 35 66 29 67
REMARK SMILES IDX 30 68 33 69 31 70 57 71 58 72 66 73 59 74 60 75 64 76 67 77
REMARK SMILES IDX 61 78 62 79 65 80 63 81 42 82 43 83 51 84 44 85 45 86 49 87
REMARK SMILES IDX 52 88 46 89 47 90 50 91 48 92
REMARK H PARENT 8 6 13 26 72 45 40 56
REMARK Flexibility Score: inf
ROOT
ATOM      1  C   UNL A   1      31.478  30.606  26.272  1.00  0.00     0.023 C 
ENDROOT
BRANCH   1   2
ATOM      2  C   UNL A   1      32.891  30.050  26.112  1.00  0.00     0.116 C 
BRANCH   2   3
ATOM      3  N   UNL A   1      33.274  29.892  24.726  1.00  0.00    -0.355 N 
ATOM      4  C   UNL A   1      33.542  28.752  24.030  1.00  0.00     0.239 C 
ATOM      5  O   UNL A   1      33.674  28.842  22.807  1.00  0.00    -0.273 OA
ATOM      6  H   UNL A   1      33.351  30.728  24.212  1.00  0.00     0.163 HD
BRANCH   4   7
ATOM      7  C   UNL A   1      33.591  27.380  24.722  1.00  0.00     0.219 C 
BRANCH   7   8
ATOM      8  N   UNL A   1      32.819  26.322  24.058  1.00  0.00    -0.329 N 
BRANCH   8   9
ATOM      9  C   UNL A   1      31.360  26.402  24.128  1.00  0.00     0.147 C 
BRANCH   9  10
ATOM     10  C   UNL A   1      30.893  26.399  25.551  1.00  0.00    -0.014 C 
ATOM     11  C   UNL A   1      29.860  25.659  25.978  1.00  0.00     0.006 C 
ENDBRANCH   9  10
ENDBRANCH   8   9
BRANCH   8  12
ATOM     12  C   UNL A   1      33.381  25.223  23.409  1.00  0.00     0.229 C 
ATOM     13  O   UNL A   1      34.079  25.391  22.405  1.00  0.00    -0.274 OA
BRANCH  12  14
ATOM     14  C   UNL A   1      33.043  23.804  23.877  1.00  0.00     0.113 C 
ATOM     15  C   UNL A   1      33.034  23.456  25.367  1.00  0.00     0.030 C 
ATOM     16  C   UNL A   1      33.952  22.721  23.284  1.00  0.00     0.128 C 
ATOM     17  C   UNL A   1      34.040  24.217  26.226  1.00  0.00     0.011 C 
ATOM     18  C   UNL A   1      33.192  21.922  25.352  1.00  0.00     0.119 C 
ATOM     19  O   UNL A   1      33.644  21.535  24.042  1.00  0.00    -0.374 OA
ATOM     20  C   UNL A   1      35.467  22.921  23.360  1.00  0.00     0.039 C 
ATOM     21  C   UNL A   1      34.124  21.310  26.386  1.00  0.00     0.039 C 
ENDBRANCH  12  14
ENDBRANCH   8  12
ENDBRANCH   7   8
ENDBRANCH   4   7
ENDBRANCH   2   3
ENDBRANCH   1   2
BRANCH   1  22
ATOM     22  C   UNL A   1      31.400  32.117  26.489  1.00  0.00     0.023 C 
BRANCH  22  23
ATOM     23  C   UNL A   1      32.569  32.731  27.249  1.00  0.00     0.116 C 
BRANCH  23  24
ATOM     24  N   UNL A   1      32.350  34.120  27.624  1.00  0.00    -0.352 N 
ATOM     25  C   UNL A   1      33.020  34.876  28.556  1.00  0.00     0.251 C 
ATOM     26  H   UNL A   1      31.623  34.580  27.145  1.00  0.00     0.163 HD
ATOM     27  O   UNL A   1      32.635  36.011  28.824  1.00  0.00    -0.269 OA
BRANCH  25  28
ATOM     28  C   UNL A   1      34.183  34.304  29.264  1.00  0.00     0.039 A 
ATOM     29  C   UNL A   1      33.961  33.539  30.411  1.00  0.00     0.014 A 
ATOM     30  C   UNL A   1      35.483  34.496  28.787  1.00  0.00     0.014 A 
ATOM     31  C   UNL A   1      35.036  32.907  31.040  1.00  0.00     0.010 A 
ATOM     32  C   UNL A   1      36.542  33.806  29.370  1.00  0.00     0.010 A 
ATOM     33  C   UNL A   1      36.330  33.002  30.501  1.00  0.00    -0.014 A 
BRANCH  33  34
ATOM     34  C   UNL A   1      37.468  32.259  31.100  1.00  0.00     0.031 A 
ATOM     35  C   UNL A   1      37.969  32.616  32.471  1.00  0.00     0.074 A 
ATOM     36  C   UNL A   1      38.092  31.306  30.380  1.00  0.00     0.049 A 
ATOM     37  N   UNL A   1      38.987  32.129  33.133  1.00  0.00    -0.248 NA
ATOM     38  C   UNL A   1      37.247  33.682  33.185  1.00  0.00     0.031 C 
ATOM     39  C   UNL A   1      37.735  30.904  29.017  1.00  0.00     0.029 A 
ATOM     40  N   UNL A   1      39.166  30.508  30.688  1.00  0.00    -0.354 N 
ATOM     41  C   UNL A   1      39.037  32.836  34.328  1.00  0.00     0.074 A 
ATOM     42  C   UNL A   1      37.977  33.820  34.281  1.00  0.00     0.031 C 
ATOM     43  C   UNL A   1      38.561  29.926  28.615  1.00  0.00     0.029 A 
ATOM     44  C   UNL A   1      39.530  29.657  29.673  1.00  0.00     0.049 A 
ATOM     45  H   UNL A   1      39.632  30.543  31.555  1.00  0.00     0.167 HD
ATOM     46  C   UNL A   1      39.875  32.663  35.377  1.00  0.00     0.037 A 
ATOM     47  C   UNL A   1      40.539  28.767  29.600  1.00  0.00     0.037 A 
ATOM     48  C   UNL A   1      40.908  31.661  35.433  1.00  0.00     0.049 A 
ATOM     49  C   UNL A   1      41.454  28.596  30.783  1.00  0.00     0.074 A 
ATOM     50  C   UNL A   1      41.761  31.361  36.480  1.00  0.00     0.029 A 
ATOM     51  N   UNL A   1      41.229  30.800  34.395  1.00  0.00    -0.354 N 
ATOM     52  N   UNL A   1      41.438  29.214  31.939  1.00  0.00    -0.248 NA
ATOM     53  C   UNL A   1      42.524  27.596  30.654  1.00  0.00     0.031 C 
ATOM     54  C   UNL A   1      42.633  30.353  36.059  1.00  0.00     0.029 A 
ATOM     55  C   UNL A   1      42.286  29.984  34.770  1.00  0.00     0.049 A 
ATOM     56  H   UNL A   1      40.775  30.770  33.523  1.00  0.00     0.167 HD
ATOM     57  C   UNL A   1      42.469  28.658  32.684  1.00  0.00     0.074 A 
ATOM     58  C   UNL A   1      43.080  27.640  31.856  1.00  0.00     0.031 C 
ATOM     59  C   UNL A   1      42.876  28.966  33.940  1.00  0.00     0.037 A 
BRANCH  46  60
ATOM     60  C   UNL A   1      39.711  33.570  36.562  1.00  0.00     0.064 A 
ATOM     61  C   UNL A   1      40.338  34.823  36.621  1.00  0.00     0.173 A 
ATOM     62  C   UNL A   1      38.865  33.208  37.622  1.00  0.00     0.173 A 
ATOM     63  F   UNL A   1      41.165  35.212  35.640  1.00  0.00    -0.203 F 
ATOM     64  C   UNL A   1      40.138  35.673  37.706  1.00  0.00     0.198 A 
ATOM     65  C   UNL A   1      38.644  34.073  38.690  1.00  0.00     0.198 A 
ATOM     66  F   UNL A   1      38.237  32.022  37.613  1.00  0.00    -0.203 F 
ATOM     67  F   UNL A   1      40.778  36.849  37.760  1.00  0.00    -0.200 F 
ATOM     68  C   UNL A   1      39.284  35.302  38.734  1.00  0.00     0.200 A 
ATOM     69  F   UNL A   1      37.807  33.719  39.676  1.00  0.00    -0.200 F 
ATOM     70  F   UNL A   1      39.081  36.128  39.769  1.00  0.00    -0.200 F 
ENDBRANCH  46  60
BRANCH  47  71
ATOM     71  C   UNL A   1      40.738  27.959  28.366  1.00  0.00     0.064 A 
ATOM     72  C   UNL A   1      40.160  26.687  28.236  1.00  0.00     0.173 A 
ATOM     73  C   UNL A   1      41.531  28.424  27.308  1.00  0.00     0.173 A 
ATOM     74  F   UNL A   1      39.411  26.187  29.230  1.00  0.00    -0.203 F 
ATOM     75  C   UNL A   1      40.396  25.901  27.110  1.00  0.00     0.198 A 
ATOM     76  C   UNL A   1      41.738  27.651  26.168  1.00  0.00     0.198 A 
ATOM     77  F   UNL A   1      42.101  29.637  27.379  1.00  0.00    -0.203 F 
ATOM     78  F   UNL A   1      39.882  24.666  27.040  1.00  0.00    -0.200 F 
ATOM     79  C   UNL A   1      41.181  26.385  26.075  1.00  0.00     0.200 A 
ATOM     80  F   UNL A   1      42.485  28.129  25.163  1.00  0.00    -0.200 F 
ATOM     81  F   UNL A   1      41.410  25.627  24.995  1.00  0.00    -0.200 F 
ENDBRANCH  47  71
BRANCH  59  82
ATOM     82  C   UNL A   1      44.008  28.163  34.514  1.00  0.00     0.064 A 
ATOM     83  C   UNL A   1      43.785  26.975  35.225  1.00  0.00     0.173 A 
ATOM     84  C   UNL A   1      45.337  28.570  34.315  1.00  0.00     0.173 A 
ATOM     85  F   UNL A   1      42.533  26.550  35.454  1.00  0.00    -0.203 F 
ATOM     86  C   UNL A   1      44.849  26.240  35.741  1.00  0.00     0.198 A 
ATOM     87  C   UNL A   1      46.399  27.815  34.804  1.00  0.00     0.198 A 
ATOM     88  F   UNL A   1      45.605  29.694  33.635  1.00  0.00    -0.203 F 
ATOM     89  F   UNL A   1      44.610  25.135  36.462  1.00  0.00    -0.200 F 
ATOM     90  C   UNL A   1      46.154  26.655  35.524  1.00  0.00     0.200 A 
ATOM     91  F   UNL A   1      47.659  28.210  34.579  1.00  0.00    -0.200 F 
ATOM     92  F   UNL A   1      47.176  25.941  36.015  1.00  0.00    -0.200 F 
ENDBRANCH  59  82
ENDBRANCH  33  34
ENDBRANCH  25  28
ENDBRANCH  23  24
ENDBRANCH  22  23
ENDBRANCH   1  22
TORSDOF 16
ENDMDL
