MODEL 1
REMARK VINA RESULT:     -12.9      0.000      0.000
REMARK SMILES CC[C@@H](C)[C@@H](C(=O)NCCCCNC(=O)c1ccc(-c2c3nc(c(-c4c(F)c(F)c(F)c(F)c4F)c4ccc([nH]4)c(-c4c(F)c(F)c(F)c(F)c4F)c4nc(c(-c5c(F)c(F)c(F)c(F)c5F)c5ccc2[nH]5)C=C4)C=C3)cc1)N1C(=O)/C(=C/c2ccc(O)cc2)SC1=S
REMARK SMILES IDX 10 1 9 2 8 3 6 4 7 5 5 7 3 8 4 9 2 10 1 11 79 12 80 13 92 14
REMARK SMILES IDX 81 15 82 16 91 17 93 18 83 19 84 20 85 21 90 22 86 23 89 24
REMARK SMILES IDX 87 25 88 26 11 28 12 29 13 30 14 31 15 33 16 34 17 35 78 36
REMARK SMILES IDX 18 37 77 38 19 39 20 40 21 41 71 42 22 43 76 44 70 45 72 46
REMARK SMILES IDX 23 47 75 48 69 49 68 50 24 52 56 53 36 54 55 55 37 56 40 57
REMARK SMILES IDX 54 58 73 59 38 60 39 61 53 63 74 64 41 65 25 66 26 67 34 68
REMARK SMILES IDX 27 69 28 70 32 71 35 72 29 73 30 74 33 75 31 76 57 77 58 78
REMARK SMILES IDX 66 79 59 80 60 81 64 82 67 83 61 84 62 85 65 86 63 87 42 88
REMARK SMILES IDX 43 89 51 90 44 91 45 92 49 93 52 94 46 95 47 96 50 97 48 98
REMARK H PARENT 8 6 88 27 13 32 72 51 40 62
REMARK Flexibility Score: inf
ROOT
ATOM      1  C   UNL A   1      33.080  29.065  24.616  1.00  0.00     0.023 C 
ENDROOT
BRANCH   1   2
ATOM      2  C   UNL A   1      33.922  27.782  24.593  1.00  0.00     0.116 C 
BRANCH   2   3
ATOM      3  N   UNL A   1      33.328  26.762  25.439  1.00  0.00    -0.354 N 
ATOM      4  C   UNL A   1      32.969  25.470  25.176  1.00  0.00     0.243 C 
ATOM      5  O   UNL A   1      32.416  24.858  26.095  1.00  0.00    -0.273 OA
ATOM      6  H   UNL A   1      33.154  27.051  26.364  1.00  0.00     0.163 HD
BRANCH   4   7
ATOM      7  C   UNL A   1      33.297  24.791  23.814  1.00  0.00     0.184 C 
BRANCH   7   8
ATOM      8  C   UNL A   1      32.219  24.950  22.686  1.00  0.00     0.018 C 
ATOM      9  C   UNL A   1      32.861  25.515  21.410  1.00  0.00     0.010 C 
BRANCH   8  10
ATOM     10  C   UNL A   1      31.023  25.812  23.100  1.00  0.00     0.002 C 
ATOM     11  C   UNL A   1      30.899  27.151  22.388  1.00  0.00     0.004 C 
ENDBRANCH   8  10
ENDBRANCH   7   8
BRANCH   7  12
ATOM     12  N   UNL A   1      33.594  23.366  24.155  1.00  0.00    -0.280 N 
ATOM     13  C   UNL A   1      32.594  22.408  24.095  1.00  0.00     0.266 C 
ATOM     14  C   UNL A   1      34.792  22.930  24.691  1.00  0.00     0.149 C 
ATOM     15  O   UNL A   1      31.413  22.575  23.826  1.00  0.00    -0.268 OA
ATOM     16  C   UNL A   1      33.142  21.063  24.385  1.00  0.00     0.081 C 
ATOM     17  S   UNL A   1      34.737  21.189  24.981  1.00  0.00    -0.054 SA
ATOM     18  S   UNL A   1      36.156  23.832  25.036  1.00  0.00    -0.052 S 
ATOM     19  C   UNL A   1      32.406  19.977  24.119  1.00  0.00     0.029 C 
BRANCH  19  20
ATOM     20  C   UNL A   1      32.762  18.582  24.361  1.00  0.00    -0.024 A 
ATOM     21  C   UNL A   1      32.490  17.993  25.601  1.00  0.00     0.012 A 
ATOM     22  C   UNL A   1      33.476  17.869  23.393  1.00  0.00     0.012 A 
ATOM     23  C   UNL A   1      32.938  16.699  25.870  1.00  0.00     0.047 A 
ATOM     24  C   UNL A   1      33.928  16.577  23.664  1.00  0.00     0.047 A 
ATOM     25  C   UNL A   1      33.660  16.006  24.904  1.00  0.00     0.115 A 
BRANCH  25  26
ATOM     26  O   UNL A   1      34.107  14.757  25.220  1.00  0.00    -0.508 OA
ATOM     27  H   UNL A   1      34.383  14.173  24.542  1.00  0.00     0.293 HD
ENDBRANCH  25  26
ENDBRANCH  19  20
ENDBRANCH   7  12
ENDBRANCH   4   7
ENDBRANCH   2   3
ENDBRANCH   1   2
BRANCH   1  28
ATOM     28  C   UNL A   1      31.957  29.075  25.641  1.00  0.00     0.023 C 
BRANCH  28  29
ATOM     29  C   UNL A   1      32.339  29.699  26.970  1.00  0.00     0.116 C 
BRANCH  29  30
ATOM     30  N   UNL A   1      32.316  31.158  26.948  1.00  0.00    -0.352 N 
ATOM     31  C   UNL A   1      33.278  32.049  27.360  1.00  0.00     0.251 C 
ATOM     32  H   UNL A   1      31.494  31.561  26.585  1.00  0.00     0.163 HD
ATOM     33  O   UNL A   1      33.050  33.254  27.380  1.00  0.00    -0.269 OA
BRANCH  31  34
ATOM     34  C   UNL A   1      34.579  31.530  27.822  1.00  0.00     0.039 A 
ATOM     35  C   UNL A   1      35.590  32.431  28.164  1.00  0.00     0.014 A 
ATOM     36  C   UNL A   1      34.760  30.158  28.002  1.00  0.00     0.014 A 
ATOM     37  C   UNL A   1      36.748  31.957  28.782  1.00  0.00     0.010 A 
ATOM     38  C   UNL A   1      35.860  29.703  28.713  1.00  0.00     0.010 A 
ATOM     39  C   UNL A   1      36.865  30.597  29.112  1.00  0.00    -0.014 A 
BRANCH  39  40
ATOM     40  C   UNL A   1      38.028  30.070  29.866  1.00  0.00     0.031 A 
ATOM     41  C   UNL A   1      38.258  30.525  31.280  1.00  0.00     0.074 A 
ATOM     42  C   UNL A   1      38.925  29.275  29.252  1.00  0.00     0.049 A 
ATOM     43  N   UNL A   1      39.282  30.307  32.065  1.00  0.00    -0.248 NA
ATOM     44  C   UNL A   1      37.218  31.380  31.874  1.00  0.00     0.031 C 
ATOM     45  C   UNL A   1      38.845  28.817  27.864  1.00  0.00     0.029 A 
ATOM     46  N   UNL A   1      40.095  28.725  29.715  1.00  0.00    -0.354 N 
ATOM     47  C   UNL A   1      39.023  31.024  33.226  1.00  0.00     0.074 A 
ATOM     48  C   UNL A   1      37.776  31.728  33.024  1.00  0.00     0.031 C 
ATOM     49  C   UNL A   1      39.906  28.038  27.594  1.00  0.00     0.029 A 
ATOM     50  C   UNL A   1      40.760  27.974  28.776  1.00  0.00     0.049 A 
ATOM     51  H   UNL A   1      40.426  28.856  30.632  1.00  0.00     0.167 HD
ATOM     52  C   UNL A   1      39.747  31.069  34.368  1.00  0.00     0.037 A 
ATOM     53  C   UNL A   1      41.931  27.315  28.861  1.00  0.00     0.037 A 
ATOM     54  C   UNL A   1      40.955  30.320  34.584  1.00  0.00     0.049 A 
ATOM     55  C   UNL A   1      42.700  27.352  30.154  1.00  0.00     0.074 A 
ATOM     56  C   UNL A   1      41.715  30.222  35.735  1.00  0.00     0.029 A 
ATOM     57  N   UNL A   1      41.572  29.531  33.624  1.00  0.00    -0.354 N 
ATOM     58  N   UNL A   1      42.409  27.976  31.270  1.00  0.00    -0.248 NA
ATOM     59  C   UNL A   1      43.956  26.591  30.201  1.00  0.00     0.031 C 
ATOM     60  C   UNL A   1      42.813  29.400  35.462  1.00  0.00     0.029 A 
ATOM     61  C   UNL A   1      42.715  28.956  34.154  1.00  0.00     0.049 A 
ATOM     62  H   UNL A   1      41.248  29.400  32.705  1.00  0.00     0.167 HD
ATOM     63  C   UNL A   1      43.431  27.665  32.157  1.00  0.00     0.074 A 
ATOM     64  C   UNL A   1      44.342  26.787  31.454  1.00  0.00     0.031 C 
ATOM     65  C   UNL A   1      43.601  28.075  33.437  1.00  0.00     0.037 A 
BRANCH  52  66
ATOM     66  C   UNL A   1      39.240  31.943  35.476  1.00  0.00     0.064 A 
ATOM     67  C   UNL A   1      38.426  31.435  36.499  1.00  0.00     0.173 A 
ATOM     68  C   UNL A   1      39.589  33.300  35.528  1.00  0.00     0.173 A 
ATOM     69  F   UNL A   1      38.049  30.147  36.486  1.00  0.00    -0.203 F 
ATOM     70  C   UNL A   1      37.955  32.260  37.517  1.00  0.00     0.198 A 
ATOM     71  C   UNL A   1      39.142  34.116  36.564  1.00  0.00     0.198 A 
ATOM     72  F   UNL A   1      40.368  33.836  34.575  1.00  0.00    -0.203 F 
ATOM     73  F   UNL A   1      37.135  31.763  38.453  1.00  0.00    -0.200 F 
ATOM     74  C   UNL A   1      38.319  33.597  37.553  1.00  0.00     0.200 A 
ATOM     75  F   UNL A   1      39.502  35.406  36.603  1.00  0.00    -0.200 F 
ATOM     76  F   UNL A   1      37.868  34.390  38.535  1.00  0.00    -0.200 F 
ENDBRANCH  52  66
BRANCH  53  77
ATOM     77  C   UNL A   1      42.436  26.542  27.697  1.00  0.00     0.064 A 
ATOM     78  C   UNL A   1      41.981  25.238  27.452  1.00  0.00     0.173 A 
ATOM     79  C   UNL A   1      43.378  27.082  26.809  1.00  0.00     0.173 A 
ATOM     80  F   UNL A   1      41.096  24.672  28.285  1.00  0.00    -0.203 F 
ATOM     81  C   UNL A   1      42.463  24.498  26.376  1.00  0.00     0.198 A 
ATOM     82  C   UNL A   1      43.841  26.349  25.718  1.00  0.00     0.198 A 
ATOM     83  F   UNL A   1      43.840  28.327  26.997  1.00  0.00    -0.203 F 
ATOM     84  F   UNL A   1      42.043  23.239  26.189  1.00  0.00    -0.200 F 
ATOM     85  C   UNL A   1      43.389  25.055  25.506  1.00  0.00     0.200 A 
ATOM     86  F   UNL A   1      44.727  26.895  24.874  1.00  0.00    -0.200 F 
ATOM     87  F   UNL A   1      43.851  24.344  24.469  1.00  0.00    -0.200 F 
ENDBRANCH  53  77
BRANCH  65  88
ATOM     88  C   UNL A   1      44.801  27.555  34.171  1.00  0.00     0.064 A 
ATOM     89  C   UNL A   1      46.009  28.264  34.191  1.00  0.00     0.173 A 
ATOM     90  C   UNL A   1      44.720  26.364  34.909  1.00  0.00     0.173 A 
ATOM     91  F   UNL A   1      46.137  29.399  33.488  1.00  0.00    -0.203 F 
ATOM     92  C   UNL A   1      47.102  27.792  34.912  1.00  0.00     0.198 A 
ATOM     93  C   UNL A   1      45.805  25.909  35.649  1.00  0.00     0.198 A 
ATOM     94  F   UNL A   1      43.582  25.655  34.924  1.00  0.00    -0.203 F 
ATOM     95  F   UNL A   1      48.259  28.467  34.890  1.00  0.00    -0.200 F 
ATOM     96  C   UNL A   1      46.996  26.620  35.647  1.00  0.00     0.200 A 
ATOM     97  F   UNL A   1      45.699  24.783  36.368  1.00  0.00    -0.200 F 
ATOM     98  F   UNL A   1      48.046  26.173  36.350  1.00  0.00    -0.200 F 
ENDBRANCH  65  88
ENDBRANCH  39  40
ENDBRANCH  31  34
ENDBRANCH  29  30
ENDBRANCH  28  29
ENDBRANCH   1  28
TORSDOF 16
ENDMDL
MODEL 2
REMARK VINA RESULT:     -12.7      0.462      1.957
REMARK SMILES CC[C@@H](C)[C@@H](C(=O)NCCCCNC(=O)c1ccc(-c2c3nc(c(-c4c(F)c(F)c(F)c(F)c4F)c4ccc([nH]4)c(-c4c(F)c(F)c(F)c(F)c4F)c4nc(c(-c5c(F)c(F)c(F)c(F)c5F)c5ccc2[nH]5)C=C4)C=C3)cc1)N1C(=O)/C(=C/c2ccc(O)cc2)SC1=S
REMARK SMILES IDX 10 1 9 2 8 3 6 4 7 5 5 7 3 8 4 9 2 10 1 11 79 12 80 13 92 14
REMARK SMILES IDX 81 15 82 16 91 17 93 18 83 19 84 20 85 21 90 22 86 23 89 24
REMARK SMILES IDX 87 25 88 26 11 28 12 29 13 30 14 31 15 33 16 34 17 35 78 36
REMARK SMILES IDX 18 37 77 38 19 39 20 40 21 41 71 42 22 43 76 44 70 45 72 46
REMARK SMILES IDX 23 47 75 48 69 49 68 50 24 52 56 53 36 54 55 55 37 56 40 57
REMARK SMILES IDX 54 58 73 59 38 60 39 61 53 63 74 64 41 65 25 66 26 67 34 68
REMARK SMILES IDX 27 69 28 70 32 71 35 72 29 73 30 74 33 75 31 76 57 77 58 78
REMARK SMILES IDX 66 79 59 80 60 81 64 82 67 83 61 84 62 85 65 86 63 87 42 88
REMARK SMILES IDX 43 89 51 90 44 91 45 92 49 93 52 94 46 95 47 96 50 97 48 98
REMARK H PARENT 8 6 88 27 13 32 72 51 40 62
REMARK Flexibility Score: inf
ROOT
ATOM      1  C   UNL A   1      33.894  28.950  25.769  1.00  0.00     0.023 C 
ENDROOT
BRANCH   1   2
ATOM      2  C   UNL A   1      33.669  27.729  24.867  1.00  0.00     0.116 C 
BRANCH   2   3
ATOM      3  N   UNL A   1      32.947  26.690  25.579  1.00  0.00    -0.354 N 
ATOM      4  C   UNL A   1      32.602  25.419  25.213  1.00  0.00     0.243 C 
ATOM      5  O   UNL A   1      31.918  24.784  26.021  1.00  0.00    -0.273 OA
ATOM      6  H   UNL A   1      32.655  26.944  26.485  1.00  0.00     0.163 HD
BRANCH   4   7
ATOM      7  C   UNL A   1      33.098  24.790  23.879  1.00  0.00     0.184 C 
BRANCH   7   8
ATOM      8  C   UNL A   1      32.135  24.929  22.649  1.00  0.00     0.018 C 
ATOM      9  C   UNL A   1      32.904  25.445  21.424  1.00  0.00     0.010 C 
BRANCH   8  10
ATOM     10  C   UNL A   1      30.920  25.822  22.922  1.00  0.00     0.002 C 
ATOM     11  C   UNL A   1      31.009  27.240  22.376  1.00  0.00     0.004 C 
ENDBRANCH   8  10
ENDBRANCH   7   8
BRANCH   7  12
ATOM     12  N   UNL A   1      33.423  23.371  24.220  1.00  0.00    -0.280 N 
ATOM     13  C   UNL A   1      32.481  22.371  24.035  1.00  0.00     0.266 C 
ATOM     14  C   UNL A   1      34.578  22.974  24.868  1.00  0.00     0.149 C 
ATOM     15  O   UNL A   1      31.327  22.493  23.647  1.00  0.00    -0.268 OA
ATOM     16  C   UNL A   1      33.057  21.045  24.353  1.00  0.00     0.081 C 
ATOM     17  S   UNL A   1      34.574  21.226  25.115  1.00  0.00    -0.054 SA
ATOM     18  S   UNL A   1      35.855  23.926  25.373  1.00  0.00    -0.052 S 
ATOM     19  C   UNL A   1      32.404  19.935  23.989  1.00  0.00     0.029 C 
BRANCH  19  20
ATOM     20  C   UNL A   1      32.797  18.552  24.238  1.00  0.00    -0.024 A 
ATOM     21  C   UNL A   1      32.528  17.956  25.475  1.00  0.00     0.012 A 
ATOM     22  C   UNL A   1      33.543  17.857  23.280  1.00  0.00     0.012 A 
ATOM     23  C   UNL A   1      33.009  16.676  25.752  1.00  0.00     0.047 A 
ATOM     24  C   UNL A   1      34.029  16.579  23.559  1.00  0.00     0.047 A 
ATOM     25  C   UNL A   1      33.763  16.003  24.797  1.00  0.00     0.115 A 
BRANCH  25  26
ATOM     26  O   UNL A   1      34.241  14.768  25.121  1.00  0.00    -0.508 OA
ATOM     27  H   UNL A   1      33.660  14.112  25.451  1.00  0.00     0.293 HD
ENDBRANCH  25  26
ENDBRANCH  19  20
ENDBRANCH   7  12
ENDBRANCH   4   7
ENDBRANCH   2   3
ENDBRANCH   1   2
BRANCH   1  28
ATOM     28  C   UNL A   1      32.786  29.990  25.726  1.00  0.00     0.023 C 
BRANCH  28  29
ATOM     29  C   UNL A   1      32.432  30.572  27.081  1.00  0.00     0.116 C 
BRANCH  29  30
ATOM     30  N   UNL A   1      32.590  32.021  27.144  1.00  0.00    -0.352 N 
ATOM     31  C   UNL A   1      33.645  32.761  27.626  1.00  0.00     0.251 C 
ATOM     32  H   UNL A   1      31.834  32.543  26.790  1.00  0.00     0.163 HD
ATOM     33  O   UNL A   1      33.566  33.982  27.712  1.00  0.00    -0.269 OA
BRANCH  31  34
ATOM     34  C   UNL A   1      34.859  32.058  28.081  1.00  0.00     0.039 A 
ATOM     35  C   UNL A   1      36.067  32.757  28.145  1.00  0.00     0.014 A 
ATOM     36  C   UNL A   1      34.776  30.739  28.529  1.00  0.00     0.014 A 
ATOM     37  C   UNL A   1      37.170  32.159  28.755  1.00  0.00     0.010 A 
ATOM     38  C   UNL A   1      35.840  30.190  29.229  1.00  0.00     0.010 A 
ATOM     39  C   UNL A   1      37.047  30.894  29.350  1.00  0.00    -0.014 A 
BRANCH  39  40
ATOM     40  C   UNL A   1      38.162  30.269  30.104  1.00  0.00     0.031 A 
ATOM     41  C   UNL A   1      38.410  30.677  31.529  1.00  0.00     0.074 A 
ATOM     42  C   UNL A   1      39.007  29.425  29.480  1.00  0.00     0.049 A 
ATOM     43  N   UNL A   1      39.408  30.370  32.317  1.00  0.00    -0.248 NA
ATOM     44  C   UNL A   1      37.427  31.592  32.133  1.00  0.00     0.031 C 
ATOM     45  C   UNL A   1      38.908  29.004  28.081  1.00  0.00     0.029 A 
ATOM     46  N   UNL A   1      40.129  28.783  29.940  1.00  0.00    -0.354 N 
ATOM     47  C   UNL A   1      39.189  31.079  33.491  1.00  0.00     0.074 A 
ATOM     48  C   UNL A   1      37.998  31.874  33.294  1.00  0.00     0.031 C 
ATOM     49  C   UNL A   1      39.913  28.156  27.804  1.00  0.00     0.029 A 
ATOM     50  C   UNL A   1      40.748  28.007  28.992  1.00  0.00     0.049 A 
ATOM     51  H   UNL A   1      40.460  28.871  30.863  1.00  0.00     0.167 HD
ATOM     52  C   UNL A   1      39.903  31.048  34.640  1.00  0.00     0.037 A 
ATOM     53  C   UNL A   1      41.869  27.264  29.072  1.00  0.00     0.037 A 
ATOM     54  C   UNL A   1      41.052  30.210  34.850  1.00  0.00     0.049 A 
ATOM     55  C   UNL A   1      42.625  27.219  30.372  1.00  0.00     0.074 A 
ATOM     56  C   UNL A   1      41.792  30.035  36.005  1.00  0.00     0.029 A 
ATOM     57  N   UNL A   1      41.621  29.400  33.879  1.00  0.00    -0.354 N 
ATOM     58  N   UNL A   1      42.369  27.838  31.499  1.00  0.00    -0.248 NA
ATOM     59  C   UNL A   1      43.824  26.370  30.413  1.00  0.00     0.031 C 
ATOM     60  C   UNL A   1      42.831  29.142  35.724  1.00  0.00     0.029 A 
ATOM     61  C   UNL A   1      42.715  28.733  34.405  1.00  0.00     0.049 A 
ATOM     62  H   UNL A   1      41.298  29.312  32.954  1.00  0.00     0.167 HD
ATOM     63  C   UNL A   1      43.357  27.437  32.387  1.00  0.00     0.074 A 
ATOM     64  C   UNL A   1      44.210  26.511  31.673  1.00  0.00     0.031 C 
ATOM     65  C   UNL A   1      43.543  27.807  33.677  1.00  0.00     0.037 A 
BRANCH  52  66
ATOM     66  C   UNL A   1      39.448  31.933  35.762  1.00  0.00     0.064 A 
ATOM     67  C   UNL A   1      39.985  33.215  35.950  1.00  0.00     0.173 A 
ATOM     68  C   UNL A   1      38.448  31.504  36.646  1.00  0.00     0.173 A 
ATOM     69  F   UNL A   1      40.957  33.666  35.142  1.00  0.00    -0.203 F 
ATOM     70  C   UNL A   1      39.560  34.023  37.002  1.00  0.00     0.198 A 
ATOM     71  C   UNL A   1      38.003  32.326  37.678  1.00  0.00     0.198 A 
ATOM     72  F   UNL A   1      37.899  30.287  36.508  1.00  0.00    -0.203 F 
ATOM     73  F   UNL A   1      40.126  35.222  37.193  1.00  0.00    -0.200 F 
ATOM     74  C   UNL A   1      38.565  33.581  37.860  1.00  0.00     0.200 A 
ATOM     75  F   UNL A   1      37.034  31.902  38.501  1.00  0.00    -0.200 F 
ATOM     76  F   UNL A   1      38.153  34.361  38.869  1.00  0.00    -0.200 F 
ENDBRANCH  52  66
BRANCH  53  77
ATOM     77  C   UNL A   1      42.329  26.481  27.896  1.00  0.00     0.064 A 
ATOM     78  C   UNL A   1      43.253  27.025  26.991  1.00  0.00     0.173 A 
ATOM     79  C   UNL A   1      41.858  25.184  27.648  1.00  0.00     0.173 A 
ATOM     80  F   UNL A   1      43.715  28.269  27.175  1.00  0.00    -0.203 F 
ATOM     81  C   UNL A   1      43.673  26.307  25.874  1.00  0.00     0.198 A 
ATOM     82  C   UNL A   1      42.299  24.457  26.544  1.00  0.00     0.198 A 
ATOM     83  F   UNL A   1      40.977  24.617  28.486  1.00  0.00    -0.203 F 
ATOM     84  F   UNL A   1      44.525  26.865  25.003  1.00  0.00    -0.200 F 
ATOM     85  C   UNL A   1      43.201  25.022  25.654  1.00  0.00     0.200 A 
ATOM     86  F   UNL A   1      41.849  23.211  26.340  1.00  0.00    -0.200 F 
ATOM     87  F   UNL A   1      43.608  24.330  24.580  1.00  0.00    -0.200 F 
ENDBRANCH  53  77
BRANCH  65  88
ATOM     88  C   UNL A   1      44.695  27.188  34.409  1.00  0.00     0.064 A 
ATOM     89  C   UNL A   1      44.574  25.945  35.046  1.00  0.00     0.173 A 
ATOM     90  C   UNL A   1      45.949  27.819  34.423  1.00  0.00     0.173 A 
ATOM     91  F   UNL A   1      43.392  25.313  35.072  1.00  0.00    -0.203 F 
ATOM     92  C   UNL A   1      45.665  25.362  35.685  1.00  0.00     0.198 A 
ATOM     93  C   UNL A   1      47.042  27.221  35.040  1.00  0.00     0.198 A 
ATOM     94  F   UNL A   1      46.114  29.006  33.822  1.00  0.00    -0.203 F 
ATOM     95  F   UNL A   1      45.519  24.190  36.318  1.00  0.00    -0.200 F 
ATOM     96  C   UNL A   1      46.899  25.996  35.675  1.00  0.00     0.200 A 
ATOM     97  F   UNL A   1      48.237  27.828  35.019  1.00  0.00    -0.200 F 
ATOM     98  F   UNL A   1      47.949  25.427  36.280  1.00  0.00    -0.200 F 
ENDBRANCH  65  88
ENDBRANCH  39  40
ENDBRANCH  31  34
ENDBRANCH  29  30
ENDBRANCH  28  29
ENDBRANCH   1  28
TORSDOF 16
ENDMDL
MODEL 3
REMARK VINA RESULT:     -12.6      0.634      7.342
REMARK SMILES CC[C@@H](C)[C@@H](C(=O)NCCCCNC(=O)c1ccc(-c2c3nc(c(-c4c(F)c(F)c(F)c(F)c4F)c4ccc([nH]4)c(-c4c(F)c(F)c(F)c(F)c4F)c4nc(c(-c5c(F)c(F)c(F)c(F)c5F)c5ccc2[nH]5)C=C4)C=C3)cc1)N1C(=O)/C(=C/c2ccc(O)cc2)SC1=S
REMARK SMILES IDX 10 1 9 2 8 3 6 4 7 5 5 7 3 8 4 9 2 10 1 11 79 12 80 13 92 14
REMARK SMILES IDX 81 15 82 16 91 17 93 18 83 19 84 20 85 21 90 22 86 23 89 24
REMARK SMILES IDX 87 25 88 26 11 28 12 29 13 30 14 31 15 33 16 34 17 35 78 36
REMARK SMILES IDX 18 37 77 38 19 39 20 40 21 41 71 42 22 43 76 44 70 45 72 46
REMARK SMILES IDX 23 47 75 48 69 49 68 50 24 52 56 53 36 54 55 55 37 56 40 57
REMARK SMILES IDX 54 58 73 59 38 60 39 61 53 63 74 64 41 65 25 66 26 67 34 68
REMARK SMILES IDX 27 69 28 70 32 71 35 72 29 73 30 74 33 75 31 76 57 77 58 78
REMARK SMILES IDX 66 79 59 80 60 81 64 82 67 83 61 84 62 85 65 86 63 87 42 88
REMARK SMILES IDX 43 89 51 90 44 91 45 92 49 93 52 94 46 95 47 96 50 97 48 98
REMARK H PARENT 8 6 88 27 13 32 72 51 40 62
REMARK Flexibility Score: inf
ROOT
ATOM      1  C   UNL A   1      34.024  28.909  25.749  1.00  0.00     0.023 C 
ENDROOT
BRANCH   1   2
ATOM      2  C   UNL A   1      33.830  27.647  24.897  1.00  0.00     0.116 C 
BRANCH   2   3
ATOM      3  N   UNL A   1      33.111  26.629  25.642  1.00  0.00    -0.354 N 
ATOM      4  C   UNL A   1      32.730  25.362  25.300  1.00  0.00     0.243 C 
ATOM      5  O   UNL A   1      32.059  24.749  26.135  1.00  0.00    -0.273 OA
ATOM      6  H   UNL A   1      32.851  26.898  26.553  1.00  0.00     0.163 HD
BRANCH   4   7
ATOM      7  C   UNL A   1      33.173  24.709  23.957  1.00  0.00     0.184 C 
BRANCH   7   8
ATOM      8  C   UNL A   1      32.165  24.836  22.763  1.00  0.00     0.018 C 
ATOM      9  C   UNL A   1      32.904  25.251  21.482  1.00  0.00     0.010 C 
BRANCH   8  10
ATOM     10  C   UNL A   1      31.007  25.801  23.038  1.00  0.00     0.002 C 
ATOM     11  C   UNL A   1      31.117  27.166  22.376  1.00  0.00     0.004 C 
ENDBRANCH   8  10
ENDBRANCH   7   8
BRANCH   7  12
ATOM     12  N   UNL A   1      33.503  23.295  24.308  1.00  0.00    -0.280 N 
ATOM     13  C   UNL A   1      32.549  22.298  24.176  1.00  0.00     0.266 C 
ATOM     14  C   UNL A   1      34.681  22.901  24.916  1.00  0.00     0.149 C 
ATOM     15  O   UNL A   1      31.381  22.420  23.833  1.00  0.00    -0.268 OA
ATOM     16  C   UNL A   1      33.130  20.973  24.493  1.00  0.00     0.081 C 
ATOM     17  S   UNL A   1      34.677  21.156  25.191  1.00  0.00    -0.054 SA
ATOM     18  S   UNL A   1      35.983  23.853  25.355  1.00  0.00    -0.052 S 
ATOM     19  C   UNL A   1      32.457  19.861  24.172  1.00  0.00     0.029 C 
BRANCH  19  20
ATOM     20  C   UNL A   1      32.853  18.480  24.428  1.00  0.00    -0.024 A 
ATOM     21  C   UNL A   1      32.528  17.869  25.644  1.00  0.00     0.012 A 
ATOM     22  C   UNL A   1      33.653  17.803  23.501  1.00  0.00     0.012 A 
ATOM     23  C   UNL A   1      33.009  16.592  25.933  1.00  0.00     0.047 A 
ATOM     24  C   UNL A   1      34.138  16.527  23.792  1.00  0.00     0.047 A 
ATOM     25  C   UNL A   1      33.817  15.936  25.010  1.00  0.00     0.115 A 
BRANCH  25  26
ATOM     26  O   UNL A   1      34.292  14.703  25.346  1.00  0.00    -0.508 OA
ATOM     27  H   UNL A   1      35.196  14.593  25.564  1.00  0.00     0.293 HD
ENDBRANCH  25  26
ENDBRANCH  19  20
ENDBRANCH   7  12
ENDBRANCH   4   7
ENDBRANCH   2   3
ENDBRANCH   1   2
BRANCH   1  28
ATOM     28  C   UNL A   1      32.850  29.874  25.737  1.00  0.00     0.023 C 
BRANCH  28  29
ATOM     29  C   UNL A   1      32.516  30.457  27.097  1.00  0.00     0.116 C 
BRANCH  29  30
ATOM     30  N   UNL A   1      32.526  31.916  27.115  1.00  0.00    -0.352 N 
ATOM     31  C   UNL A   1      33.489  32.774  27.594  1.00  0.00     0.251 C 
ATOM     32  H   UNL A   1      31.730  32.348  26.729  1.00  0.00     0.163 HD
ATOM     33  O   UNL A   1      33.287  33.982  27.639  1.00  0.00    -0.269 OA
BRANCH  31  34
ATOM     34  C   UNL A   1      34.757  32.211  28.097  1.00  0.00     0.039 A 
ATOM     35  C   UNL A   1      35.904  33.009  28.096  1.00  0.00     0.014 A 
ATOM     36  C   UNL A   1      34.783  30.930  28.649  1.00  0.00     0.014 A 
ATOM     37  C   UNL A   1      37.052  32.554  28.745  1.00  0.00     0.010 A 
ATOM     38  C   UNL A   1      35.887  30.527  29.384  1.00  0.00     0.010 A 
ATOM     39  C   UNL A   1      37.033  31.335  29.441  1.00  0.00    -0.014 A 
BRANCH  39  40
ATOM     40  C   UNL A   1      38.196  30.866  30.235  1.00  0.00     0.031 A 
ATOM     41  C   UNL A   1      39.158  29.886  29.626  1.00  0.00     0.074 A 
ATOM     42  C   UNL A   1      38.324  31.236  31.524  1.00  0.00     0.049 A 
ATOM     43  N   UNL A   1      40.149  29.239  30.186  1.00  0.00    -0.248 NA
ATOM     44  C   UNL A   1      38.949  29.551  28.208  1.00  0.00     0.031 C 
ATOM     45  C   UNL A   1      37.418  32.131  32.245  1.00  0.00     0.029 A 
ATOM     46  N   UNL A   1      39.262  30.887  32.463  1.00  0.00    -0.354 N 
ATOM     47  C   UNL A   1      40.654  28.402  29.200  1.00  0.00     0.074 A 
ATOM     48  C   UNL A   1      39.829  28.578  28.026  1.00  0.00     0.031 C 
ATOM     49  C   UNL A   1      37.856  32.279  33.507  1.00  0.00     0.029 A 
ATOM     50  C   UNL A   1      39.049  31.460  33.694  1.00  0.00     0.049 A 
ATOM     51  H   UNL A   1      40.015  30.283  32.274  1.00  0.00     0.167 HD
ATOM     52  C   UNL A   1      41.726  27.580  29.261  1.00  0.00     0.037 A 
ATOM     53  C   UNL A   1      39.738  31.330  34.844  1.00  0.00     0.037 A 
ATOM     54  C   UNL A   1      42.578  27.454  30.412  1.00  0.00     0.049 A 
ATOM     55  C   UNL A   1      40.948  30.437  34.876  1.00  0.00     0.074 A 
ATOM     56  C   UNL A   1      43.742  26.719  30.547  1.00  0.00     0.029 A 
ATOM     57  N   UNL A   1      42.357  28.088  31.625  1.00  0.00    -0.354 N 
ATOM     58  N   UNL A   1      41.459  29.703  33.916  1.00  0.00    -0.248 NA
ATOM     59  C   UNL A   1      41.679  30.355  36.147  1.00  0.00     0.031 C 
ATOM     60  C   UNL A   1      44.209  26.883  31.855  1.00  0.00     0.029 A 
ATOM     61  C   UNL A   1      43.357  27.749  32.522  1.00  0.00     0.049 A 
ATOM     62  H   UNL A   1      41.603  28.689  31.821  1.00  0.00     0.167 HD
ATOM     63  C   UNL A   1      42.581  29.093  34.459  1.00  0.00     0.074 A 
ATOM     64  C   UNL A   1      42.685  29.552  35.829  1.00  0.00     0.031 C 
ATOM     65  C   UNL A   1      43.445  28.227  33.877  1.00  0.00     0.037 A 
BRANCH  52  66
ATOM     66  C   UNL A   1      42.047  26.768  28.041  1.00  0.00     0.064 A 
ATOM     67  C   UNL A   1      42.950  27.227  27.070  1.00  0.00     0.173 A 
ATOM     68  C   UNL A   1      41.463  25.507  27.851  1.00  0.00     0.173 A 
ATOM     69  F   UNL A   1      43.523  28.434  27.197  1.00  0.00    -0.203 F 
ATOM     70  C   UNL A   1      43.232  26.467  25.938  1.00  0.00     0.198 A 
ATOM     71  C   UNL A   1      41.771  24.737  26.733  1.00  0.00     0.198 A 
ATOM     72  F   UNL A   1      40.594  25.022  28.752  1.00  0.00    -0.203 F 
ATOM     73  F   UNL A   1      44.057  26.949  24.999  1.00  0.00    -0.200 F 
ATOM     74  C   UNL A   1      42.648  25.220  25.774  1.00  0.00     0.200 A 
ATOM     75  F   UNL A   1      41.213  23.527  26.581  1.00  0.00    -0.200 F 
ATOM     76  F   UNL A   1      42.924  24.487  24.687  1.00  0.00    -0.200 F 
ENDBRANCH  52  66
BRANCH  53  77
ATOM     77  C   UNL A   1      39.316  32.085  36.052  1.00  0.00     0.064 A 
ATOM     78  C   UNL A   1      39.879  33.335  36.347  1.00  0.00     0.173 A 
ATOM     79  C   UNL A   1      38.351  31.579  36.934  1.00  0.00     0.173 A 
ATOM     80  F   UNL A   1      40.821  33.850  35.545  1.00  0.00    -0.203 F 
ATOM     81  C   UNL A   1      39.506  34.040  37.489  1.00  0.00     0.198 A 
ATOM     82  C   UNL A   1      37.960  32.297  38.062  1.00  0.00     0.198 A 
ATOM     83  F   UNL A   1      37.779  30.390  36.694  1.00  0.00    -0.203 F 
ATOM     84  F   UNL A   1      40.090  35.214  37.770  1.00  0.00    -0.200 F 
ATOM     85  C   UNL A   1      38.543  33.524  38.343  1.00  0.00     0.200 A 
ATOM     86  F   UNL A   1      37.021  31.800  38.879  1.00  0.00    -0.200 F 
ATOM     87  F   UNL A   1      38.182  34.204  39.440  1.00  0.00    -0.200 F 
ENDBRANCH  53  77
BRANCH  65  88
ATOM     88  C   UNL A   1      44.594  27.741  34.708  1.00  0.00     0.064 A 
ATOM     89  C   UNL A   1      44.511  26.555  35.449  1.00  0.00     0.173 A 
ATOM     90  C   UNL A   1      45.811  28.441  34.714  1.00  0.00     0.173 A 
ATOM     91  F   UNL A   1      43.364  25.862  35.485  1.00  0.00    -0.203 F 
ATOM     92  C   UNL A   1      45.601  26.093  36.181  1.00  0.00     0.198 A 
ATOM     93  C   UNL A   1      46.905  27.963  35.426  1.00  0.00     0.198 A 
ATOM     94  F   UNL A   1      45.940  29.578  34.015  1.00  0.00    -0.203 F 
ATOM     95  F   UNL A   1      45.489  24.975  36.911  1.00  0.00    -0.200 F 
ATOM     96  C   UNL A   1      46.799  26.793  36.162  1.00  0.00     0.200 A 
ATOM     97  F   UNL A   1      48.066  28.633  35.397  1.00  0.00    -0.200 F 
ATOM     98  F   UNL A   1      47.850  26.340  36.859  1.00  0.00    -0.200 F 
ENDBRANCH  65  88
ENDBRANCH  39  40
ENDBRANCH  31  34
ENDBRANCH  29  30
ENDBRANCH  28  29
ENDBRANCH   1  28
TORSDOF 16
ENDMDL
