MODEL 1
REMARK VINA RESULT:     -11.2      0.000      0.000
REMARK SMILES CC(=O)/C=C(/C)NCC(=O)NCCCCNC(=O)c1ccc(-c2c3nc(c(-c4c(F)c(F)c(F)c(F)c4F)c4ccc([nH]4)c(-c4c(F)c(F)c(F)c(F)c4F)c4nc(c(-c5c(F)c(F)c(F)c(F)c5F)c5ccc2[nH]5)C=C4)C=C3)cc1
REMARK SMILES IDX 13 1 12 2 11 3 9 4 10 5 8 7 7 8 5 10 4 11 6 12 2 13 1 14
REMARK SMILES IDX 3 15 14 16 15 17 16 18 17 19 18 21 19 22 20 23 81 24 21 25
REMARK SMILES IDX 80 26 22 27 23 28 24 29 74 30 25 31 79 32 73 33 75 34 26 35
REMARK SMILES IDX 78 36 72 37 71 38 27 40 59 41 39 42 58 43 40 44 43 45 57 46
REMARK SMILES IDX 76 47 41 48 42 49 56 51 77 52 44 53 28 54 29 55 37 56 30 57
REMARK SMILES IDX 31 58 35 59 38 60 32 61 33 62 36 63 34 64 60 65 61 66 69 67
REMARK SMILES IDX 62 68 63 69 67 70 70 71 64 72 65 73 68 74 66 75 45 76 46 77
REMARK SMILES IDX 54 78 47 79 48 80 52 81 55 82 49 83 50 84 53 85 51 86
REMARK H PARENT 11 6 7 9 16 20 75 39 43 50
REMARK Flexibility Score: inf
ROOT
ATOM      1  C   UNL A   1      31.955  30.561  26.748  1.00  0.00     0.023 C 
ENDROOT
BRANCH   1   2
ATOM      2  C   UNL A   1      31.635  29.983  25.372  1.00  0.00     0.116 C 
BRANCH   2   3
ATOM      3  N   UNL A   1      32.820  29.493  24.697  1.00  0.00    -0.355 N 
ATOM      4  C   UNL A   1      32.980  29.016  23.430  1.00  0.00     0.239 C 
ATOM      5  O   UNL A   1      34.119  28.651  23.117  1.00  0.00    -0.273 OA
ATOM      6  H   UNL A   1      33.640  29.507  25.241  1.00  0.00     0.163 HD
BRANCH   4   7
ATOM      7  C   UNL A   1      31.852  28.994  22.386  1.00  0.00     0.213 C 
BRANCH   7   8
ATOM      8  N   UNL A   1      30.893  27.915  22.531  1.00  0.00    -0.380 N 
ATOM      9  H   UNL A   1      31.217  27.057  22.174  1.00  0.00     0.160 HD
BRANCH   8  10
ATOM     10  C   UNL A   1      29.619  27.836  23.065  1.00  0.00     0.011 C 
ATOM     11  C   UNL A   1      28.528  28.628  22.993  1.00  0.00     0.067 C 
ATOM     12  C   UNL A   1      29.486  26.642  24.015  1.00  0.00     0.064 C 
BRANCH  11  13
ATOM     13  C   UNL A   1      28.109  29.926  22.385  1.00  0.00     0.154 C 
ATOM     14  C   UNL A   1      27.684  31.110  23.194  1.00  0.00     0.093 C 
ATOM     15  O   UNL A   1      28.135  30.005  21.152  1.00  0.00    -0.295 OA
ENDBRANCH  11  13
ENDBRANCH   8  10
ENDBRANCH   7   8
ENDBRANCH   4   7
ENDBRANCH   2   3
ENDBRANCH   1   2
BRANCH   1  16
ATOM     16  C   UNL A   1      31.659  32.056  26.875  1.00  0.00     0.023 C 
BRANCH  16  17
ATOM     17  C   UNL A   1      32.852  32.916  27.278  1.00  0.00     0.116 C 
BRANCH  17  18
ATOM     18  N   UNL A   1      32.480  34.269  27.661  1.00  0.00    -0.352 N 
ATOM     19  C   UNL A   1      33.002  35.054  28.663  1.00  0.00     0.251 C 
ATOM     20  H   UNL A   1      31.757  34.679  27.132  1.00  0.00     0.163 HD
ATOM     21  O   UNL A   1      32.490  36.129  28.944  1.00  0.00    -0.269 OA
BRANCH  19  22
ATOM     22  C   UNL A   1      34.170  34.568  29.429  1.00  0.00     0.039 A 
ATOM     23  C   UNL A   1      33.956  33.962  30.670  1.00  0.00     0.014 A 
ATOM     24  C   UNL A   1      35.466  34.682  28.916  1.00  0.00     0.014 A 
ATOM     25  C   UNL A   1      35.032  33.405  31.362  1.00  0.00     0.010 A 
ATOM     26  C   UNL A   1      36.526  34.064  29.571  1.00  0.00     0.010 A 
ATOM     27  C   UNL A   1      36.320  33.417  30.799  1.00  0.00    -0.014 A 
BRANCH  27  28
ATOM     28  C   UNL A   1      37.457  32.743  31.476  1.00  0.00     0.031 A 
ATOM     29  C   UNL A   1      38.153  31.584  30.820  1.00  0.00     0.074 A 
ATOM     30  C   UNL A   1      37.820  33.135  32.714  1.00  0.00     0.049 A 
ATOM     31  N   UNL A   1      39.128  30.839  31.275  1.00  0.00    -0.248 NA
ATOM     32  C   UNL A   1      37.669  31.191  29.488  1.00  0.00     0.031 C 
ATOM     33  C   UNL A   1      37.184  34.207  33.480  1.00  0.00     0.029 A 
ATOM     34  N   UNL A   1      38.806  32.670  33.548  1.00  0.00    -0.354 N 
ATOM     35  C   UNL A   1      39.364  29.885  30.295  1.00  0.00     0.074 A 
ATOM     36  C   UNL A   1      38.395  30.110  29.244  1.00  0.00     0.031 C 
ATOM     37  C   UNL A   1      37.807  34.331  34.663  1.00  0.00     0.029 A 
ATOM     38  C   UNL A   1      38.863  33.327  34.752  1.00  0.00     0.049 A 
ATOM     39  H   UNL A   1      39.413  31.934  33.306  1.00  0.00     0.167 HD
ATOM     40  C   UNL A   1      40.318  28.924  30.263  1.00  0.00     0.037 A 
ATOM     41  C   UNL A   1      39.673  33.138  35.812  1.00  0.00     0.037 A 
ATOM     42  C   UNL A   1      41.297  28.719  31.298  1.00  0.00     0.049 A 
ATOM     43  C   UNL A   1      40.730  32.071  35.747  1.00  0.00     0.074 A 
ATOM     44  C   UNL A   1      42.349  27.821  31.325  1.00  0.00     0.029 A 
ATOM     45  N   UNL A   1      41.341  29.421  32.494  1.00  0.00    -0.354 N 
ATOM     46  N   UNL A   1      40.998  31.228  34.778  1.00  0.00    -0.248 NA
ATOM     47  C   UNL A   1      41.605  31.933  36.919  1.00  0.00     0.031 C 
ATOM     48  C   UNL A   1      43.000  27.945  32.558  1.00  0.00     0.029 A 
ATOM     49  C   UNL A   1      42.386  28.959  33.276  1.00  0.00     0.049 A 
ATOM     50  H   UNL A   1      40.720  30.143  32.748  1.00  0.00     0.167 HD
ATOM     51  C   UNL A   1      42.083  30.479  35.212  1.00  0.00     0.074 A 
ATOM     52  C   UNL A   1      42.436  30.980  36.525  1.00  0.00     0.031 C 
ATOM     53  C   UNL A   1      42.727  29.468  34.580  1.00  0.00     0.037 A 
BRANCH  40  54
ATOM     54  C   UNL A   1      40.351  28.019  29.065  1.00  0.00     0.064 A 
ATOM     55  C   UNL A   1      39.608  26.829  29.021  1.00  0.00     0.173 A 
ATOM     56  C   UNL A   1      41.105  28.362  27.933  1.00  0.00     0.173 A 
ATOM     57  F   UNL A   1      38.879  26.448  30.080  1.00  0.00    -0.203 F 
ATOM     58  C   UNL A   1      39.644  26.001  27.902  1.00  0.00     0.198 A 
ATOM     59  C   UNL A   1      41.114  27.549  26.803  1.00  0.00     0.198 A 
ATOM     60  F   UNL A   1      41.828  29.492  27.919  1.00  0.00    -0.203 F 
ATOM     61  F   UNL A   1      38.967  24.844  27.903  1.00  0.00    -0.200 F 
ATOM     62  C   UNL A   1      40.391  26.365  26.791  1.00  0.00     0.200 A 
ATOM     63  F   UNL A   1      41.824  27.908  25.725  1.00  0.00    -0.200 F 
ATOM     64  F   UNL A   1      40.418  25.572  25.711  1.00  0.00    -0.200 F 
ENDBRANCH  40  54
BRANCH  41  65
ATOM     65  C   UNL A   1      39.532  33.999  37.014  1.00  0.00     0.064 A 
ATOM     66  C   UNL A   1      38.780  33.577  38.119  1.00  0.00     0.173 A 
ATOM     67  C   UNL A   1      40.141  35.261  37.084  1.00  0.00     0.173 A 
ATOM     68  F   UNL A   1      38.162  32.387  38.091  1.00  0.00    -0.203 F 
ATOM     69  C   UNL A   1      38.627  34.390  39.240  1.00  0.00     0.198 A 
ATOM     70  C   UNL A   1      40.011  36.062  38.217  1.00  0.00     0.198 A 
ATOM     71  F   UNL A   1      40.876  35.710  36.055  1.00  0.00    -0.203 F 
ATOM     72  F   UNL A   1      37.867  33.980  40.264  1.00  0.00    -0.200 F 
ATOM     73  C   UNL A   1      39.248  35.629  39.291  1.00  0.00     0.200 A 
ATOM     74  F   UNL A   1      40.624  37.251  38.268  1.00  0.00    -0.200 F 
ATOM     75  F   UNL A   1      39.104  36.409  40.371  1.00  0.00    -0.200 F 
ENDBRANCH  41  65
BRANCH  53  76
ATOM     76  C   UNL A   1      43.899  28.852  35.289  1.00  0.00     0.064 A 
ATOM     77  C   UNL A   1      45.205  29.333  35.109  1.00  0.00     0.173 A 
ATOM     78  C   UNL A   1      43.709  27.790  36.186  1.00  0.00     0.173 A 
ATOM     79  F   UNL A   1      45.442  30.336  34.250  1.00  0.00    -0.203 F 
ATOM     80  C   UNL A   1      46.279  28.755  35.779  1.00  0.00     0.198 A 
ATOM     81  C   UNL A   1      44.781  27.236  36.879  1.00  0.00     0.198 A 
ATOM     82  F   UNL A   1      42.479  27.297  36.399  1.00  0.00    -0.203 F 
ATOM     83  F   UNL A   1      47.523  29.198  35.554  1.00  0.00    -0.200 F 
ATOM     84  C   UNL A   1      46.066  27.713  36.669  1.00  0.00     0.200 A 
ATOM     85  F   UNL A   1      44.571  26.237  37.748  1.00  0.00    -0.200 F 
ATOM     86  F   UNL A   1      47.100  27.162  37.318  1.00  0.00    -0.200 F 
ENDBRANCH  53  76
ENDBRANCH  27  28
ENDBRANCH  19  22
ENDBRANCH  17  18
ENDBRANCH  16  17
ENDBRANCH   1  16
TORSDOF 14
ENDMDL
MODEL 2
REMARK VINA RESULT:     -11.1      4.164     10.073
REMARK SMILES CC(=O)/C=C(/C)NCC(=O)NCCCCNC(=O)c1ccc(-c2c3nc(c(-c4c(F)c(F)c(F)c(F)c4F)c4ccc([nH]4)c(-c4c(F)c(F)c(F)c(F)c4F)c4nc(c(-c5c(F)c(F)c(F)c(F)c5F)c5ccc2[nH]5)C=C4)C=C3)cc1
REMARK SMILES IDX 13 1 12 2 11 3 9 4 10 5 8 7 7 8 5 10 4 11 6 12 2 13 1 14
REMARK SMILES IDX 3 15 14 16 15 17 16 18 17 19 18 21 19 22 20 23 81 24 21 25
REMARK SMILES IDX 80 26 22 27 23 28 24 29 74 30 25 31 79 32 73 33 75 34 26 35
REMARK SMILES IDX 78 36 72 37 71 38 27 40 59 41 39 42 58 43 40 44 43 45 57 46
REMARK SMILES IDX 76 47 41 48 42 49 56 51 77 52 44 53 28 54 29 55 37 56 30 57
REMARK SMILES IDX 31 58 35 59 38 60 32 61 33 62 36 63 34 64 60 65 61 66 69 67
REMARK SMILES IDX 62 68 63 69 67 70 70 71 64 72 65 73 68 74 66 75 45 76 46 77
REMARK SMILES IDX 54 78 47 79 48 80 52 81 55 82 49 83 50 84 53 85 51 86
REMARK H PARENT 11 6 7 9 16 20 75 39 43 50
REMARK Flexibility Score: inf
ROOT
ATOM      1  C   UNL A   1      34.427  34.875  28.537  1.00  0.00     0.023 C 
ENDROOT
BRANCH   1   2
ATOM      2  C   UNL A   1      33.153  34.961  29.374  1.00  0.00     0.116 C 
BRANCH   2   3
ATOM      3  N   UNL A   1      32.949  36.287  29.921  1.00  0.00    -0.355 N 
ATOM      4  C   UNL A   1      33.143  36.760  31.185  1.00  0.00     0.239 C 
ATOM      5  O   UNL A   1      32.874  37.951  31.377  1.00  0.00    -0.273 OA
ATOM      6  H   UNL A   1      32.618  36.953  29.277  1.00  0.00     0.163 HD
BRANCH   4   7
ATOM      7  C   UNL A   1      33.742  35.915  32.321  1.00  0.00     0.213 C 
BRANCH   7   8
ATOM      8  N   UNL A   1      35.094  35.440  32.095  1.00  0.00    -0.380 N 
ATOM      9  H   UNL A   1      35.717  36.155  31.832  1.00  0.00     0.160 HD
BRANCH   8  10
ATOM     10  C   UNL A   1      35.694  34.195  32.171  1.00  0.00     0.011 C 
ATOM     11  C   UNL A   1      36.821  33.672  31.644  1.00  0.00     0.067 C 
ATOM     12  C   UNL A   1      34.817  33.199  32.935  1.00  0.00     0.064 C 
BRANCH  11  13
ATOM     13  C   UNL A   1      37.944  34.073  30.745  1.00  0.00     0.154 C 
ATOM     14  C   UNL A   1      37.975  33.762  29.283  1.00  0.00     0.093 C 
ATOM     15  O   UNL A   1      38.876  34.703  31.256  1.00  0.00    -0.295 OA
ENDBRANCH  11  13
ENDBRANCH   8  10
ENDBRANCH   7   8
ENDBRANCH   4   7
ENDBRANCH   2   3
ENDBRANCH   1   2
BRANCH   1  16
ATOM     16  C   UNL A   1      34.695  33.484  27.958  1.00  0.00     0.023 C 
BRANCH  16  17
ATOM     17  C   UNL A   1      34.347  32.323  28.885  1.00  0.00     0.116 C 
BRANCH  17  18
ATOM     18  N   UNL A   1      33.859  31.151  28.177  1.00  0.00    -0.352 N 
ATOM     19  C   UNL A   1      34.552  30.025  27.797  1.00  0.00     0.251 C 
ATOM     20  H   UNL A   1      32.903  31.165  27.936  1.00  0.00     0.163 HD
ATOM     21  O   UNL A   1      34.025  29.178  27.088  1.00  0.00    -0.269 OA
BRANCH  19  22
ATOM     22  C   UNL A   1      35.960  29.865  28.219  1.00  0.00     0.039 A 
ATOM     23  C   UNL A   1      36.226  29.411  29.514  1.00  0.00     0.014 A 
ATOM     24  C   UNL A   1      37.011  30.132  27.337  1.00  0.00     0.014 A 
ATOM     25  C   UNL A   1      37.542  29.155  29.898  1.00  0.00     0.010 A 
ATOM     26  C   UNL A   1      38.315  29.809  27.696  1.00  0.00     0.010 A 
ATOM     27  C   UNL A   1      38.594  29.315  28.980  1.00  0.00    -0.014 A 
BRANCH  27  28
ATOM     28  C   UNL A   1      39.988  28.953  29.343  1.00  0.00     0.031 A 
ATOM     29  C   UNL A   1      40.824  29.887  30.172  1.00  0.00     0.074 A 
ATOM     30  C   UNL A   1      40.524  27.812  28.867  1.00  0.00     0.049 A 
ATOM     31  N   UNL A   1      42.073  29.769  30.546  1.00  0.00    -0.248 NA
ATOM     32  C   UNL A   1      40.179  31.132  30.617  1.00  0.00     0.031 C 
ATOM     33  C   UNL A   1      39.835  26.853  28.002  1.00  0.00     0.029 A 
ATOM     34  N   UNL A   1      41.774  27.270  29.034  1.00  0.00    -0.354 N 
ATOM     35  C   UNL A   1      42.366  30.927  31.255  1.00  0.00     0.074 A 
ATOM     36  C   UNL A   1      41.182  31.758  31.214  1.00  0.00     0.031 C 
ATOM     37  C   UNL A   1      40.664  25.831  27.732  1.00  0.00     0.029 A 
ATOM     38  C   UNL A   1      41.951  26.079  28.374  1.00  0.00     0.049 A 
ATOM     39  H   UNL A   1      42.477  27.696  29.575  1.00  0.00     0.167 HD
ATOM     40  C   UNL A   1      43.510  31.254  31.903  1.00  0.00     0.037 A 
ATOM     41  C   UNL A   1      43.031  25.279  28.292  1.00  0.00     0.037 A 
ATOM     42  C   UNL A   1      44.676  30.413  31.963  1.00  0.00     0.049 A 
ATOM     43  C   UNL A   1      44.286  25.662  29.028  1.00  0.00     0.074 A 
ATOM     44  C   UNL A   1      45.856  30.623  32.653  1.00  0.00     0.029 A 
ATOM     45  N   UNL A   1      44.810  29.200  31.303  1.00  0.00    -0.354 N 
ATOM     46  N   UNL A   1      44.523  26.720  29.765  1.00  0.00    -0.248 NA
ATOM     47  C   UNL A   1      45.421  24.734  28.929  1.00  0.00     0.031 C 
ATOM     48  C   UNL A   1      46.724  29.562  32.372  1.00  0.00     0.029 A 
ATOM     49  C   UNL A   1      46.063  28.663  31.550  1.00  0.00     0.049 A 
ATOM     50  H   UNL A   1      44.116  28.783  30.743  1.00  0.00     0.167 HD
ATOM     51  C   UNL A   1      45.821  26.574  30.236  1.00  0.00     0.074 A 
ATOM     52  C   UNL A   1      46.314  25.315  29.715  1.00  0.00     0.031 C 
ATOM     53  C   UNL A   1      46.540  27.409  31.027  1.00  0.00     0.037 A 
BRANCH  40  54
ATOM     54  C   UNL A   1      43.555  32.583  32.602  1.00  0.00     0.064 A 
ATOM     55  C   UNL A   1      43.077  32.741  33.912  1.00  0.00     0.173 A 
ATOM     56  C   UNL A   1      44.114  33.702  31.968  1.00  0.00     0.173 A 
ATOM     57  F   UNL A   1      42.523  31.706  34.559  1.00  0.00    -0.203 F 
ATOM     58  C   UNL A   1      43.130  33.978  34.550  1.00  0.00     0.198 A 
ATOM     59  C   UNL A   1      44.195  34.930  32.620  1.00  0.00     0.198 A 
ATOM     60  F   UNL A   1      44.592  33.604  30.719  1.00  0.00    -0.203 F 
ATOM     61  F   UNL A   1      42.621  34.118  35.782  1.00  0.00    -0.200 F 
ATOM     62  C   UNL A   1      43.695  35.070  33.906  1.00  0.00     0.200 A 
ATOM     63  F   UNL A   1      44.753  35.980  32.003  1.00  0.00    -0.200 F 
ATOM     64  F   UNL A   1      43.752  36.258  34.524  1.00  0.00    -0.200 F 
ENDBRANCH  40  54
BRANCH  41  65
ATOM     65  C   UNL A   1      42.963  24.022  27.503  1.00  0.00     0.064 A 
ATOM     66  C   UNL A   1      42.578  22.815  28.102  1.00  0.00     0.173 A 
ATOM     67  C   UNL A   1      43.284  24.000  26.137  1.00  0.00     0.173 A 
ATOM     68  F   UNL A   1      42.282  22.782  29.409  1.00  0.00    -0.203 F 
ATOM     69  C   UNL A   1      42.534  21.630  27.370  1.00  0.00     0.198 A 
ATOM     70  C   UNL A   1      43.211  22.819  25.400  1.00  0.00     0.198 A 
ATOM     71  F   UNL A   1      43.653  25.129  25.515  1.00  0.00    -0.203 F 
ATOM     72  F   UNL A   1      42.205  20.482  27.978  1.00  0.00    -0.200 F 
ATOM     73  C   UNL A   1      42.844  21.634  26.019  1.00  0.00     0.200 A 
ATOM     74  F   UNL A   1      43.498  22.831  24.092  1.00  0.00    -0.200 F 
ATOM     75  F   UNL A   1      42.797  20.495  25.315  1.00  0.00    -0.200 F 
ENDBRANCH  41  65
BRANCH  53  76
ATOM     76  C   UNL A   1      47.927  26.974  31.401  1.00  0.00     0.064 A 
ATOM     77  C   UNL A   1      49.051  27.384  30.668  1.00  0.00     0.173 A 
ATOM     78  C   UNL A   1      48.138  26.164  32.528  1.00  0.00     0.173 A 
ATOM     79  F   UNL A   1      48.901  28.145  29.573  1.00  0.00    -0.203 F 
ATOM     80  C   UNL A   1      50.331  26.978  31.033  1.00  0.00     0.198 A 
ATOM     81  C   UNL A   1      49.422  25.787  32.909  1.00  0.00     0.198 A 
ATOM     82  F   UNL A   1      47.098  25.750  33.267  1.00  0.00    -0.203 F 
ATOM     83  F   UNL A   1      51.385  27.341  30.289  1.00  0.00    -0.200 F 
ATOM     84  C   UNL A   1      50.517  26.186  32.157  1.00  0.00     0.200 A 
ATOM     85  F   UNL A   1      49.601  25.033  34.003  1.00  0.00    -0.200 F 
ATOM     86  F   UNL A   1      51.750  25.801  32.511  1.00  0.00    -0.200 F 
ENDBRANCH  53  76
ENDBRANCH  27  28
ENDBRANCH  19  22
ENDBRANCH  17  18
ENDBRANCH  16  17
ENDBRANCH   1  16
TORSDOF 14
ENDMDL
MODEL 3
REMARK VINA RESULT:     -11.1      1.585      2.307
REMARK SMILES CC(=O)/C=C(/C)NCC(=O)NCCCCNC(=O)c1ccc(-c2c3nc(c(-c4c(F)c(F)c(F)c(F)c4F)c4ccc([nH]4)c(-c4c(F)c(F)c(F)c(F)c4F)c4nc(c(-c5c(F)c(F)c(F)c(F)c5F)c5ccc2[nH]5)C=C4)C=C3)cc1
REMARK SMILES IDX 13 1 12 2 11 3 9 4 10 5 8 7 7 8 5 10 4 11 6 12 2 13 1 14
REMARK SMILES IDX 3 15 14 16 15 17 16 18 17 19 18 21 19 22 20 23 81 24 21 25
REMARK SMILES IDX 80 26 22 27 23 28 24 29 74 30 25 31 79 32 73 33 75 34 26 35
REMARK SMILES IDX 78 36 72 37 71 38 27 40 59 41 39 42 58 43 40 44 43 45 57 46
REMARK SMILES IDX 76 47 41 48 42 49 56 51 77 52 44 53 28 54 29 55 37 56 30 57
REMARK SMILES IDX 31 58 35 59 38 60 32 61 33 62 36 63 34 64 60 65 61 66 69 67
REMARK SMILES IDX 62 68 63 69 67 70 70 71 64 72 65 73 68 74 66 75 45 76 46 77
REMARK SMILES IDX 54 78 47 79 48 80 52 81 55 82 49 83 50 84 53 85 51 86
REMARK H PARENT 11 6 7 9 16 20 75 39 43 50
REMARK Flexibility Score: inf
ROOT
ATOM      1  C   UNL A   1      31.794  30.706  26.186  1.00  0.00     0.023 C 
ENDROOT
BRANCH   1   2
ATOM      2  C   UNL A   1      32.401  29.771  27.229  1.00  0.00     0.116 C 
BRANCH   2   3
ATOM      3  N   UNL A   1      31.746  28.480  27.251  1.00  0.00    -0.355 N 
ATOM      4  C   UNL A   1      32.151  27.277  26.752  1.00  0.00     0.239 C 
ATOM      5  O   UNL A   1      31.376  26.326  26.905  1.00  0.00    -0.273 OA
ATOM      6  H   UNL A   1      30.868  28.468  27.695  1.00  0.00     0.163 HD
BRANCH   4   7
ATOM      7  C   UNL A   1      33.527  27.050  26.104  1.00  0.00     0.213 C 
BRANCH   7   8
ATOM      8  N   UNL A   1      33.496  26.587  24.729  1.00  0.00    -0.380 N 
ATOM      9  H   UNL A   1      33.538  25.607  24.649  1.00  0.00     0.160 HD
BRANCH   8  10
ATOM     10  C   UNL A   1      33.420  27.231  23.507  1.00  0.00     0.011 C 
ATOM     11  C   UNL A   1      33.236  26.804  22.240  1.00  0.00     0.067 C 
ATOM     12  C   UNL A   1      33.713  28.728  23.647  1.00  0.00     0.064 C 
BRANCH  11  13
ATOM     13  C   UNL A   1      33.056  25.525  21.491  1.00  0.00     0.154 C 
ATOM     14  C   UNL A   1      32.872  24.201  22.162  1.00  0.00     0.093 C 
ATOM     15  O   UNL A   1      33.050  25.591  20.257  1.00  0.00    -0.295 OA
ENDBRANCH  11  13
ENDBRANCH   8  10
ENDBRANCH   7   8
ENDBRANCH   4   7
ENDBRANCH   2   3
ENDBRANCH   1   2
BRANCH   1  16
ATOM     16  C   UNL A   1      31.467  32.102  26.720  1.00  0.00     0.023 C 
BRANCH  16  17
ATOM     17  C   UNL A   1      32.641  32.838  27.359  1.00  0.00     0.116 C 
BRANCH  17  18
ATOM     18  N   UNL A   1      32.349  34.231  27.658  1.00  0.00    -0.352 N 
ATOM     19  C   UNL A   1      32.949  35.056  28.579  1.00  0.00     0.251 C 
ATOM     20  H   UNL A   1      31.624  34.638  27.129  1.00  0.00     0.163 HD
ATOM     21  O   UNL A   1      32.500  36.173  28.802  1.00  0.00    -0.269 OA
BRANCH  19  22
ATOM     22  C   UNL A   1      34.124  34.567  29.333  1.00  0.00     0.039 A 
ATOM     23  C   UNL A   1      33.934  34.059  30.620  1.00  0.00     0.014 A 
ATOM     24  C   UNL A   1      35.401  34.583  28.763  1.00  0.00     0.014 A 
ATOM     25  C   UNL A   1      35.011  33.499  31.308  1.00  0.00     0.010 A 
ATOM     26  C   UNL A   1      36.458  33.960  29.419  1.00  0.00     0.010 A 
ATOM     27  C   UNL A   1      36.273  33.410  30.697  1.00  0.00    -0.014 A 
BRANCH  27  28
ATOM     28  C   UNL A   1      37.406  32.729  31.376  1.00  0.00     0.031 A 
ATOM     29  C   UNL A   1      38.096  31.566  30.721  1.00  0.00     0.074 A 
ATOM     30  C   UNL A   1      37.769  33.118  32.614  1.00  0.00     0.049 A 
ATOM     31  N   UNL A   1      39.066  30.815  31.177  1.00  0.00    -0.248 NA
ATOM     32  C   UNL A   1      37.612  31.176  29.387  1.00  0.00     0.031 C 
ATOM     33  C   UNL A   1      37.137  34.193  33.380  1.00  0.00     0.029 A 
ATOM     34  N   UNL A   1      38.750  32.647  33.450  1.00  0.00    -0.354 N 
ATOM     35  C   UNL A   1      39.298  29.859  30.197  1.00  0.00     0.074 A 
ATOM     36  C   UNL A   1      38.332  30.091  29.144  1.00  0.00     0.031 C 
ATOM     37  C   UNL A   1      37.760  34.313  34.564  1.00  0.00     0.029 A 
ATOM     38  C   UNL A   1      38.809  33.303  34.655  1.00  0.00     0.049 A 
ATOM     39  H   UNL A   1      39.353  31.907  33.209  1.00  0.00     0.167 HD
ATOM     40  C   UNL A   1      40.247  28.893  30.166  1.00  0.00     0.037 A 
ATOM     41  C   UNL A   1      39.616  33.109  35.715  1.00  0.00     0.037 A 
ATOM     42  C   UNL A   1      41.222  28.682  31.203  1.00  0.00     0.049 A 
ATOM     43  C   UNL A   1      40.667  32.035  35.652  1.00  0.00     0.074 A 
ATOM     44  C   UNL A   1      42.269  27.778  31.232  1.00  0.00     0.029 A 
ATOM     45  N   UNL A   1      41.268  29.384  32.399  1.00  0.00    -0.354 N 
ATOM     46  N   UNL A   1      40.931  31.191  34.683  1.00  0.00    -0.248 NA
ATOM     47  C   UNL A   1      41.539  31.892  36.826  1.00  0.00     0.031 C 
ATOM     48  C   UNL A   1      42.918  27.898  32.465  1.00  0.00     0.029 A 
ATOM     49  C   UNL A   1      42.309  28.915  33.183  1.00  0.00     0.049 A 
ATOM     50  H   UNL A   1      40.651  30.108  32.652  1.00  0.00     0.167 HD
ATOM     51  C   UNL A   1      42.011  30.436  35.118  1.00  0.00     0.074 A 
ATOM     52  C   UNL A   1      42.365  30.934  36.432  1.00  0.00     0.031 C 
ATOM     53  C   UNL A   1      42.651  29.421  34.488  1.00  0.00     0.037 A 
BRANCH  40  54
ATOM     54  C   UNL A   1      40.276  27.988  28.968  1.00  0.00     0.064 A 
ATOM     55  C   UNL A   1      41.016  28.312  27.819  1.00  0.00     0.173 A 
ATOM     56  C   UNL A   1      39.587  26.767  28.980  1.00  0.00     0.173 A 
ATOM     57  F   UNL A   1      41.684  29.472  27.751  1.00  0.00    -0.203 F 
ATOM     58  C   UNL A   1      41.038  27.461  26.717  1.00  0.00     0.198 A 
ATOM     59  C   UNL A   1      39.638  25.902  27.890  1.00  0.00     0.198 A 
ATOM     60  F   UNL A   1      38.871  26.405  30.055  1.00  0.00    -0.203 F 
ATOM     61  F   UNL A   1      41.709  27.815  25.612  1.00  0.00    -0.200 F 
ATOM     62  C   UNL A   1      40.355  26.254  26.756  1.00  0.00     0.200 A 
ATOM     63  F   UNL A   1      38.989  24.731  27.933  1.00  0.00    -0.200 F 
ATOM     64  F   UNL A   1      40.384  25.432  25.697  1.00  0.00    -0.200 F 
ENDBRANCH  40  54
BRANCH  41  65
ATOM     65  C   UNL A   1      39.478  33.970  36.918  1.00  0.00     0.064 A 
ATOM     66  C   UNL A   1      38.741  33.542  38.031  1.00  0.00     0.173 A 
ATOM     67  C   UNL A   1      40.075  35.238  36.980  1.00  0.00     0.173 A 
ATOM     68  F   UNL A   1      38.135  32.346  38.011  1.00  0.00    -0.203 F 
ATOM     69  C   UNL A   1      38.591  34.356  39.152  1.00  0.00     0.198 A 
ATOM     70  C   UNL A   1      39.948  36.039  38.113  1.00  0.00     0.198 A 
ATOM     71  F   UNL A   1      40.796  35.693  35.944  1.00  0.00    -0.203 F 
ATOM     72  F   UNL A   1      37.845  33.939  40.184  1.00  0.00    -0.200 F 
ATOM     73  C   UNL A   1      39.200  35.600  39.195  1.00  0.00     0.200 A 
ATOM     74  F   UNL A   1      40.550  37.235  38.157  1.00  0.00    -0.200 F 
ATOM     75  F   UNL A   1      39.058  36.380  40.275  1.00  0.00    -0.200 F 
ENDBRANCH  41  65
BRANCH  53  76
ATOM     76  C   UNL A   1      43.818  28.798  35.198  1.00  0.00     0.064 A 
ATOM     77  C   UNL A   1      45.129  29.259  35.006  1.00  0.00     0.173 A 
ATOM     78  C   UNL A   1      43.617  27.749  36.108  1.00  0.00     0.173 A 
ATOM     79  F   UNL A   1      45.375  30.249  34.135  1.00  0.00    -0.203 F 
ATOM     80  C   UNL A   1      46.199  28.675  35.679  1.00  0.00     0.198 A 
ATOM     81  C   UNL A   1      44.686  27.189  36.803  1.00  0.00     0.198 A 
ATOM     82  F   UNL A   1      42.382  27.275  36.333  1.00  0.00    -0.203 F 
ATOM     83  F   UNL A   1      47.448  29.099  35.442  1.00  0.00    -0.200 F 
ATOM     84  C   UNL A   1      45.976  27.646  36.582  1.00  0.00     0.200 A 
ATOM     85  F   UNL A   1      44.467  26.204  37.685  1.00  0.00    -0.200 F 
ATOM     86  F   UNL A   1      47.006  27.089  37.233  1.00  0.00    -0.200 F 
ENDBRANCH  53  76
ENDBRANCH  27  28
ENDBRANCH  19  22
ENDBRANCH  17  18
ENDBRANCH  16  17
ENDBRANCH   1  16
TORSDOF 14
ENDMDL
