MODEL 1
REMARK VINA RESULT:     -13.6      0.000      0.000
REMARK SMILES O=C(NCCCCNC(=O)c1ccccc1C(=O)Nc1ccc(N2C(=O)[C@H]3[C@@H]4CC[C@@H](C4)[C@@H]3C2=O)cc1)c1ccc(-c2c3nc(c(-c4c(F)c(F)c(F)c(F)c4F)c4ccc([nH]4)c(-c4c(F)c(F)c(F)c(F)c4F)c4nc(c(-c5c(F)c(F)c(F)c(F)c5F)c5ccc2[nH]5)C=C4)C=C3)cc1
REMARK SMILES IDX 6 1 5 2 4 3 3 4 1 5 2 6 38 8 39 9 100 10 40 11 99 12 41 13
REMARK SMILES IDX 42 14 43 15 93 16 44 17 98 18 92 19 94 20 45 21 97 22 91 23
REMARK SMILES IDX 90 24 46 26 78 27 58 28 77 29 59 30 62 31 76 32 95 33 60 34
REMARK SMILES IDX 61 35 75 37 96 38 63 39 47 40 48 41 56 42 49 43 50 44 54 45
REMARK SMILES IDX 57 46 51 47 52 48 55 49 53 50 79 51 80 52 88 53 81 54 82 55
REMARK SMILES IDX 86 56 89 57 83 58 84 59 87 60 85 61 64 62 65 63 73 64 66 65
REMARK SMILES IDX 67 66 71 67 74 68 68 69 69 70 72 71 70 72 7 73 8 74 9 75
REMARK SMILES IDX 10 77 11 78 12 79 16 80 13 81 15 82 14 83 17 84 18 85 19 86
REMARK SMILES IDX 20 88 21 89 37 90 22 91 36 92 23 93 24 94 25 95 34 96 26 97
REMARK SMILES IDX 27 98 33 99 35 100 28 101 31 102 29 103 32 104 30 105
REMARK H PARENT 3 7 94 25 62 36 8 76 19 87
REMARK Flexibility Score: inf
ROOT
ATOM      1  C   UNL A   1      34.523  24.073  25.844  1.00  0.00     0.023 C 
ENDROOT
BRANCH   1   2
ATOM      2  C   UNL A   1      35.983  23.960  26.301  1.00  0.00     0.023 C 
BRANCH   2   3
ATOM      3  C   UNL A   1      36.999  23.811  25.171  1.00  0.00     0.116 C 
BRANCH   3   4
ATOM      4  N   UNL A   1      38.032  22.832  25.455  1.00  0.00    -0.352 N 
ATOM      5  O   UNL A   1      40.021  22.036  26.144  1.00  0.00    -0.269 OA
ATOM      6  C   UNL A   1      39.222  22.968  26.127  1.00  0.00     0.251 C 
ATOM      7  H   UNL A   1      37.851  21.927  25.112  1.00  0.00     0.163 HD
BRANCH   6   8
ATOM      8  C   UNL A   1      39.567  24.232  26.811  1.00  0.00     0.039 A 
ATOM      9  C   UNL A   1      39.252  24.447  28.156  1.00  0.00     0.014 A 
ATOM     10  C   UNL A   1      40.280  25.203  26.102  1.00  0.00     0.014 A 
ATOM     11  C   UNL A   1      39.543  25.673  28.753  1.00  0.00     0.010 A 
ATOM     12  C   UNL A   1      40.644  26.400  26.724  1.00  0.00     0.010 A 
ATOM     13  C   UNL A   1      40.263  26.655  28.051  1.00  0.00    -0.014 A 
BRANCH  13  14
ATOM     14  C   UNL A   1      40.690  27.902  28.738  1.00  0.00     0.031 A 
ATOM     15  C   UNL A   1      42.090  28.067  29.256  1.00  0.00     0.074 A 
ATOM     16  C   UNL A   1      39.787  28.887  28.915  1.00  0.00     0.049 A 
ATOM     17  N   UNL A   1      42.614  29.069  29.921  1.00  0.00    -0.248 NA
ATOM     18  C   UNL A   1      43.026  26.960  29.007  1.00  0.00     0.031 C 
ATOM     19  C   UNL A   1      38.392  28.838  28.473  1.00  0.00     0.029 A 
ATOM     20  N   UNL A   1      39.900  30.115  29.518  1.00  0.00    -0.354 N 
ATOM     21  C   UNL A   1      43.930  28.708  30.181  1.00  0.00     0.074 A 
ATOM     22  C   UNL A   1      44.119  27.383  29.629  1.00  0.00     0.031 C 
ATOM     23  C   UNL A   1      37.786  29.989  28.796  1.00  0.00     0.029 A 
ATOM     24  C   UNL A   1      38.728  30.831  29.526  1.00  0.00     0.049 A 
ATOM     25  H   UNL A   1      40.740  30.450  29.906  1.00  0.00     0.167 HD
ATOM     26  C   UNL A   1      44.890  29.424  30.815  1.00  0.00     0.037 A 
ATOM     27  C   UNL A   1      38.430  32.017  30.088  1.00  0.00     0.037 A 
ATOM     28  C   UNL A   1      44.694  30.746  31.360  1.00  0.00     0.049 A 
ATOM     29  C   UNL A   1      39.502  32.764  30.830  1.00  0.00     0.074 A 
ATOM     30  C   UNL A   1      45.620  31.570  31.977  1.00  0.00     0.029 A 
ATOM     31  N   UNL A   1      43.486  31.429  31.367  1.00  0.00    -0.354 N 
ATOM     32  N   UNL A   1      40.758  32.440  31.018  1.00  0.00    -0.248 NA
ATOM     33  C   UNL A   1      39.115  34.043  31.440  1.00  0.00     0.031 C 
ATOM     34  C   UNL A   1      44.958  32.721  32.416  1.00  0.00     0.029 A 
ATOM     35  C   UNL A   1      43.636  32.648  32.012  1.00  0.00     0.049 A 
ATOM     36  H   UNL A   1      42.647  31.097  30.973  1.00  0.00     0.167 HD
ATOM     37  C   UNL A   1      41.316  33.483  31.744  1.00  0.00     0.074 A 
ATOM     38  C   UNL A   1      40.267  34.459  31.946  1.00  0.00     0.031 C 
ATOM     39  C   UNL A   1      42.584  33.616  32.205  1.00  0.00     0.037 A 
BRANCH  26  40
ATOM     40  C   UNL A   1      46.244  28.791  30.983  1.00  0.00     0.064 A 
ATOM     41  C   UNL A   1      47.245  28.911  30.006  1.00  0.00     0.173 A 
ATOM     42  C   UNL A   1      46.567  28.106  32.165  1.00  0.00     0.173 A 
ATOM     43  F   UNL A   1      46.990  29.551  28.855  1.00  0.00    -0.203 F 
ATOM     44  C   UNL A   1      48.504  28.347  30.195  1.00  0.00     0.198 A 
ATOM     45  C   UNL A   1      47.837  27.572  32.365  1.00  0.00     0.198 A 
ATOM     46  F   UNL A   1      45.653  27.970  33.139  1.00  0.00    -0.203 F 
ATOM     47  F   UNL A   1      49.428  28.437  29.229  1.00  0.00    -0.200 F 
ATOM     48  C   UNL A   1      48.802  27.686  31.376  1.00  0.00     0.200 A 
ATOM     49  F   UNL A   1      48.128  26.949  33.516  1.00  0.00    -0.200 F 
ATOM     50  F   UNL A   1      50.019  27.155  31.561  1.00  0.00    -0.200 F 
ENDBRANCH  26  40
BRANCH  27  51
ATOM     51  C   UNL A   1      37.050  32.560  29.983  1.00  0.00     0.064 A 
ATOM     52  C   UNL A   1      36.641  33.282  28.853  1.00  0.00     0.173 A 
ATOM     53  C   UNL A   1      36.113  32.371  31.010  1.00  0.00     0.173 A 
ATOM     54  F   UNL A   1      37.505  33.506  27.852  1.00  0.00    -0.203 F 
ATOM     55  C   UNL A   1      35.357  33.814  28.766  1.00  0.00     0.198 A 
ATOM     56  C   UNL A   1      34.818  32.873  30.906  1.00  0.00     0.198 A 
ATOM     57  F   UNL A   1      36.451  31.684  32.110  1.00  0.00    -0.203 F 
ATOM     58  F   UNL A   1      35.009  34.545  27.698  1.00  0.00    -0.200 F 
ATOM     59  C   UNL A   1      34.444  33.603  29.788  1.00  0.00     0.200 A 
ATOM     60  F   UNL A   1      33.934  32.650  31.888  1.00  0.00    -0.200 F 
ATOM     61  F   UNL A   1      33.207  34.111  29.702  1.00  0.00    -0.200 F 
ENDBRANCH  27  51
BRANCH  39  62
ATOM     62  C   UNL A   1      42.921  34.881  32.942  1.00  0.00     0.064 A 
ATOM     63  C   UNL A   1      42.787  34.982  34.334  1.00  0.00     0.173 A 
ATOM     64  C   UNL A   1      43.419  35.995  32.248  1.00  0.00     0.173 A 
ATOM     65  F   UNL A   1      42.298  33.954  35.044  1.00  0.00    -0.203 F 
ATOM     66  C   UNL A   1      43.116  36.160  35.001  1.00  0.00     0.198 A 
ATOM     67  C   UNL A   1      43.781  37.157  32.922  1.00  0.00     0.198 A 
ATOM     68  F   UNL A   1      43.571  35.949  30.916  1.00  0.00    -0.203 F 
ATOM     69  F   UNL A   1      42.932  36.252  36.326  1.00  0.00    -0.200 F 
ATOM     70  C   UNL A   1      43.622  37.243  34.296  1.00  0.00     0.200 A 
ATOM     71  F   UNL A   1      44.283  38.196  32.240  1.00  0.00    -0.200 F 
ATOM     72  F   UNL A   1      43.949  38.371  34.941  1.00  0.00    -0.200 F 
ENDBRANCH  39  62
ENDBRANCH  13  14
ENDBRANCH   6   8
ENDBRANCH   3   4
ENDBRANCH   2   3
ENDBRANCH   1   2
BRANCH   1  73
ATOM     73  C   UNL A   1      34.039  25.501  25.599  1.00  0.00     0.116 C 
BRANCH  73  74
ATOM     74  N   UNL A   1      32.925  25.862  26.454  1.00  0.00    -0.352 N 
ATOM     75  C   UNL A   1      31.912  26.755  26.232  1.00  0.00     0.252 C 
ATOM     76  H   UNL A   1      32.894  25.397  27.321  1.00  0.00     0.163 HD
ATOM     77  O   UNL A   1      31.158  27.058  27.157  1.00  0.00    -0.269 OA
BRANCH  75  78
ATOM     78  C   UNL A   1      31.768  27.473  24.950  1.00  0.00     0.052 A 
ATOM     79  C   UNL A   1      32.768  28.461  24.779  1.00  0.00     0.014 A 
ATOM     80  C   UNL A   1      30.817  27.260  23.942  1.00  0.00     0.052 A 
ATOM     81  C   UNL A   1      32.908  29.157  23.582  1.00  0.00     0.001 A 
ATOM     82  C   UNL A   1      31.011  27.954  22.720  1.00  0.00     0.014 A 
ATOM     83  C   UNL A   1      32.046  28.876  22.536  1.00  0.00     0.001 A 
BRANCH  80  84
ATOM     84  C   UNL A   1      29.666  26.307  23.909  1.00  0.00     0.256 C 
ATOM     85  O   UNL A   1      28.534  26.796  23.803  1.00  0.00    -0.269 OA
ATOM     86  N   UNL A   1      29.722  24.932  23.892  1.00  0.00    -0.322 N 
ATOM     87  H   UNL A   1      28.846  24.498  23.780  1.00  0.00     0.170 HD
BRANCH  86  88
ATOM     88  C   UNL A   1      30.785  24.039  24.002  1.00  0.00     0.041 A 
ATOM     89  C   UNL A   1      30.809  23.236  25.147  1.00  0.00     0.028 A 
ATOM     90  C   UNL A   1      31.739  23.866  23.009  1.00  0.00     0.028 A 
ATOM     91  C   UNL A   1      31.581  22.079  25.164  1.00  0.00     0.029 A 
ATOM     92  C   UNL A   1      32.619  22.785  23.097  1.00  0.00     0.029 A 
ATOM     93  C   UNL A   1      32.462  21.830  24.117  1.00  0.00     0.052 A 
BRANCH  93  94
ATOM     94  N   UNL A   1      33.063  20.570  23.965  1.00  0.00    -0.250 N 
ATOM     95  C   UNL A   1      32.542  19.571  23.139  1.00  0.00     0.237 C 
ATOM     96  C   UNL A   1      34.056  20.080  24.841  1.00  0.00     0.237 C 
ATOM     97  O   UNL A   1      31.823  19.657  22.158  1.00  0.00    -0.274 OA
ATOM     98  C   UNL A   1      32.929  18.329  23.850  1.00  0.00     0.095 C 
ATOM     99  C   UNL A   1      34.329  18.705  24.305  1.00  0.00     0.095 C 
ATOM    100  O   UNL A   1      34.663  20.636  25.740  1.00  0.00    -0.274 OA
ATOM    101  C   UNL A   1      33.092  16.864  23.449  1.00  0.00     0.002 C 
ATOM    102  C   UNL A   1      34.817  17.359  24.834  1.00  0.00     0.002 C 
ATOM    103  C   UNL A   1      32.713  16.091  24.730  1.00  0.00     0.005 C 
ATOM    104  C   UNL A   1      34.614  16.598  23.498  1.00  0.00     0.009 C 
ATOM    105  C   UNL A   1      33.800  16.590  25.728  1.00  0.00     0.005 C 
ENDBRANCH  93  94
ENDBRANCH  86  88
ENDBRANCH  80  84
ENDBRANCH  75  78
ENDBRANCH  73  74
ENDBRANCH   1  73
TORSDOF 14
ENDMDL
MODEL 2
REMARK VINA RESULT:     -13.6      5.588     11.143
REMARK SMILES O=C(NCCCCNC(=O)c1ccccc1C(=O)Nc1ccc(N2C(=O)[C@H]3[C@@H]4CC[C@@H](C4)[C@@H]3C2=O)cc1)c1ccc(-c2c3nc(c(-c4c(F)c(F)c(F)c(F)c4F)c4ccc([nH]4)c(-c4c(F)c(F)c(F)c(F)c4F)c4nc(c(-c5c(F)c(F)c(F)c(F)c5F)c5ccc2[nH]5)C=C4)C=C3)cc1
REMARK SMILES IDX 6 1 5 2 4 3 3 4 1 5 2 6 38 8 39 9 100 10 40 11 99 12 41 13
REMARK SMILES IDX 42 14 43 15 93 16 44 17 98 18 92 19 94 20 45 21 97 22 91 23
REMARK SMILES IDX 90 24 46 26 78 27 58 28 77 29 59 30 62 31 76 32 95 33 60 34
REMARK SMILES IDX 61 35 75 37 96 38 63 39 47 40 48 41 56 42 49 43 50 44 54 45
REMARK SMILES IDX 57 46 51 47 52 48 55 49 53 50 79 51 80 52 88 53 81 54 82 55
REMARK SMILES IDX 86 56 89 57 83 58 84 59 87 60 85 61 64 62 65 63 73 64 66 65
REMARK SMILES IDX 67 66 71 67 74 68 68 69 69 70 72 71 70 72 7 73 8 74 9 75
REMARK SMILES IDX 10 77 11 78 12 79 16 80 13 81 15 82 14 83 17 84 18 85 19 86
REMARK SMILES IDX 20 88 21 89 37 90 22 91 36 92 23 93 24 94 25 95 34 96 26 97
REMARK SMILES IDX 27 98 33 99 35 100 28 101 31 102 29 103 32 104 30 105
REMARK H PARENT 3 7 94 25 62 36 8 76 19 87
REMARK Flexibility Score: inf
ROOT
ATOM      1  C   UNL A   1      33.778  34.205  29.441  1.00  0.00     0.023 C 
ENDROOT
BRANCH   1   2
ATOM      2  C   UNL A   1      34.604  34.115  28.152  1.00  0.00     0.023 C 
BRANCH   2   3
ATOM      3  C   UNL A   1      35.406  32.826  27.992  1.00  0.00     0.116 C 
BRANCH   3   4
ATOM      4  N   UNL A   1      34.574  31.639  27.921  1.00  0.00    -0.352 N 
ATOM      5  O   UNL A   1      34.066  29.453  27.746  1.00  0.00    -0.269 OA
ATOM      6  C   UNL A   1      34.920  30.310  27.952  1.00  0.00     0.251 C 
ATOM      7  H   UNL A   1      33.609  31.813  27.838  1.00  0.00     0.163 HD
BRANCH   6   8
ATOM      8  C   UNL A   1      36.316  29.896  28.208  1.00  0.00     0.039 A 
ATOM      9  C   UNL A   1      37.322  30.081  27.255  1.00  0.00     0.014 A 
ATOM     10  C   UNL A   1      36.636  29.365  29.461  1.00  0.00     0.014 A 
ATOM     11  C   UNL A   1      38.615  29.627  27.509  1.00  0.00     0.010 A 
ATOM     12  C   UNL A   1      37.951  28.984  29.746  1.00  0.00     0.010 A 
ATOM     13  C   UNL A   1      38.950  29.095  28.766  1.00  0.00    -0.014 A 
BRANCH  13  14
ATOM     14  C   UNL A   1      40.361  28.742  29.077  1.00  0.00     0.031 A 
ATOM     15  C   UNL A   1      41.264  29.701  29.799  1.00  0.00     0.074 A 
ATOM     16  C   UNL A   1      40.834  27.546  28.674  1.00  0.00     0.049 A 
ATOM     17  N   UNL A   1      42.532  29.572  30.106  1.00  0.00    -0.248 NA
ATOM     18  C   UNL A   1      40.672  30.977  30.227  1.00  0.00     0.031 C 
ATOM     19  C   UNL A   1      40.061  26.537  27.948  1.00  0.00     0.029 A 
ATOM     20  N   UNL A   1      42.076  26.977  28.808  1.00  0.00    -0.354 N 
ATOM     21  C   UNL A   1      42.892  30.751  30.746  1.00  0.00     0.074 A 
ATOM     22  C   UNL A   1      41.717  31.597  30.759  1.00  0.00     0.031 C 
ATOM     23  C   UNL A   1      40.834  25.466  27.723  1.00  0.00     0.029 A 
ATOM     24  C   UNL A   1      42.176  25.737  28.227  1.00  0.00     0.049 A 
ATOM     25  H   UNL A   1      42.822  27.416  29.277  1.00  0.00     0.167 HD
ATOM     26  C   UNL A   1      44.092  31.087  31.279  1.00  0.00     0.037 A 
ATOM     27  C   UNL A   1      43.235  24.920  28.084  1.00  0.00     0.037 A 
ATOM     28  C   UNL A   1      45.257  30.236  31.265  1.00  0.00     0.049 A 
ATOM     29  C   UNL A   1      44.566  25.343  28.639  1.00  0.00     0.074 A 
ATOM     30  C   UNL A   1      46.502  30.471  31.823  1.00  0.00     0.029 A 
ATOM     31  N   UNL A   1      45.324  28.995  30.648  1.00  0.00    -0.354 N 
ATOM     32  N   UNL A   1      44.879  26.434  29.295  1.00  0.00    -0.248 NA
ATOM     33  C   UNL A   1      45.691  24.421  28.435  1.00  0.00     0.031 C 
ATOM     34  C   UNL A   1      47.341  29.403  31.485  1.00  0.00     0.029 A 
ATOM     35  C   UNL A   1      46.601  28.470  30.779  1.00  0.00     0.049 A 
ATOM     36  H   UNL A   1      44.576  28.553  30.186  1.00  0.00     0.167 HD
ATOM     37  C   UNL A   1      46.228  26.320  29.602  1.00  0.00     0.074 A 
ATOM     38  C   UNL A   1      46.669  25.044  29.079  1.00  0.00     0.031 C 
ATOM     39  C   UNL A   1      47.029  27.196  30.256  1.00  0.00     0.037 A 
BRANCH  26  40
ATOM     40  C   UNL A   1      44.225  32.447  31.909  1.00  0.00     0.064 A 
ATOM     41  C   UNL A   1      44.548  33.585  31.154  1.00  0.00     0.173 A 
ATOM     42  C   UNL A   1      43.967  32.624  33.278  1.00  0.00     0.173 A 
ATOM     43  F   UNL A   1      44.809  33.473  29.843  1.00  0.00    -0.203 F 
ATOM     44  C   UNL A   1      44.632  34.841  31.749  1.00  0.00     0.198 A 
ATOM     45  C   UNL A   1      44.021  33.886  33.864  1.00  0.00     0.198 A 
ATOM     46  F   UNL A   1      43.644  31.573  34.046  1.00  0.00    -0.203 F 
ATOM     47  F   UNL A   1      44.985  35.906  31.016  1.00  0.00    -0.200 F 
ATOM     48  C   UNL A   1      44.361  34.993  33.101  1.00  0.00     0.200 A 
ATOM     49  F   UNL A   1      43.740  34.032  35.166  1.00  0.00    -0.200 F 
ATOM     50  F   UNL A   1      44.431  36.205  33.668  1.00  0.00    -0.200 F 
ENDBRANCH  26  40
BRANCH  27  51
ATOM     51  C   UNL A   1      43.081  23.627  27.366  1.00  0.00     0.064 A 
ATOM     52  C   UNL A   1      42.552  22.500  28.011  1.00  0.00     0.173 A 
ATOM     53  C   UNL A   1      43.463  23.489  26.023  1.00  0.00     0.173 A 
ATOM     54  F   UNL A   1      42.190  22.575  29.300  1.00  0.00    -0.203 F 
ATOM     55  C   UNL A   1      42.432  21.282  27.347  1.00  0.00     0.198 A 
ATOM     56  C   UNL A   1      43.310  22.280  25.349  1.00  0.00     0.198 A 
ATOM     57  F   UNL A   1      43.970  24.537  25.358  1.00  0.00    -0.203 F 
ATOM     58  F   UNL A   1      41.972  20.208  28.002  1.00  0.00    -0.200 F 
ATOM     59  C   UNL A   1      42.804  21.174  26.015  1.00  0.00     0.200 A 
ATOM     60  F   UNL A   1      43.652  22.187  24.057  1.00  0.00    -0.200 F 
ATOM     61  F   UNL A   1      42.684  20.003  25.375  1.00  0.00    -0.200 F 
ENDBRANCH  27  51
BRANCH  39  62
ATOM     62  C   UNL A   1      48.459  26.790  30.478  1.00  0.00     0.064 A 
ATOM     63  C   UNL A   1      48.845  26.023  31.587  1.00  0.00     0.173 A 
ATOM     64  C   UNL A   1      49.449  27.144  29.549  1.00  0.00     0.173 A 
ATOM     65  F   UNL A   1      47.941  25.673  32.516  1.00  0.00    -0.203 F 
ATOM     66  C   UNL A   1      50.174  25.647  31.770  1.00  0.00     0.198 A 
ATOM     67  C   UNL A   1      50.769  26.736  29.716  1.00  0.00     0.198 A 
ATOM     68  F   UNL A   1      49.132  27.874  28.468  1.00  0.00    -0.203 F 
ATOM     69  F   UNL A   1      50.529  24.957  32.863  1.00  0.00    -0.200 F 
ATOM     70  C   UNL A   1      51.132  25.995  30.829  1.00  0.00     0.200 A 
ATOM     71  F   UNL A   1      51.690  27.061  28.798  1.00  0.00    -0.200 F 
ATOM     72  F   UNL A   1      52.408  25.622  31.001  1.00  0.00    -0.200 F 
ENDBRANCH  39  62
ENDBRANCH  13  14
ENDBRANCH   6   8
ENDBRANCH   3   4
ENDBRANCH   2   3
ENDBRANCH   1   2
BRANCH   1  73
ATOM     73  C   UNL A   1      34.595  34.122  30.730  1.00  0.00     0.116 C 
BRANCH  73  74
ATOM     74  N   UNL A   1      34.654  32.775  31.262  1.00  0.00    -0.352 N 
ATOM     75  C   UNL A   1      35.726  32.079  31.750  1.00  0.00     0.252 C 
ATOM     76  H   UNL A   1      33.797  32.290  31.273  1.00  0.00     0.163 HD
ATOM     77  O   UNL A   1      35.609  30.876  31.989  1.00  0.00    -0.269 OA
BRANCH  75  78
ATOM     78  C   UNL A   1      37.063  32.689  31.879  1.00  0.00     0.052 A 
ATOM     79  C   UNL A   1      37.509  33.255  30.660  1.00  0.00     0.014 A 
ATOM     80  C   UNL A   1      37.865  32.782  33.026  1.00  0.00     0.052 A 
ATOM     81  C   UNL A   1      38.677  34.007  30.589  1.00  0.00     0.001 A 
ATOM     82  C   UNL A   1      39.027  33.588  32.933  1.00  0.00     0.014 A 
ATOM     83  C   UNL A   1      39.421  34.203  31.741  1.00  0.00     0.001 A 
BRANCH  80  84
ATOM     84  C   UNL A   1      37.622  32.243  34.400  1.00  0.00     0.256 C 
ATOM     85  O   UNL A   1      36.645  32.691  35.012  1.00  0.00    -0.269 OA
ATOM     86  N   UNL A   1      38.309  31.234  35.033  1.00  0.00    -0.322 N 
ATOM     87  H   UNL A   1      37.927  30.976  35.902  1.00  0.00     0.170 HD
BRANCH  86  88
ATOM     88  C   UNL A   1      39.443  30.509  34.676  1.00  0.00     0.041 A 
ATOM     89  C   UNL A   1      40.563  30.656  35.501  1.00  0.00     0.028 A 
ATOM     90  C   UNL A   1      39.470  29.612  33.618  1.00  0.00     0.028 A 
ATOM     91  C   UNL A   1      41.581  29.709  35.462  1.00  0.00     0.029 A 
ATOM     92  C   UNL A   1      40.566  28.755  33.485  1.00  0.00     0.029 A 
ATOM     93  C   UNL A   1      41.564  28.729  34.474  1.00  0.00     0.052 A 
BRANCH  93  94
ATOM     94  N   UNL A   1      42.417  27.616  34.550  1.00  0.00    -0.250 N 
ATOM     95  C   UNL A   1      43.702  27.601  34.005  1.00  0.00     0.237 C 
ATOM     96  C   UNL A   1      41.967  26.326  34.905  1.00  0.00     0.237 C 
ATOM     97  O   UNL A   1      44.466  28.520  33.764  1.00  0.00    -0.274 OA
ATOM     98  C   UNL A   1      43.868  26.181  33.608  1.00  0.00     0.095 C 
ATOM     99  C   UNL A   1      43.210  25.492  34.792  1.00  0.00     0.095 C 
ATOM    100  O   UNL A   1      40.886  25.952  35.327  1.00  0.00    -0.274 OA
ATOM    101  C   UNL A   1      45.064  25.276  33.318  1.00  0.00     0.002 C 
ATOM    102  C   UNL A   1      43.578  24.040  34.502  1.00  0.00     0.002 C 
ATOM    103  C   UNL A   1      44.530  24.297  32.250  1.00  0.00     0.005 C 
ATOM    104  C   UNL A   1      45.110  24.278  34.498  1.00  0.00     0.009 C 
ATOM    105  C   UNL A   1      43.381  23.587  33.026  1.00  0.00     0.005 C 
ENDBRANCH  93  94
ENDBRANCH  86  88
ENDBRANCH  80  84
ENDBRANCH  75  78
ENDBRANCH  73  74
ENDBRANCH   1  73
TORSDOF 14
ENDMDL
MODEL 3
REMARK VINA RESULT:     -13.5      3.477      7.246
REMARK SMILES O=C(NCCCCNC(=O)c1ccccc1C(=O)Nc1ccc(N2C(=O)[C@H]3[C@@H]4CC[C@@H](C4)[C@@H]3C2=O)cc1)c1ccc(-c2c3nc(c(-c4c(F)c(F)c(F)c(F)c4F)c4ccc([nH]4)c(-c4c(F)c(F)c(F)c(F)c4F)c4nc(c(-c5c(F)c(F)c(F)c(F)c5F)c5ccc2[nH]5)C=C4)C=C3)cc1
REMARK SMILES IDX 6 1 5 2 4 3 3 4 1 5 2 6 38 8 39 9 100 10 40 11 99 12 41 13
REMARK SMILES IDX 42 14 43 15 93 16 44 17 98 18 92 19 94 20 45 21 97 22 91 23
REMARK SMILES IDX 90 24 46 26 78 27 58 28 77 29 59 30 62 31 76 32 95 33 60 34
REMARK SMILES IDX 61 35 75 37 96 38 63 39 47 40 48 41 56 42 49 43 50 44 54 45
REMARK SMILES IDX 57 46 51 47 52 48 55 49 53 50 79 51 80 52 88 53 81 54 82 55
REMARK SMILES IDX 86 56 89 57 83 58 84 59 87 60 85 61 64 62 65 63 73 64 66 65
REMARK SMILES IDX 67 66 71 67 74 68 68 69 69 70 72 71 70 72 7 73 8 74 9 75
REMARK SMILES IDX 10 77 11 78 12 79 16 80 13 81 15 82 14 83 17 84 18 85 19 86
REMARK SMILES IDX 20 88 21 89 37 90 22 91 36 92 23 93 24 94 25 95 34 96 26 97
REMARK SMILES IDX 27 98 33 99 35 100 28 101 31 102 29 103 32 104 30 105
REMARK H PARENT 3 7 94 25 62 36 8 76 19 87
REMARK Flexibility Score: inf
ROOT
ATOM      1  C   UNL A   1      31.428  30.709  25.929  1.00  0.00     0.023 C 
ENDROOT
BRANCH   1   2
ATOM      2  C   UNL A   1      31.281  32.105  26.546  1.00  0.00     0.023 C 
BRANCH   2   3
ATOM      3  C   UNL A   1      32.556  32.669  27.169  1.00  0.00     0.116 C 
BRANCH   3   4
ATOM      4  N   UNL A   1      32.425  34.052  27.589  1.00  0.00    -0.352 N 
ATOM      5  O   UNL A   1      32.739  35.890  28.849  1.00  0.00    -0.269 OA
ATOM      6  C   UNL A   1      33.095  34.751  28.562  1.00  0.00     0.251 C 
ATOM      7  H   UNL A   1      31.749  34.572  27.097  1.00  0.00     0.163 HD
BRANCH   6   8
ATOM      8  C   UNL A   1      34.230  34.140  29.289  1.00  0.00     0.039 A 
ATOM      9  C   UNL A   1      34.028  33.261  30.356  1.00  0.00     0.014 A 
ATOM     10  C   UNL A   1      35.528  34.410  28.847  1.00  0.00     0.014 A 
ATOM     11  C   UNL A   1      35.121  32.749  31.053  1.00  0.00     0.010 A 
ATOM     12  C   UNL A   1      36.623  33.831  29.495  1.00  0.00     0.010 A 
ATOM     13  C   UNL A   1      36.431  33.010  30.617  1.00  0.00    -0.014 A 
BRANCH  13  14
ATOM     14  C   UNL A   1      37.586  32.348  31.280  1.00  0.00     0.031 A 
ATOM     15  C   UNL A   1      38.301  31.196  30.635  1.00  0.00     0.074 A 
ATOM     16  C   UNL A   1      37.971  32.783  32.496  1.00  0.00     0.049 A 
ATOM     17  N   UNL A   1      39.294  30.475  31.097  1.00  0.00    -0.248 NA
ATOM     18  C   UNL A   1      37.839  30.790  29.300  1.00  0.00     0.031 C 
ATOM     19  C   UNL A   1      37.344  33.881  33.234  1.00  0.00     0.029 A 
ATOM     20  N   UNL A   1      38.974  32.355  33.330  1.00  0.00    -0.354 N 
ATOM     21  C   UNL A   1      39.564  29.525  30.120  1.00  0.00     0.074 A 
ATOM     22  C   UNL A   1      38.611  29.741  29.051  1.00  0.00     0.031 C 
ATOM     23  C   UNL A   1      37.990  34.058  34.396  1.00  0.00     0.029 A 
ATOM     24  C   UNL A   1      39.031  33.044  34.517  1.00  0.00     0.049 A 
ATOM     25  H   UNL A   1      39.594  31.626  33.098  1.00  0.00     0.167 HD
ATOM     26  C   UNL A   1      40.524  28.568  30.117  1.00  0.00     0.037 A 
ATOM     27  C   UNL A   1      39.810  32.861  35.599  1.00  0.00     0.037 A 
ATOM     28  C   UNL A   1      41.471  28.362  31.186  1.00  0.00     0.049 A 
ATOM     29  C   UNL A   1      40.831  31.758  35.587  1.00  0.00     0.074 A 
ATOM     30  C   UNL A   1      42.511  27.450  31.252  1.00  0.00     0.029 A 
ATOM     31  N   UNL A   1      41.482  29.067  32.382  1.00  0.00    -0.354 N 
ATOM     32  N   UNL A   1      41.116  30.905  34.634  1.00  0.00    -0.248 NA
ATOM     33  C   UNL A   1      41.639  31.592  36.803  1.00  0.00     0.031 C 
ATOM     34  C   UNL A   1      43.107  27.557  32.513  1.00  0.00     0.029 A 
ATOM     35  C   UNL A   1      42.487  28.583  33.206  1.00  0.00     0.049 A 
ATOM     36  H   UNL A   1      40.868  29.801  32.611  1.00  0.00     0.167 HD
ATOM     37  C   UNL A   1      42.150  30.118  35.124  1.00  0.00     0.074 A 
ATOM     38  C   UNL A   1      42.455  30.609  36.451  1.00  0.00     0.031 C 
ATOM     39  C   UNL A   1      42.785  29.081  34.526  1.00  0.00     0.037 A 
BRANCH  26  40
ATOM     40  C   UNL A   1      40.594  27.645  28.932  1.00  0.00     0.064 A 
ATOM     41  C   UNL A   1      41.494  27.861  27.877  1.00  0.00     0.173 A 
ATOM     42  C   UNL A   1      39.790  26.495  28.878  1.00  0.00     0.173 A 
ATOM     43  F   UNL A   1      42.282  28.946  27.874  1.00  0.00    -0.203 F 
ATOM     44  C   UNL A   1      41.569  26.975  26.804  1.00  0.00     0.198 A 
ATOM     45  C   UNL A   1      39.889  25.595  27.820  1.00  0.00     0.198 A 
ATOM     46  F   UNL A   1      38.918  26.233  29.864  1.00  0.00    -0.203 F 
ATOM     47  F   UNL A   1      42.405  27.226  25.788  1.00  0.00    -0.200 F 
ATOM     48  C   UNL A   1      40.773  25.840  26.781  1.00  0.00     0.200 A 
ATOM     49  F   UNL A   1      39.132  24.488  27.809  1.00  0.00    -0.200 F 
ATOM     50  F   UNL A   1      40.855  24.983  25.753  1.00  0.00    -0.200 F 
ENDBRANCH  26  40
BRANCH  27  51
ATOM     51  C   UNL A   1      39.640  33.734  36.790  1.00  0.00     0.064 A 
ATOM     52  C   UNL A   1      38.804  33.356  37.850  1.00  0.00     0.173 A 
ATOM     53  C   UNL A   1      40.306  34.965  36.892  1.00  0.00     0.173 A 
ATOM     54  F   UNL A   1      38.131  32.198  37.792  1.00  0.00    -0.203 F 
ATOM     55  C   UNL A   1      38.623  34.186  38.954  1.00  0.00     0.198 A 
ATOM     56  C   UNL A   1      40.152  35.778  38.013  1.00  0.00     0.198 A 
ATOM     57  F   UNL A   1      41.121  35.372  35.909  1.00  0.00    -0.203 F 
ATOM     58  F   UNL A   1      37.778  33.825  39.929  1.00  0.00    -0.200 F 
ATOM     59  C   UNL A   1      39.303  35.392  39.038  1.00  0.00     0.200 A 
ATOM     60  F   UNL A   1      40.826  36.932  38.098  1.00  0.00    -0.200 F 
ATOM     61  F   UNL A   1      39.132  36.188  40.103  1.00  0.00    -0.200 F 
ENDBRANCH  27  51
BRANCH  39  62
ATOM     62  C   UNL A   1      43.903  28.426  35.288  1.00  0.00     0.064 A 
ATOM     63  C   UNL A   1      45.226  28.884  35.197  1.00  0.00     0.173 A 
ATOM     64  C   UNL A   1      43.640  27.349  36.149  1.00  0.00     0.173 A 
ATOM     65  F   UNL A   1      45.536  29.898  34.374  1.00  0.00    -0.203 F 
ATOM     66  C   UNL A   1      46.247  28.271  35.920  1.00  0.00     0.198 A 
ATOM     67  C   UNL A   1      44.656  26.763  36.897  1.00  0.00     0.198 A 
ATOM     68  F   UNL A   1      42.391  26.876  36.276  1.00  0.00    -0.203 F 
ATOM     69  F   UNL A   1      47.512  28.692  35.777  1.00  0.00    -0.200 F 
ATOM     70  C   UNL A   1      45.960  27.218  36.776  1.00  0.00     0.200 A 
ATOM     71  F   UNL A   1      44.373  25.756  37.735  1.00  0.00    -0.200 F 
ATOM     72  F   UNL A   1      46.942  26.638  37.480  1.00  0.00    -0.200 F 
ENDBRANCH  39  62
ENDBRANCH  13  14
ENDBRANCH   6   8
ENDBRANCH   3   4
ENDBRANCH   2   3
ENDBRANCH   1   2
BRANCH   1  73
ATOM     73  C   UNL A   1      32.534  29.852  26.544  1.00  0.00     0.116 C 
BRANCH  73  74
ATOM     74  N   UNL A   1      32.056  28.547  26.958  1.00  0.00    -0.352 N 
ATOM     75  C   UNL A   1      31.443  27.571  26.221  1.00  0.00     0.252 C 
ATOM     76  H   UNL A   1      32.193  28.333  27.910  1.00  0.00     0.163 HD
ATOM     77  O   UNL A   1      30.946  26.601  26.794  1.00  0.00    -0.269 OA
BRANCH  75  78
ATOM     78  C   UNL A   1      31.239  27.701  24.765  1.00  0.00     0.052 A 
ATOM     79  C   UNL A   1      29.874  27.883  24.434  1.00  0.00     0.014 A 
ATOM     80  C   UNL A   1      32.208  27.695  23.751  1.00  0.00     0.052 A 
ATOM     81  C   UNL A   1      29.472  28.171  23.133  1.00  0.00     0.001 A 
ATOM     82  C   UNL A   1      31.773  28.032  22.445  1.00  0.00     0.014 A 
ATOM     83  C   UNL A   1      30.431  28.280  22.141  1.00  0.00     0.001 A 
BRANCH  80  84
ATOM     84  C   UNL A   1      33.687  27.495  23.854  1.00  0.00     0.256 C 
ATOM     85  O   UNL A   1      34.404  28.472  23.607  1.00  0.00    -0.269 OA
ATOM     86  N   UNL A   1      34.347  26.367  24.282  1.00  0.00    -0.322 N 
ATOM     87  H   UNL A   1      35.322  26.479  24.356  1.00  0.00     0.170 HD
BRANCH  86  88
ATOM     88  C   UNL A   1      33.897  25.096  24.632  1.00  0.00     0.041 A 
ATOM     89  C   UNL A   1      33.390  24.307  23.594  1.00  0.00     0.028 A 
ATOM     90  C   UNL A   1      34.011  24.574  25.912  1.00  0.00     0.028 A 
ATOM     91  C   UNL A   1      33.283  22.930  23.760  1.00  0.00     0.029 A 
ATOM     92  C   UNL A   1      33.759  23.215  26.114  1.00  0.00     0.029 A 
ATOM     93  C   UNL A   1      33.506  22.375  25.016  1.00  0.00     0.052 A 
BRANCH  93  94
ATOM     94  N   UNL A   1      33.661  20.988  25.172  1.00  0.00    -0.250 N 
ATOM     95  C   UNL A   1      34.869  20.325  24.942  1.00  0.00     0.237 C 
ATOM     96  C   UNL A   1      32.570  20.098  25.278  1.00  0.00     0.237 C 
ATOM     97  O   UNL A   1      36.014  20.739  24.981  1.00  0.00    -0.274 OA
ATOM     98  C   UNL A   1      34.420  18.999  24.448  1.00  0.00     0.095 C 
ATOM     99  C   UNL A   1      33.237  18.756  25.369  1.00  0.00     0.095 C 
ATOM    100  O   UNL A   1      31.377  20.319  25.396  1.00  0.00    -0.274 OA
ATOM    101  C   UNL A   1      35.057  17.614  24.351  1.00  0.00     0.002 C 
ATOM    102  C   UNL A   1      32.914  17.305  25.024  1.00  0.00     0.002 C 
ATOM    103  C   UNL A   1      34.405  17.001  23.093  1.00  0.00     0.005 C 
ATOM    104  C   UNL A   1      34.314  16.754  25.400  1.00  0.00     0.009 C 
ATOM    105  C   UNL A   1      32.903  16.972  23.504  1.00  0.00     0.005 C 
ENDBRANCH  93  94
ENDBRANCH  86  88
ENDBRANCH  80  84
ENDBRANCH  75  78
ENDBRANCH  73  74
ENDBRANCH   1  73
TORSDOF 14
ENDMDL
