MODEL 1
REMARK VINA RESULT:     -13.0      0.000      0.000
REMARK SMILES Cc1ccc(C(F)(F)F)cc1/C=C/C(=O)NCCCCNC(=O)c1ccc(-c2c3nc(c(-c4c(F)c(F)c(F)c(F)c4F)c4ccc([nH]4)c(-c4c(F)c(F)c(F)c(F)c4F)c4nc(c(-c5c(F)c(F)c(F)c(F)c5F)c5ccc2[nH]5)C=C4)C=C3)cc1
REMARK SMILES IDX 18 1 17 2 16 3 14 4 15 5 13 7 12 8 11 9 1 10 2 11 3 12 4 13
REMARK SMILES IDX 10 14 5 15 6 16 7 17 8 18 9 19 19 20 20 21 21 22 22 23 23 25
REMARK SMILES IDX 24 26 25 27 86 28 26 29 85 30 27 31 28 32 29 33 79 34 30 35
REMARK SMILES IDX 84 36 78 37 80 38 31 39 83 40 77 41 76 42 32 44 64 45 44 46
REMARK SMILES IDX 63 47 45 48 48 49 62 50 81 51 46 52 47 53 61 55 82 56 49 57
REMARK SMILES IDX 33 58 34 59 42 60 35 61 36 62 40 63 43 64 37 65 38 66 41 67
REMARK SMILES IDX 39 68 65 69 66 70 74 71 67 72 68 73 72 74 75 75 69 76 70 77
REMARK SMILES IDX 73 78 71 79 50 80 51 81 59 82 52 83 53 84 57 85 60 86 54 87
REMARK SMILES IDX 55 88 58 89 56 90
REMARK H PARENT 16 6 21 24 80 43 48 54
REMARK Flexibility Score: inf
ROOT
ATOM      1  C   UNL A   1      32.159  30.666  26.723  1.00  0.00     0.023 C 
ENDROOT
BRANCH   1   2
ATOM      2  C   UNL A   1      31.727  29.577  25.731  1.00  0.00     0.116 C 
BRANCH   2   3
ATOM      3  N   UNL A   1      32.414  29.680  24.454  1.00  0.00    -0.353 N 
ATOM      4  C   UNL A   1      33.288  28.830  23.848  1.00  0.00     0.243 C 
ATOM      5  O   UNL A   1      33.639  29.042  22.690  1.00  0.00    -0.270 OA
ATOM      6  H   UNL A   1      32.216  30.498  23.944  1.00  0.00     0.163 HD
BRANCH   4   7
ATOM      7  C   UNL A   1      33.757  27.610  24.538  1.00  0.00     0.072 C 
ATOM      8  C   UNL A   1      33.129  26.428  24.450  1.00  0.00     0.014 C 
BRANCH   8   9
ATOM      9  C   UNL A   1      33.558  25.223  25.171  1.00  0.00    -0.022 A 
ATOM     10  C   UNL A   1      31.273  24.964  26.312  1.00  0.00     0.045 C 
ATOM     11  C   UNL A   1      32.700  24.550  26.062  1.00  0.00    -0.044 A 
ATOM     12  C   UNL A   1      33.194  23.458  26.793  1.00  0.00     0.004 A 
ATOM     13  C   UNL A   1      34.509  23.022  26.632  1.00  0.00     0.013 A 
ATOM     14  C   UNL A   1      34.882  24.775  25.018  1.00  0.00     0.021 A 
ATOM     15  C   UNL A   1      35.366  23.672  25.735  1.00  0.00     0.056 A 
BRANCH  15  16
ATOM     16  C   UNL A   1      36.790  23.202  25.576  1.00  0.00     0.416 C 
ATOM     17  F   UNL A   1      37.590  23.622  26.595  1.00  0.00    -0.166 F 
ATOM     18  F   UNL A   1      36.891  21.844  25.555  1.00  0.00    -0.166 F 
ATOM     19  F   UNL A   1      37.383  23.638  24.430  1.00  0.00    -0.166 F 
ENDBRANCH  15  16
ENDBRANCH   8   9
ENDBRANCH   4   7
ENDBRANCH   2   3
ENDBRANCH   1   2
BRANCH   1  20
ATOM     20  C   UNL A   1      33.340  30.281  27.621  1.00  0.00     0.023 C 
BRANCH  20  21
ATOM     21  C   UNL A   1      34.592  31.113  27.374  1.00  0.00     0.116 C 
BRANCH  21  22
ATOM     22  N   UNL A   1      35.155  31.736  28.565  1.00  0.00    -0.352 N 
ATOM     23  C   UNL A   1      36.052  31.228  29.494  1.00  0.00     0.251 C 
ATOM     24  H   UNL A   1      34.851  32.657  28.737  1.00  0.00     0.163 HD
ATOM     25  O   UNL A   1      36.336  31.873  30.485  1.00  0.00    -0.269 OA
BRANCH  23  26
ATOM     26  C   UNL A   1      36.780  29.964  29.196  1.00  0.00     0.039 A 
ATOM     27  C   UNL A   1      36.991  29.073  30.257  1.00  0.00     0.014 A 
ATOM     28  C   UNL A   1      37.445  29.781  27.990  1.00  0.00     0.014 A 
ATOM     29  C   UNL A   1      38.073  28.199  30.206  1.00  0.00     0.010 A 
ATOM     30  C   UNL A   1      38.585  29.003  27.980  1.00  0.00     0.010 A 
ATOM     31  C   UNL A   1      38.945  28.280  29.123  1.00  0.00    -0.014 A 
BRANCH  31  32
ATOM     32  C   UNL A   1      40.329  27.817  29.178  1.00  0.00     0.031 A 
ATOM     33  C   UNL A   1      40.709  26.479  28.683  1.00  0.00     0.074 A 
ATOM     34  C   UNL A   1      41.284  28.702  29.541  1.00  0.00     0.049 A 
ATOM     35  N   UNL A   1      41.817  25.881  28.969  1.00  0.00    -0.248 NA
ATOM     36  C   UNL A   1      39.827  25.675  27.850  1.00  0.00     0.031 C 
ATOM     37  C   UNL A   1      42.724  28.592  29.327  1.00  0.00     0.029 A 
ATOM     38  N   UNL A   1      41.141  29.837  30.361  1.00  0.00    -0.354 N 
ATOM     39  C   UNL A   1      41.932  24.782  28.144  1.00  0.00     0.074 A 
ATOM     40  C   UNL A   1      40.626  24.649  27.543  1.00  0.00     0.031 C 
ATOM     41  C   UNL A   1      43.355  29.397  30.196  1.00  0.00     0.029 A 
ATOM     42  C   UNL A   1      42.346  29.927  31.096  1.00  0.00     0.049 A 
ATOM     43  H   UNL A   1      40.366  30.440  30.413  1.00  0.00     0.167 HD
ATOM     44  C   UNL A   1      43.164  24.216  27.969  1.00  0.00     0.037 A 
ATOM     45  C   UNL A   1      42.364  29.781  32.452  1.00  0.00     0.037 A 
ATOM     46  C   UNL A   1      44.144  24.811  28.885  1.00  0.00     0.049 A 
ATOM     47  C   UNL A   1      43.223  28.638  32.940  1.00  0.00     0.074 A 
ATOM     48  C   UNL A   1      45.139  25.760  28.712  1.00  0.00     0.029 A 
ATOM     49  N   UNL A   1      43.985  24.656  30.258  1.00  0.00    -0.354 N 
ATOM     50  N   UNL A   1      43.620  27.656  32.182  1.00  0.00    -0.248 NA
ATOM     51  C   UNL A   1      43.663  28.488  34.326  1.00  0.00     0.031 C 
ATOM     52  C   UNL A   1      45.538  26.218  29.993  1.00  0.00     0.029 A 
ATOM     53  C   UNL A   1      44.800  25.535  30.944  1.00  0.00     0.049 A 
ATOM     54  H   UNL A   1      43.377  24.008  30.683  1.00  0.00     0.167 HD
ATOM     55  C   UNL A   1      44.314  26.746  32.936  1.00  0.00     0.074 A 
ATOM     56  C   UNL A   1      44.334  27.323  34.267  1.00  0.00     0.031 C 
ATOM     57  C   UNL A   1      44.794  25.587  32.399  1.00  0.00     0.037 A 
BRANCH  44  58
ATOM     58  C   UNL A   1      43.567  23.359  26.775  1.00  0.00     0.064 A 
ATOM     59  C   UNL A   1      43.167  22.003  26.695  1.00  0.00     0.173 A 
ATOM     60  C   UNL A   1      44.411  23.764  25.724  1.00  0.00     0.173 A 
ATOM     61  F   UNL A   1      42.258  21.489  27.533  1.00  0.00    -0.203 F 
ATOM     62  C   UNL A   1      43.680  21.113  25.743  1.00  0.00     0.198 A 
ATOM     63  C   UNL A   1      44.958  22.869  24.797  1.00  0.00     0.198 A 
ATOM     64  F   UNL A   1      44.689  25.050  25.500  1.00  0.00    -0.203 F 
ATOM     65  F   UNL A   1      43.277  19.835  25.742  1.00  0.00    -0.200 F 
ATOM     66  C   UNL A   1      44.607  21.538  24.818  1.00  0.00     0.200 A 
ATOM     67  F   UNL A   1      45.826  23.317  23.878  1.00  0.00    -0.200 F 
ATOM     68  F   UNL A   1      45.131  20.682  23.931  1.00  0.00    -0.200 F 
ENDBRANCH  44  58
BRANCH  45  69
ATOM     69  C   UNL A   1      41.117  30.247  33.111  1.00  0.00     0.064 A 
ATOM     70  C   UNL A   1      40.921  31.633  33.268  1.00  0.00     0.173 A 
ATOM     71  C   UNL A   1      39.997  29.417  33.235  1.00  0.00     0.173 A 
ATOM     72  F   UNL A   1      41.962  32.473  33.151  1.00  0.00    -0.203 F 
ATOM     73  C   UNL A   1      39.647  32.171  33.430  1.00  0.00     0.198 A 
ATOM     74  C   UNL A   1      38.722  29.960  33.406  1.00  0.00     0.198 A 
ATOM     75  F   UNL A   1      40.114  28.092  33.068  1.00  0.00    -0.203 F 
ATOM     76  F   UNL A   1      39.484  33.502  33.466  1.00  0.00    -0.200 F 
ATOM     77  C   UNL A   1      38.544  31.335  33.471  1.00  0.00     0.200 A 
ATOM     78  F   UNL A   1      37.650  29.155  33.409  1.00  0.00    -0.200 F 
ATOM     79  F   UNL A   1      37.310  31.853  33.529  1.00  0.00    -0.200 F 
ENDBRANCH  45  69
BRANCH  57  80
ATOM     80  C   UNL A   1      45.372  24.429  33.172  1.00  0.00     0.064 A 
ATOM     81  C   UNL A   1      46.671  24.414  33.703  1.00  0.00     0.173 A 
ATOM     82  C   UNL A   1      44.549  23.336  33.536  1.00  0.00     0.173 A 
ATOM     83  F   UNL A   1      47.509  25.443  33.523  1.00  0.00    -0.203 F 
ATOM     84  C   UNL A   1      47.133  23.357  34.494  1.00  0.00     0.198 A 
ATOM     85  C   UNL A   1      44.995  22.311  34.370  1.00  0.00     0.198 A 
ATOM     86  F   UNL A   1      43.280  23.244  33.111  1.00  0.00    -0.203 F 
ATOM     87  F   UNL A   1      48.394  23.370  34.947  1.00  0.00    -0.200 F 
ATOM     88  C   UNL A   1      46.293  22.314  34.837  1.00  0.00     0.200 A 
ATOM     89  F   UNL A   1      44.153  21.334  34.734  1.00  0.00    -0.200 F 
ATOM     90  F   UNL A   1      46.726  21.328  35.634  1.00  0.00    -0.200 F 
ENDBRANCH  57  80
ENDBRANCH  31  32
ENDBRANCH  23  26
ENDBRANCH  21  22
ENDBRANCH  20  21
ENDBRANCH   1  20
TORSDOF 13
ENDMDL
MODEL 2
REMARK VINA RESULT:     -12.7      4.200     10.288
REMARK SMILES Cc1ccc(C(F)(F)F)cc1/C=C/C(=O)NCCCCNC(=O)c1ccc(-c2c3nc(c(-c4c(F)c(F)c(F)c(F)c4F)c4ccc([nH]4)c(-c4c(F)c(F)c(F)c(F)c4F)c4nc(c(-c5c(F)c(F)c(F)c(F)c5F)c5ccc2[nH]5)C=C4)C=C3)cc1
REMARK SMILES IDX 18 1 17 2 16 3 14 4 15 5 13 7 12 8 11 9 1 10 2 11 3 12 4 13
REMARK SMILES IDX 10 14 5 15 6 16 7 17 8 18 9 19 19 20 20 21 21 22 22 23 23 25
REMARK SMILES IDX 24 26 25 27 86 28 26 29 85 30 27 31 28 32 29 33 79 34 30 35
REMARK SMILES IDX 84 36 78 37 80 38 31 39 83 40 77 41 76 42 32 44 64 45 44 46
REMARK SMILES IDX 63 47 45 48 48 49 62 50 81 51 46 52 47 53 61 55 82 56 49 57
REMARK SMILES IDX 33 58 34 59 42 60 35 61 36 62 40 63 43 64 37 65 38 66 41 67
REMARK SMILES IDX 39 68 65 69 66 70 74 71 67 72 68 73 72 74 75 75 69 76 70 77
REMARK SMILES IDX 73 78 71 79 50 80 51 81 59 82 52 83 53 84 57 85 60 86 54 87
REMARK SMILES IDX 55 88 58 89 56 90
REMARK H PARENT 16 6 21 24 80 43 48 54
REMARK Flexibility Score: inf
ROOT
ATOM      1  C   UNL A   1      37.560  22.348  25.461  1.00  0.00     0.023 C 
ENDROOT
BRANCH   1   2
ATOM      2  C   UNL A   1      36.434  21.374  25.083  1.00  0.00     0.116 C 
BRANCH   2   3
ATOM      3  N   UNL A   1      35.509  21.137  26.179  1.00  0.00    -0.353 N 
ATOM      4  C   UNL A   1      34.615  21.969  26.779  1.00  0.00     0.243 C 
ATOM      5  O   UNL A   1      33.818  21.516  27.598  1.00  0.00    -0.270 OA
ATOM      6  H   UNL A   1      35.535  20.224  26.549  1.00  0.00     0.163 HD
BRANCH   4   7
ATOM      7  C   UNL A   1      34.536  23.395  26.399  1.00  0.00     0.072 C 
ATOM      8  C   UNL A   1      33.644  23.872  25.519  1.00  0.00     0.014 C 
BRANCH   8   9
ATOM      9  C   UNL A   1      33.590  25.277  25.097  1.00  0.00    -0.022 A 
ATOM     10  C   UNL A   1      33.621  24.642  22.610  1.00  0.00     0.045 C 
ATOM     11  C   UNL A   1      33.604  25.642  23.737  1.00  0.00    -0.044 A 
ATOM     12  C   UNL A   1      33.644  27.003  23.394  1.00  0.00     0.004 A 
ATOM     13  C   UNL A   1      33.648  27.991  24.378  1.00  0.00     0.013 A 
ATOM     14  C   UNL A   1      33.595  26.283  26.081  1.00  0.00     0.021 A 
ATOM     15  C   UNL A   1      33.615  27.641  25.734  1.00  0.00     0.056 A 
BRANCH  15  16
ATOM     16  C   UNL A   1      33.632  28.715  26.792  1.00  0.00     0.416 C 
ATOM     17  F   UNL A   1      33.677  29.967  26.258  1.00  0.00    -0.166 F 
ATOM     18  F   UNL A   1      32.523  28.686  27.582  1.00  0.00    -0.166 F 
ATOM     19  F   UNL A   1      34.695  28.632  27.639  1.00  0.00    -0.166 F 
ENDBRANCH  15  16
ENDBRANCH   8   9
ENDBRANCH   4   7
ENDBRANCH   2   3
ENDBRANCH   1   2
BRANCH   1  20
ATOM     20  C   UNL A   1      38.905  21.682  25.769  1.00  0.00     0.023 C 
BRANCH  20  21
ATOM     21  C   UNL A   1      39.651  22.322  26.933  1.00  0.00     0.116 C 
BRANCH  21  22
ATOM     22  N   UNL A   1      41.003  22.767  26.619  1.00  0.00    -0.352 N 
ATOM     23  C   UNL A   1      41.493  24.050  26.419  1.00  0.00     0.251 C 
ATOM     24  H   UNL A   1      41.670  22.047  26.535  1.00  0.00     0.163 HD
ATOM     25  O   UNL A   1      42.646  24.216  26.070  1.00  0.00    -0.269 OA
BRANCH  23  26
ATOM     26  C   UNL A   1      40.651  25.222  26.784  1.00  0.00     0.039 A 
ATOM     27  C   UNL A   1      40.827  26.399  26.044  1.00  0.00     0.014 A 
ATOM     28  C   UNL A   1      39.908  25.241  27.957  1.00  0.00     0.014 A 
ATOM     29  C   UNL A   1      40.519  27.624  26.632  1.00  0.00     0.010 A 
ATOM     30  C   UNL A   1      39.709  26.451  28.590  1.00  0.00     0.010 A 
ATOM     31  C   UNL A   1      40.098  27.638  27.959  1.00  0.00    -0.014 A 
BRANCH  31  32
ATOM     32  C   UNL A   1      40.229  28.809  28.823  1.00  0.00     0.031 A 
ATOM     33  C   UNL A   1      39.155  29.819  28.912  1.00  0.00     0.074 A 
ATOM     34  C   UNL A   1      41.284  28.866  29.666  1.00  0.00     0.049 A 
ATOM     35  N   UNL A   1      39.308  31.007  29.393  1.00  0.00    -0.248 NA
ATOM     36  C   UNL A   1      37.812  29.577  28.407  1.00  0.00     0.031 C 
ATOM     37  C   UNL A   1      41.436  29.717  30.843  1.00  0.00     0.029 A 
ATOM     38  N   UNL A   1      42.545  28.260  29.511  1.00  0.00    -0.354 N 
ATOM     39  C   UNL A   1      38.057  31.569  29.541  1.00  0.00     0.074 A 
ATOM     40  C   UNL A   1      37.178  30.677  28.823  1.00  0.00     0.031 C 
ATOM     41  C   UNL A   1      42.742  29.823  31.136  1.00  0.00     0.029 A 
ATOM     42  C   UNL A   1      43.473  29.172  30.064  1.00  0.00     0.049 A 
ATOM     43  H   UNL A   1      42.740  27.386  29.104  1.00  0.00     0.167 HD
ATOM     44  C   UNL A   1      37.912  32.641  30.377  1.00  0.00     0.037 A 
ATOM     45  C   UNL A   1      44.419  29.780  29.292  1.00  0.00     0.037 A 
ATOM     46  C   UNL A   1      39.219  33.121  30.838  1.00  0.00     0.049 A 
ATOM     47  C   UNL A   1      44.334  31.288  29.281  1.00  0.00     0.074 A 
ATOM     48  C   UNL A   1      39.917  32.961  32.025  1.00  0.00     0.029 A 
ATOM     49  N   UNL A   1      40.126  33.638  29.917  1.00  0.00    -0.354 N 
ATOM     50  N   UNL A   1      43.277  31.956  29.650  1.00  0.00    -0.248 NA
ATOM     51  C   UNL A   1      45.410  32.159  28.813  1.00  0.00     0.031 C 
ATOM     52  C   UNL A   1      41.267  33.331  31.796  1.00  0.00     0.029 A 
ATOM     53  C   UNL A   1      41.385  33.733  30.477  1.00  0.00     0.049 A 
ATOM     54  H   UNL A   1      39.901  33.901  28.995  1.00  0.00     0.167 HD
ATOM     55  C   UNL A   1      43.490  33.295  29.451  1.00  0.00     0.074 A 
ATOM     56  C   UNL A   1      44.848  33.374  28.948  1.00  0.00     0.031 C 
ATOM     57  C   UNL A   1      42.517  34.219  29.702  1.00  0.00     0.037 A 
BRANCH  44  58
ATOM     58  C   UNL A   1      36.601  33.064  31.030  1.00  0.00     0.064 A 
ATOM     59  C   UNL A   1      35.631  33.786  30.295  1.00  0.00     0.173 A 
ATOM     60  C   UNL A   1      36.265  32.879  32.386  1.00  0.00     0.173 A 
ATOM     61  F   UNL A   1      35.723  33.934  28.968  1.00  0.00    -0.203 F 
ATOM     62  C   UNL A   1      34.514  34.385  30.892  1.00  0.00     0.198 A 
ATOM     63  C   UNL A   1      35.174  33.511  32.993  1.00  0.00     0.198 A 
ATOM     64  F   UNL A   1      36.931  32.027  33.166  1.00  0.00    -0.203 F 
ATOM     65  F   UNL A   1      33.648  35.077  30.138  1.00  0.00    -0.200 F 
ATOM     66  C   UNL A   1      34.308  34.280  32.250  1.00  0.00     0.200 A 
ATOM     67  F   UNL A   1      34.970  33.358  34.309  1.00  0.00    -0.200 F 
ATOM     68  F   UNL A   1      33.263  34.885  32.831  1.00  0.00    -0.200 F 
ENDBRANCH  44  58
BRANCH  45  69
ATOM     69  C   UNL A   1      44.868  28.947  28.146  1.00  0.00     0.064 A 
ATOM     70  C   UNL A   1      45.816  27.934  28.387  1.00  0.00     0.173 A 
ATOM     71  C   UNL A   1      44.134  28.877  26.956  1.00  0.00     0.173 A 
ATOM     72  F   UNL A   1      46.541  27.951  29.517  1.00  0.00    -0.203 F 
ATOM     73  C   UNL A   1      45.944  26.843  27.531  1.00  0.00     0.198 A 
ATOM     74  C   UNL A   1      44.272  27.786  26.096  1.00  0.00     0.198 A 
ATOM     75  F   UNL A   1      43.197  29.797  26.684  1.00  0.00    -0.203 F 
ATOM     76  F   UNL A   1      46.778  25.842  27.846  1.00  0.00    -0.200 F 
ATOM     77  C   UNL A   1      45.151  26.756  26.399  1.00  0.00     0.200 A 
ATOM     78  F   UNL A   1      43.478  27.682  25.020  1.00  0.00    -0.200 F 
ATOM     79  F   UNL A   1      45.202  25.664  25.625  1.00  0.00    -0.200 F 
ENDBRANCH  45  69
BRANCH  57  80
ATOM     80  C   UNL A   1      42.565  35.677  29.317  1.00  0.00     0.064 A 
ATOM     81  C   UNL A   1      43.333  36.639  29.990  1.00  0.00     0.173 A 
ATOM     82  C   UNL A   1      41.934  36.119  28.129  1.00  0.00     0.173 A 
ATOM     83  F   UNL A   1      44.066  36.317  31.064  1.00  0.00    -0.203 F 
ATOM     84  C   UNL A   1      43.420  37.960  29.541  1.00  0.00     0.198 A 
ATOM     85  C   UNL A   1      42.068  37.423  27.653  1.00  0.00     0.198 A 
ATOM     86  F   UNL A   1      41.189  35.290  27.382  1.00  0.00    -0.203 F 
ATOM     87  F   UNL A   1      44.136  38.852  30.240  1.00  0.00    -0.200 F 
ATOM     88  C   UNL A   1      42.799  38.348  28.369  1.00  0.00     0.200 A 
ATOM     89  F   UNL A   1      41.501  37.770  26.489  1.00  0.00    -0.200 F 
ATOM     90  F   UNL A   1      42.925  39.604  27.918  1.00  0.00    -0.200 F 
ENDBRANCH  57  80
ENDBRANCH  31  32
ENDBRANCH  23  26
ENDBRANCH  21  22
ENDBRANCH  20  21
ENDBRANCH   1  20
TORSDOF 13
ENDMDL
MODEL 3
REMARK VINA RESULT:     -12.5      4.349     10.382
REMARK SMILES Cc1ccc(C(F)(F)F)cc1/C=C/C(=O)NCCCCNC(=O)c1ccc(-c2c3nc(c(-c4c(F)c(F)c(F)c(F)c4F)c4ccc([nH]4)c(-c4c(F)c(F)c(F)c(F)c4F)c4nc(c(-c5c(F)c(F)c(F)c(F)c5F)c5ccc2[nH]5)C=C4)C=C3)cc1
REMARK SMILES IDX 18 1 17 2 16 3 14 4 15 5 13 7 12 8 11 9 1 10 2 11 3 12 4 13
REMARK SMILES IDX 10 14 5 15 6 16 7 17 8 18 9 19 19 20 20 21 21 22 22 23 23 25
REMARK SMILES IDX 24 26 25 27 86 28 26 29 85 30 27 31 28 32 29 33 79 34 30 35
REMARK SMILES IDX 84 36 78 37 80 38 31 39 83 40 77 41 76 42 32 44 64 45 44 46
REMARK SMILES IDX 63 47 45 48 48 49 62 50 81 51 46 52 47 53 61 55 82 56 49 57
REMARK SMILES IDX 33 58 34 59 42 60 35 61 36 62 40 63 43 64 37 65 38 66 41 67
REMARK SMILES IDX 39 68 65 69 66 70 74 71 67 72 68 73 72 74 75 75 69 76 70 77
REMARK SMILES IDX 73 78 71 79 50 80 51 81 59 82 52 83 53 84 57 85 60 86 54 87
REMARK SMILES IDX 55 88 58 89 56 90
REMARK H PARENT 16 6 21 24 80 43 48 54
REMARK Flexibility Score: inf
ROOT
ATOM      1  C   UNL A   1      40.621  20.849  26.259  1.00  0.00     0.023 C 
ENDROOT
BRANCH   1   2
ATOM      2  C   UNL A   1      39.174  20.912  25.747  1.00  0.00     0.116 C 
BRANCH   2   3
ATOM      3  N   UNL A   1      38.560  22.211  25.965  1.00  0.00    -0.353 N 
ATOM      4  C   UNL A   1      37.315  22.665  25.655  1.00  0.00     0.243 C 
ATOM      5  O   UNL A   1      36.947  23.763  26.067  1.00  0.00    -0.270 OA
ATOM      6  H   UNL A   1      39.140  22.872  26.408  1.00  0.00     0.163 HD
BRANCH   4   7
ATOM      7  C   UNL A   1      36.369  21.819  24.898  1.00  0.00     0.072 C 
ATOM      8  C   UNL A   1      35.256  21.298  25.436  1.00  0.00     0.014 C 
BRANCH   8   9
ATOM      9  C   UNL A   1      34.337  20.416  24.706  1.00  0.00    -0.022 A 
ATOM     10  C   UNL A   1      32.752  22.355  24.145  1.00  0.00     0.045 C 
ATOM     11  C   UNL A   1      33.152  20.904  24.122  1.00  0.00    -0.044 A 
ATOM     12  C   UNL A   1      32.265  19.998  23.517  1.00  0.00     0.004 A 
ATOM     13  C   UNL A   1      32.553  18.635  23.469  1.00  0.00     0.013 A 
ATOM     14  C   UNL A   1      34.616  19.039  24.652  1.00  0.00     0.021 A 
ATOM     15  C   UNL A   1      33.738  18.141  24.029  1.00  0.00     0.056 A 
BRANCH  15  16
ATOM     16  C   UNL A   1      34.036  16.663  23.983  1.00  0.00     0.416 C 
ATOM     17  F   UNL A   1      34.381  16.244  22.734  1.00  0.00    -0.166 F 
ATOM     18  F   UNL A   1      35.074  16.316  24.794  1.00  0.00    -0.166 F 
ATOM     19  F   UNL A   1      32.988  15.882  24.364  1.00  0.00    -0.166 F 
ENDBRANCH  15  16
ENDBRANCH   8   9
ENDBRANCH   4   7
ENDBRANCH   2   3
ENDBRANCH   1   2
BRANCH   1  20
ATOM     20  C   UNL A   1      40.788  21.186  27.745  1.00  0.00     0.023 C 
BRANCH  20  21
ATOM     21  C   UNL A   1      41.509  22.505  27.995  1.00  0.00     0.116 C 
BRANCH  21  22
ATOM     22  N   UNL A   1      42.283  22.999  26.863  1.00  0.00    -0.352 N 
ATOM     23  C   UNL A   1      42.109  24.145  26.100  1.00  0.00     0.251 C 
ATOM     24  H   UNL A   1      43.046  22.434  26.600  1.00  0.00     0.163 HD
ATOM     25  O   UNL A   1      42.810  24.343  25.126  1.00  0.00    -0.269 OA
BRANCH  23  26
ATOM     26  C   UNL A   1      41.170  25.202  26.567  1.00  0.00     0.039 A 
ATOM     27  C   UNL A   1      41.142  26.405  25.848  1.00  0.00     0.014 A 
ATOM     28  C   UNL A   1      40.536  25.112  27.800  1.00  0.00     0.014 A 
ATOM     29  C   UNL A   1      40.745  27.573  26.494  1.00  0.00     0.010 A 
ATOM     30  C   UNL A   1      40.253  26.279  28.480  1.00  0.00     0.010 A 
ATOM     31  C   UNL A   1      40.443  27.514  27.852  1.00  0.00    -0.014 A 
BRANCH  31  32
ATOM     32  C   UNL A   1      40.511  28.677  28.734  1.00  0.00     0.031 A 
ATOM     33  C   UNL A   1      39.415  29.666  28.783  1.00  0.00     0.074 A 
ATOM     34  C   UNL A   1      41.524  28.744  29.626  1.00  0.00     0.049 A 
ATOM     35  N   UNL A   1      39.522  30.851  29.283  1.00  0.00    -0.248 NA
ATOM     36  C   UNL A   1      38.102  29.404  28.213  1.00  0.00     0.031 C 
ATOM     37  C   UNL A   1      41.605  29.584  30.818  1.00  0.00     0.029 A 
ATOM     38  N   UNL A   1      42.802  28.163  29.524  1.00  0.00    -0.354 N 
ATOM     39  C   UNL A   1      38.256  31.387  29.378  1.00  0.00     0.074 A 
ATOM     40  C   UNL A   1      37.428  30.488  28.611  1.00  0.00     0.031 C 
ATOM     41  C   UNL A   1      42.893  29.711  31.173  1.00  0.00     0.029 A 
ATOM     42  C   UNL A   1      43.686  29.086  30.129  1.00  0.00     0.049 A 
ATOM     43  H   UNL A   1      43.033  27.298  29.116  1.00  0.00     0.167 HD
ATOM     44  C   UNL A   1      38.051  32.446  30.219  1.00  0.00     0.037 A 
ATOM     45  C   UNL A   1      44.655  29.721  29.409  1.00  0.00     0.037 A 
ATOM     46  C   UNL A   1      39.326  32.946  30.745  1.00  0.00     0.049 A 
ATOM     47  C   UNL A   1      44.541  31.227  29.410  1.00  0.00     0.074 A 
ATOM     48  C   UNL A   1      39.971  32.785  31.962  1.00  0.00     0.029 A 
ATOM     49  N   UNL A   1      40.264  33.490  29.874  1.00  0.00    -0.354 N 
ATOM     50  N   UNL A   1      43.457  31.871  29.736  1.00  0.00    -0.248 NA
ATOM     51  C   UNL A   1      45.621  32.123  29.003  1.00  0.00     0.031 C 
ATOM     52  C   UNL A   1      41.322  33.182  31.800  1.00  0.00     0.029 A 
ATOM     53  C   UNL A   1      41.494  33.602  30.493  1.00  0.00     0.049 A 
ATOM     54  H   UNL A   1      40.078  33.760  28.945  1.00  0.00     0.167 HD
ATOM     55  C   UNL A   1      43.652  33.216  29.562  1.00  0.00     0.074 A 
ATOM     56  C   UNL A   1      45.030  33.325  29.124  1.00  0.00     0.031 C 
ATOM     57  C   UNL A   1      42.651  34.119  29.777  1.00  0.00     0.037 A 
BRANCH  44  58
ATOM     58  C   UNL A   1      36.703  32.837  30.814  1.00  0.00     0.064 A 
ATOM     59  C   UNL A   1      35.753  33.548  30.042  1.00  0.00     0.173 A 
ATOM     60  C   UNL A   1      36.309  32.633  32.151  1.00  0.00     0.173 A 
ATOM     61  F   UNL A   1      35.904  33.711  28.722  1.00  0.00    -0.203 F 
ATOM     62  C   UNL A   1      34.599  34.119  30.592  1.00  0.00     0.198 A 
ATOM     63  C   UNL A   1      35.178  33.237  32.713  1.00  0.00     0.198 A 
ATOM     64  F   UNL A   1      36.955  31.786  32.954  1.00  0.00    -0.203 F 
ATOM     65  F   UNL A   1      33.755  34.802  29.805  1.00  0.00    -0.200 F 
ATOM     66  C   UNL A   1      34.332  33.997  31.937  1.00  0.00     0.200 A 
ATOM     67  F   UNL A   1      34.917  33.066  34.017  1.00  0.00    -0.200 F 
ATOM     68  F   UNL A   1      33.250  34.575  32.475  1.00  0.00    -0.200 F 
ENDBRANCH  44  58
BRANCH  45  69
ATOM     69  C   UNL A   1      45.173  28.909  28.276  1.00  0.00     0.064 A 
ATOM     70  C   UNL A   1      46.154  27.936  28.545  1.00  0.00     0.173 A 
ATOM     71  C   UNL A   1      44.479  28.813  27.064  1.00  0.00     0.173 A 
ATOM     72  F   UNL A   1      46.842  27.979  29.697  1.00  0.00    -0.203 F 
ATOM     73  C   UNL A   1      46.353  26.853  27.692  1.00  0.00     0.198 A 
ATOM     74  C   UNL A   1      44.688  27.731  26.207  1.00  0.00     0.198 A 
ATOM     75  F   UNL A   1      43.514  29.694  26.764  1.00  0.00    -0.203 F 
ATOM     76  F   UNL A   1      47.217  25.886  28.032  1.00  0.00    -0.200 F 
ATOM     77  C   UNL A   1      45.599  26.737  26.536  1.00  0.00     0.200 A 
ATOM     78  F   UNL A   1      43.933  27.597  25.107  1.00  0.00    -0.200 F 
ATOM     79  F   UNL A   1      45.719  25.649  25.763  1.00  0.00    -0.200 F 
ENDBRANCH  45  69
BRANCH  57  80
ATOM     80  C   UNL A   1      42.689  35.581  29.410  1.00  0.00     0.064 A 
ATOM     81  C   UNL A   1      43.365  36.558  30.158  1.00  0.00     0.173 A 
ATOM     82  C   UNL A   1      42.153  36.018  28.175  1.00  0.00     0.173 A 
ATOM     83  F   UNL A   1      44.010  36.245  31.290  1.00  0.00    -0.203 F 
ATOM     84  C   UNL A   1      43.452  37.886  29.730  1.00  0.00     0.198 A 
ATOM     85  C   UNL A   1      42.289  37.331  27.725  1.00  0.00     0.198 A 
ATOM     86  F   UNL A   1      41.502  35.176  27.358  1.00  0.00    -0.203 F 
ATOM     87  F   UNL A   1      44.076  38.790  30.497  1.00  0.00    -0.200 F 
ATOM     88  C   UNL A   1      42.926  38.268  28.510  1.00  0.00     0.200 A 
ATOM     89  F   UNL A   1      41.817  37.674  26.518  1.00  0.00    -0.200 F 
ATOM     90  F   UNL A   1      43.053  39.533  28.083  1.00  0.00    -0.200 F 
ENDBRANCH  57  80
ENDBRANCH  31  32
ENDBRANCH  23  26
ENDBRANCH  21  22
ENDBRANCH  20  21
ENDBRANCH   1  20
TORSDOF 13
ENDMDL
