MODEL 1
REMARK VINA RESULT:     -12.5      0.000      0.000
REMARK SMILES CC(=O)Nc1cccc(NC(=O)N[C@H](C(=O)NCCCCNC(=O)c2ccc(-c3c4nc(c(-c5c(F)c(F)c(F)c(F)c5F)c5ccc([nH]5)c(-c5c(F)c(F)c(F)c(F)c5F)c5nc(c(-c6c(F)c(F)c(F)c(F)c6F)c6ccc3[nH]6)C=C5)C=C4)cc2)C(C)C)c1
REMARK SMILES IDX 19 1 18 2 17 3 15 4 16 5 14 7 13 8 10 9 11 10 12 12 9 14
REMARK SMILES IDX 5 15 6 16 91 17 7 18 8 19 4 20 1 21 2 22 3 23 88 25 89 26
REMARK SMILES IDX 90 27 20 28 21 29 22 30 23 31 24 33 25 34 26 35 87 36 27 37
REMARK SMILES IDX 86 38 28 39 29 40 30 41 80 42 31 43 85 44 79 45 81 46 32 47
REMARK SMILES IDX 84 48 78 49 77 50 33 52 65 53 45 54 64 55 46 56 49 57 63 58
REMARK SMILES IDX 82 59 47 60 48 61 62 63 83 64 50 65 34 66 35 67 43 68 36 69
REMARK SMILES IDX 37 70 41 71 44 72 38 73 39 74 42 75 40 76 66 77 67 78 75 79
REMARK SMILES IDX 68 80 69 81 73 82 76 83 70 84 71 85 74 86 72 87 51 88 52 89
REMARK SMILES IDX 60 90 53 91 54 92 58 93 61 94 55 95 56 96 59 97 57 98
REMARK H PARENT 17 6 10 11 13 13 4 24 22 32 81 51 49 62
REMARK Flexibility Score: inf
ROOT
ATOM      1  C   UNL A   1      31.786  30.566  25.945  1.00  0.00     0.023 C 
ENDROOT
BRANCH   1   2
ATOM      2  C   UNL A   1      31.766  29.333  26.846  1.00  0.00     0.116 C 
BRANCH   2   3
ATOM      3  N   UNL A   1      33.024  28.607  26.888  1.00  0.00    -0.354 N 
ATOM      4  C   UNL A   1      33.464  27.564  26.103  1.00  0.00     0.242 C 
ATOM      5  O   UNL A   1      34.579  27.117  26.389  1.00  0.00    -0.273 OA
ATOM      6  H   UNL A   1      33.656  28.904  27.582  1.00  0.00     0.163 HD
BRANCH   4   7
ATOM      7  C   UNL A   1      32.538  26.890  25.024  1.00  0.00     0.175 C 
BRANCH   7   8
ATOM      8  N   UNL A   1      33.153  26.682  23.699  1.00  0.00    -0.326 N 
ATOM      9  N   UNL A   1      32.041  27.879  21.943  1.00  0.00    -0.308 N 
ATOM     10  C   UNL A   1      32.986  27.067  22.433  1.00  0.00     0.319 C 
ATOM     11  H   UNL A   1      32.279  28.213  21.047  1.00  0.00     0.171 HD
ATOM     12  O   UNL A   1      33.853  26.673  21.643  1.00  0.00    -0.248 OA
ATOM     13  H   UNL A   1      33.920  26.071  23.772  1.00  0.00     0.166 HD
BRANCH   9  14
ATOM     14  C   UNL A   1      30.807  28.378  22.368  1.00  0.00     0.044 A 
ATOM     15  C   UNL A   1      29.472  30.296  22.984  1.00  0.00     0.043 A 
ATOM     16  C   UNL A   1      28.474  29.473  23.494  1.00  0.00     0.026 A 
ATOM     17  C   UNL A   1      30.651  29.761  22.454  1.00  0.00     0.052 A 
ATOM     18  C   UNL A   1      28.571  28.109  23.274  1.00  0.00     0.004 A 
ATOM     19  C   UNL A   1      29.706  27.587  22.649  1.00  0.00     0.026 A 
BRANCH  15  20
ATOM     20  N   UNL A   1      29.205  31.661  22.869  1.00  0.00    -0.326 N 
ATOM     21  C   UNL A   1      28.009  31.273  20.729  1.00  0.00     0.114 C 
ATOM     22  C   UNL A   1      28.441  32.190  21.854  1.00  0.00     0.221 C 
ATOM     23  O   UNL A   1      28.083  33.366  21.900  1.00  0.00    -0.275 OA
ATOM     24  H   UNL A   1      29.579  32.273  23.543  1.00  0.00     0.169 HD
ENDBRANCH  15  20
ENDBRANCH   9  14
ENDBRANCH   7   8
BRANCH   7  25
ATOM     25  C   UNL A   1      31.613  25.693  25.404  1.00  0.00     0.015 C 
ATOM     26  C   UNL A   1      32.178  24.659  26.377  1.00  0.00     0.010 C 
ATOM     27  C   UNL A   1      30.283  26.218  25.975  1.00  0.00     0.010 C 
ENDBRANCH   7  25
ENDBRANCH   4   7
ENDBRANCH   2   3
ENDBRANCH   1   2
BRANCH   1  28
ATOM     28  C   UNL A   1      31.458  31.892  26.637  1.00  0.00     0.023 C 
BRANCH  28  29
ATOM     29  C   UNL A   1      32.641  32.615  27.287  1.00  0.00     0.116 C 
BRANCH  29  30
ATOM     30  N   UNL A   1      32.365  34.010  27.610  1.00  0.00    -0.352 N 
ATOM     31  C   UNL A   1      32.953  34.853  28.525  1.00  0.00     0.251 C 
ATOM     32  H   UNL A   1      31.635  34.416  27.087  1.00  0.00     0.163 HD
ATOM     33  O   UNL A   1      32.472  35.962  28.739  1.00  0.00    -0.269 OA
BRANCH  31  34
ATOM     34  C   UNL A   1      34.151  34.423  29.277  1.00  0.00     0.039 A 
ATOM     35  C   UNL A   1      33.992  33.843  30.540  1.00  0.00     0.014 A 
ATOM     36  C   UNL A   1      35.430  34.600  28.747  1.00  0.00     0.014 A 
ATOM     37  C   UNL A   1      35.106  33.352  31.226  1.00  0.00     0.010 A 
ATOM     38  C   UNL A   1      36.528  34.042  29.394  1.00  0.00     0.010 A 
ATOM     39  C   UNL A   1      36.379  33.403  30.636  1.00  0.00    -0.014 A 
BRANCH  39  40
ATOM     40  C   UNL A   1      37.575  32.799  31.281  1.00  0.00     0.031 A 
ATOM     41  C   UNL A   1      38.285  31.653  30.615  1.00  0.00     0.074 A 
ATOM     42  C   UNL A   1      37.956  33.204  32.509  1.00  0.00     0.049 A 
ATOM     43  N   UNL A   1      39.225  30.872  31.084  1.00  0.00    -0.248 NA
ATOM     44  C   UNL A   1      37.853  31.322  29.249  1.00  0.00     0.031 C 
ATOM     45  C   UNL A   1      37.334  34.284  33.276  1.00  0.00     0.029 A 
ATOM     46  N   UNL A   1      38.944  32.735  33.340  1.00  0.00    -0.354 N 
ATOM     47  C   UNL A   1      39.475  29.942  30.084  1.00  0.00     0.074 A 
ATOM     48  C   UNL A   1      38.556  30.226  29.002  1.00  0.00     0.031 C 
ATOM     49  C   UNL A   1      37.959  34.402  34.458  1.00  0.00     0.029 A 
ATOM     50  C   UNL A   1      38.993  33.374  34.555  1.00  0.00     0.049 A 
ATOM     51  H   UNL A   1      39.559  32.008  33.089  1.00  0.00     0.167 HD
ATOM     52  C   UNL A   1      40.398  28.951  30.062  1.00  0.00     0.037 A 
ATOM     53  C   UNL A   1      39.769  33.146  35.632  1.00  0.00     0.037 A 
ATOM     54  C   UNL A   1      41.331  28.692  31.126  1.00  0.00     0.049 A 
ATOM     55  C   UNL A   1      40.780  32.032  35.588  1.00  0.00     0.074 A 
ATOM     56  C   UNL A   1      42.340  27.745  31.179  1.00  0.00     0.029 A 
ATOM     57  N   UNL A   1      41.372  29.387  32.327  1.00  0.00    -0.354 N 
ATOM     58  N   UNL A   1      41.039  31.186  34.620  1.00  0.00    -0.248 NA
ATOM     59  C   UNL A   1      41.610  31.840  36.787  1.00  0.00     0.031 C 
ATOM     60  C   UNL A   1      42.963  27.839  32.428  1.00  0.00     0.029 A 
ATOM     61  C   UNL A   1      42.379  28.880  33.132  1.00  0.00     0.049 A 
ATOM     62  H   UNL A   1      40.774  30.130  32.570  1.00  0.00     0.167 HD
ATOM     63  C   UNL A   1      42.083  30.393  35.074  1.00  0.00     0.074 A 
ATOM     64  C   UNL A   1      42.414  30.857  36.405  1.00  0.00     0.031 C 
ATOM     65  C   UNL A   1      42.715  29.373  34.443  1.00  0.00     0.037 A 
BRANCH  52  66
ATOM     66  C   UNL A   1      40.444  28.072  28.846  1.00  0.00     0.064 A 
ATOM     67  C   UNL A   1      41.206  28.413  27.718  1.00  0.00     0.173 A 
ATOM     68  C   UNL A   1      39.742  26.856  28.819  1.00  0.00     0.173 A 
ATOM     69  F   UNL A   1      41.888  29.567  27.689  1.00  0.00    -0.203 F 
ATOM     70  C   UNL A   1      41.235  27.589  26.597  1.00  0.00     0.198 A 
ATOM     71  C   UNL A   1      39.799  26.019  27.708  1.00  0.00     0.198 A 
ATOM     72  F   UNL A   1      39.004  26.478  29.874  1.00  0.00    -0.203 F 
ATOM     73  F   UNL A   1      41.925  27.964  25.511  1.00  0.00    -0.200 F 
ATOM     74  C   UNL A   1      40.538  26.390  26.595  1.00  0.00     0.200 A 
ATOM     75  F   UNL A   1      39.137  24.853  27.713  1.00  0.00    -0.200 F 
ATOM     76  F   UNL A   1      40.572  25.595  25.516  1.00  0.00    -0.200 F 
ENDBRANCH  52  66
BRANCH  53  77
ATOM     77  C   UNL A   1      39.636  34.002  36.841  1.00  0.00     0.064 A 
ATOM     78  C   UNL A   1      40.330  35.216  36.940  1.00  0.00     0.173 A 
ATOM     79  C   UNL A   1      38.829  33.623  37.924  1.00  0.00     0.173 A 
ATOM     80  F   UNL A   1      41.133  35.610  35.941  1.00  0.00    -0.203 F 
ATOM     81  C   UNL A   1      40.238  36.008  38.083  1.00  0.00     0.198 A 
ATOM     82  C   UNL A   1      38.714  34.430  39.054  1.00  0.00     0.198 A 
ATOM     83  F   UNL A   1      38.140  32.473  37.878  1.00  0.00    -0.203 F 
ATOM     84  F   UNL A   1      40.950  37.140  38.169  1.00  0.00    -0.200 F 
ATOM     85  C   UNL A   1      39.426  35.617  39.136  1.00  0.00     0.200 A 
ATOM     86  F   UNL A   1      37.918  34.056  40.064  1.00  0.00    -0.200 F 
ATOM     87  F   UNL A   1      39.336  36.380  40.234  1.00  0.00    -0.200 F 
ENDBRANCH  53  77
BRANCH  65  88
ATOM     88  C   UNL A   1      43.870  28.726  35.150  1.00  0.00     0.064 A 
ATOM     89  C   UNL A   1      43.694  27.636  36.013  1.00  0.00     0.173 A 
ATOM     90  C   UNL A   1      45.180  29.166  34.905  1.00  0.00     0.173 A 
ATOM     91  F   UNL A   1      42.461  27.186  36.292  1.00  0.00    -0.203 F 
ATOM     92  C   UNL A   1      44.787  27.020  36.618  1.00  0.00     0.198 A 
ATOM     93  C   UNL A   1      46.272  28.530  35.488  1.00  0.00     0.198 A 
ATOM     94  F   UNL A   1      45.402  30.202  34.081  1.00  0.00    -0.203 F 
ATOM     95  F   UNL A   1      44.595  26.003  37.469  1.00  0.00    -0.200 F 
ATOM     96  C   UNL A   1      46.074  27.460  36.347  1.00  0.00     0.200 A 
ATOM     97  F   UNL A   1      47.515  28.950  35.213  1.00  0.00    -0.200 F 
ATOM     98  F   UNL A   1      47.126  26.857  36.919  1.00  0.00    -0.200 F 
ENDBRANCH  65  88
ENDBRANCH  39  40
ENDBRANCH  31  34
ENDBRANCH  29  30
ENDBRANCH  28  29
ENDBRANCH   1  28
TORSDOF 15
ENDMDL
MODEL 2
REMARK VINA RESULT:     -12.3      3.913      7.977
REMARK SMILES CC(=O)Nc1cccc(NC(=O)N[C@H](C(=O)NCCCCNC(=O)c2ccc(-c3c4nc(c(-c5c(F)c(F)c(F)c(F)c5F)c5ccc([nH]5)c(-c5c(F)c(F)c(F)c(F)c5F)c5nc(c(-c6c(F)c(F)c(F)c(F)c6F)c6ccc3[nH]6)C=C5)C=C4)cc2)C(C)C)c1
REMARK SMILES IDX 19 1 18 2 17 3 15 4 16 5 14 7 13 8 10 9 11 10 12 12 9 14
REMARK SMILES IDX 5 15 6 16 91 17 7 18 8 19 4 20 1 21 2 22 3 23 88 25 89 26
REMARK SMILES IDX 90 27 20 28 21 29 22 30 23 31 24 33 25 34 26 35 87 36 27 37
REMARK SMILES IDX 86 38 28 39 29 40 30 41 80 42 31 43 85 44 79 45 81 46 32 47
REMARK SMILES IDX 84 48 78 49 77 50 33 52 65 53 45 54 64 55 46 56 49 57 63 58
REMARK SMILES IDX 82 59 47 60 48 61 62 63 83 64 50 65 34 66 35 67 43 68 36 69
REMARK SMILES IDX 37 70 41 71 44 72 38 73 39 74 42 75 40 76 66 77 67 78 75 79
REMARK SMILES IDX 68 80 69 81 73 82 76 83 70 84 71 85 74 86 72 87 51 88 52 89
REMARK SMILES IDX 60 90 53 91 54 92 58 93 61 94 55 95 56 96 59 97 57 98
REMARK H PARENT 17 6 10 11 13 13 4 24 22 32 81 51 49 62
REMARK Flexibility Score: inf
ROOT
ATOM      1  C   UNL A   1      35.462  22.952  23.209  1.00  0.00     0.023 C 
ENDROOT
BRANCH   1   2
ATOM      2  C   UNL A   1      34.364  23.901  23.685  1.00  0.00     0.116 C 
BRANCH   2   3
ATOM      3  N   UNL A   1      33.021  23.488  23.319  1.00  0.00    -0.354 N 
ATOM      4  C   UNL A   1      32.051  22.871  24.078  1.00  0.00     0.242 C 
ATOM      5  O   UNL A   1      31.000  22.607  23.487  1.00  0.00    -0.273 OA
ATOM      6  H   UNL A   1      32.765  23.676  22.387  1.00  0.00     0.163 HD
BRANCH   4   7
ATOM      7  C   UNL A   1      32.331  22.394  25.552  1.00  0.00     0.175 C 
BRANCH   7   8
ATOM      8  N   UNL A   1      31.194  22.513  26.485  1.00  0.00    -0.326 N 
ATOM      9  N   UNL A   1      30.109  24.650  26.388  1.00  0.00    -0.308 N 
ATOM     10  C   UNL A   1      30.270  23.402  26.848  1.00  0.00     0.319 C 
ATOM     11  H   UNL A   1      29.219  25.007  26.613  1.00  0.00     0.171 HD
ATOM     12  O   UNL A   1      29.428  22.990  27.657  1.00  0.00    -0.248 OA
ATOM     13  H   UNL A   1      31.085  21.679  26.997  1.00  0.00     0.166 HD
BRANCH   9  14
ATOM     14  C   UNL A   1      30.872  25.576  25.671  1.00  0.00     0.044 A 
ATOM     15  C   UNL A   1      31.158  26.873  23.653  1.00  0.00     0.043 A 
ATOM     16  C   UNL A   1      32.459  27.204  24.016  1.00  0.00     0.026 A 
ATOM     17  C   UNL A   1      30.374  26.035  24.453  1.00  0.00     0.052 A 
ATOM     18  C   UNL A   1      32.892  26.867  25.289  1.00  0.00     0.004 A 
ATOM     19  C   UNL A   1      32.062  26.117  26.126  1.00  0.00     0.026 A 
BRANCH  15  20
ATOM     20  N   UNL A   1      30.597  27.521  22.551  1.00  0.00    -0.326 N 
ATOM     21  C   UNL A   1      30.198  29.554  23.917  1.00  0.00     0.114 C 
ATOM     22  C   UNL A   1      30.188  28.835  22.585  1.00  0.00     0.221 C 
ATOM     23  O   UNL A   1      29.874  29.409  21.544  1.00  0.00    -0.275 OA
ATOM     24  H   UNL A   1      30.490  27.016  21.712  1.00  0.00     0.169 HD
ENDBRANCH  15  20
ENDBRANCH   9  14
ENDBRANCH   7   8
BRANCH   7  25
ATOM     25  C   UNL A   1      33.145  21.093  25.827  1.00  0.00     0.015 C 
ATOM     26  C   UNL A   1      33.476  20.213  24.623  1.00  0.00     0.010 C 
ATOM     27  C   UNL A   1      34.461  21.441  26.548  1.00  0.00     0.010 C 
ENDBRANCH   7  25
ENDBRANCH   4   7
ENDBRANCH   2   3
ENDBRANCH   1   2
BRANCH   1  28
ATOM     28  C   UNL A   1      36.890  23.352  23.593  1.00  0.00     0.023 C 
BRANCH  28  29
ATOM     29  C   UNL A   1      37.163  23.492  25.093  1.00  0.00     0.116 C 
BRANCH  29  30
ATOM     30  N   UNL A   1      38.209  22.601  25.580  1.00  0.00    -0.352 N 
ATOM     31  C   UNL A   1      39.339  22.865  26.320  1.00  0.00     0.251 C 
ATOM     32  H   UNL A   1      38.087  21.654  25.339  1.00  0.00     0.163 HD
ATOM     33  O   UNL A   1      40.172  21.982  26.508  1.00  0.00    -0.269 OA
BRANCH  31  34
ATOM     34  C   UNL A   1      39.575  24.215  26.872  1.00  0.00     0.039 A 
ATOM     35  C   UNL A   1      39.161  24.499  28.179  1.00  0.00     0.014 A 
ATOM     36  C   UNL A   1      40.191  25.205  26.106  1.00  0.00     0.014 A 
ATOM     37  C   UNL A   1      39.455  25.742  28.747  1.00  0.00     0.010 A 
ATOM     38  C   UNL A   1      40.551  26.412  26.697  1.00  0.00     0.010 A 
ATOM     39  C   UNL A   1      40.196  26.691  28.027  1.00  0.00    -0.014 A 
BRANCH  39  40
ATOM     40  C   UNL A   1      40.622  27.984  28.627  1.00  0.00     0.031 A 
ATOM     41  C   UNL A   1      42.035  28.152  29.113  1.00  0.00     0.074 A 
ATOM     42  C   UNL A   1      39.718  28.962  28.835  1.00  0.00     0.049 A 
ATOM     43  N   UNL A   1      42.561  29.118  29.824  1.00  0.00    -0.248 NA
ATOM     44  C   UNL A   1      42.974  27.069  28.784  1.00  0.00     0.031 C 
ATOM     45  C   UNL A   1      38.311  28.912  28.439  1.00  0.00     0.029 A 
ATOM     46  N   UNL A   1      39.845  30.179  29.457  1.00  0.00    -0.354 N 
ATOM     47  C   UNL A   1      43.879  28.745  30.049  1.00  0.00     0.074 A 
ATOM     48  C   UNL A   1      44.061  27.444  29.442  1.00  0.00     0.031 C 
ATOM     49  C   UNL A   1      37.707  30.050  28.817  1.00  0.00     0.029 A 
ATOM     50  C   UNL A   1      38.670  30.888  29.527  1.00  0.00     0.049 A 
ATOM     51  H   UNL A   1      40.697  30.513  29.820  1.00  0.00     0.167 HD
ATOM     52  C   UNL A   1      44.854  29.432  30.689  1.00  0.00     0.037 A 
ATOM     53  C   UNL A   1      38.394  32.069  30.113  1.00  0.00     0.037 A 
ATOM     54  C   UNL A   1      44.678  30.740  31.264  1.00  0.00     0.049 A 
ATOM     55  C   UNL A   1      39.493  32.809  30.828  1.00  0.00     0.074 A 
ATOM     56  C   UNL A   1      45.617  31.542  31.889  1.00  0.00     0.029 A 
ATOM     57  N   UNL A   1      43.481  31.440  31.281  1.00  0.00    -0.354 N 
ATOM     58  N   UNL A   1      40.747  32.468  30.998  1.00  0.00    -0.248 NA
ATOM     59  C   UNL A   1      39.138  34.101  31.435  1.00  0.00     0.031 C 
ATOM     60  C   UNL A   1      44.978  32.708  32.321  1.00  0.00     0.029 A 
ATOM     61  C   UNL A   1      43.654  32.658  31.919  1.00  0.00     0.049 A 
ATOM     62  H   UNL A   1      42.633  31.118  30.897  1.00  0.00     0.167 HD
ATOM     63  C   UNL A   1      41.339  33.516  31.690  1.00  0.00     0.074 A 
ATOM     64  C   UNL A   1      40.307  34.508  31.910  1.00  0.00     0.031 C 
ATOM     65  C   UNL A   1      42.623  33.647  32.103  1.00  0.00     0.037 A 
BRANCH  52  66
ATOM     66  C   UNL A   1      46.203  28.781  30.803  1.00  0.00     0.064 A 
ATOM     67  C   UNL A   1      46.538  27.967  31.896  1.00  0.00     0.173 A 
ATOM     68  C   UNL A   1      47.162  28.948  29.792  1.00  0.00     0.173 A 
ATOM     69  F   UNL A   1      45.661  27.782  32.894  1.00  0.00    -0.203 F 
ATOM     70  C   UNL A   1      47.794  27.374  31.990  1.00  0.00     0.198 A 
ATOM     71  C   UNL A   1      48.405  28.327  29.873  1.00  0.00     0.198 A 
ATOM     72  F   UNL A   1      46.891  29.709  28.721  1.00  0.00    -0.203 F 
ATOM     73  F   UNL A   1      48.110  26.647  33.070  1.00  0.00    -0.200 F 
ATOM     74  C   UNL A   1      48.724  27.549  30.976  1.00  0.00     0.200 A 
ATOM     75  F   UNL A   1      49.298  28.484  28.885  1.00  0.00    -0.200 F 
ATOM     76  F   UNL A   1      49.931  26.972  31.065  1.00  0.00    -0.200 F 
ENDBRANCH  52  66
BRANCH  53  77
ATOM     77  C   UNL A   1      37.023  32.640  30.033  1.00  0.00     0.064 A 
ATOM     78  C   UNL A   1      36.117  32.477  31.089  1.00  0.00     0.173 A 
ATOM     79  C   UNL A   1      36.587  33.346  28.903  1.00  0.00     0.173 A 
ATOM     80  F   UNL A   1      36.479  31.789  32.182  1.00  0.00    -0.203 F 
ATOM     81  C   UNL A   1      34.819  32.979  31.010  1.00  0.00     0.198 A 
ATOM     82  C   UNL A   1      35.299  33.874  28.836  1.00  0.00     0.198 A 
ATOM     83  F   UNL A   1      37.417  33.535  27.866  1.00  0.00    -0.203 F 
ATOM     84  F   UNL A   1      33.958  32.766  32.015  1.00  0.00    -0.200 F 
ATOM     85  C   UNL A   1      34.414  33.682  29.886  1.00  0.00     0.200 A 
ATOM     86  F   UNL A   1      34.915  34.565  27.755  1.00  0.00    -0.200 F 
ATOM     87  F   UNL A   1      33.166  34.167  29.811  1.00  0.00    -0.200 F 
ENDBRANCH  53  77
BRANCH  65  88
ATOM     88  C   UNL A   1      43.010  34.930  32.779  1.00  0.00     0.064 A 
ATOM     89  C   UNL A   1      43.472  36.038  32.055  1.00  0.00     0.173 A 
ATOM     90  C   UNL A   1      42.853  35.070  34.166  1.00  0.00     0.173 A 
ATOM     91  F   UNL A   1      43.654  35.951  30.728  1.00  0.00    -0.203 F 
ATOM     92  C   UNL A   1      43.776  37.235  32.698  1.00  0.00     0.198 A 
ATOM     93  C   UNL A   1      43.130  36.276  34.802  1.00  0.00     0.198 A 
ATOM     94  F   UNL A   1      42.408  34.040  34.903  1.00  0.00    -0.203 F 
ATOM     95  F   UNL A   1      44.252  38.270  31.994  1.00  0.00    -0.200 F 
ATOM     96  C   UNL A   1      43.596  37.356  34.069  1.00  0.00     0.200 A 
ATOM     97  F   UNL A   1      42.941  36.394  36.124  1.00  0.00    -0.200 F 
ATOM     98  F   UNL A   1      43.875  38.514  34.684  1.00  0.00    -0.200 F 
ENDBRANCH  65  88
ENDBRANCH  39  40
ENDBRANCH  31  34
ENDBRANCH  29  30
ENDBRANCH  28  29
ENDBRANCH   1  28
TORSDOF 15
ENDMDL
MODEL 3
REMARK VINA RESULT:     -12.2      2.134      3.174
REMARK SMILES CC(=O)Nc1cccc(NC(=O)N[C@H](C(=O)NCCCCNC(=O)c2ccc(-c3c4nc(c(-c5c(F)c(F)c(F)c(F)c5F)c5ccc([nH]5)c(-c5c(F)c(F)c(F)c(F)c5F)c5nc(c(-c6c(F)c(F)c(F)c(F)c6F)c6ccc3[nH]6)C=C5)C=C4)cc2)C(C)C)c1
REMARK SMILES IDX 19 1 18 2 17 3 15 4 16 5 14 7 13 8 10 9 11 10 12 12 9 14
REMARK SMILES IDX 5 15 6 16 91 17 7 18 8 19 4 20 1 21 2 22 3 23 88 25 89 26
REMARK SMILES IDX 90 27 20 28 21 29 22 30 23 31 24 33 25 34 26 35 87 36 27 37
REMARK SMILES IDX 86 38 28 39 29 40 30 41 80 42 31 43 85 44 79 45 81 46 32 47
REMARK SMILES IDX 84 48 78 49 77 50 33 52 65 53 45 54 64 55 46 56 49 57 63 58
REMARK SMILES IDX 82 59 47 60 48 61 62 63 83 64 50 65 34 66 35 67 43 68 36 69
REMARK SMILES IDX 37 70 41 71 44 72 38 73 39 74 42 75 40 76 66 77 67 78 75 79
REMARK SMILES IDX 68 80 69 81 73 82 76 83 70 84 71 85 74 86 72 87 51 88 52 89
REMARK SMILES IDX 60 90 53 91 54 92 58 93 61 94 55 95 56 96 59 97 57 98
REMARK H PARENT 17 6 10 11 13 13 4 24 22 32 81 51 49 62
REMARK Flexibility Score: inf
ROOT
ATOM      1  C   UNL A   1      33.635  26.760  24.847  1.00  0.00     0.023 C 
ENDROOT
BRANCH   1   2
ATOM      2  C   UNL A   1      33.860  25.418  25.541  1.00  0.00     0.116 C 
BRANCH   2   3
ATOM      3  N   UNL A   1      34.660  24.478  24.775  1.00  0.00    -0.354 N 
ATOM      4  C   UNL A   1      34.374  23.844  23.586  1.00  0.00     0.242 C 
ATOM      5  O   UNL A   1      35.241  23.064  23.178  1.00  0.00    -0.273 OA
ATOM      6  H   UNL A   1      35.538  24.261  25.165  1.00  0.00     0.163 HD
BRANCH   4   7
ATOM      7  C   UNL A   1      32.973  23.986  22.886  1.00  0.00     0.175 C 
BRANCH   7   8
ATOM      8  N   UNL A   1      33.007  24.405  21.471  1.00  0.00    -0.326 N 
ATOM      9  N   UNL A   1      31.941  26.518  21.085  1.00  0.00    -0.308 N 
ATOM     10  C   UNL A   1      32.608  25.420  20.706  1.00  0.00     0.319 C 
ATOM     11  H   UNL A   1      31.992  27.227  20.402  1.00  0.00     0.171 HD
ATOM     12  O   UNL A   1      32.961  25.360  19.521  1.00  0.00    -0.248 OA
ATOM     13  H   UNL A   1      33.465  23.725  20.926  1.00  0.00     0.166 HD
BRANCH   9  14
ATOM     14  C   UNL A   1      31.194  26.922  22.194  1.00  0.00     0.044 A 
ATOM     15  C   UNL A   1      30.490  28.719  23.649  1.00  0.00     0.043 A 
ATOM     16  C   UNL A   1      29.971  27.811  24.566  1.00  0.00     0.026 A 
ATOM     17  C   UNL A   1      31.131  28.284  22.484  1.00  0.00     0.052 A 
ATOM     18  C   UNL A   1      29.907  26.475  24.204  1.00  0.00     0.004 A 
ATOM     19  C   UNL A   1      30.456  26.061  22.989  1.00  0.00     0.026 A 
BRANCH  15  20
ATOM     20  N   UNL A   1      30.221  30.075  23.841  1.00  0.00    -0.326 N 
ATOM     21  C   UNL A   1      28.032  29.827  22.697  1.00  0.00     0.114 C 
ATOM     22  C   UNL A   1      29.027  30.657  23.479  1.00  0.00     0.221 C 
ATOM     23  O   UNL A   1      28.769  31.806  23.834  1.00  0.00    -0.275 OA
ATOM     24  H   UNL A   1      30.914  30.640  24.252  1.00  0.00     0.169 HD
ENDBRANCH  15  20
ENDBRANCH   9  14
ENDBRANCH   7   8
BRANCH   7  25
ATOM     25  C   UNL A   1      31.851  22.930  23.128  1.00  0.00     0.015 C 
ATOM     26  C   UNL A   1      32.116  21.509  22.633  1.00  0.00     0.010 C 
ATOM     27  C   UNL A   1      31.507  22.863  24.627  1.00  0.00     0.010 C 
ENDBRANCH   7  25
ENDBRANCH   4   7
ENDBRANCH   2   3
ENDBRANCH   1   2
BRANCH   1  28
ATOM     28  C   UNL A   1      33.391  27.949  25.780  1.00  0.00     0.023 C 
BRANCH  28  29
ATOM     29  C   UNL A   1      33.711  29.329  25.200  1.00  0.00     0.116 C 
BRANCH  29  30
ATOM     30  N   UNL A   1      33.069  30.425  25.916  1.00  0.00    -0.352 N 
ATOM     31  C   UNL A   1      33.451  31.100  27.053  1.00  0.00     0.251 C 
ATOM     32  H   UNL A   1      32.221  30.733  25.520  1.00  0.00     0.163 HD
ATOM     33  O   UNL A   1      32.688  31.907  27.576  1.00  0.00    -0.269 OA
BRANCH  31  34
ATOM     34  C   UNL A   1      34.769  30.842  27.670  1.00  0.00     0.039 A 
ATOM     35  C   UNL A   1      35.703  31.882  27.742  1.00  0.00     0.014 A 
ATOM     36  C   UNL A   1      35.092  29.579  28.168  1.00  0.00     0.014 A 
ATOM     37  C   UNL A   1      36.920  31.680  28.400  1.00  0.00     0.010 A 
ATOM     38  C   UNL A   1      36.268  29.402  28.890  1.00  0.00     0.010 A 
ATOM     39  C   UNL A   1      37.191  30.452  29.023  1.00  0.00    -0.014 A 
BRANCH  39  40
ATOM     40  C   UNL A   1      38.424  30.227  29.823  1.00  0.00     0.031 A 
ATOM     41  C   UNL A   1      39.505  29.325  29.293  1.00  0.00     0.074 A 
ATOM     42  C   UNL A   1      38.526  30.740  31.066  1.00  0.00     0.049 A 
ATOM     43  N   UNL A   1      40.566  28.854  29.898  1.00  0.00    -0.248 NA
ATOM     44  C   UNL A   1      39.350  28.866  27.904  1.00  0.00     0.031 C 
ATOM     45  C   UNL A   1      37.537  31.605  31.708  1.00  0.00     0.029 A 
ATOM     46  N   UNL A   1      39.501  30.586  32.020  1.00  0.00    -0.354 N 
ATOM     47  C   UNL A   1      41.186  28.023  28.975  1.00  0.00     0.074 A 
ATOM     48  C   UNL A   1      40.360  28.016  27.787  1.00  0.00     0.031 C 
ATOM     49  C   UNL A   1      37.958  31.913  32.945  1.00  0.00     0.029 A 
ATOM     50  C   UNL A   1      39.222  31.228  33.202  1.00  0.00     0.049 A 
ATOM     51  H   UNL A   1      40.323  30.064  31.872  1.00  0.00     0.167 HD
ATOM     52  C   UNL A   1      42.349  27.340  29.101  1.00  0.00     0.037 A 
ATOM     53  C   UNL A   1      39.898  31.248  34.368  1.00  0.00     0.037 A 
ATOM     54  C   UNL A   1      43.185  27.374  30.272  1.00  0.00     0.049 A 
ATOM     55  C   UNL A   1      41.183  30.471  34.486  1.00  0.00     0.074 A 
ATOM     56  C   UNL A   1      44.407  26.759  30.479  1.00  0.00     0.029 A 
ATOM     57  N   UNL A   1      42.885  28.067  31.436  1.00  0.00    -0.354 N 
ATOM     58  N   UNL A   1      41.784  29.724  33.593  1.00  0.00    -0.248 NA
ATOM     59  C   UNL A   1      41.885  30.542  35.776  1.00  0.00     0.031 C 
ATOM     60  C   UNL A   1      44.826  27.045  31.782  1.00  0.00     0.029 A 
ATOM     61  C   UNL A   1      43.891  27.882  32.370  1.00  0.00     0.049 A 
ATOM     62  H   UNL A   1      42.075  28.609  31.577  1.00  0.00     0.167 HD
ATOM     63  C   UNL A   1      42.950  29.270  34.195  1.00  0.00     0.074 A 
ATOM     64  C   UNL A   1      42.974  29.828  35.531  1.00  0.00     0.031 C 
ATOM     65  C   UNL A   1      43.915  28.467  33.685  1.00  0.00     0.037 A 
BRANCH  52  66
ATOM     66  C   UNL A   1      42.787  26.495  27.940  1.00  0.00     0.064 A 
ATOM     67  C   UNL A   1      42.330  25.178  27.772  1.00  0.00     0.173 A 
ATOM     68  C   UNL A   1      43.650  27.017  26.964  1.00  0.00     0.173 A 
ATOM     69  F   UNL A   1      41.511  24.628  28.680  1.00  0.00    -0.203 F 
ATOM     70  C   UNL A   1      42.749  24.406  26.693  1.00  0.00     0.198 A 
ATOM     71  C   UNL A   1      44.042  26.252  25.868  1.00  0.00     0.198 A 
ATOM     72  F   UNL A   1      44.111  28.272  27.071  1.00  0.00    -0.203 F 
ATOM     73  F   UNL A   1      42.343  23.133  26.586  1.00  0.00    -0.200 F 
ATOM     74  C   UNL A   1      43.598  24.945  25.738  1.00  0.00     0.200 A 
ATOM     75  F   UNL A   1      44.850  26.779  24.938  1.00  0.00    -0.200 F 
ATOM     76  F   UNL A   1      43.995  24.201  24.696  1.00  0.00    -0.200 F 
ENDBRANCH  52  66
BRANCH  53  77
ATOM     77  C   UNL A   1      39.385  32.044  35.514  1.00  0.00     0.064 A 
ATOM     78  C   UNL A   1      39.769  33.381  35.685  1.00  0.00     0.173 A 
ATOM     79  C   UNL A   1      38.517  31.488  36.464  1.00  0.00     0.173 A 
ATOM     80  F   UNL A   1      40.616  33.951  34.816  1.00  0.00    -0.203 F 
ATOM     81  C   UNL A   1      39.320  34.126  36.775  1.00  0.00     0.198 A 
ATOM     82  C   UNL A   1      38.045  32.242  37.537  1.00  0.00     0.198 A 
ATOM     83  F   UNL A   1      38.116  30.214  36.344  1.00  0.00    -0.203 F 
ATOM     84  F   UNL A   1      39.741  35.387  36.940  1.00  0.00    -0.200 F 
ATOM     85  C   UNL A   1      38.454  33.557  37.696  1.00  0.00     0.200 A 
ATOM     86  F   UNL A   1      37.198  31.693  38.418  1.00  0.00    -0.200 F 
ATOM     87  F   UNL A   1      38.021  34.274  38.743  1.00  0.00    -0.200 F 
ENDBRANCH  53  77
BRANCH  65  88
ATOM     88  C   UNL A   1      45.115  28.190  34.543  1.00  0.00     0.064 A 
ATOM     89  C   UNL A   1      45.178  27.076  35.390  1.00  0.00     0.173 A 
ATOM     90  C   UNL A   1      46.243  29.021  34.464  1.00  0.00     0.173 A 
ATOM     91  F   UNL A   1      44.120  26.259  35.513  1.00  0.00    -0.203 F 
ATOM     92  C   UNL A   1      46.322  26.811  36.139  1.00  0.00     0.198 A 
ATOM     93  C   UNL A   1      47.395  28.738  35.191  1.00  0.00     0.198 A 
ATOM     94  F   UNL A   1      46.235  30.097  33.663  1.00  0.00    -0.203 F 
ATOM     95  F   UNL A   1      46.348  25.761  36.971  1.00  0.00    -0.200 F 
ATOM     96  C   UNL A   1      47.432  27.635  36.031  1.00  0.00     0.200 A 
ATOM     97  F   UNL A   1      48.471  29.528  35.074  1.00  0.00    -0.200 F 
ATOM     98  F   UNL A   1      48.538  27.371  36.742  1.00  0.00    -0.200 F 
ENDBRANCH  65  88
ENDBRANCH  39  40
ENDBRANCH  31  34
ENDBRANCH  29  30
ENDBRANCH  28  29
ENDBRANCH   1  28
TORSDOF 15
ENDMDL
