MODEL 1
REMARK VINA RESULT:     -11.2      0.000      0.000
REMARK SMILES C[C@@]([NH2+]CCC1CC1)(C(=O)NCCCCNC(=O)c1ccc(-c2c3nc(c(-c4c(F)c(F)c(F)c(F)c4F)c4ccc([nH]4)c(-c4c(F)c(F)c(F)c(F)c4F)c4nc(c(-c5c(F)c(F)c(F)c(F)c5F)c5ccc2[nH]5)C=C4)C=C3)cc1)C(F)(F)F
REMARK SMILES IDX 12 1 11 2 9 3 10 4 2 6 1 7 3 8 4 11 5 12 6 13 7 14 8 15
REMARK SMILES IDX 82 16 83 17 84 18 85 19 13 20 14 21 15 22 16 23 17 24 18 26
REMARK SMILES IDX 19 27 20 28 81 29 21 30 80 31 22 32 23 33 24 34 74 35 25 36
REMARK SMILES IDX 79 37 73 38 75 39 26 40 78 41 72 42 71 43 27 45 59 46 39 47
REMARK SMILES IDX 58 48 40 49 43 50 57 51 76 52 41 53 42 54 56 56 77 57 44 58
REMARK SMILES IDX 28 59 29 60 37 61 30 62 31 63 35 64 38 65 32 66 33 67 36 68
REMARK SMILES IDX 34 69 60 70 61 71 69 72 62 73 63 74 67 75 70 76 64 77 65 78
REMARK SMILES IDX 68 79 66 80 45 81 46 82 54 83 47 84 48 85 52 86 55 87 49 88
REMARK SMILES IDX 50 89 53 90 51 91
REMARK H PARENT 11 5 3 9 3 10 16 25 75 44 43 55
REMARK Flexibility Score: inf
ROOT
ATOM      1  C   UNL A   1      35.835  20.893  25.003  1.00  0.00     0.116 C 
ENDROOT
BRANCH   1   2
ATOM      2  N   UNL A   1      35.025  21.953  24.434  1.00  0.00    -0.350 N 
ATOM      3  C   UNL A   1      33.757  22.375  24.725  1.00  0.00     0.290 C 
ATOM      4  O   UNL A   1      33.326  23.282  24.009  1.00  0.00    -0.267 OA
ATOM      5  H   UNL A   1      35.465  22.458  23.713  1.00  0.00     0.163 HD
BRANCH   3   6
ATOM      6  C   UNL A   1      32.929  21.765  25.876  1.00  0.00     0.268 C 
ATOM      7  C   UNL A   1      31.460  22.228  25.770  1.00  0.00     0.101 C 
BRANCH   6   8
ATOM      8  N   UNL A   1      32.886  20.261  25.785  1.00  0.00    -0.326 N 
ATOM      9  H   UNL A   1      32.350  19.920  26.583  1.00  0.00     0.347 HD
ATOM     10  H   UNL A   1      33.863  19.969  25.769  1.00  0.00     0.347 HD
BRANCH   8  11
ATOM     11  C   UNL A   1      32.294  19.687  24.573  1.00  0.00     0.261 C 
BRANCH  11  12
ATOM     12  C   UNL A   1      32.528  18.193  24.302  1.00  0.00     0.065 C 
BRANCH  12  13
ATOM     13  C   UNL A   1      33.950  17.807  24.001  1.00  0.00    -0.006 C 
ATOM     14  C   UNL A   1      34.621  16.601  24.613  1.00  0.00     0.004 C 
ATOM     15  C   UNL A   1      34.228  16.580  23.168  1.00  0.00     0.004 C 
ENDBRANCH  12  13
ENDBRANCH  11  12
ENDBRANCH   8  11
ENDBRANCH   6   8
BRANCH   6  16
ATOM     16  C   UNL A   1      33.472  22.358  27.204  1.00  0.00     0.453 C 
ATOM     17  F   UNL A   1      34.171  21.454  27.929  1.00  0.00    -0.164 F 
ATOM     18  F   UNL A   1      34.342  23.372  26.925  1.00  0.00    -0.164 F 
ATOM     19  F   UNL A   1      32.519  22.885  27.999  1.00  0.00    -0.164 F 
ENDBRANCH   6  16
ENDBRANCH   3   6
ENDBRANCH   1   2
BRANCH   1  20
ATOM     20  C   UNL A   1      37.319  21.134  24.733  1.00  0.00     0.023 C 
BRANCH  20  21
ATOM     21  C   UNL A   1      38.215  19.923  25.001  1.00  0.00     0.023 C 
BRANCH  21  22
ATOM     22  C   UNL A   1      39.335  20.159  26.008  1.00  0.00     0.116 C 
BRANCH  22  23
ATOM     23  N   UNL A   1      40.328  19.097  26.012  1.00  0.00    -0.352 N 
ATOM     24  C   UNL A   1      41.695  19.194  26.132  1.00  0.00     0.251 C 
ATOM     25  H   UNL A   1      39.974  18.184  25.917  1.00  0.00     0.163 HD
ATOM     26  O   UNL A   1      42.404  18.209  25.984  1.00  0.00    -0.269 OA
BRANCH  24  27
ATOM     27  C   UNL A   1      42.305  20.512  26.407  1.00  0.00     0.039 A 
ATOM     28  C   UNL A   1      42.720  21.299  25.331  1.00  0.00     0.014 A 
ATOM     29  C   UNL A   1      42.439  20.978  27.718  1.00  0.00     0.014 A 
ATOM     30  C   UNL A   1      43.210  22.584  25.565  1.00  0.00     0.010 A 
ATOM     31  C   UNL A   1      42.861  22.284  27.945  1.00  0.00     0.010 A 
ATOM     32  C   UNL A   1      43.249  23.101  26.872  1.00  0.00    -0.014 A 
BRANCH  32  33
ATOM     33  C   UNL A   1      43.689  24.493  27.136  1.00  0.00     0.031 A 
ATOM     34  C   UNL A   1      42.706  25.512  27.637  1.00  0.00     0.074 A 
ATOM     35  C   UNL A   1      44.957  24.854  26.857  1.00  0.00     0.049 A 
ATOM     36  N   UNL A   1      42.877  26.793  27.853  1.00  0.00    -0.248 NA
ATOM     37  C   UNL A   1      41.340  25.036  27.904  1.00  0.00     0.031 C 
ATOM     38  C   UNL A   1      45.990  23.969  26.318  1.00  0.00     0.029 A 
ATOM     39  N   UNL A   1      45.588  26.068  26.976  1.00  0.00    -0.354 N 
ATOM     40  C   UNL A   1      41.643  27.273  28.268  1.00  0.00     0.074 A 
ATOM     41  C   UNL A   1      40.717  26.162  28.219  1.00  0.00     0.031 C 
ATOM     42  C   UNL A   1      47.129  24.663  26.169  1.00  0.00     0.029 A 
ATOM     43  C   UNL A   1      46.899  26.048  26.567  1.00  0.00     0.049 A 
ATOM     44  H   UNL A   1      45.144  26.874  27.323  1.00  0.00     0.167 HD
ATOM     45  C   UNL A   1      41.317  28.522  28.676  1.00  0.00     0.037 A 
ATOM     46  C   UNL A   1      47.809  27.039  26.512  1.00  0.00     0.037 A 
ATOM     47  C   UNL A   1      42.245  29.620  28.744  1.00  0.00     0.049 A 
ATOM     48  C   UNL A   1      47.422  28.418  26.971  1.00  0.00     0.074 A 
ATOM     49  C   UNL A   1      42.026  30.910  29.195  1.00  0.00     0.029 A 
ATOM     50  N   UNL A   1      43.573  29.555  28.347  1.00  0.00    -0.354 N 
ATOM     51  N   UNL A   1      46.269  28.846  27.425  1.00  0.00    -0.248 NA
ATOM     52  C   UNL A   1      48.466  29.452  26.917  1.00  0.00     0.031 C 
ATOM     53  C   UNL A   1      43.210  31.637  29.032  1.00  0.00     0.029 A 
ATOM     54  C   UNL A   1      44.181  30.788  28.525  1.00  0.00     0.049 A 
ATOM     55  H   UNL A   1      44.018  28.752  27.991  1.00  0.00     0.167 HD
ATOM     56  C   UNL A   1      46.454  30.186  27.735  1.00  0.00     0.074 A 
ATOM     57  C   UNL A   1      47.835  30.497  27.433  1.00  0.00     0.031 C 
ATOM     58  C   UNL A   1      45.559  31.079  28.227  1.00  0.00     0.037 A 
BRANCH  45  59
ATOM     59  C   UNL A   1      39.895  28.767  29.091  1.00  0.00     0.064 A 
ATOM     60  C   UNL A   1      39.477  28.590  30.418  1.00  0.00     0.173 A 
ATOM     61  C   UNL A   1      38.946  29.212  28.158  1.00  0.00     0.173 A 
ATOM     62  F   UNL A   1      40.342  28.153  31.347  1.00  0.00    -0.203 F 
ATOM     63  C   UNL A   1      38.155  28.822  30.791  1.00  0.00     0.198 A 
ATOM     64  C   UNL A   1      37.632  29.472  28.541  1.00  0.00     0.198 A 
ATOM     65  F   UNL A   1      39.293  29.401  26.877  1.00  0.00    -0.203 F 
ATOM     66  F   UNL A   1      37.769  28.597  32.055  1.00  0.00    -0.200 F 
ATOM     67  C   UNL A   1      37.236  29.270  29.854  1.00  0.00     0.200 A 
ATOM     68  F   UNL A   1      36.748  29.917  27.638  1.00  0.00    -0.200 F 
ATOM     69  F   UNL A   1      35.966  29.499  30.216  1.00  0.00    -0.200 F 
ENDBRANCH  45  59
BRANCH  46  70
ATOM     70  C   UNL A   1      49.184  26.757  26.023  1.00  0.00     0.064 A 
ATOM     71  C   UNL A   1      50.168  26.258  26.888  1.00  0.00     0.173 A 
ATOM     72  C   UNL A   1      49.544  26.982  24.686  1.00  0.00     0.173 A 
ATOM     73  F   UNL A   1      49.878  26.046  28.180  1.00  0.00    -0.203 F 
ATOM     74  C   UNL A   1      51.465  26.016  26.440  1.00  0.00     0.198 A 
ATOM     75  C   UNL A   1      50.834  26.712  24.232  1.00  0.00     0.198 A 
ATOM     76  F   UNL A   1      48.638  27.453  23.817  1.00  0.00    -0.203 F 
ATOM     77  F   UNL A   1      52.398  25.583  27.300  1.00  0.00    -0.200 F 
ATOM     78  C   UNL A   1      51.796  26.237  25.112  1.00  0.00     0.200 A 
ATOM     79  F   UNL A   1      51.145  26.914  22.945  1.00  0.00    -0.200 F 
ATOM     80  F   UNL A   1      53.042  26.001  24.681  1.00  0.00    -0.200 F 
ENDBRANCH  46  70
BRANCH  58  81
ATOM     81  C   UNL A   1      46.055  32.468  28.501  1.00  0.00     0.064 A 
ATOM     82  C   UNL A   1      46.628  32.817  29.733  1.00  0.00     0.173 A 
ATOM     83  C   UNL A   1      45.996  33.452  27.501  1.00  0.00     0.173 A 
ATOM     84  F   UNL A   1      46.694  31.916  30.725  1.00  0.00    -0.203 F 
ATOM     85  C   UNL A   1      47.099  34.106  29.963  1.00  0.00     0.198 A 
ATOM     86  C   UNL A   1      46.496  34.732  27.725  1.00  0.00     0.198 A 
ATOM     87  F   UNL A   1      45.465  33.168  26.303  1.00  0.00    -0.203 F 
ATOM     88  F   UNL A   1      47.599  34.430  31.164  1.00  0.00    -0.200 F 
ATOM     89  C   UNL A   1      47.040  35.060  28.958  1.00  0.00     0.200 A 
ATOM     90  F   UNL A   1      46.451  35.648  26.748  1.00  0.00    -0.200 F 
ATOM     91  F   UNL A   1      47.501  36.298  29.178  1.00  0.00    -0.200 F 
ENDBRANCH  58  81
ENDBRANCH  32  33
ENDBRANCH  24  27
ENDBRANCH  22  23
ENDBRANCH  21  22
ENDBRANCH  20  21
ENDBRANCH   1  20
TORSDOF 16
ENDMDL
MODEL 2
REMARK VINA RESULT:     -10.8      0.737      7.703
REMARK SMILES C[C@@]([NH2+]CCC1CC1)(C(=O)NCCCCNC(=O)c1ccc(-c2c3nc(c(-c4c(F)c(F)c(F)c(F)c4F)c4ccc([nH]4)c(-c4c(F)c(F)c(F)c(F)c4F)c4nc(c(-c5c(F)c(F)c(F)c(F)c5F)c5ccc2[nH]5)C=C4)C=C3)cc1)C(F)(F)F
REMARK SMILES IDX 12 1 11 2 9 3 10 4 2 6 1 7 3 8 4 11 5 12 6 13 7 14 8 15
REMARK SMILES IDX 82 16 83 17 84 18 85 19 13 20 14 21 15 22 16 23 17 24 18 26
REMARK SMILES IDX 19 27 20 28 81 29 21 30 80 31 22 32 23 33 24 34 74 35 25 36
REMARK SMILES IDX 79 37 73 38 75 39 26 40 78 41 72 42 71 43 27 45 59 46 39 47
REMARK SMILES IDX 58 48 40 49 43 50 57 51 76 52 41 53 42 54 56 56 77 57 44 58
REMARK SMILES IDX 28 59 29 60 37 61 30 62 31 63 35 64 38 65 32 66 33 67 36 68
REMARK SMILES IDX 34 69 60 70 61 71 69 72 62 73 63 74 67 75 70 76 64 77 65 78
REMARK SMILES IDX 68 79 66 80 45 81 46 82 54 83 47 84 48 85 52 86 55 87 49 88
REMARK SMILES IDX 50 89 53 90 51 91
REMARK H PARENT 11 5 3 9 3 10 16 25 75 44 43 55
REMARK Flexibility Score: inf
ROOT
ATOM      1  C   UNL A   1      36.390  21.956  25.264  1.00  0.00     0.116 C 
ENDROOT
BRANCH   1   2
ATOM      2  N   UNL A   1      35.313  22.471  24.439  1.00  0.00    -0.350 N 
ATOM      3  C   UNL A   1      33.956  22.335  24.539  1.00  0.00     0.290 C 
ATOM      4  O   UNL A   1      33.305  22.859  23.632  1.00  0.00    -0.267 OA
ATOM      5  H   UNL A   1      35.611  23.015  23.674  1.00  0.00     0.163 HD
BRANCH   3   6
ATOM      6  C   UNL A   1      33.287  21.588  25.712  1.00  0.00     0.268 C 
ATOM      7  C   UNL A   1      31.781  21.403  25.427  1.00  0.00     0.101 C 
BRANCH   6   8
ATOM      8  N   UNL A   1      33.842  20.196  25.865  1.00  0.00    -0.326 N 
ATOM      9  H   UNL A   1      33.368  19.760  26.656  1.00  0.00     0.347 HD
ATOM     10  H   UNL A   1      34.848  20.323  25.985  1.00  0.00     0.347 HD
BRANCH   8  11
ATOM     11  C   UNL A   1      33.705  19.296  24.716  1.00  0.00     0.261 C 
BRANCH  11  12
ATOM     12  C   UNL A   1      34.837  18.291  24.455  1.00  0.00     0.065 C 
BRANCH  12  13
ATOM     13  C   UNL A   1      34.396  16.881  24.173  1.00  0.00    -0.006 C 
ATOM     14  C   UNL A   1      34.283  15.825  25.246  1.00  0.00     0.004 C 
ATOM     15  C   UNL A   1      33.042  16.415  24.649  1.00  0.00     0.004 C 
ENDBRANCH  12  13
ENDBRANCH  11  12
ENDBRANCH   8  11
ENDBRANCH   6   8
BRANCH   6  16
ATOM     16  C   UNL A   1      33.379  22.506  26.961  1.00  0.00     0.453 C 
ATOM     17  F   UNL A   1      32.229  22.528  27.674  1.00  0.00    -0.164 F 
ATOM     18  F   UNL A   1      34.339  22.028  27.805  1.00  0.00    -0.164 F 
ATOM     19  F   UNL A   1      33.722  23.779  26.680  1.00  0.00    -0.164 F 
ENDBRANCH   6  16
ENDBRANCH   3   6
ENDBRANCH   1   2
BRANCH   1  20
ATOM     20  C   UNL A   1      37.491  21.342  24.401  1.00  0.00     0.023 C 
BRANCH  20  21
ATOM     21  C   UNL A   1      38.072  20.038  24.953  1.00  0.00     0.023 C 
BRANCH  21  22
ATOM     22  C   UNL A   1      39.119  20.209  26.048  1.00  0.00     0.116 C 
BRANCH  22  23
ATOM     23  N   UNL A   1      40.170  19.205  25.990  1.00  0.00    -0.352 N 
ATOM     24  C   UNL A   1      41.532  19.378  26.071  1.00  0.00     0.251 C 
ATOM     25  H   UNL A   1      39.865  18.276  25.879  1.00  0.00     0.163 HD
ATOM     26  O   UNL A   1      42.290  18.439  25.872  1.00  0.00    -0.269 OA
BRANCH  24  27
ATOM     27  C   UNL A   1      42.075  20.721  26.365  1.00  0.00     0.039 A 
ATOM     28  C   UNL A   1      42.323  21.593  25.303  1.00  0.00     0.014 A 
ATOM     29  C   UNL A   1      42.311  21.123  27.682  1.00  0.00     0.014 A 
ATOM     30  C   UNL A   1      42.746  22.897  25.567  1.00  0.00     0.010 A 
ATOM     31  C   UNL A   1      42.664  22.443  27.947  1.00  0.00     0.010 A 
ATOM     32  C   UNL A   1      42.883  23.343  26.892  1.00  0.00    -0.014 A 
BRANCH  32  33
ATOM     33  C   UNL A   1      43.251  24.748  27.197  1.00  0.00     0.031 A 
ATOM     34  C   UNL A   1      44.657  25.224  26.970  1.00  0.00     0.074 A 
ATOM     35  C   UNL A   1      42.336  25.573  27.742  1.00  0.00     0.049 A 
ATOM     36  N   UNL A   1      45.193  26.388  27.246  1.00  0.00    -0.248 NA
ATOM     37  C   UNL A   1      45.596  24.256  26.383  1.00  0.00     0.031 C 
ATOM     38  C   UNL A   1      40.953  25.212  28.058  1.00  0.00     0.029 A 
ATOM     39  N   UNL A   1      42.437  26.882  28.142  1.00  0.00    -0.354 N 
ATOM     40  C   UNL A   1      46.526  26.285  26.878  1.00  0.00     0.074 A 
ATOM     41  C   UNL A   1      46.736  24.931  26.412  1.00  0.00     0.031 C 
ATOM     42  C   UNL A   1      40.330  26.277  28.585  1.00  0.00     0.029 A 
ATOM     43  C   UNL A   1      41.276  27.385  28.679  1.00  0.00     0.049 A 
ATOM     44  H   UNL A   1      43.261  27.411  28.051  1.00  0.00     0.167 HD
ATOM     45  C   UNL A   1      47.485  27.242  26.901  1.00  0.00     0.037 A 
ATOM     46  C   UNL A   1      41.010  28.599  29.195  1.00  0.00     0.037 A 
ATOM     47  C   UNL A   1      47.269  28.594  27.344  1.00  0.00     0.049 A 
ATOM     48  C   UNL A   1      42.092  29.643  29.211  1.00  0.00     0.074 A 
ATOM     49  C   UNL A   1      48.161  29.652  27.356  1.00  0.00     0.029 A 
ATOM     50  N   UNL A   1      46.072  29.073  27.856  1.00  0.00    -0.354 N 
ATOM     51  N   UNL A   1      43.333  29.556  28.797  1.00  0.00    -0.248 NA
ATOM     52  C   UNL A   1      41.734  30.960  29.759  1.00  0.00     0.031 C 
ATOM     53  C   UNL A   1      47.516  30.761  27.915  1.00  0.00     0.029 A 
ATOM     54  C   UNL A   1      46.208  30.408  28.204  1.00  0.00     0.049 A 
ATOM     55  H   UNL A   1      45.248  28.544  27.957  1.00  0.00     0.167 HD
ATOM     56  C   UNL A   1      43.895  30.807  29.008  1.00  0.00     0.074 A 
ATOM     57  C   UNL A   1      42.856  31.642  29.573  1.00  0.00     0.031 C 
ATOM     58  C   UNL A   1      45.160  31.227  28.757  1.00  0.00     0.037 A 
BRANCH  45  59
ATOM     59  C   UNL A   1      48.857  26.860  26.425  1.00  0.00     0.064 A 
ATOM     60  C   UNL A   1      49.245  27.037  25.089  1.00  0.00     0.173 A 
ATOM     61  C   UNL A   1      49.804  26.340  27.320  1.00  0.00     0.173 A 
ATOM     62  F   UNL A   1      48.373  27.518  24.189  1.00  0.00    -0.203 F 
ATOM     63  C   UNL A   1      50.522  26.681  24.660  1.00  0.00     0.198 A 
ATOM     64  C   UNL A   1      51.089  26.014  26.894  1.00  0.00     0.198 A 
ATOM     65  F   UNL A   1      49.487  26.155  28.609  1.00  0.00    -0.203 F 
ATOM     66  F   UNL A   1      50.852  26.811  23.367  1.00  0.00    -0.200 F 
ATOM     67  C   UNL A   1      51.444  26.177  25.564  1.00  0.00     0.200 A 
ATOM     68  F   UNL A   1      51.984  25.539  27.771  1.00  0.00    -0.200 F 
ATOM     69  F   UNL A   1      52.674  25.841  25.150  1.00  0.00    -0.200 F 
ENDBRANCH  45  59
BRANCH  46  70
ATOM     70  C   UNL A   1      39.653  28.899  29.721  1.00  0.00     0.064 A 
ATOM     71  C   UNL A   1      38.664  29.446  28.892  1.00  0.00     0.173 A 
ATOM     72  C   UNL A   1      39.317  28.652  31.061  1.00  0.00     0.173 A 
ATOM     73  F   UNL A   1      38.943  29.719  27.609  1.00  0.00    -0.203 F 
ATOM     74  C   UNL A   1      37.398  29.753  29.386  1.00  0.00     0.198 A 
ATOM     75  C   UNL A   1      38.042  28.933  31.547  1.00  0.00     0.198 A 
ATOM     76  F   UNL A   1      40.226  28.125  31.894  1.00  0.00    -0.203 F 
ATOM     77  F   UNL A   1      36.487  30.318  28.582  1.00  0.00    -0.200 F 
ATOM     78  C   UNL A   1      37.086  29.492  30.712  1.00  0.00     0.200 A 
ATOM     79  F   UNL A   1      37.740  28.666  32.825  1.00  0.00    -0.200 F 
ATOM     80  F   UNL A   1      35.867  29.784  31.186  1.00  0.00    -0.200 F 
ENDBRANCH  46  70
BRANCH  58  81
ATOM     81  C   UNL A   1      45.480  32.662  29.059  1.00  0.00     0.064 A 
ATOM     82  C   UNL A   1      45.261  33.679  28.119  1.00  0.00     0.173 A 
ATOM     83  C   UNL A   1      45.972  33.028  30.321  1.00  0.00     0.173 A 
ATOM     84  F   UNL A   1      44.806  33.378  26.893  1.00  0.00    -0.203 F 
ATOM     85  C   UNL A   1      45.547  35.007  28.422  1.00  0.00     0.198 A 
ATOM     86  C   UNL A   1      46.229  34.361  30.631  1.00  0.00     0.198 A 
ATOM     87  F   UNL A   1      46.192  32.094  31.258  1.00  0.00    -0.203 F 
ATOM     88  F   UNL A   1      45.374  35.957  27.492  1.00  0.00    -0.200 F 
ATOM     89  C   UNL A   1      46.023  35.348  29.679  1.00  0.00     0.200 A 
ATOM     90  F   UNL A   1      46.675  34.690  31.851  1.00  0.00    -0.200 F 
ATOM     91  F   UNL A   1      46.290  36.628  29.972  1.00  0.00    -0.200 F 
ENDBRANCH  58  81
ENDBRANCH  32  33
ENDBRANCH  24  27
ENDBRANCH  22  23
ENDBRANCH  21  22
ENDBRANCH  20  21
ENDBRANCH   1  20
TORSDOF 16
ENDMDL
MODEL 3
REMARK VINA RESULT:     -10.7      6.632     11.932
REMARK SMILES C[C@@]([NH2+]CCC1CC1)(C(=O)NCCCCNC(=O)c1ccc(-c2c3nc(c(-c4c(F)c(F)c(F)c(F)c4F)c4ccc([nH]4)c(-c4c(F)c(F)c(F)c(F)c4F)c4nc(c(-c5c(F)c(F)c(F)c(F)c5F)c5ccc2[nH]5)C=C4)C=C3)cc1)C(F)(F)F
REMARK SMILES IDX 12 1 11 2 9 3 10 4 2 6 1 7 3 8 4 11 5 12 6 13 7 14 8 15
REMARK SMILES IDX 82 16 83 17 84 18 85 19 13 20 14 21 15 22 16 23 17 24 18 26
REMARK SMILES IDX 19 27 20 28 81 29 21 30 80 31 22 32 23 33 24 34 74 35 25 36
REMARK SMILES IDX 79 37 73 38 75 39 26 40 78 41 72 42 71 43 27 45 59 46 39 47
REMARK SMILES IDX 58 48 40 49 43 50 57 51 76 52 41 53 42 54 56 56 77 57 44 58
REMARK SMILES IDX 28 59 29 60 37 61 30 62 31 63 35 64 38 65 32 66 33 67 36 68
REMARK SMILES IDX 34 69 60 70 61 71 69 72 62 73 63 74 67 75 70 76 64 77 65 78
REMARK SMILES IDX 68 79 66 80 45 81 46 82 54 83 47 84 48 85 52 86 55 87 49 88
REMARK SMILES IDX 50 89 53 90 51 91
REMARK H PARENT 11 5 3 9 3 10 16 25 75 44 43 55
REMARK Flexibility Score: inf
ROOT
ATOM      1  C   UNL A   1      32.575  30.057  25.824  1.00  0.00     0.116 C 
ENDROOT
BRANCH   1   2
ATOM      2  N   UNL A   1      32.220  28.835  26.522  1.00  0.00    -0.350 N 
ATOM      3  C   UNL A   1      31.602  27.696  26.087  1.00  0.00     0.290 C 
ATOM      4  O   UNL A   1      31.392  26.845  26.956  1.00  0.00    -0.267 OA
ATOM      5  H   UNL A   1      32.469  28.824  27.475  1.00  0.00     0.163 HD
BRANCH   3   6
ATOM      6  C   UNL A   1      31.205  27.485  24.610  1.00  0.00     0.268 C 
ATOM      7  C   UNL A   1      30.424  26.161  24.460  1.00  0.00     0.101 C 
BRANCH   6   8
ATOM      8  N   UNL A   1      30.266  28.563  24.134  1.00  0.00    -0.326 N 
ATOM      9  H   UNL A   1      30.574  29.443  24.549  1.00  0.00     0.347 HD
ATOM     10  H   UNL A   1      29.338  28.254  24.424  1.00  0.00     0.347 HD
BRANCH   8  11
ATOM     11  C   UNL A   1      30.168  28.765  22.686  1.00  0.00     0.261 C 
BRANCH  11  12
ATOM     12  C   UNL A   1      29.385  29.989  22.186  1.00  0.00     0.065 C 
BRANCH  12  13
ATOM     13  C   UNL A   1      29.029  31.001  23.238  1.00  0.00    -0.006 C 
ATOM     14  C   UNL A   1      28.476  32.368  22.911  1.00  0.00     0.004 C 
ATOM     15  C   UNL A   1      27.578  31.324  23.500  1.00  0.00     0.004 C 
ENDBRANCH  12  13
ENDBRANCH  11  12
ENDBRANCH   8  11
ENDBRANCH   6   8
BRANCH   6  16
ATOM     16  C   UNL A   1      32.516  27.306  23.798  1.00  0.00     0.453 C 
ATOM     17  F   UNL A   1      33.044  28.487  23.400  1.00  0.00    -0.164 F 
ATOM     18  F   UNL A   1      33.461  26.716  24.587  1.00  0.00    -0.164 F 
ATOM     19  F   UNL A   1      32.384  26.518  22.712  1.00  0.00    -0.164 F 
ENDBRANCH   6  16
ENDBRANCH   3   6
ENDBRANCH   1   2
BRANCH   1  20
ATOM     20  C   UNL A   1      31.449  31.085  25.918  1.00  0.00     0.023 C 
BRANCH  20  21
ATOM     21  C   UNL A   1      31.503  31.969  27.166  1.00  0.00     0.023 C 
BRANCH  21  22
ATOM     22  C   UNL A   1      32.750  32.837  27.290  1.00  0.00     0.116 C 
BRANCH  22  23
ATOM     23  N   UNL A   1      32.447  34.223  27.609  1.00  0.00    -0.352 N 
ATOM     24  C   UNL A   1      33.024  35.035  28.557  1.00  0.00     0.251 C 
ATOM     25  H   UNL A   1      31.733  34.636  27.073  1.00  0.00     0.163 HD
ATOM     26  O   UNL A   1      32.562  36.144  28.790  1.00  0.00    -0.269 OA
BRANCH  24  27
ATOM     27  C   UNL A   1      34.189  34.541  29.322  1.00  0.00     0.039 A 
ATOM     28  C   UNL A   1      33.971  33.930  30.558  1.00  0.00     0.014 A 
ATOM     29  C   UNL A   1      35.483  34.657  28.806  1.00  0.00     0.014 A 
ATOM     30  C   UNL A   1      35.048  33.373  31.250  1.00  0.00     0.010 A 
ATOM     31  C   UNL A   1      36.543  34.039  29.462  1.00  0.00     0.010 A 
ATOM     32  C   UNL A   1      36.336  33.390  30.689  1.00  0.00    -0.014 A 
BRANCH  32  33
ATOM     33  C   UNL A   1      37.480  32.732  31.369  1.00  0.00     0.031 A 
ATOM     34  C   UNL A   1      38.192  31.587  30.707  1.00  0.00     0.074 A 
ATOM     35  C   UNL A   1      37.830  33.121  32.610  1.00  0.00     0.049 A 
ATOM     36  N   UNL A   1      39.160  30.835  31.169  1.00  0.00    -0.248 NA
ATOM     37  C   UNL A   1      37.739  31.219  29.357  1.00  0.00     0.031 C 
ATOM     38  C   UNL A   1      37.181  34.185  33.378  1.00  0.00     0.029 A 
ATOM     39  N   UNL A   1      38.810  32.655  33.451  1.00  0.00    -0.354 N 
ATOM     40  C   UNL A   1      39.419  29.902  30.175  1.00  0.00     0.074 A 
ATOM     41  C   UNL A   1      38.472  30.144  29.109  1.00  0.00     0.031 C 
ATOM     42  C   UNL A   1      37.791  34.303  34.568  1.00  0.00     0.029 A 
ATOM     43  C   UNL A   1      38.848  33.301  34.663  1.00  0.00     0.049 A 
ATOM     44  H   UNL A   1      39.427  31.929  33.208  1.00  0.00     0.167 HD
ATOM     45  C   UNL A   1      40.378  28.946  30.144  1.00  0.00     0.037 A 
ATOM     46  C   UNL A   1      39.641  33.100  35.732  1.00  0.00     0.037 A 
ATOM     47  C   UNL A   1      41.333  28.722  31.197  1.00  0.00     0.049 A 
ATOM     48  C   UNL A   1      40.697  32.031  35.672  1.00  0.00     0.074 A 
ATOM     49  C   UNL A   1      42.376  27.814  31.238  1.00  0.00     0.029 A 
ATOM     50  N   UNL A   1      41.357  29.414  32.399  1.00  0.00    -0.354 N 
ATOM     51  N   UNL A   1      40.978  31.198  34.699  1.00  0.00    -0.248 NA
ATOM     52  C   UNL A   1      41.553  31.878  36.858  1.00  0.00     0.031 C 
ATOM     53  C   UNL A   1      43.007  27.928  32.482  1.00  0.00     0.029 A 
ATOM     54  C   UNL A   1      42.387  28.941  33.196  1.00  0.00     0.049 A 
ATOM     55  H   UNL A   1      40.735  30.135  32.649  1.00  0.00     0.167 HD
ATOM     56  C   UNL A   1      42.056  30.444  35.142  1.00  0.00     0.074 A 
ATOM     57  C   UNL A   1      42.389  30.928  36.465  1.00  0.00     0.031 C 
ATOM     58  C   UNL A   1      42.711  29.439  34.508  1.00  0.00     0.037 A 
BRANCH  45  59
ATOM     59  C   UNL A   1      40.446  28.073  28.924  1.00  0.00     0.064 A 
ATOM     60  C   UNL A   1      39.737  26.865  28.846  1.00  0.00     0.173 A 
ATOM     61  C   UNL A   1      41.203  28.463  27.809  1.00  0.00     0.173 A 
ATOM     62  F   UNL A   1      39.007  26.440  29.889  1.00  0.00    -0.203 F 
ATOM     63  C   UNL A   1      39.806  26.066  27.707  1.00  0.00     0.198 A 
ATOM     64  C   UNL A   1      41.246  27.675  26.661  1.00  0.00     0.198 A 
ATOM     65  F   UNL A   1      41.897  29.609  27.829  1.00  0.00    -0.203 F 
ATOM     66  F   UNL A   1      39.160  24.891  27.676  1.00  0.00    -0.200 F 
ATOM     67  C   UNL A   1      40.554  26.474  26.614  1.00  0.00     0.200 A 
ATOM     68  F   UNL A   1      41.959  28.077  25.600  1.00  0.00    -0.200 F 
ATOM     69  F   UNL A   1      40.614  25.706  25.517  1.00  0.00    -0.200 F 
ENDBRANCH  45  59
BRANCH  46  70
ATOM     70  C   UNL A   1      39.480  33.946  36.943  1.00  0.00     0.064 A 
ATOM     71  C   UNL A   1      40.080  35.210  37.025  1.00  0.00     0.173 A 
ATOM     72  C   UNL A   1      38.729  33.509  38.045  1.00  0.00     0.173 A 
ATOM     73  F   UNL A   1      40.824  35.663  36.005  1.00  0.00    -0.203 F 
ATOM     74  C   UNL A   1      39.953  35.996  38.167  1.00  0.00     0.198 A 
ATOM     75  C   UNL A   1      38.579  34.308  39.177  1.00  0.00     0.198 A 
ATOM     76  F   UNL A   1      38.130  32.309  38.016  1.00  0.00    -0.203 F 
ATOM     77  F   UNL A   1      40.576  37.181  38.235  1.00  0.00    -0.200 F 
ATOM     78  C   UNL A   1      39.199  35.547  39.241  1.00  0.00     0.200 A 
ATOM     79  F   UNL A   1      37.838  33.876  40.206  1.00  0.00    -0.200 F 
ATOM     80  F   UNL A   1      39.074  36.305  40.339  1.00  0.00    -0.200 F 
ENDBRANCH  46  70
BRANCH  58  81
ATOM     81  C   UNL A   1      43.876  28.820  35.224  1.00  0.00     0.064 A 
ATOM     82  C   UNL A   1      45.184  29.294  35.050  1.00  0.00     0.173 A 
ATOM     83  C   UNL A   1      43.673  27.766  36.127  1.00  0.00     0.173 A 
ATOM     84  F   UNL A   1      45.431  30.291  34.186  1.00  0.00    -0.203 F 
ATOM     85  C   UNL A   1      46.250  28.719  35.736  1.00  0.00     0.198 A 
ATOM     86  C   UNL A   1      44.737  27.213  36.834  1.00  0.00     0.198 A 
ATOM     87  F   UNL A   1      42.440  27.280  36.335  1.00  0.00    -0.203 F 
ATOM     88  F   UNL A   1      47.498  29.158  35.519  1.00  0.00    -0.200 F 
ATOM     89  C   UNL A   1      46.025  27.685  36.632  1.00  0.00     0.200 A 
ATOM     90  F   UNL A   1      44.516  26.223  37.710  1.00  0.00    -0.200 F 
ATOM     91  F   UNL A   1      47.052  27.138  37.297  1.00  0.00    -0.200 F 
ENDBRANCH  58  81
ENDBRANCH  32  33
ENDBRANCH  24  27
ENDBRANCH  22  23
ENDBRANCH  21  22
ENDBRANCH  20  21
ENDBRANCH   1  20
TORSDOF 16
ENDMDL
