MODEL 1
REMARK VINA RESULT:     -12.9      0.000      0.000
REMARK SMILES C[C@H]1[C@H](C(=O)NCCCCNC(=O)c2ccc(-c3c4nc(c(-c5c(F)c(F)c(F)c(F)c5F)c5ccc([nH]5)c(-c5c(F)c(F)c(F)c(F)c5F)c5nc(c(-c6c(F)c(F)c(F)c(F)c6F)c6ccc3[nH]6)C=C5)C=C4)cc2)CC[N@@H+]1Cc1nnnn1-c1ccccc1
REMARK SMILES IDX 8 1 7 2 6 3 4 4 5 5 3 7 1 8 2 9 79 10 77 11 78 12 80 14
REMARK SMILES IDX 81 15 82 16 85 17 83 18 84 19 86 20 87 21 91 22 88 23 90 24
REMARK SMILES IDX 89 25 9 26 10 27 11 28 12 29 13 31 14 32 15 33 76 34 16 35
REMARK SMILES IDX 75 36 17 37 18 38 19 39 69 40 20 41 74 42 68 43 70 44 21 45
REMARK SMILES IDX 73 46 67 47 66 48 22 50 54 51 34 52 53 53 35 54 38 55 52 56
REMARK SMILES IDX 71 57 36 58 37 59 51 61 72 62 39 63 23 64 24 65 32 66 25 67
REMARK SMILES IDX 26 68 30 69 33 70 27 71 28 72 31 73 29 74 55 75 56 76 64 77
REMARK SMILES IDX 57 78 58 79 62 80 65 81 59 82 60 83 63 84 61 85 40 86 41 87
REMARK SMILES IDX 49 88 42 89 43 90 47 91 50 92 44 93 45 94 48 95 46 96
REMARK H PARENT 6 6 79 13 11 30 70 49 38 60
REMARK Flexibility Score: inf
ROOT
ATOM      1  C   UNL A   1      36.935  20.104  25.001  1.00  0.00     0.023 C 
ENDROOT
BRANCH   1   2
ATOM      2  C   UNL A   1      35.534  20.724  25.008  1.00  0.00     0.116 C 
BRANCH   2   3
ATOM      3  N   UNL A   1      34.500  19.768  25.328  1.00  0.00    -0.356 N 
ATOM      4  C   UNL A   1      33.153  19.858  25.193  1.00  0.00     0.229 C 
ATOM      5  O   UNL A   1      32.506  18.831  25.428  1.00  0.00    -0.275 OA
ATOM      6  H   UNL A   1      34.824  18.916  25.702  1.00  0.00     0.163 HD
BRANCH   4   7
ATOM      7  C   UNL A   1      32.421  21.114  24.729  1.00  0.00     0.142 C 
ATOM      8  C   UNL A   1      31.638  22.749  26.470  1.00  0.00     0.076 C 
ATOM      9  C   UNL A   1      32.729  22.452  25.432  1.00  0.00     0.194 C 
ATOM     10  N   UNL A   1      32.658  23.489  24.382  1.00  0.00    -0.326 N 
ATOM     11  C   UNL A   1      32.528  21.431  23.244  1.00  0.00     0.081 C 
ATOM     12  C   UNL A   1      32.052  22.874  23.209  1.00  0.00     0.263 C 
ATOM     13  H   UNL A   1      32.051  24.242  24.711  1.00  0.00     0.348 HD
BRANCH  10  14
ATOM     14  C   UNL A   1      33.811  24.389  24.192  1.00  0.00     0.343 C 
BRANCH  14  15
ATOM     15  C   UNL A   1      33.676  25.603  23.321  1.00  0.00     0.210 A 
ATOM     16  N   UNL A   1      34.024  25.698  22.048  1.00  0.00    -0.107 NA
ATOM     17  N   UNL A   1      33.114  26.819  23.676  1.00  0.00    -0.192 N 
ATOM     18  N   UNL A   1      33.478  26.868  21.584  1.00  0.00    -0.023 NA
ATOM     19  N   UNL A   1      32.820  27.495  22.543  1.00  0.00    -0.040 NA
BRANCH  17  20
ATOM     20  C   UNL A   1      32.856  27.372  24.938  1.00  0.00     0.069 A 
ATOM     21  C   UNL A   1      31.611  27.156  25.541  1.00  0.00     0.028 A 
ATOM     22  C   UNL A   1      33.856  28.098  25.594  1.00  0.00     0.028 A 
ATOM     23  C   UNL A   1      31.403  27.599  26.846  1.00  0.00     0.002 A 
ATOM     24  C   UNL A   1      33.618  28.578  26.880  1.00  0.00     0.002 A 
ATOM     25  C   UNL A   1      32.404  28.309  27.511  1.00  0.00     0.000 A 
ENDBRANCH  17  20
ENDBRANCH  14  15
ENDBRANCH  10  14
ENDBRANCH   4   7
ENDBRANCH   2   3
ENDBRANCH   1   2
BRANCH   1  26
ATOM     26  C   UNL A   1      38.084  21.111  25.012  1.00  0.00     0.023 C 
BRANCH  26  27
ATOM     27  C   UNL A   1      39.156  20.900  26.078  1.00  0.00     0.116 C 
BRANCH  27  28
ATOM     28  N   UNL A   1      39.944  19.687  25.931  1.00  0.00    -0.352 N 
ATOM     29  C   UNL A   1      41.304  19.529  26.125  1.00  0.00     0.251 C 
ATOM     30  H   UNL A   1      39.448  18.879  25.662  1.00  0.00     0.163 HD
ATOM     31  O   UNL A   1      41.859  18.460  25.937  1.00  0.00    -0.269 OA
BRANCH  29  32
ATOM     32  C   UNL A   1      42.100  20.715  26.520  1.00  0.00     0.039 A 
ATOM     33  C   UNL A   1      42.621  21.539  25.520  1.00  0.00     0.014 A 
ATOM     34  C   UNL A   1      42.247  21.057  27.866  1.00  0.00     0.014 A 
ATOM     35  C   UNL A   1      43.184  22.768  25.867  1.00  0.00     0.010 A 
ATOM     36  C   UNL A   1      42.741  22.313  28.206  1.00  0.00     0.010 A 
ATOM     37  C   UNL A   1      43.188  23.192  27.208  1.00  0.00    -0.014 A 
BRANCH  37  38
ATOM     38  C   UNL A   1      43.592  24.573  27.575  1.00  0.00     0.031 A 
ATOM     39  C   UNL A   1      42.560  25.605  27.924  1.00  0.00     0.074 A 
ATOM     40  C   UNL A   1      44.894  24.919  27.507  1.00  0.00     0.049 A 
ATOM     41  N   UNL A   1      42.721  26.874  28.207  1.00  0.00    -0.248 NA
ATOM     42  C   UNL A   1      41.158  25.161  27.930  1.00  0.00     0.031 C 
ATOM     43  C   UNL A   1      45.988  24.027  27.115  1.00  0.00     0.029 A 
ATOM     44  N   UNL A   1      45.519  26.118  27.753  1.00  0.00    -0.354 N 
ATOM     45  C   UNL A   1      41.445  27.380  28.411  1.00  0.00     0.074 A 
ATOM     46  C   UNL A   1      40.517  26.295  28.172  1.00  0.00     0.031 C 
ATOM     47  C   UNL A   1      47.147  24.700  27.169  1.00  0.00     0.029 A 
ATOM     48  C   UNL A   1      46.879  26.079  27.567  1.00  0.00     0.049 A 
ATOM     49  H   UNL A   1      45.036  26.928  28.036  1.00  0.00     0.167 HD
ATOM     50  C   UNL A   1      41.082  28.629  28.787  1.00  0.00     0.037 A 
ATOM     51  C   UNL A   1      47.806  27.047  27.698  1.00  0.00     0.037 A 
ATOM     52  C   UNL A   1      42.007  29.701  29.048  1.00  0.00     0.049 A 
ATOM     53  C   UNL A   1      47.377  28.423  28.128  1.00  0.00     0.074 A 
ATOM     54  C   UNL A   1      41.739  30.981  29.498  1.00  0.00     0.029 A 
ATOM     55  N   UNL A   1      43.381  29.615  28.877  1.00  0.00    -0.354 N 
ATOM     56  N   UNL A   1      46.174  28.868  28.397  1.00  0.00    -0.248 NA
ATOM     57  C   UNL A   1      48.437  29.430  28.278  1.00  0.00     0.031 C 
ATOM     58  C   UNL A   1      42.947  31.684  29.563  1.00  0.00     0.029 A 
ATOM     59  C   UNL A   1      43.973  30.828  29.196  1.00  0.00     0.049 A 
ATOM     60  H   UNL A   1      43.864  28.813  28.575  1.00  0.00     0.167 HD
ATOM     61  C   UNL A   1      46.332  30.194  28.773  1.00  0.00     0.074 A 
ATOM     62  C   UNL A   1      47.751  30.479  28.711  1.00  0.00     0.031 C 
ATOM     63  C   UNL A   1      45.387  31.094  29.136  1.00  0.00     0.037 A 
BRANCH  50  64
ATOM     64  C   UNL A   1      39.616  28.903  28.947  1.00  0.00     0.064 A 
ATOM     65  C   UNL A   1      38.981  28.791  30.194  1.00  0.00     0.173 A 
ATOM     66  C   UNL A   1      38.842  29.314  27.852  1.00  0.00     0.173 A 
ATOM     67  F   UNL A   1      39.676  28.391  31.271  1.00  0.00    -0.203 F 
ATOM     68  C   UNL A   1      37.621  29.052  30.333  1.00  0.00     0.198 A 
ATOM     69  C   UNL A   1      37.487  29.602  28.001  1.00  0.00     0.198 A 
ATOM     70  F   UNL A   1      39.399  29.443  26.640  1.00  0.00    -0.203 F 
ATOM     71  F   UNL A   1      37.029  28.894  31.524  1.00  0.00    -0.200 F 
ATOM     72  C   UNL A   1      36.876  29.463  29.238  1.00  0.00     0.200 A 
ATOM     73  F   UNL A   1      36.771  30.011  26.944  1.00  0.00    -0.200 F 
ATOM     74  F   UNL A   1      35.569  29.720  29.374  1.00  0.00    -0.200 F 
ENDBRANCH  50  64
BRANCH  51  75
ATOM     75  C   UNL A   1      49.239  26.741  27.453  1.00  0.00     0.064 A 
ATOM     76  C   UNL A   1      49.753  26.708  26.150  1.00  0.00     0.173 A 
ATOM     77  C   UNL A   1      50.121  26.472  28.510  1.00  0.00     0.173 A 
ATOM     78  F   UNL A   1      48.943  26.938  25.106  1.00  0.00    -0.203 F 
ATOM     79  C   UNL A   1      51.090  26.399  25.910  1.00  0.00     0.198 A 
ATOM     80  C   UNL A   1      51.464  26.187  28.271  1.00  0.00     0.198 A 
ATOM     81  F   UNL A   1      49.678  26.495  29.776  1.00  0.00    -0.203 F 
ATOM     82  F   UNL A   1      51.545  26.332  24.652  1.00  0.00    -0.200 F 
ATOM     83  C   UNL A   1      51.945  26.144  26.972  1.00  0.00     0.200 A 
ATOM     84  F   UNL A   1      52.290  25.954  29.300  1.00  0.00    -0.200 F 
ATOM     85  F   UNL A   1      53.233  25.849  26.742  1.00  0.00    -0.200 F 
ENDBRANCH  51  75
BRANCH  63  86
ATOM     86  C   UNL A   1      45.857  32.465  29.524  1.00  0.00     0.064 A 
ATOM     87  C   UNL A   1      45.950  33.503  28.586  1.00  0.00     0.173 A 
ATOM     88  C   UNL A   1      46.183  32.752  30.859  1.00  0.00     0.173 A 
ATOM     89  F   UNL A   1      45.665  33.273  27.295  1.00  0.00    -0.203 F 
ATOM     90  C   UNL A   1      46.371  34.775  28.966  1.00  0.00     0.198 A 
ATOM     91  C   UNL A   1      46.578  34.031  31.240  1.00  0.00     0.198 A 
ATOM     92  F   UNL A   1      46.107  31.794  31.795  1.00  0.00    -0.203 F 
ATOM     93  F   UNL A   1      46.493  35.741  28.046  1.00  0.00    -0.200 F 
ATOM     94  C   UNL A   1      46.678  35.039  30.293  1.00  0.00     0.200 A 
ATOM     95  F   UNL A   1      46.863  34.287  32.525  1.00  0.00    -0.200 F 
ATOM     96  F   UNL A   1      47.076  36.265  30.659  1.00  0.00    -0.200 F 
ENDBRANCH  63  86
ENDBRANCH  37  38
ENDBRANCH  29  32
ENDBRANCH  27  28
ENDBRANCH  26  27
ENDBRANCH   1  26
TORSDOF 14
ENDMDL
MODEL 2
REMARK VINA RESULT:     -12.9      5.275      9.301
REMARK SMILES C[C@H]1[C@H](C(=O)NCCCCNC(=O)c2ccc(-c3c4nc(c(-c5c(F)c(F)c(F)c(F)c5F)c5ccc([nH]5)c(-c5c(F)c(F)c(F)c(F)c5F)c5nc(c(-c6c(F)c(F)c(F)c(F)c6F)c6ccc3[nH]6)C=C5)C=C4)cc2)CC[N@@H+]1Cc1nnnn1-c1ccccc1
REMARK SMILES IDX 8 1 7 2 6 3 4 4 5 5 3 7 1 8 2 9 79 10 77 11 78 12 80 14
REMARK SMILES IDX 81 15 82 16 85 17 83 18 84 19 86 20 87 21 91 22 88 23 90 24
REMARK SMILES IDX 89 25 9 26 10 27 11 28 12 29 13 31 14 32 15 33 76 34 16 35
REMARK SMILES IDX 75 36 17 37 18 38 19 39 69 40 20 41 74 42 68 43 70 44 21 45
REMARK SMILES IDX 73 46 67 47 66 48 22 50 54 51 34 52 53 53 35 54 38 55 52 56
REMARK SMILES IDX 71 57 36 58 37 59 51 61 72 62 39 63 23 64 24 65 32 66 25 67
REMARK SMILES IDX 26 68 30 69 33 70 27 71 28 72 31 73 29 74 55 75 56 76 64 77
REMARK SMILES IDX 57 78 58 79 62 80 65 81 59 82 60 83 63 84 61 85 40 86 41 87
REMARK SMILES IDX 49 88 42 89 43 90 47 91 50 92 44 93 45 94 48 95 46 96
REMARK H PARENT 6 6 79 13 11 30 70 49 38 60
REMARK Flexibility Score: inf
ROOT
ATOM      1  C   UNL A   1      31.592  30.743  26.353  1.00  0.00     0.023 C 
ENDROOT
BRANCH   1   2
ATOM      2  C   UNL A   1      32.992  30.169  26.590  1.00  0.00     0.116 C 
BRANCH   2   3
ATOM      3  N   UNL A   1      33.603  29.668  25.382  1.00  0.00    -0.356 N 
ATOM      4  C   UNL A   1      33.734  28.396  24.930  1.00  0.00     0.229 C 
ATOM      5  O   UNL A   1      34.191  28.260  23.790  1.00  0.00    -0.275 OA
ATOM      6  H   UNL A   1      33.985  30.359  24.792  1.00  0.00     0.163 HD
BRANCH   4   7
ATOM      7  C   UNL A   1      33.307  27.160  25.717  1.00  0.00     0.142 C 
ATOM      8  C   UNL A   1      31.028  27.149  26.777  1.00  0.00     0.076 C 
ATOM      9  C   UNL A   1      31.854  26.660  25.580  1.00  0.00     0.194 C 
ATOM     10  N   UNL A   1      31.924  25.185  25.643  1.00  0.00    -0.326 N 
ATOM     11  C   UNL A   1      34.159  25.916  25.508  1.00  0.00     0.081 C 
ATOM     12  C   UNL A   1      33.264  24.836  26.093  1.00  0.00     0.263 C 
ATOM     13  H   UNL A   1      31.248  24.858  26.335  1.00  0.00     0.348 HD
BRANCH  10  14
ATOM     14  C   UNL A   1      31.318  24.397  24.553  1.00  0.00     0.343 C 
BRANCH  14  15
ATOM     15  C   UNL A   1      32.034  24.261  23.243  1.00  0.00     0.210 A 
ATOM     16  N   UNL A   1      31.946  25.084  22.211  1.00  0.00    -0.107 NA
ATOM     17  N   UNL A   1      32.955  23.284  22.898  1.00  0.00    -0.192 N 
ATOM     18  N   UNL A   1      32.958  24.740  21.352  1.00  0.00    -0.023 NA
ATOM     19  N   UNL A   1      33.651  23.719  21.825  1.00  0.00    -0.040 NA
BRANCH  17  20
ATOM     20  C   UNL A   1      33.208  22.028  23.467  1.00  0.00     0.069 A 
ATOM     21  C   UNL A   1      34.341  21.856  24.272  1.00  0.00     0.028 A 
ATOM     22  C   UNL A   1      32.310  20.976  23.255  1.00  0.00     0.028 A 
ATOM     23  C   UNL A   1      34.523  20.643  24.937  1.00  0.00     0.002 A 
ATOM     24  C   UNL A   1      32.530  19.754  23.887  1.00  0.00     0.002 A 
ATOM     25  C   UNL A   1      33.620  19.597  24.742  1.00  0.00     0.000 A 
ENDBRANCH  17  20
ENDBRANCH  14  15
ENDBRANCH  10  14
ENDBRANCH   4   7
ENDBRANCH   2   3
ENDBRANCH   1   2
BRANCH   1  26
ATOM     26  C   UNL A   1      31.382  32.164  26.876  1.00  0.00     0.023 C 
BRANCH  26  27
ATOM     27  C   UNL A   1      32.602  33.080  26.845  1.00  0.00     0.116 C 
BRANCH  27  28
ATOM     28  N   UNL A   1      32.532  34.234  27.728  1.00  0.00    -0.352 N 
ATOM     29  C   UNL A   1      33.399  34.575  28.750  1.00  0.00     0.251 C 
ATOM     30  H   UNL A   1      31.776  34.847  27.579  1.00  0.00     0.163 HD
ATOM     31  O   UNL A   1      33.214  35.558  29.447  1.00  0.00    -0.269 OA
BRANCH  29  32
ATOM     32  C   UNL A   1      34.548  33.680  29.025  1.00  0.00     0.039 A 
ATOM     33  C   UNL A   1      35.843  34.189  28.902  1.00  0.00     0.014 A 
ATOM     34  C   UNL A   1      34.341  32.380  29.492  1.00  0.00     0.014 A 
ATOM     35  C   UNL A   1      36.924  33.435  29.362  1.00  0.00     0.010 A 
ATOM     36  C   UNL A   1      35.411  31.660  30.016  1.00  0.00     0.010 A 
ATOM     37  C   UNL A   1      36.708  32.193  29.982  1.00  0.00    -0.014 A 
BRANCH  37  38
ATOM     38  C   UNL A   1      37.815  31.470  30.659  1.00  0.00     0.031 A 
ATOM     39  C   UNL A   1      38.176  31.782  32.081  1.00  0.00     0.074 A 
ATOM     40  C   UNL A   1      38.554  30.588  29.955  1.00  0.00     0.049 A 
ATOM     41  N   UNL A   1      39.149  31.301  32.814  1.00  0.00    -0.248 NA
ATOM     42  C   UNL A   1      37.351  32.789  32.765  1.00  0.00     0.031 C 
ATOM     43  C   UNL A   1      38.349  30.247  28.545  1.00  0.00     0.029 A 
ATOM     44  N   UNL A   1      39.637  29.827  30.324  1.00  0.00    -0.354 N 
ATOM     45  C   UNL A   1      39.062  31.953  34.035  1.00  0.00     0.074 A 
ATOM     46  C   UNL A   1      37.972  32.900  33.931  1.00  0.00     0.031 C 
ATOM     47  C   UNL A   1      39.258  29.331  28.176  1.00  0.00     0.029 A 
ATOM     48  C   UNL A   1      40.131  29.043  29.310  1.00  0.00     0.049 A 
ATOM     49  H   UNL A   1      40.023  29.844  31.229  1.00  0.00     0.167 HD
ATOM     50  C   UNL A   1      39.808  31.763  35.150  1.00  0.00     0.037 A 
ATOM     51  C   UNL A   1      41.173  28.190  29.295  1.00  0.00     0.037 A 
ATOM     52  C   UNL A   1      40.875  30.804  35.259  1.00  0.00     0.049 A 
ATOM     53  C   UNL A   1      41.977  27.988  30.550  1.00  0.00     0.074 A 
ATOM     54  C   UNL A   1      41.644  30.491  36.367  1.00  0.00     0.029 A 
ATOM     55  N   UNL A   1      41.328  30.004  34.219  1.00  0.00    -0.354 N 
ATOM     56  N   UNL A   1      41.833  28.553  31.724  1.00  0.00    -0.248 NA
ATOM     57  C   UNL A   1      43.085  27.027  30.478  1.00  0.00     0.031 C 
ATOM     58  C   UNL A   1      42.587  29.529  35.988  1.00  0.00     0.029 A 
ATOM     59  C   UNL A   1      42.378  29.212  34.655  1.00  0.00     0.049 A 
ATOM     60  H   UNL A   1      40.958  30.001  33.307  1.00  0.00     0.167 HD
ATOM     61  C   UNL A   1      42.811  27.998  32.537  1.00  0.00     0.074 A 
ATOM     62  C   UNL A   1      43.535  27.040  31.726  1.00  0.00     0.031 C 
ATOM     63  C   UNL A   1      43.084  28.258  33.838  1.00  0.00     0.037 A 
BRANCH  50  64
ATOM     64  C   UNL A   1      39.486  32.606  36.347  1.00  0.00     0.064 A 
ATOM     65  C   UNL A   1      40.153  33.817  36.591  1.00  0.00     0.173 A 
ATOM     66  C   UNL A   1      38.479  32.220  37.244  1.00  0.00     0.173 A 
ATOM     67  F   UNL A   1      41.132  34.226  35.769  1.00  0.00    -0.203 F 
ATOM     68  C   UNL A   1      39.843  34.595  37.703  1.00  0.00     0.198 A 
ATOM     69  C   UNL A   1      38.152  33.015  38.340  1.00  0.00     0.198 A 
ATOM     70  F   UNL A   1      37.807  31.076  37.054  1.00  0.00    -0.203 F 
ATOM     71  F   UNL A   1      40.526  35.724  37.940  1.00  0.00    -0.200 F 
ATOM     72  C   UNL A   1      38.840  34.197  38.573  1.00  0.00     0.200 A 
ATOM     73  F   UNL A   1      37.174  32.635  39.174  1.00  0.00    -0.200 F 
ATOM     74  F   UNL A   1      38.538  34.949  39.640  1.00  0.00    -0.200 F 
ENDBRANCH  50  64
BRANCH  51  75
ATOM     75  C   UNL A   1      41.495  27.434  28.058  1.00  0.00     0.064 A 
ATOM     76  C   UNL A   1      40.936  26.171  27.822  1.00  0.00     0.173 A 
ATOM     77  C   UNL A   1      42.368  27.953  27.089  1.00  0.00     0.173 A 
ATOM     78  F   UNL A   1      40.113  25.625  28.729  1.00  0.00    -0.203 F 
ATOM     79  C   UNL A   1      41.252  25.445  26.675  1.00  0.00     0.198 A 
ATOM     80  C   UNL A   1      42.664  27.237  25.931  1.00  0.00     0.198 A 
ATOM     81  F   UNL A   1      42.926  29.159  27.267  1.00  0.00    -0.203 F 
ATOM     82  F   UNL A   1      40.736  24.221  26.497  1.00  0.00    -0.200 F 
ATOM     83  C   UNL A   1      42.111  25.981  25.729  1.00  0.00     0.200 A 
ATOM     84  F   UNL A   1      43.485  27.763  25.012  1.00  0.00    -0.200 F 
ATOM     85  F   UNL A   1      42.413  25.285  24.624  1.00  0.00    -0.200 F 
ENDBRANCH  51  75
BRANCH  63  86
ATOM     86  C   UNL A   1      44.194  27.477  34.477  1.00  0.00     0.064 A 
ATOM     87  C   UNL A   1      45.508  27.964  34.514  1.00  0.00     0.173 A 
ATOM     88  C   UNL A   1      43.931  26.243  35.091  1.00  0.00     0.173 A 
ATOM     89  F   UNL A   1      45.812  29.131  33.925  1.00  0.00    -0.203 F 
ATOM     90  C   UNL A   1      46.524  27.235  35.126  1.00  0.00     0.198 A 
ATOM     91  C   UNL A   1      44.944  25.529  35.725  1.00  0.00     0.198 A 
ATOM     92  F   UNL A   1      42.689  25.736  35.086  1.00  0.00    -0.203 F 
ATOM     93  F   UNL A   1      47.781  27.699  35.114  1.00  0.00    -0.200 F 
ATOM     94  C   UNL A   1      46.239  26.022  35.737  1.00  0.00     0.200 A 
ATOM     95  F   UNL A   1      44.665  24.363  36.324  1.00  0.00    -0.200 F 
ATOM     96  F   UNL A   1      47.216  25.324  36.332  1.00  0.00    -0.200 F 
ENDBRANCH  63  86
ENDBRANCH  37  38
ENDBRANCH  29  32
ENDBRANCH  27  28
ENDBRANCH  26  27
ENDBRANCH   1  26
TORSDOF 14
ENDMDL
MODEL 3
REMARK VINA RESULT:     -12.8      0.729      1.832
REMARK SMILES C[C@H]1[C@H](C(=O)NCCCCNC(=O)c2ccc(-c3c4nc(c(-c5c(F)c(F)c(F)c(F)c5F)c5ccc([nH]5)c(-c5c(F)c(F)c(F)c(F)c5F)c5nc(c(-c6c(F)c(F)c(F)c(F)c6F)c6ccc3[nH]6)C=C5)C=C4)cc2)CC[N@@H+]1Cc1nnnn1-c1ccccc1
REMARK SMILES IDX 8 1 7 2 6 3 4 4 5 5 3 7 1 8 2 9 79 10 77 11 78 12 80 14
REMARK SMILES IDX 81 15 82 16 85 17 83 18 84 19 86 20 87 21 91 22 88 23 90 24
REMARK SMILES IDX 89 25 9 26 10 27 11 28 12 29 13 31 14 32 15 33 76 34 16 35
REMARK SMILES IDX 75 36 17 37 18 38 19 39 69 40 20 41 74 42 68 43 70 44 21 45
REMARK SMILES IDX 73 46 67 47 66 48 22 50 54 51 34 52 53 53 35 54 38 55 52 56
REMARK SMILES IDX 71 57 36 58 37 59 51 61 72 62 39 63 23 64 24 65 32 66 25 67
REMARK SMILES IDX 26 68 30 69 33 70 27 71 28 72 31 73 29 74 55 75 56 76 64 77
REMARK SMILES IDX 57 78 58 79 62 80 65 81 59 82 60 83 63 84 61 85 40 86 41 87
REMARK SMILES IDX 49 88 42 89 43 90 47 91 50 92 44 93 45 94 48 95 46 96
REMARK H PARENT 6 6 79 13 11 30 70 49 38 60
REMARK Flexibility Score: inf
ROOT
ATOM      1  C   UNL A   1      36.922  20.023  25.004  1.00  0.00     0.023 C 
ENDROOT
BRANCH   1   2
ATOM      2  C   UNL A   1      35.526  20.654  24.994  1.00  0.00     0.116 C 
BRANCH   2   3
ATOM      3  N   UNL A   1      34.484  19.709  25.321  1.00  0.00    -0.356 N 
ATOM      4  C   UNL A   1      33.135  19.832  25.241  1.00  0.00     0.229 C 
ATOM      5  O   UNL A   1      32.474  18.812  25.466  1.00  0.00    -0.275 OA
ATOM      6  H   UNL A   1      34.802  18.839  25.655  1.00  0.00     0.163 HD
BRANCH   4   7
ATOM      7  C   UNL A   1      32.415  21.117  24.845  1.00  0.00     0.142 C 
ATOM      8  C   UNL A   1      31.867  22.781  26.649  1.00  0.00     0.076 C 
ATOM      9  C   UNL A   1      32.842  22.441  25.513  1.00  0.00     0.194 C 
ATOM     10  N   UNL A   1      32.714  23.482  24.472  1.00  0.00    -0.326 N 
ATOM     11  C   UNL A   1      32.394  21.433  23.356  1.00  0.00     0.081 C 
ATOM     12  C   UNL A   1      31.976  22.894  23.363  1.00  0.00     0.263 C 
ATOM     13  H   UNL A   1      32.173  24.258  24.855  1.00  0.00     0.348 HD
BRANCH  10  14
ATOM     14  C   UNL A   1      33.881  24.333  24.171  1.00  0.00     0.343 C 
BRANCH  14  15
ATOM     15  C   UNL A   1      33.710  25.562  23.328  1.00  0.00     0.210 A 
ATOM     16  N   UNL A   1      34.024  25.686  22.048  1.00  0.00    -0.107 NA
ATOM     17  N   UNL A   1      33.145  26.765  23.720  1.00  0.00    -0.192 N 
ATOM     18  N   UNL A   1      33.455  26.858  21.621  1.00  0.00    -0.023 NA
ATOM     19  N   UNL A   1      32.815  27.459  22.609  1.00  0.00    -0.040 NA
BRANCH  17  20
ATOM     20  C   UNL A   1      32.915  27.292  25.000  1.00  0.00     0.069 A 
ATOM     21  C   UNL A   1      33.919  28.042  25.623  1.00  0.00     0.028 A 
ATOM     22  C   UNL A   1      31.676  27.093  25.618  1.00  0.00     0.028 A 
ATOM     23  C   UNL A   1      33.643  28.668  26.838  1.00  0.00     0.002 A 
ATOM     24  C   UNL A   1      31.430  27.684  26.855  1.00  0.00     0.002 A 
ATOM     25  C   UNL A   1      32.402  28.487  27.451  1.00  0.00     0.000 A 
ENDBRANCH  17  20
ENDBRANCH  14  15
ENDBRANCH  10  14
ENDBRANCH   4   7
ENDBRANCH   2   3
ENDBRANCH   1   2
BRANCH   1  26
ATOM     26  C   UNL A   1      38.078  21.023  25.028  1.00  0.00     0.023 C 
BRANCH  26  27
ATOM     27  C   UNL A   1      39.131  20.810  26.112  1.00  0.00     0.116 C 
BRANCH  27  28
ATOM     28  N   UNL A   1      39.909  19.587  25.989  1.00  0.00    -0.352 N 
ATOM     29  C   UNL A   1      41.277  19.433  26.122  1.00  0.00     0.251 C 
ATOM     30  H   UNL A   1      39.399  18.769  25.786  1.00  0.00     0.163 HD
ATOM     31  O   UNL A   1      41.819  18.354  25.961  1.00  0.00    -0.269 OA
BRANCH  29  32
ATOM     32  C   UNL A   1      42.094  20.634  26.415  1.00  0.00     0.039 A 
ATOM     33  C   UNL A   1      42.571  21.400  25.349  1.00  0.00     0.014 A 
ATOM     34  C   UNL A   1      42.303  21.048  27.733  1.00  0.00     0.014 A 
ATOM     35  C   UNL A   1      43.154  22.643  25.603  1.00  0.00     0.010 A 
ATOM     36  C   UNL A   1      42.817  22.318  27.981  1.00  0.00     0.010 A 
ATOM     37  C   UNL A   1      43.220  23.139  26.917  1.00  0.00    -0.014 A 
BRANCH  37  38
ATOM     38  C   UNL A   1      43.645  24.536  27.190  1.00  0.00     0.031 A 
ATOM     39  C   UNL A   1      42.658  25.554  27.679  1.00  0.00     0.074 A 
ATOM     40  C   UNL A   1      44.912  24.906  26.910  1.00  0.00     0.049 A 
ATOM     41  N   UNL A   1      42.831  26.831  27.910  1.00  0.00    -0.248 NA
ATOM     42  C   UNL A   1      41.285  25.082  27.915  1.00  0.00     0.031 C 
ATOM     43  C   UNL A   1      45.950  24.028  26.366  1.00  0.00     0.029 A 
ATOM     44  N   UNL A   1      45.539  26.122  27.032  1.00  0.00    -0.354 N 
ATOM     45  C   UNL A   1      41.592  27.316  28.304  1.00  0.00     0.074 A 
ATOM     46  C   UNL A   1      40.664  26.208  28.235  1.00  0.00     0.031 C 
ATOM     47  C   UNL A   1      47.087  24.725  26.223  1.00  0.00     0.029 A 
ATOM     48  C   UNL A   1      46.853  26.106  26.633  1.00  0.00     0.049 A 
ATOM     49  H   UNL A   1      45.089  26.928  27.372  1.00  0.00     0.167 HD
ATOM     50  C   UNL A   1      41.264  28.566  28.709  1.00  0.00     0.037 A 
ATOM     51  C   UNL A   1      47.767  27.095  26.598  1.00  0.00     0.037 A 
ATOM     52  C   UNL A   1      42.194  29.661  28.801  1.00  0.00     0.049 A 
ATOM     53  C   UNL A   1      47.380  28.472  27.065  1.00  0.00     0.074 A 
ATOM     54  C   UNL A   1      41.972  30.946  29.264  1.00  0.00     0.029 A 
ATOM     55  N   UNL A   1      43.526  29.600  28.416  1.00  0.00    -0.354 N 
ATOM     56  N   UNL A   1      46.224  28.898  27.513  1.00  0.00    -0.248 NA
ATOM     57  C   UNL A   1      48.426  29.502  27.026  1.00  0.00     0.031 C 
ATOM     58  C   UNL A   1      43.158  31.674  29.124  1.00  0.00     0.029 A 
ATOM     59  C   UNL A   1      44.132  30.830  28.614  1.00  0.00     0.049 A 
ATOM     60  H   UNL A   1      43.974  28.800  28.056  1.00  0.00     0.167 HD
ATOM     61  C   UNL A   1      46.409  30.235  27.834  1.00  0.00     0.074 A 
ATOM     62  C   UNL A   1      47.794  30.547  27.543  1.00  0.00     0.031 C 
ATOM     63  C   UNL A   1      45.513  31.124  28.326  1.00  0.00     0.037 A 
BRANCH  50  64
ATOM     64  C   UNL A   1      39.837  28.814  29.095  1.00  0.00     0.064 A 
ATOM     65  C   UNL A   1      39.398  28.661  30.420  1.00  0.00     0.173 A 
ATOM     66  C   UNL A   1      38.903  29.242  28.140  1.00  0.00     0.173 A 
ATOM     67  F   UNL A   1      40.251  28.243  31.368  1.00  0.00    -0.203 F 
ATOM     68  C   UNL A   1      38.071  28.898  30.767  1.00  0.00     0.198 A 
ATOM     69  C   UNL A   1      37.583  29.506  28.498  1.00  0.00     0.198 A 
ATOM     70  F   UNL A   1      39.270  29.411  26.862  1.00  0.00    -0.203 F 
ATOM     71  F   UNL A   1      37.666  28.700  32.029  1.00  0.00    -0.200 F 
ATOM     72  C   UNL A   1      37.166  29.326  29.809  1.00  0.00     0.200 A 
ATOM     73  F   UNL A   1      36.711  29.931  27.572  1.00  0.00    -0.200 F 
ATOM     74  F   UNL A   1      35.891  29.560  30.146  1.00  0.00    -0.200 F 
ENDBRANCH  50  64
BRANCH  51  75
ATOM     75  C   UNL A   1      49.150  26.812  26.134  1.00  0.00     0.064 A 
ATOM     76  C   UNL A   1      50.134  26.384  27.034  1.00  0.00     0.173 A 
ATOM     77  C   UNL A   1      49.517  26.967  24.789  1.00  0.00     0.173 A 
ATOM     78  F   UNL A   1      49.836  26.242  28.334  1.00  0.00    -0.203 F 
ATOM     79  C   UNL A   1      51.440  26.139  26.612  1.00  0.00     0.198 A 
ATOM     80  C   UNL A   1      50.816  26.698  24.363  1.00  0.00     0.198 A 
ATOM     81  F   UNL A   1      48.609  27.371  23.888  1.00  0.00    -0.203 F 
ATOM     82  F   UNL A   1      52.372  25.772  27.502  1.00  0.00    -0.200 F 
ATOM     83  C   UNL A   1      51.778  26.292  25.276  1.00  0.00     0.200 A 
ATOM     84  F   UNL A   1      51.136  26.834  23.069  1.00  0.00    -0.200 F 
ATOM     85  F   UNL A   1      53.032  26.054  24.869  1.00  0.00    -0.200 F 
ENDBRANCH  51  75
BRANCH  63  86
ATOM     86  C   UNL A   1      46.006  32.512  28.609  1.00  0.00     0.064 A 
ATOM     87  C   UNL A   1      46.557  32.856  29.852  1.00  0.00     0.173 A 
ATOM     88  C   UNL A   1      45.960  33.498  27.613  1.00  0.00     0.173 A 
ATOM     89  F   UNL A   1      46.607  31.952  30.842  1.00  0.00    -0.203 F 
ATOM     90  C   UNL A   1      47.027  34.145  30.093  1.00  0.00     0.198 A 
ATOM     91  C   UNL A   1      46.455  34.778  27.848  1.00  0.00     0.198 A 
ATOM     92  F   UNL A   1      45.445  33.218  26.406  1.00  0.00    -0.203 F 
ATOM     93  F   UNL A   1      47.512  34.464  31.301  1.00  0.00    -0.200 F 
ATOM     94  C   UNL A   1      46.982  35.102  29.089  1.00  0.00     0.200 A 
ATOM     95  F   UNL A   1      46.420  35.698  26.874  1.00  0.00    -0.200 F 
ATOM     96  F   UNL A   1      47.441  36.339  29.320  1.00  0.00    -0.200 F 
ENDBRANCH  63  86
ENDBRANCH  37  38
ENDBRANCH  29  32
ENDBRANCH  27  28
ENDBRANCH  26  27
ENDBRANCH   1  26
TORSDOF 14
ENDMDL
