MODEL 1
REMARK VINA RESULT:     -13.0      0.000      0.000
REMARK SMILES O=C(COc1nc(-c2cccnc2)nc2c1CCCC2)NCCCCNC(=O)c1ccc(-c2c3nc(c(-c4c(F)c(F)c(F)c(F)c4F)c4ccc([nH]4)c(-c4c(F)c(F)c(F)c(F)c4F)c4nc(c(-c5c(F)c(F)c(F)c(F)c5F)c5ccc2[nH]5)C=C4)C=C3)cc1
REMARK SMILES IDX 23 1 22 2 21 3 1 4 2 5 3 7 4 8 5 9 6 10 16 11 7 12 15 13
REMARK SMILES IDX 17 14 14 15 20 16 18 17 19 18 8 19 9 20 13 21 10 22 12 23
REMARK SMILES IDX 11 24 24 25 25 26 26 27 27 28 28 30 29 31 30 32 91 33 31 34
REMARK SMILES IDX 90 35 32 36 33 37 34 38 84 39 35 40 89 41 83 42 85 43 36 44
REMARK SMILES IDX 88 45 82 46 81 47 37 49 69 50 49 51 68 52 50 53 53 54 67 55
REMARK SMILES IDX 86 56 51 57 52 58 66 60 87 61 54 62 38 63 39 64 47 65 40 66
REMARK SMILES IDX 41 67 45 68 48 69 42 70 43 71 46 72 44 73 70 74 71 75 79 76
REMARK SMILES IDX 72 77 73 78 77 79 80 80 74 81 75 82 78 83 76 84 55 85 56 86
REMARK SMILES IDX 64 87 57 88 58 89 62 90 65 91 59 92 60 93 63 94 61 95
REMARK H PARENT 21 6 26 29 85 48 53 59
REMARK Flexibility Score: inf
ROOT
ATOM      1  C   UNL A   1      36.938  20.257  24.989  1.00  0.00     0.023 C 
ENDROOT
BRANCH   1   2
ATOM      2  C   UNL A   1      37.262  21.744  25.085  1.00  0.00     0.116 C 
BRANCH   2   3
ATOM      3  N   UNL A   1      36.138  22.596  24.759  1.00  0.00    -0.353 N 
ATOM      4  O   UNL A   1      36.760  22.973  22.579  1.00  0.00    -0.271 OA
ATOM      5  C   UNL A   1      35.932  23.075  23.482  1.00  0.00     0.258 C 
ATOM      6  H   UNL A   1      35.503  22.841  25.469  1.00  0.00     0.163 HD
BRANCH   5   7
ATOM      7  C   UNL A   1      34.606  23.831  23.282  1.00  0.00     0.331 C 
BRANCH   7   8
ATOM      8  O   UNL A   1      33.508  23.161  22.668  1.00  0.00    -0.467 OA
BRANCH   8   9
ATOM      9  C   UNL A   1      32.833  22.380  23.581  1.00  0.00     0.220 A 
ATOM     10  N   UNL A   1      33.192  21.092  23.634  1.00  0.00    -0.193 NA
ATOM     11  C   UNL A   1      31.943  22.975  24.454  1.00  0.00     0.036 A 
ATOM     12  C   UNL A   1      32.571  20.339  24.553  1.00  0.00     0.164 A 
ATOM     13  C   UNL A   1      31.398  22.122  25.403  1.00  0.00     0.051 A 
ATOM     14  C   UNL A   1      31.633  24.442  24.417  1.00  0.00     0.043 C 
ATOM     15  N   UNL A   1      31.674  20.799  25.439  1.00  0.00    -0.232 NA
ATOM     16  C   UNL A   1      30.431  22.620  26.447  1.00  0.00     0.057 C 
ATOM     17  C   UNL A   1      30.414  24.822  25.261  1.00  0.00     0.005 C 
ATOM     18  C   UNL A   1      30.471  24.137  26.622  1.00  0.00     0.007 C 
BRANCH  12  19
ATOM     19  C   UNL A   1      32.932  18.928  24.607  1.00  0.00     0.038 A 
ATOM     20  C   UNL A   1      33.645  18.305  23.574  1.00  0.00     0.015 A 
ATOM     21  C   UNL A   1      32.571  18.123  25.683  1.00  0.00     0.123 A 
ATOM     22  C   UNL A   1      33.957  16.949  23.649  1.00  0.00     0.021 A 
ATOM     23  N   UNL A   1      32.849  16.798  25.784  1.00  0.00    -0.264 NA
ATOM     24  C   UNL A   1      33.535  16.244  24.762  1.00  0.00     0.111 A 
ENDBRANCH  12  19
ENDBRANCH   8   9
ENDBRANCH   7   8
ENDBRANCH   5   7
ENDBRANCH   2   3
ENDBRANCH   1   2
BRANCH   1  25
ATOM     25  C   UNL A   1      38.154  19.328  24.974  1.00  0.00     0.023 C 
BRANCH  25  26
ATOM     26  C   UNL A   1      39.363  19.806  25.772  1.00  0.00     0.116 C 
BRANCH  26  27
ATOM     27  N   UNL A   1      40.416  18.809  25.872  1.00  0.00    -0.352 N 
ATOM     28  C   UNL A   1      41.761  18.973  26.107  1.00  0.00     0.251 C 
ATOM     29  H   UNL A   1      40.124  17.876  25.753  1.00  0.00     0.163 HD
ATOM     30  O   UNL A   1      42.519  18.011  26.040  1.00  0.00    -0.269 OA
BRANCH  28  31
ATOM     31  C   UNL A   1      42.308  20.314  26.411  1.00  0.00     0.039 A 
ATOM     32  C   UNL A   1      42.906  21.044  25.379  1.00  0.00     0.014 A 
ATOM     33  C   UNL A   1      42.243  20.851  27.700  1.00  0.00     0.014 A 
ATOM     34  C   UNL A   1      43.370  22.339  25.623  1.00  0.00     0.010 A 
ATOM     35  C   UNL A   1      42.643  22.168  27.925  1.00  0.00     0.010 A 
ATOM     36  C   UNL A   1      43.209  22.926  26.888  1.00  0.00    -0.014 A 
BRANCH  36  37
ATOM     37  C   UNL A   1      43.629  24.328  27.143  1.00  0.00     0.031 A 
ATOM     38  C   UNL A   1      42.638  25.335  27.656  1.00  0.00     0.074 A 
ATOM     39  C   UNL A   1      44.893  24.707  26.869  1.00  0.00     0.049 A 
ATOM     40  N   UNL A   1      42.802  26.612  27.887  1.00  0.00    -0.248 NA
ATOM     41  C   UNL A   1      41.277  24.846  27.928  1.00  0.00     0.031 C 
ATOM     42  C   UNL A   1      45.940  23.834  26.338  1.00  0.00     0.029 A 
ATOM     43  N   UNL A   1      45.512  25.927  26.996  1.00  0.00    -0.354 N 
ATOM     44  C   UNL A   1      41.570  27.078  28.327  1.00  0.00     0.074 A 
ATOM     45  C   UNL A   1      40.652  25.960  28.278  1.00  0.00     0.031 C 
ATOM     46  C   UNL A   1      47.077  24.537  26.213  1.00  0.00     0.029 A 
ATOM     47  C   UNL A   1      46.832  25.918  26.616  1.00  0.00     0.049 A 
ATOM     48  H   UNL A   1      45.053  26.732  27.329  1.00  0.00     0.167 HD
ATOM     49  C   UNL A   1      41.241  28.318  28.761  1.00  0.00     0.037 A 
ATOM     50  C   UNL A   1      47.741  26.912  26.593  1.00  0.00     0.037 A 
ATOM     51  C   UNL A   1      42.160  29.422  28.833  1.00  0.00     0.049 A 
ATOM     52  C   UNL A   1      47.341  28.290  27.050  1.00  0.00     0.074 A 
ATOM     53  C   UNL A   1      41.929  30.704  29.300  1.00  0.00     0.029 A 
ATOM     54  N   UNL A   1      43.486  29.376  28.429  1.00  0.00    -0.354 N 
ATOM     55  N   UNL A   1      46.186  28.703  27.511  1.00  0.00    -0.248 NA
ATOM     56  C   UNL A   1      48.370  29.337  26.986  1.00  0.00     0.031 C 
ATOM     57  C   UNL A   1      43.102  31.447  29.138  1.00  0.00     0.029 A 
ATOM     58  C   UNL A   1      44.078  30.615  28.614  1.00  0.00     0.049 A 
ATOM     59  H   UNL A   1      43.938  28.582  28.063  1.00  0.00     0.167 HD
ATOM     60  C   UNL A   1      46.354  30.048  27.812  1.00  0.00     0.074 A 
ATOM     61  C   UNL A   1      47.728  30.379  27.497  1.00  0.00     0.031 C 
ATOM     62  C   UNL A   1      45.449  30.928  28.303  1.00  0.00     0.037 A 
BRANCH  49  63
ATOM     63  C   UNL A   1      39.829  28.549  29.214  1.00  0.00     0.064 A 
ATOM     64  C   UNL A   1      39.440  28.307  30.540  1.00  0.00     0.173 A 
ATOM     65  C   UNL A   1      38.875  29.085  28.337  1.00  0.00     0.173 A 
ATOM     66  F   UNL A   1      40.312  27.784  31.416  1.00  0.00    -0.203 F 
ATOM     67  C   UNL A   1      38.142  28.578  30.966  1.00  0.00     0.198 A 
ATOM     68  C   UNL A   1      37.587  29.382  28.774  1.00  0.00     0.198 A 
ATOM     69  F   UNL A   1      39.199  29.340  27.060  1.00  0.00    -0.203 F 
ATOM     70  F   UNL A   1      37.784  28.307  32.229  1.00  0.00    -0.200 F 
ATOM     71  C   UNL A   1      37.221  29.126  30.087  1.00  0.00     0.200 A 
ATOM     72  F   UNL A   1      36.702  29.924  27.926  1.00  0.00    -0.200 F 
ATOM     73  F   UNL A   1      35.978  29.403  30.504  1.00  0.00    -0.200 F 
ENDBRANCH  49  63
BRANCH  50  74
ATOM     74  C   UNL A   1      49.132  26.633  26.148  1.00  0.00     0.064 A 
ATOM     75  C   UNL A   1      49.524  26.874  24.824  1.00  0.00     0.173 A 
ATOM     76  C   UNL A   1      50.098  26.132  27.033  1.00  0.00     0.173 A 
ATOM     77  F   UNL A   1      48.630  27.332  23.935  1.00  0.00    -0.203 F 
ATOM     78  C   UNL A   1      50.826  26.614  24.399  1.00  0.00     0.198 A 
ATOM     79  C   UNL A   1      51.406  25.897  26.614  1.00  0.00     0.198 A 
ATOM     80  F   UNL A   1      49.774  25.885  28.311  1.00  0.00    -0.203 F 
ATOM     81  F   UNL A   1      51.163  26.818  23.118  1.00  0.00    -0.200 F 
ATOM     82  C   UNL A   1      51.768  26.134  25.296  1.00  0.00     0.200 A 
ATOM     83  F   UNL A   1      52.316  25.447  27.488  1.00  0.00    -0.200 F 
ATOM     84  F   UNL A   1      53.021  25.893  24.890  1.00  0.00    -0.200 F 
ENDBRANCH  50  74
BRANCH  62  85
ATOM     85  C   UNL A   1      45.908  32.336  28.550  1.00  0.00     0.064 A 
ATOM     86  C   UNL A   1      46.494  32.711  29.768  1.00  0.00     0.173 A 
ATOM     87  C   UNL A   1      45.837  33.297  27.530  1.00  0.00     0.173 A 
ATOM     88  F   UNL A   1      46.574  31.832  30.778  1.00  0.00    -0.203 F 
ATOM     89  C   UNL A   1      46.981  34.001  29.959  1.00  0.00     0.198 A 
ATOM     90  C   UNL A   1      46.351  34.578  27.715  1.00  0.00     0.198 A 
ATOM     91  F   UNL A   1      45.294  32.986  26.344  1.00  0.00    -0.203 F 
ATOM     92  F   UNL A   1      47.508  34.347  31.141  1.00  0.00    -0.200 F 
ATOM     93  C   UNL A   1      46.919  34.929  28.930  1.00  0.00     0.200 A 
ATOM     94  F   UNL A   1      46.305  35.468  26.715  1.00  0.00    -0.200 F 
ATOM     95  F   UNL A   1      47.406  36.165  29.111  1.00  0.00    -0.200 F 
ENDBRANCH  62  85
ENDBRANCH  36  37
ENDBRANCH  28  31
ENDBRANCH  26  27
ENDBRANCH  25  26
ENDBRANCH   1  25
TORSDOF 14
ENDMDL
MODEL 2
REMARK VINA RESULT:     -13.0      0.300      7.318
REMARK SMILES O=C(COc1nc(-c2cccnc2)nc2c1CCCC2)NCCCCNC(=O)c1ccc(-c2c3nc(c(-c4c(F)c(F)c(F)c(F)c4F)c4ccc([nH]4)c(-c4c(F)c(F)c(F)c(F)c4F)c4nc(c(-c5c(F)c(F)c(F)c(F)c5F)c5ccc2[nH]5)C=C4)C=C3)cc1
REMARK SMILES IDX 23 1 22 2 21 3 1 4 2 5 3 7 4 8 5 9 6 10 16 11 7 12 15 13
REMARK SMILES IDX 17 14 14 15 20 16 18 17 19 18 8 19 9 20 13 21 10 22 12 23
REMARK SMILES IDX 11 24 24 25 25 26 26 27 27 28 28 30 29 31 30 32 91 33 31 34
REMARK SMILES IDX 90 35 32 36 33 37 34 38 84 39 35 40 89 41 83 42 85 43 36 44
REMARK SMILES IDX 88 45 82 46 81 47 37 49 69 50 49 51 68 52 50 53 53 54 67 55
REMARK SMILES IDX 86 56 51 57 52 58 66 60 87 61 54 62 38 63 39 64 47 65 40 66
REMARK SMILES IDX 41 67 45 68 48 69 42 70 43 71 46 72 44 73 70 74 71 75 79 76
REMARK SMILES IDX 72 77 73 78 77 79 80 80 74 81 75 82 78 83 76 84 55 85 56 86
REMARK SMILES IDX 64 87 57 88 58 89 62 90 65 91 59 92 60 93 63 94 61 95
REMARK H PARENT 21 6 26 29 85 48 53 59
REMARK Flexibility Score: inf
ROOT
ATOM      1  C   UNL A   1      36.780  20.221  25.001  1.00  0.00     0.023 C 
ENDROOT
BRANCH   1   2
ATOM      2  C   UNL A   1      37.090  21.713  24.949  1.00  0.00     0.116 C 
BRANCH   2   3
ATOM      3  N   UNL A   1      35.957  22.520  24.551  1.00  0.00    -0.353 N 
ATOM      4  O   UNL A   1      36.718  22.953  22.427  1.00  0.00    -0.271 OA
ATOM      5  C   UNL A   1      35.823  23.007  23.267  1.00  0.00     0.258 C 
ATOM      6  H   UNL A   1      35.261  22.727  25.216  1.00  0.00     0.163 HD
BRANCH   5   7
ATOM      7  C   UNL A   1      34.483  23.707  22.979  1.00  0.00     0.331 C 
BRANCH   7   8
ATOM      8  O   UNL A   1      33.406  22.952  22.431  1.00  0.00    -0.467 OA
BRANCH   8   9
ATOM      9  C   UNL A   1      32.775  22.211  23.406  1.00  0.00     0.220 A 
ATOM     10  N   UNL A   1      33.127  20.922  23.487  1.00  0.00    -0.193 NA
ATOM     11  C   UNL A   1      31.938  22.844  24.303  1.00  0.00     0.036 A 
ATOM     12  C   UNL A   1      32.551  20.209  24.464  1.00  0.00     0.164 A 
ATOM     13  C   UNL A   1      31.438  22.031  25.310  1.00  0.00     0.051 A 
ATOM     14  C   UNL A   1      31.636  24.312  24.230  1.00  0.00     0.043 C 
ATOM     15  N   UNL A   1      31.706  20.709  25.380  1.00  0.00    -0.232 NA
ATOM     16  C   UNL A   1      30.532  22.576  26.385  1.00  0.00     0.057 C 
ATOM     17  C   UNL A   1      30.467  24.734  25.123  1.00  0.00     0.005 C 
ATOM     18  C   UNL A   1      30.592  24.097  26.503  1.00  0.00     0.007 C 
BRANCH  12  19
ATOM     19  C   UNL A   1      32.904  18.797  24.550  1.00  0.00     0.038 A 
ATOM     20  C   UNL A   1      33.523  18.122  23.490  1.00  0.00     0.015 A 
ATOM     21  C   UNL A   1      32.626  18.044  25.686  1.00  0.00     0.123 A 
ATOM     22  C   UNL A   1      33.829  16.767  23.599  1.00  0.00     0.021 A 
ATOM     23  N   UNL A   1      32.901  16.721  25.823  1.00  0.00    -0.264 NA
ATOM     24  C   UNL A   1      33.496  16.115  24.773  1.00  0.00     0.111 A 
ENDBRANCH  12  19
ENDBRANCH   8   9
ENDBRANCH   7   8
ENDBRANCH   5   7
ENDBRANCH   2   3
ENDBRANCH   1   2
BRANCH   1  25
ATOM     25  C   UNL A   1      38.004  19.302  25.001  1.00  0.00     0.023 C 
BRANCH  25  26
ATOM     26  C   UNL A   1      39.227  19.829  25.746  1.00  0.00     0.116 C 
BRANCH  26  27
ATOM     27  N   UNL A   1      40.314  18.866  25.818  1.00  0.00    -0.352 N 
ATOM     28  C   UNL A   1      41.657  19.073  26.025  1.00  0.00     0.251 C 
ATOM     29  H   UNL A   1      40.050  17.925  25.700  1.00  0.00     0.163 HD
ATOM     30  O   UNL A   1      42.445  18.136  25.936  1.00  0.00    -0.269 OA
BRANCH  28  31
ATOM     31  C   UNL A   1      42.167  20.429  26.325  1.00  0.00     0.039 A 
ATOM     32  C   UNL A   1      42.525  21.262  25.260  1.00  0.00     0.014 A 
ATOM     33  C   UNL A   1      42.299  20.882  27.641  1.00  0.00     0.014 A 
ATOM     34  C   UNL A   1      42.945  22.571  25.512  1.00  0.00     0.010 A 
ATOM     35  C   UNL A   1      42.651  22.209  27.887  1.00  0.00     0.010 A 
ATOM     36  C   UNL A   1      42.976  23.067  26.825  1.00  0.00    -0.014 A 
BRANCH  36  37
ATOM     37  C   UNL A   1      43.349  24.478  27.104  1.00  0.00     0.031 A 
ATOM     38  C   UNL A   1      44.753  24.953  26.858  1.00  0.00     0.074 A 
ATOM     39  C   UNL A   1      42.433  25.321  27.622  1.00  0.00     0.049 A 
ATOM     40  N   UNL A   1      45.280  26.129  27.090  1.00  0.00    -0.248 NA
ATOM     41  C   UNL A   1      45.695  23.974  26.295  1.00  0.00     0.031 C 
ATOM     42  C   UNL A   1      41.047  24.973  27.935  1.00  0.00     0.029 A 
ATOM     43  N   UNL A   1      42.532  26.644  27.979  1.00  0.00    -0.354 N 
ATOM     44  C   UNL A   1      46.611  26.029  26.705  1.00  0.00     0.074 A 
ATOM     45  C   UNL A   1      46.827  24.663  26.277  1.00  0.00     0.031 C 
ATOM     46  C   UNL A   1      40.418  26.060  28.410  1.00  0.00     0.029 A 
ATOM     47  C   UNL A   1      41.363  27.171  28.472  1.00  0.00     0.049 A 
ATOM     48  H   UNL A   1      43.362  27.165  27.891  1.00  0.00     0.167 HD
ATOM     49  C   UNL A   1      47.558  26.996  26.682  1.00  0.00     0.037 A 
ATOM     50  C   UNL A   1      41.085  28.409  28.925  1.00  0.00     0.037 A 
ATOM     51  C   UNL A   1      47.337  28.359  27.084  1.00  0.00     0.049 A 
ATOM     52  C   UNL A   1      42.166  29.457  28.919  1.00  0.00     0.074 A 
ATOM     53  C   UNL A   1      48.224  29.420  27.054  1.00  0.00     0.029 A 
ATOM     54  N   UNL A   1      46.141  28.851  27.587  1.00  0.00    -0.354 N 
ATOM     55  N   UNL A   1      43.406  29.362  28.505  1.00  0.00    -0.248 NA
ATOM     56  C   UNL A   1      41.809  30.784  29.441  1.00  0.00     0.031 C 
ATOM     57  C   UNL A   1      47.582  30.544  27.581  1.00  0.00     0.029 A 
ATOM     58  C   UNL A   1      46.278  30.195  27.894  1.00  0.00     0.049 A 
ATOM     59  H   UNL A   1      45.320  28.323  27.709  1.00  0.00     0.167 HD
ATOM     60  C   UNL A   1      43.969  30.616  28.693  1.00  0.00     0.074 A 
ATOM     61  C   UNL A   1      42.932  31.462  29.246  1.00  0.00     0.031 C 
ATOM     62  C   UNL A   1      45.234  31.027  28.436  1.00  0.00     0.037 A 
BRANCH  49  63
ATOM     63  C   UNL A   1      48.925  26.623  26.186  1.00  0.00     0.064 A 
ATOM     64  C   UNL A   1      49.296  26.827  24.849  1.00  0.00     0.173 A 
ATOM     65  C   UNL A   1      49.896  26.129  27.069  1.00  0.00     0.173 A 
ATOM     66  F   UNL A   1      48.401  27.287  23.962  1.00  0.00    -0.203 F 
ATOM     67  C   UNL A   1      50.585  26.532  24.411  1.00  0.00     0.198 A 
ATOM     68  C   UNL A   1      51.191  25.863  26.634  1.00  0.00     0.198 A 
ATOM     69  F   UNL A   1      49.593  25.922  28.361  1.00  0.00    -0.203 F 
ATOM     70  F   UNL A   1      50.907  26.703  23.121  1.00  0.00    -0.200 F 
ATOM     71  C   UNL A   1      51.534  26.062  25.305  1.00  0.00     0.200 A 
ATOM     72  F   UNL A   1      52.111  25.421  27.503  1.00  0.00    -0.200 F 
ATOM     73  F   UNL A   1      52.778  25.796  24.885  1.00  0.00    -0.200 F 
ENDBRANCH  49  63
BRANCH  50  74
ATOM     74  C   UNL A   1      39.713  28.734  29.394  1.00  0.00     0.064 A 
ATOM     75  C   UNL A   1      39.332  28.495  30.722  1.00  0.00     0.173 A 
ATOM     76  C   UNL A   1      38.759  29.301  28.535  1.00  0.00     0.173 A 
ATOM     77  F   UNL A   1      40.202  27.935  31.575  1.00  0.00    -0.203 F 
ATOM     78  C   UNL A   1      38.047  28.797  31.169  1.00  0.00     0.198 A 
ATOM     79  C   UNL A   1      37.483  29.627  28.989  1.00  0.00     0.198 A 
ATOM     80  F   UNL A   1      39.073  29.551  27.255  1.00  0.00    -0.203 F 
ATOM     81  F   UNL A   1      37.699  28.521  32.433  1.00  0.00    -0.200 F 
ATOM     82  C   UNL A   1      37.126  29.370  30.305  1.00  0.00     0.200 A 
ATOM     83  F   UNL A   1      36.602  30.193  28.155  1.00  0.00    -0.200 F 
ATOM     84  F   UNL A   1      35.894  29.669  30.737  1.00  0.00    -0.200 F 
ENDBRANCH  50  74
BRANCH  62  85
ATOM     85  C   UNL A   1      45.575  32.460  28.728  1.00  0.00     0.064 A 
ATOM     86  C   UNL A   1      46.166  32.838  29.942  1.00  0.00     0.173 A 
ATOM     87  C   UNL A   1      45.384  33.449  27.752  1.00  0.00     0.173 A 
ATOM     88  F   UNL A   1      46.357  31.931  30.912  1.00  0.00    -0.203 F 
ATOM     89  C   UNL A   1      46.542  34.159  30.173  1.00  0.00     0.198 A 
ATOM     90  C   UNL A   1      45.789  34.763  27.974  1.00  0.00     0.198 A 
ATOM     91  F   UNL A   1      44.832  33.138  26.570  1.00  0.00    -0.203 F 
ATOM     92  F   UNL A   1      47.076  34.504  31.352  1.00  0.00    -0.200 F 
ATOM     93  C   UNL A   1      46.364  35.117  29.186  1.00  0.00     0.200 A 
ATOM     94  F   UNL A   1      45.631  35.684  27.014  1.00  0.00    -0.200 F 
ATOM     95  F   UNL A   1      46.746  36.383  29.403  1.00  0.00    -0.200 F 
ENDBRANCH  62  85
ENDBRANCH  36  37
ENDBRANCH  28  31
ENDBRANCH  26  27
ENDBRANCH  25  26
ENDBRANCH   1  25
TORSDOF 14
ENDMDL
MODEL 3
REMARK VINA RESULT:     -13.0      7.010     11.592
REMARK SMILES O=C(COc1nc(-c2cccnc2)nc2c1CCCC2)NCCCCNC(=O)c1ccc(-c2c3nc(c(-c4c(F)c(F)c(F)c(F)c4F)c4ccc([nH]4)c(-c4c(F)c(F)c(F)c(F)c4F)c4nc(c(-c5c(F)c(F)c(F)c(F)c5F)c5ccc2[nH]5)C=C4)C=C3)cc1
REMARK SMILES IDX 23 1 22 2 21 3 1 4 2 5 3 7 4 8 5 9 6 10 16 11 7 12 15 13
REMARK SMILES IDX 17 14 14 15 20 16 18 17 19 18 8 19 9 20 13 21 10 22 12 23
REMARK SMILES IDX 11 24 24 25 25 26 26 27 27 28 28 30 29 31 30 32 91 33 31 34
REMARK SMILES IDX 90 35 32 36 33 37 34 38 84 39 35 40 89 41 83 42 85 43 36 44
REMARK SMILES IDX 88 45 82 46 81 47 37 49 69 50 49 51 68 52 50 53 53 54 67 55
REMARK SMILES IDX 86 56 51 57 52 58 66 60 87 61 54 62 38 63 39 64 47 65 40 66
REMARK SMILES IDX 41 67 45 68 48 69 42 70 43 71 46 72 44 73 70 74 71 75 79 76
REMARK SMILES IDX 72 77 73 78 77 79 80 80 74 81 75 82 78 83 76 84 55 85 56 86
REMARK SMILES IDX 64 87 57 88 58 89 62 90 65 91 59 92 60 93 63 94 61 95
REMARK H PARENT 21 6 26 29 85 48 53 59
REMARK Flexibility Score: inf
ROOT
ATOM      1  C   UNL A   1      35.169  34.203  28.954  1.00  0.00     0.023 C 
ENDROOT
BRANCH   1   2
ATOM      2  C   UNL A   1      35.408  32.894  28.208  1.00  0.00     0.116 C 
BRANCH   2   3
ATOM      3  N   UNL A   1      34.192  32.293  27.704  1.00  0.00    -0.353 N 
ATOM      4  O   UNL A   1      35.014  30.149  27.617  1.00  0.00    -0.271 OA
ATOM      5  C   UNL A   1      34.068  30.930  27.532  1.00  0.00     0.258 C 
ATOM      6  H   UNL A   1      33.431  32.874  27.476  1.00  0.00     0.163 HD
BRANCH   5   7
ATOM      7  C   UNL A   1      32.658  30.454  27.140  1.00  0.00     0.331 C 
BRANCH   7   8
ATOM      8  O   UNL A   1      32.366  29.059  27.148  1.00  0.00    -0.467 OA
BRANCH   8   9
ATOM      9  C   UNL A   1      31.975  28.629  25.898  1.00  0.00     0.220 A 
ATOM     10  N   UNL A   1      31.127  29.428  25.239  1.00  0.00    -0.193 NA
ATOM     11  C   UNL A   1      32.558  27.500  25.357  1.00  0.00     0.036 A 
ATOM     12  C   UNL A   1      30.781  29.037  24.005  1.00  0.00     0.164 A 
ATOM     13  C   UNL A   1      32.176  27.213  24.055  1.00  0.00     0.051 A 
ATOM     14  C   UNL A   1      33.571  26.679  26.099  1.00  0.00     0.043 C 
ATOM     15  N   UNL A   1      31.264  27.949  23.383  1.00  0.00    -0.232 NA
ATOM     16  C   UNL A   1      32.744  26.031  23.311  1.00  0.00     0.057 C 
ATOM     17  C   UNL A   1      33.852  25.327  25.439  1.00  0.00     0.005 C 
ATOM     18  C   UNL A   1      34.030  25.494  23.934  1.00  0.00     0.007 C 
BRANCH  12  19
ATOM     19  C   UNL A   1      29.840  29.883  23.282  1.00  0.00     0.038 A 
ATOM     20  C   UNL A   1      29.241  31.002  23.876  1.00  0.00     0.015 A 
ATOM     21  C   UNL A   1      29.473  29.609  21.968  1.00  0.00     0.123 A 
ATOM     22  C   UNL A   1      28.330  31.778  23.162  1.00  0.00     0.021 A 
ATOM     23  N   UNL A   1      28.582  30.337  21.247  1.00  0.00    -0.264 NA
ATOM     24  C   UNL A   1      28.032  31.404  21.864  1.00  0.00     0.111 A 
ENDBRANCH  12  19
ENDBRANCH   8   9
ENDBRANCH   7   8
ENDBRANCH   5   7
ENDBRANCH   2   3
ENDBRANCH   1   2
BRANCH   1  25
ATOM     25  C   UNL A   1      33.716  34.680  28.977  1.00  0.00     0.023 C 
BRANCH  25  26
ATOM     26  C   UNL A   1      33.496  36.108  29.467  1.00  0.00     0.116 C 
BRANCH  26  27
ATOM     27  N   UNL A   1      32.523  36.202  30.544  1.00  0.00    -0.352 N 
ATOM     28  C   UNL A   1      32.576  35.698  31.822  1.00  0.00     0.251 C 
ATOM     29  H   UNL A   1      31.703  36.702  30.326  1.00  0.00     0.163 HD
ATOM     30  O   UNL A   1      31.597  35.781  32.557  1.00  0.00    -0.269 OA
BRANCH  28  31
ATOM     31  C   UNL A   1      33.799  35.023  32.308  1.00  0.00     0.039 A 
ATOM     32  C   UNL A   1      33.696  33.715  32.793  1.00  0.00     0.014 A 
ATOM     33  C   UNL A   1      35.039  35.667  32.296  1.00  0.00     0.014 A 
ATOM     34  C   UNL A   1      34.846  33.030  33.196  1.00  0.00     0.010 A 
ATOM     35  C   UNL A   1      36.193  34.960  32.632  1.00  0.00     0.010 A 
ATOM     36  C   UNL A   1      36.108  33.634  33.084  1.00  0.00    -0.014 A 
BRANCH  36  37
ATOM     37  C   UNL A   1      37.347  32.893  33.437  1.00  0.00     0.031 A 
ATOM     38  C   UNL A   1      38.062  33.184  34.727  1.00  0.00     0.074 A 
ATOM     39  C   UNL A   1      37.854  31.990  32.574  1.00  0.00     0.049 A 
ATOM     40  N   UNL A   1      39.181  32.682  35.182  1.00  0.00    -0.248 NA
ATOM     41  C   UNL A   1      37.448  34.185  35.613  1.00  0.00     0.031 C 
ATOM     42  C   UNL A   1      37.272  31.641  31.278  1.00  0.00     0.029 A 
ATOM     43  N   UNL A   1      38.976  31.202  32.657  1.00  0.00    -0.354 N 
ATOM     44  C   UNL A   1      39.406  33.307  36.402  1.00  0.00     0.074 A 
ATOM     45  C   UNL A   1      38.338  34.265  36.591  1.00  0.00     0.031 C 
ATOM     46  C   UNL A   1      38.024  30.689  30.702  1.00  0.00     0.029 A 
ATOM     47  C   UNL A   1      39.161  30.388  31.566  1.00  0.00     0.049 A 
ATOM     48  H   UNL A   1      39.590  31.218  33.427  1.00  0.00     0.167 HD
ATOM     49  C   UNL A   1      40.396  33.080  37.297  1.00  0.00     0.037 A 
ATOM     50  C   UNL A   1      40.138  29.503  31.292  1.00  0.00     0.037 A 
ATOM     51  C   UNL A   1      41.444  32.109  37.120  1.00  0.00     0.049 A 
ATOM     52  C   UNL A   1      41.246  29.293  32.290  1.00  0.00     0.074 A 
ATOM     53  C   UNL A   1      42.466  31.778  37.992  1.00  0.00     0.029 A 
ATOM     54  N   UNL A   1      41.603  31.313  35.996  1.00  0.00    -0.354 N 
ATOM     55  N   UNL A   1      41.418  29.854  33.461  1.00  0.00    -0.248 NA
ATOM     56  C   UNL A   1      42.293  28.327  31.928  1.00  0.00     0.031 C 
ATOM     57  C   UNL A   1      43.270  30.814  37.378  1.00  0.00     0.029 A 
ATOM     58  C   UNL A   1      42.721  30.509  36.143  1.00  0.00     0.049 A 
ATOM     59  H   UNL A   1      41.010  31.320  35.210  1.00  0.00     0.167 HD
ATOM     60  C   UNL A   1      42.575  29.295  33.987  1.00  0.00     0.074 A 
ATOM     61  C   UNL A   1      43.057  28.338  33.012  1.00  0.00     0.031 C 
ATOM     62  C   UNL A   1      43.185  29.555  35.168  1.00  0.00     0.037 A 
BRANCH  49  63
ATOM     63  C   UNL A   1      40.389  33.881  38.566  1.00  0.00     0.064 A 
ATOM     64  C   UNL A   1      39.671  33.455  39.694  1.00  0.00     0.173 A 
ATOM     65  C   UNL A   1      41.163  35.045  38.681  1.00  0.00     0.173 A 
ATOM     66  F   UNL A   1      38.907  32.355  39.632  1.00  0.00    -0.203 F 
ATOM     67  C   UNL A   1      39.717  34.174  40.885  1.00  0.00     0.198 A 
ATOM     68  C   UNL A   1      41.230  35.745  39.883  1.00  0.00     0.198 A 
ATOM     69  F   UNL A   1      41.874  35.491  37.634  1.00  0.00    -0.203 F 
ATOM     70  F   UNL A   1      38.996  33.767  41.939  1.00  0.00    -0.200 F 
ATOM     71  C   UNL A   1      40.504  35.312  40.982  1.00  0.00     0.200 A 
ATOM     72  F   UNL A   1      42.001  36.837  39.979  1.00  0.00    -0.200 F 
ATOM     73  F   UNL A   1      40.560  35.993  42.135  1.00  0.00    -0.200 F 
ENDBRANCH  49  63
BRANCH  50  74
ATOM     74  C   UNL A   1      40.096  28.723  30.027  1.00  0.00     0.064 A 
ATOM     75  C   UNL A   1      40.689  29.218  28.857  1.00  0.00     0.173 A 
ATOM     76  C   UNL A   1      39.477  27.465  29.962  1.00  0.00     0.173 A 
ATOM     77  F   UNL A   1      41.274  30.424  28.865  1.00  0.00    -0.203 F 
ATOM     78  C   UNL A   1      40.653  28.492  27.668  1.00  0.00     0.198 A 
ATOM     79  C   UNL A   1      39.464  26.729  28.779  1.00  0.00     0.198 A 
ATOM     80  F   UNL A   1      38.895  26.946  31.053  1.00  0.00    -0.203 F 
ATOM     81  F   UNL A   1      41.195  29.008  26.556  1.00  0.00    -0.200 F 
ATOM     82  C   UNL A   1      40.048  27.245  27.631  1.00  0.00     0.200 A 
ATOM     83  F   UNL A   1      38.891  25.519  28.752  1.00  0.00    -0.200 F 
ATOM     84  F   UNL A   1      40.022  26.544  26.491  1.00  0.00    -0.200 F 
ENDBRANCH  50  74
BRANCH  62  85
ATOM     85  C   UNL A   1      44.433  28.787  35.493  1.00  0.00     0.064 A 
ATOM     86  C   UNL A   1      45.703  29.284  35.165  1.00  0.00     0.173 A 
ATOM     87  C   UNL A   1      44.361  27.584  36.211  1.00  0.00     0.173 A 
ATOM     88  F   UNL A   1      45.824  30.423  34.468  1.00  0.00    -0.203 F 
ATOM     89  C   UNL A   1      46.856  28.596  35.535  1.00  0.00     0.198 A 
ATOM     90  C   UNL A   1      45.517  26.914  36.605  1.00  0.00     0.198 A 
ATOM     91  F   UNL A   1      43.171  27.072  36.557  1.00  0.00    -0.203 F 
ATOM     92  F   UNL A   1      48.058  29.072  35.184  1.00  0.00    -0.200 F 
ATOM     93  C   UNL A   1      46.763  27.419  36.264  1.00  0.00     0.200 A 
ATOM     94  F   UNL A   1      45.425  25.786  37.323  1.00  0.00    -0.200 F 
ATOM     95  F   UNL A   1      47.875  26.770  36.636  1.00  0.00    -0.200 F 
ENDBRANCH  62  85
ENDBRANCH  36  37
ENDBRANCH  28  31
ENDBRANCH  26  27
ENDBRANCH  25  26
ENDBRANCH   1  25
TORSDOF 14
ENDMDL
