MODEL 1
REMARK VINA RESULT:     -12.9      0.000      0.000
REMARK SMILES Cc1nc(=O)[nH]c(C)c1CC(=O)Nc1sccc1C(=O)NCCCCNC(=O)c1ccc(-c2c3nc(c(-c4c(F)c(F)c(F)c(F)c4F)c4ccc([nH]4)c(-c4c(F)c(F)c(F)c(F)c4F)c4nc(c(-c5c(F)c(F)c(F)c(F)c5F)c5ccc2[nH]5)C=C4)C=C3)cc1
REMARK SMILES IDX 23 1 22 2 21 3 19 4 20 5 18 7 14 8 15 9 16 10 17 11 13 12
REMARK SMILES IDX 11 13 12 14 10 16 9 17 1 18 2 19 3 20 4 21 7 22 5 23 6 24
REMARK SMILES IDX 8 25 24 27 25 28 26 29 27 30 28 32 29 33 30 34 91 35 31 36
REMARK SMILES IDX 90 37 32 38 33 39 34 40 84 41 35 42 89 43 83 44 85 45 36 46
REMARK SMILES IDX 88 47 82 48 81 49 37 51 69 52 49 53 68 54 50 55 53 56 67 57
REMARK SMILES IDX 86 58 51 59 52 60 66 62 87 63 54 64 38 65 39 66 47 67 40 68
REMARK SMILES IDX 41 69 45 70 48 71 42 72 43 73 46 74 44 75 70 76 71 77 79 78
REMARK SMILES IDX 72 79 73 80 77 81 80 82 74 83 75 84 78 85 76 86 55 87 56 88
REMARK SMILES IDX 64 89 57 90 58 91 62 92 65 93 59 94 60 95 63 96 61 97
REMARK H PARENT 21 6 13 15 6 26 26 31 85 50 53 61
REMARK Flexibility Score: inf
ROOT
ATOM      1  C   UNL A   1      32.101  30.394  25.931  1.00  0.00     0.023 C 
ENDROOT
BRANCH   1   2
ATOM      2  C   UNL A   1      33.045  29.353  26.532  1.00  0.00     0.116 C 
BRANCH   2   3
ATOM      3  N   UNL A   1      32.387  28.133  26.941  1.00  0.00    -0.352 N 
ATOM      4  C   UNL A   1      31.864  27.103  26.201  1.00  0.00     0.254 C 
ATOM      5  O   UNL A   1      31.196  26.281  26.831  1.00  0.00    -0.269 OA
ATOM      6  H   UNL A   1      32.300  28.023  27.915  1.00  0.00     0.163 HD
BRANCH   4   7
ATOM      7  C   UNL A   1      31.982  27.004  24.741  1.00  0.00     0.074 A 
ATOM      8  C   UNL A   1      32.998  26.545  23.920  1.00  0.00     0.108 A 
ATOM      9  S   UNL A   1      32.790  27.015  22.285  1.00  0.00    -0.126 S 
ATOM     10  C   UNL A   1      31.176  27.472  22.558  1.00  0.00     0.068 A 
ATOM     11  C   UNL A   1      30.877  27.438  23.899  1.00  0.00     0.028 A 
BRANCH   8  12
ATOM     12  N   UNL A   1      34.192  25.892  24.068  1.00  0.00    -0.317 N 
ATOM     13  C   UNL A   1      34.485  24.654  24.551  1.00  0.00     0.229 C 
ATOM     14  O   UNL A   1      35.643  24.474  24.954  1.00  0.00    -0.274 OA
ATOM     15  H   UNL A   1      34.977  26.408  23.774  1.00  0.00     0.170 HD
BRANCH  13  16
ATOM     16  C   UNL A   1      33.569  23.439  24.383  1.00  0.00     0.139 C 
BRANCH  16  17
ATOM     17  C   UNL A   1      32.359  23.263  25.242  1.00  0.00     0.002 A 
ATOM     18  C   UNL A   1      33.881  22.971  27.348  1.00  0.00     0.067 C 
ATOM     19  C   UNL A   1      32.504  23.014  26.718  1.00  0.00     0.049 A 
ATOM     20  N   UNL A   1      31.519  22.884  27.547  1.00  0.00    -0.198 NA
ATOM     21  C   UNL A   1      30.240  22.974  27.079  1.00  0.00     0.345 A 
ATOM     22  C   UNL A   1      31.084  23.457  24.852  1.00  0.00     0.022 A 
ATOM     23  O   UNL A   1      29.250  22.841  27.794  1.00  0.00    -0.246 OA
ATOM     24  N   UNL A   1      30.070  23.287  25.758  1.00  0.00    -0.310 N 
ATOM     25  C   UNL A   1      30.619  23.856  23.481  1.00  0.00     0.065 C 
ATOM     26  H   UNL A   1      29.148  23.400  25.433  1.00  0.00     0.171 HD
ENDBRANCH  16  17
ENDBRANCH  13  16
ENDBRANCH   8  12
ENDBRANCH   4   7
ENDBRANCH   2   3
ENDBRANCH   1   2
BRANCH   1  27
ATOM     27  C   UNL A   1      31.741  31.567  26.855  1.00  0.00     0.023 C 
BRANCH  27  28
ATOM     28  C   UNL A   1      32.900  32.471  27.284  1.00  0.00     0.116 C 
BRANCH  28  29
ATOM     29  N   UNL A   1      32.506  33.825  27.625  1.00  0.00    -0.352 N 
ATOM     30  C   UNL A   1      33.056  34.713  28.518  1.00  0.00     0.251 C 
ATOM     31  H   UNL A   1      31.717  34.160  27.139  1.00  0.00     0.163 HD
ATOM     32  O   UNL A   1      32.525  35.803  28.711  1.00  0.00    -0.269 OA
BRANCH  30  33
ATOM     33  C   UNL A   1      34.260  34.348  29.294  1.00  0.00     0.039 A 
ATOM     34  C   UNL A   1      34.086  33.777  30.557  1.00  0.00     0.014 A 
ATOM     35  C   UNL A   1      35.548  34.560  28.794  1.00  0.00     0.014 A 
ATOM     36  C   UNL A   1      35.195  33.320  31.273  1.00  0.00     0.010 A 
ATOM     37  C   UNL A   1      36.652  34.055  29.485  1.00  0.00     0.010 A 
ATOM     38  C   UNL A   1      36.482  33.402  30.717  1.00  0.00    -0.014 A 
BRANCH  38  39
ATOM     39  C   UNL A   1      37.638  32.733  31.372  1.00  0.00     0.031 A 
ATOM     40  C   UNL A   1      38.313  31.551  30.735  1.00  0.00     0.074 A 
ATOM     41  C   UNL A   1      38.031  33.155  32.592  1.00  0.00     0.049 A 
ATOM     42  N   UNL A   1      39.278  30.801  31.206  1.00  0.00    -0.248 NA
ATOM     43  C   UNL A   1      37.834  31.148  29.405  1.00  0.00     0.031 C 
ATOM     44  C   UNL A   1      37.431  34.265  33.335  1.00  0.00     0.029 A 
ATOM     45  N   UNL A   1      39.013  32.690  33.432  1.00  0.00    -0.354 N 
ATOM     46  C   UNL A   1      39.513  29.832  30.240  1.00  0.00     0.074 A 
ATOM     47  C   UNL A   1      38.571  30.070  29.167  1.00  0.00     0.031 C 
ATOM     48  C   UNL A   1      38.057  34.397  34.515  1.00  0.00     0.029 A 
ATOM     49  C   UNL A   1      39.071  33.355  34.634  1.00  0.00     0.049 A 
ATOM     50  H   UNL A   1      39.619  31.950  33.196  1.00  0.00     0.167 HD
ATOM     51  C   UNL A   1      40.439  28.844  30.247  1.00  0.00     0.037 A 
ATOM     52  C   UNL A   1      39.837  33.137  35.721  1.00  0.00     0.037 A 
ATOM     53  C   UNL A   1      41.397  28.628  31.301  1.00  0.00     0.049 A 
ATOM     54  C   UNL A   1      40.840  32.013  35.703  1.00  0.00     0.074 A 
ATOM     55  C   UNL A   1      42.436  27.714  31.344  1.00  0.00     0.029 A 
ATOM     56  N   UNL A   1      41.428  29.324  32.499  1.00  0.00    -0.354 N 
ATOM     57  N   UNL A   1      41.114  31.166  34.743  1.00  0.00    -0.248 NA
ATOM     58  C   UNL A   1      41.637  31.816  36.923  1.00  0.00     0.031 C 
ATOM     59  C   UNL A   1      43.058  27.815  32.592  1.00  0.00     0.029 A 
ATOM     60  C   UNL A   1      42.440  28.828  33.306  1.00  0.00     0.049 A 
ATOM     61  H   UNL A   1      40.822  30.062  32.740  1.00  0.00     0.167 HD
ATOM     62  C   UNL A   1      42.125  30.351  35.233  1.00  0.00     0.074 A 
ATOM     63  C   UNL A   1      42.433  30.819  36.566  1.00  0.00     0.031 C 
ATOM     64  C   UNL A   1      42.738  29.302  34.632  1.00  0.00     0.037 A 
BRANCH  51  65
ATOM     65  C   UNL A   1      40.479  27.902  29.080  1.00  0.00     0.064 A 
ATOM     66  C   UNL A   1      39.685  26.746  29.041  1.00  0.00     0.173 A 
ATOM     67  C   UNL A   1      41.240  28.216  27.944  1.00  0.00     0.173 A 
ATOM     68  F   UNL A   1      38.943  26.401  30.104  1.00  0.00    -0.203 F 
ATOM     69  C   UNL A   1      39.659  25.936  27.909  1.00  0.00     0.198 A 
ATOM     70  C   UNL A   1      41.193  27.417  26.805  1.00  0.00     0.198 A 
ATOM     71  F   UNL A   1      42.009  29.315  27.928  1.00  0.00    -0.203 F 
ATOM     72  F   UNL A   1      38.908  24.825  27.900  1.00  0.00    -0.200 F 
ATOM     73  C   UNL A   1      40.403  26.277  26.789  1.00  0.00     0.200 A 
ATOM     74  F   UNL A   1      41.900  27.756  25.719  1.00  0.00    -0.200 F 
ATOM     75  F   UNL A   1      40.358  25.507  25.693  1.00  0.00    -0.200 F 
ENDBRANCH  51  65
BRANCH  52  76
ATOM     76  C   UNL A   1      39.674  33.980  36.935  1.00  0.00     0.064 A 
ATOM     77  C   UNL A   1      38.868  33.564  38.004  1.00  0.00     0.173 A 
ATOM     78  C   UNL A   1      40.283  35.240  37.032  1.00  0.00     0.173 A 
ATOM     79  F   UNL A   1      38.245  32.377  37.949  1.00  0.00    -0.203 F 
ATOM     80  C   UNL A   1      38.652  34.387  39.107  1.00  0.00     0.198 A 
ATOM     81  C   UNL A   1      40.093  36.049  38.150  1.00  0.00     0.198 A 
ATOM     82  F   UNL A   1      41.067  35.687  36.040  1.00  0.00    -0.203 F 
ATOM     83  F   UNL A   1      37.827  33.990  40.085  1.00  0.00    -0.200 F 
ATOM     84  C   UNL A   1      39.268  35.627  39.181  1.00  0.00     0.200 A 
ATOM     85  F   UNL A   1      40.702  37.241  38.224  1.00  0.00    -0.200 F 
ATOM     86  F   UNL A   1      39.055  36.421  40.240  1.00  0.00    -0.200 F 
ENDBRANCH  52  76
BRANCH  64  87
ATOM     87  C   UNL A   1      43.814  28.597  35.405  1.00  0.00     0.064 A 
ATOM     88  C   UNL A   1      45.168  28.930  35.245  1.00  0.00     0.173 A 
ATOM     89  C   UNL A   1      43.488  27.610  36.348  1.00  0.00     0.173 A 
ATOM     90  F   UNL A   1      45.533  29.855  34.343  1.00  0.00    -0.203 F 
ATOM     91  C   UNL A   1      46.155  28.288  35.985  1.00  0.00     0.198 A 
ATOM     92  C   UNL A   1      44.476  26.991  37.108  1.00  0.00     0.198 A 
ATOM     93  F   UNL A   1      42.208  27.258  36.543  1.00  0.00    -0.203 F 
ATOM     94  F   UNL A   1      47.445  28.592  35.783  1.00  0.00    -0.200 F 
ATOM     95  C   UNL A   1      45.808  27.325  36.921  1.00  0.00     0.200 A 
ATOM     96  F   UNL A   1      44.138  26.071  38.022  1.00  0.00    -0.200 F 
ATOM     97  F   UNL A   1      46.761  26.715  37.641  1.00  0.00    -0.200 F 
ENDBRANCH  64  87
ENDBRANCH  38  39
ENDBRANCH  30  33
ENDBRANCH  28  29
ENDBRANCH  27  28
ENDBRANCH   1  27
TORSDOF 14
ENDMDL
MODEL 2
REMARK VINA RESULT:     -12.8      5.679     11.077
REMARK SMILES Cc1nc(=O)[nH]c(C)c1CC(=O)Nc1sccc1C(=O)NCCCCNC(=O)c1ccc(-c2c3nc(c(-c4c(F)c(F)c(F)c(F)c4F)c4ccc([nH]4)c(-c4c(F)c(F)c(F)c(F)c4F)c4nc(c(-c5c(F)c(F)c(F)c(F)c5F)c5ccc2[nH]5)C=C4)C=C3)cc1
REMARK SMILES IDX 23 1 22 2 21 3 19 4 20 5 18 7 14 8 15 9 16 10 17 11 13 12
REMARK SMILES IDX 11 13 12 14 10 16 9 17 1 18 2 19 3 20 4 21 7 22 5 23 6 24
REMARK SMILES IDX 8 25 24 27 25 28 26 29 27 30 28 32 29 33 30 34 91 35 31 36
REMARK SMILES IDX 90 37 32 38 33 39 34 40 84 41 35 42 89 43 83 44 85 45 36 46
REMARK SMILES IDX 88 47 82 48 81 49 37 51 69 52 49 53 68 54 50 55 53 56 67 57
REMARK SMILES IDX 86 58 51 59 52 60 66 62 87 63 54 64 38 65 39 66 47 67 40 68
REMARK SMILES IDX 41 69 45 70 48 71 42 72 43 73 46 74 44 75 70 76 71 77 79 78
REMARK SMILES IDX 72 79 73 80 77 81 80 82 74 83 75 84 78 85 76 86 55 87 56 88
REMARK SMILES IDX 64 89 57 90 58 91 62 92 65 93 59 94 60 95 63 96 61 97
REMARK H PARENT 21 6 13 15 6 26 26 31 85 50 53 61
REMARK Flexibility Score: inf
ROOT
ATOM      1  C   UNL A   1      36.604  21.069  25.356  1.00  0.00     0.023 C 
ENDROOT
BRANCH   1   2
ATOM      2  C   UNL A   1      36.800  22.584  25.405  1.00  0.00     0.116 C 
BRANCH   2   3
ATOM      3  N   UNL A   1      36.252  23.283  24.266  1.00  0.00    -0.352 N 
ATOM      4  C   UNL A   1      34.951  23.535  23.907  1.00  0.00     0.254 C 
ATOM      5  O   UNL A   1      34.792  23.997  22.776  1.00  0.00    -0.269 OA
ATOM      6  H   UNL A   1      36.924  23.639  23.643  1.00  0.00     0.163 HD
BRANCH   4   7
ATOM      7  C   UNL A   1      33.793  23.196  24.743  1.00  0.00     0.074 A 
ATOM      8  C   UNL A   1      33.180  23.859  25.793  1.00  0.00     0.108 A 
ATOM      9  S   UNL A   1      32.114  22.851  26.679  1.00  0.00    -0.126 S 
ATOM     10  C   UNL A   1      32.132  21.661  25.465  1.00  0.00     0.068 A 
ATOM     11  C   UNL A   1      33.073  21.953  24.506  1.00  0.00     0.028 A 
BRANCH   8  12
ATOM     12  N   UNL A   1      33.261  25.088  26.390  1.00  0.00    -0.317 N 
ATOM     13  C   UNL A   1      33.006  26.337  25.914  1.00  0.00     0.229 C 
ATOM     14  O   UNL A   1      33.544  27.280  26.510  1.00  0.00    -0.274 OA
ATOM     15  H   UNL A   1      33.556  25.066  27.329  1.00  0.00     0.170 HD
BRANCH  13  16
ATOM     16  C   UNL A   1      31.918  26.646  24.882  1.00  0.00     0.139 C 
BRANCH  16  17
ATOM     17  C   UNL A   1      32.114  26.322  23.437  1.00  0.00     0.002 A 
ATOM     18  C   UNL A   1      34.042  28.083  23.290  1.00  0.00     0.067 C 
ATOM     19  C   UNL A   1      33.159  27.042  22.630  1.00  0.00     0.049 A 
ATOM     20  N   UNL A   1      33.426  26.808  21.386  1.00  0.00    -0.198 NA
ATOM     21  C   UNL A   1      32.725  25.841  20.726  1.00  0.00     0.345 A 
ATOM     22  C   UNL A   1      31.532  25.303  22.774  1.00  0.00     0.022 A 
ATOM     23  O   UNL A   1      32.901  25.571  19.541  1.00  0.00    -0.246 OA
ATOM     24  N   UNL A   1      31.828  25.105  21.451  1.00  0.00    -0.310 N 
ATOM     25  C   UNL A   1      30.554  24.313  23.338  1.00  0.00     0.065 C 
ATOM     26  H   UNL A   1      31.358  24.376  20.986  1.00  0.00     0.171 HD
ENDBRANCH  16  17
ENDBRANCH  13  16
ENDBRANCH   8  12
ENDBRANCH   4   7
ENDBRANCH   2   3
ENDBRANCH   1   2
BRANCH   1  27
ATOM     27  C   UNL A   1      37.852  20.257  24.978  1.00  0.00     0.023 C 
BRANCH  27  28
ATOM     28  C   UNL A   1      39.090  20.472  25.854  1.00  0.00     0.116 C 
BRANCH  28  29
ATOM     29  N   UNL A   1      40.036  19.372  25.829  1.00  0.00    -0.352 N 
ATOM     30  C   UNL A   1      41.392  19.360  26.053  1.00  0.00     0.251 C 
ATOM     31  H   UNL A   1      39.644  18.494  25.616  1.00  0.00     0.163 HD
ATOM     32  O   UNL A   1      42.032  18.321  25.916  1.00  0.00    -0.269 OA
BRANCH  30  33
ATOM     33  C   UNL A   1      42.104  20.606  26.409  1.00  0.00     0.039 A 
ATOM     34  C   UNL A   1      42.651  21.374  25.378  1.00  0.00     0.014 A 
ATOM     35  C   UNL A   1      42.237  21.022  27.736  1.00  0.00     0.014 A 
ATOM     36  C   UNL A   1      43.235  22.610  25.665  1.00  0.00     0.010 A 
ATOM     37  C   UNL A   1      42.773  22.281  28.018  1.00  0.00     0.010 A 
ATOM     38  C   UNL A   1      43.249  23.100  26.981  1.00  0.00    -0.014 A 
BRANCH  38  39
ATOM     39  C   UNL A   1      43.675  24.496  27.269  1.00  0.00     0.031 A 
ATOM     40  C   UNL A   1      42.689  25.525  27.746  1.00  0.00     0.074 A 
ATOM     41  C   UNL A   1      44.953  24.853  27.022  1.00  0.00     0.049 A 
ATOM     42  N   UNL A   1      42.874  26.803  27.965  1.00  0.00    -0.248 NA
ATOM     43  C   UNL A   1      41.316  25.065  27.995  1.00  0.00     0.031 C 
ATOM     44  C   UNL A   1      45.996  23.958  26.519  1.00  0.00     0.029 A 
ATOM     45  N   UNL A   1      45.588  26.064  27.142  1.00  0.00    -0.354 N 
ATOM     46  C   UNL A   1      41.641  27.302  28.364  1.00  0.00     0.074 A 
ATOM     47  C   UNL A   1      40.708  26.196  28.330  1.00  0.00     0.031 C 
ATOM     48  C   UNL A   1      47.139  24.647  26.375  1.00  0.00     0.029 A 
ATOM     49  C   UNL A   1      46.901  26.041  26.733  1.00  0.00     0.049 A 
ATOM     50  H   UNL A   1      45.146  26.873  27.488  1.00  0.00     0.167 HD
ATOM     51  C   UNL A   1      41.325  28.566  28.735  1.00  0.00     0.037 A 
ATOM     52  C   UNL A   1      47.805  27.036  26.632  1.00  0.00     0.037 A 
ATOM     53  C   UNL A   1      42.262  29.658  28.799  1.00  0.00     0.049 A 
ATOM     54  C   UNL A   1      47.412  28.433  27.030  1.00  0.00     0.074 A 
ATOM     55  C   UNL A   1      42.050  30.947  29.260  1.00  0.00     0.029 A 
ATOM     56  N   UNL A   1      43.582  29.595  28.381  1.00  0.00    -0.354 N 
ATOM     57  N   UNL A   1      46.268  28.869  27.495  1.00  0.00    -0.248 NA
ATOM     58  C   UNL A   1      48.437  29.478  26.885  1.00  0.00     0.031 C 
ATOM     59  C   UNL A   1      43.224  31.680  29.065  1.00  0.00     0.029 A 
ATOM     60  C   UNL A   1      44.183  30.835  28.532  1.00  0.00     0.049 A 
ATOM     61  H   UNL A   1      44.027  28.790  28.031  1.00  0.00     0.167 HD
ATOM     62  C   UNL A   1      46.441  30.229  27.717  1.00  0.00     0.074 A 
ATOM     63  C   UNL A   1      47.806  30.542  27.358  1.00  0.00     0.031 C 
ATOM     64  C   UNL A   1      45.544  31.137  28.171  1.00  0.00     0.037 A 
BRANCH  51  65
ATOM     65  C   UNL A   1      39.902  28.860  29.108  1.00  0.00     0.064 A 
ATOM     66  C   UNL A   1      38.956  29.248  28.147  1.00  0.00     0.173 A 
ATOM     67  C   UNL A   1      39.457  28.649  30.421  1.00  0.00     0.173 A 
ATOM     68  F   UNL A   1      39.333  29.467  26.878  1.00  0.00    -0.203 F 
ATOM     69  C   UNL A   1      37.618  29.420  28.491  1.00  0.00     0.198 A 
ATOM     70  C   UNL A   1      38.114  28.799  30.756  1.00  0.00     0.198 A 
ATOM     71  F   UNL A   1      40.321  28.269  31.375  1.00  0.00    -0.203 F 
ATOM     72  F   UNL A   1      36.734  29.810  27.562  1.00  0.00    -0.200 F 
ATOM     73  C   UNL A   1      37.196  29.185  29.792  1.00  0.00     0.200 A 
ATOM     74  F   UNL A   1      37.706  28.556  32.009  1.00  0.00    -0.200 F 
ATOM     75  F   UNL A   1      35.903  29.329  30.115  1.00  0.00    -0.200 F 
ENDBRANCH  51  65
BRANCH  52  76
ATOM     76  C   UNL A   1      49.169  26.758  26.106  1.00  0.00     0.064 A 
ATOM     77  C   UNL A   1      49.482  26.967  24.756  1.00  0.00     0.173 A 
ATOM     78  C   UNL A   1      50.173  26.234  26.934  1.00  0.00     0.173 A 
ATOM     79  F   UNL A   1      48.548  27.444  23.919  1.00  0.00    -0.203 F 
ATOM     80  C   UNL A   1      50.736  26.634  24.247  1.00  0.00     0.198 A 
ATOM     81  C   UNL A   1      51.437  25.932  26.431  1.00  0.00     0.198 A 
ATOM     82  F   UNL A   1      49.929  26.017  28.234  1.00  0.00    -0.203 F 
ATOM     83  F   UNL A   1      50.987  26.786  22.939  1.00  0.00    -0.200 F 
ATOM     84  C   UNL A   1      51.713  26.120  25.085  1.00  0.00     0.200 A 
ATOM     85  F   UNL A   1      52.384  25.450  27.248  1.00  0.00    -0.200 F 
ATOM     86  F   UNL A   1      52.916  25.794  24.594  1.00  0.00    -0.200 F 
ENDBRANCH  52  76
BRANCH  64  87
ATOM     87  C   UNL A   1      46.013  32.555  28.321  1.00  0.00     0.064 A 
ATOM     88  C   UNL A   1      45.858  33.490  27.287  1.00  0.00     0.173 A 
ATOM     89  C   UNL A   1      46.583  32.996  29.525  1.00  0.00     0.173 A 
ATOM     90  F   UNL A   1      45.335  33.113  26.109  1.00  0.00    -0.203 F 
ATOM     91  C   UNL A   1      46.274  34.808  27.445  1.00  0.00     0.198 A 
ATOM     92  C   UNL A   1      46.970  34.322  29.691  1.00  0.00     0.198 A 
ATOM     93  F   UNL A   1      46.749  32.143  30.547  1.00  0.00    -0.203 F 
ATOM     94  F   UNL A   1      46.156  35.672  26.428  1.00  0.00    -0.200 F 
ATOM     95  C   UNL A   1      46.821  35.225  28.649  1.00  0.00     0.200 A 
ATOM     96  F   UNL A   1      47.486  34.727  30.859  1.00  0.00    -0.200 F 
ATOM     97  F   UNL A   1      47.212  36.499  28.804  1.00  0.00    -0.200 F 
ENDBRANCH  64  87
ENDBRANCH  38  39
ENDBRANCH  30  33
ENDBRANCH  28  29
ENDBRANCH  27  28
ENDBRANCH   1  27
TORSDOF 14
ENDMDL
MODEL 3
REMARK VINA RESULT:     -12.8      0.969      2.636
REMARK SMILES Cc1nc(=O)[nH]c(C)c1CC(=O)Nc1sccc1C(=O)NCCCCNC(=O)c1ccc(-c2c3nc(c(-c4c(F)c(F)c(F)c(F)c4F)c4ccc([nH]4)c(-c4c(F)c(F)c(F)c(F)c4F)c4nc(c(-c5c(F)c(F)c(F)c(F)c5F)c5ccc2[nH]5)C=C4)C=C3)cc1
REMARK SMILES IDX 23 1 22 2 21 3 19 4 20 5 18 7 14 8 15 9 16 10 17 11 13 12
REMARK SMILES IDX 11 13 12 14 10 16 9 17 1 18 2 19 3 20 4 21 7 22 5 23 6 24
REMARK SMILES IDX 8 25 24 27 25 28 26 29 27 30 28 32 29 33 30 34 91 35 31 36
REMARK SMILES IDX 90 37 32 38 33 39 34 40 84 41 35 42 89 43 83 44 85 45 36 46
REMARK SMILES IDX 88 47 82 48 81 49 37 51 69 52 49 53 68 54 50 55 53 56 67 57
REMARK SMILES IDX 86 58 51 59 52 60 66 62 87 63 54 64 38 65 39 66 47 67 40 68
REMARK SMILES IDX 41 69 45 70 48 71 42 72 43 73 46 74 44 75 70 76 71 77 79 78
REMARK SMILES IDX 72 79 73 80 77 81 80 82 74 83 75 84 78 85 76 86 55 87 56 88
REMARK SMILES IDX 64 89 57 90 58 91 62 92 65 93 59 94 60 95 63 96 61 97
REMARK H PARENT 21 6 13 15 6 26 26 31 85 50 53 61
REMARK Flexibility Score: inf
ROOT
ATOM      1  C   UNL A   1      31.775  30.654  26.182  1.00  0.00     0.023 C 
ENDROOT
BRANCH   1   2
ATOM      2  C   UNL A   1      32.254  29.560  27.136  1.00  0.00     0.116 C 
BRANCH   2   3
ATOM      3  N   UNL A   1      33.194  28.637  26.545  1.00  0.00    -0.352 N 
ATOM      4  C   UNL A   1      32.997  27.559  25.719  1.00  0.00     0.254 C 
ATOM      5  O   UNL A   1      33.985  26.847  25.529  1.00  0.00    -0.269 OA
ATOM      6  H   UNL A   1      34.135  28.811  26.773  1.00  0.00     0.163 HD
BRANCH   4   7
ATOM      7  C   UNL A   1      31.691  27.184  25.163  1.00  0.00     0.074 A 
ATOM      8  C   UNL A   1      30.791  26.186  25.499  1.00  0.00     0.108 A 
ATOM      9  S   UNL A   1      29.606  25.929  24.288  1.00  0.00    -0.126 S 
ATOM     10  C   UNL A   1      30.008  27.381  23.501  1.00  0.00     0.068 A 
ATOM     11  C   UNL A   1      31.139  27.940  24.049  1.00  0.00     0.028 A 
BRANCH   8  12
ATOM     12  N   UNL A   1      30.638  25.267  26.502  1.00  0.00    -0.317 N 
ATOM     13  C   UNL A   1      30.674  23.907  26.488  1.00  0.00     0.229 C 
ATOM     14  O   UNL A   1      30.106  23.325  27.422  1.00  0.00    -0.274 OA
ATOM     15  H   UNL A   1      30.471  25.658  27.390  1.00  0.00     0.170 HD
BRANCH  13  16
ATOM     16  C   UNL A   1      31.574  23.092  25.554  1.00  0.00     0.139 C 
BRANCH  16  17
ATOM     17  C   UNL A   1      33.036  23.380  25.449  1.00  0.00     0.002 A 
ATOM     18  C   UNL A   1      33.460  22.119  27.701  1.00  0.00     0.067 C 
ATOM     19  C   UNL A   1      33.983  22.913  26.520  1.00  0.00     0.049 A 
ATOM     20  N   UNL A   1      35.265  23.083  26.500  1.00  0.00    -0.198 NA
ATOM     21  C   UNL A   1      35.833  23.732  25.443  1.00  0.00     0.345 A 
ATOM     22  C   UNL A   1      33.657  23.911  24.377  1.00  0.00     0.022 A 
ATOM     23  O   UNL A   1      37.039  23.953  25.357  1.00  0.00    -0.246 OA
ATOM     24  N   UNL A   1      35.015  24.093  24.408  1.00  0.00    -0.310 N 
ATOM     25  C   UNL A   1      33.010  24.345  23.094  1.00  0.00     0.065 C 
ATOM     26  H   UNL A   1      35.433  24.516  23.625  1.00  0.00     0.171 HD
ENDBRANCH  16  17
ENDBRANCH  13  16
ENDBRANCH   8  12
ENDBRANCH   4   7
ENDBRANCH   2   3
ENDBRANCH   1   2
BRANCH   1  27
ATOM     27  C   UNL A   1      31.462  32.007  26.838  1.00  0.00     0.023 C 
BRANCH  27  28
ATOM     28  C   UNL A   1      32.668  32.831  27.297  1.00  0.00     0.116 C 
BRANCH  28  29
ATOM     29  N   UNL A   1      32.349  34.196  27.672  1.00  0.00    -0.352 N 
ATOM     30  C   UNL A   1      32.974  35.045  28.554  1.00  0.00     0.251 C 
ATOM     31  H   UNL A   1      31.559  34.574  27.223  1.00  0.00     0.163 HD
ATOM     32  O   UNL A   1      32.501  36.155  28.783  1.00  0.00    -0.269 OA
BRANCH  30  33
ATOM     33  C   UNL A   1      34.189  34.614  29.277  1.00  0.00     0.039 A 
ATOM     34  C   UNL A   1      34.047  34.122  30.577  1.00  0.00     0.014 A 
ATOM     35  C   UNL A   1      35.456  34.688  28.692  1.00  0.00     0.014 A 
ATOM     36  C   UNL A   1      35.156  33.605  31.250  1.00  0.00     0.010 A 
ATOM     37  C   UNL A   1      36.555  34.123  29.344  1.00  0.00     0.010 A 
ATOM     38  C   UNL A   1      36.408  33.548  30.617  1.00  0.00    -0.014 A 
BRANCH  38  39
ATOM     39  C   UNL A   1      37.543  32.813  31.238  1.00  0.00     0.031 A 
ATOM     40  C   UNL A   1      38.190  31.651  30.539  1.00  0.00     0.074 A 
ATOM     41  C   UNL A   1      37.939  33.154  32.482  1.00  0.00     0.049 A 
ATOM     42  N   UNL A   1      39.133  30.851  30.971  1.00  0.00    -0.248 NA
ATOM     43  C   UNL A   1      37.710  31.337  29.186  1.00  0.00     0.031 C 
ATOM     44  C   UNL A   1      37.364  34.236  33.283  1.00  0.00     0.029 A 
ATOM     45  N   UNL A   1      38.904  32.617  33.299  1.00  0.00    -0.354 N 
ATOM     46  C   UNL A   1      39.348  29.932  29.952  1.00  0.00     0.074 A 
ATOM     47  C   UNL A   1      38.419  30.255  28.891  1.00  0.00     0.031 C 
ATOM     48  C   UNL A   1      37.986  34.285  34.472  1.00  0.00     0.029 A 
ATOM     49  C   UNL A   1      38.972  33.212  34.537  1.00  0.00     0.049 A 
ATOM     50  H   UNL A   1      39.491  31.876  33.024  1.00  0.00     0.167 HD
ATOM     51  C   UNL A   1      40.249  28.921  29.907  1.00  0.00     0.037 A 
ATOM     52  C   UNL A   1      39.726  32.912  35.613  1.00  0.00     0.037 A 
ATOM     53  C   UNL A   1      41.194  28.621  30.952  1.00  0.00     0.049 A 
ATOM     54  C   UNL A   1      40.699  31.766  35.536  1.00  0.00     0.074 A 
ATOM     55  C   UNL A   1      42.209  27.678  30.948  1.00  0.00     0.029 A 
ATOM     56  N   UNL A   1      41.236  29.247  32.187  1.00  0.00    -0.354 N 
ATOM     57  N   UNL A   1      40.956  30.967  34.531  1.00  0.00    -0.248 NA
ATOM     58  C   UNL A   1      41.483  31.479  36.746  1.00  0.00     0.031 C 
ATOM     59  C   UNL A   1      42.825  27.693  32.203  1.00  0.00     0.029 A 
ATOM     60  C   UNL A   1      42.230  28.680  32.969  1.00  0.00     0.049 A 
ATOM     61  H   UNL A   1      40.648  29.985  32.467  1.00  0.00     0.167 HD
ATOM     62  C   UNL A   1      41.943  30.099  34.978  1.00  0.00     0.074 A 
ATOM     63  C   UNL A   1      42.256  30.483  36.337  1.00  0.00     0.031 C 
ATOM     64  C   UNL A   1      42.532  29.070  34.322  1.00  0.00     0.037 A 
BRANCH  51  65
ATOM     65  C   UNL A   1      40.271  28.046  28.689  1.00  0.00     0.064 A 
ATOM     66  C   UNL A   1      41.020  28.387  27.553  1.00  0.00     0.173 A 
ATOM     67  C   UNL A   1      39.622  26.802  28.700  1.00  0.00     0.173 A 
ATOM     68  F   UNL A   1      41.655  29.567  27.492  1.00  0.00    -0.203 F 
ATOM     69  C   UNL A   1      41.110  27.517  26.470  1.00  0.00     0.198 A 
ATOM     70  C   UNL A   1      39.734  25.925  27.626  1.00  0.00     0.198 A 
ATOM     71  F   UNL A   1      38.900  26.426  29.767  1.00  0.00    -0.203 F 
ATOM     72  F   UNL A   1      41.815  27.870  25.386  1.00  0.00    -0.200 F 
ATOM     73  C   UNL A   1      40.478  26.282  26.511  1.00  0.00     0.200 A 
ATOM     74  F   UNL A   1      39.135  24.727  27.674  1.00  0.00    -0.200 F 
ATOM     75  F   UNL A   1      40.586  25.437  25.477  1.00  0.00    -0.200 F 
ENDBRANCH  51  65
BRANCH  52  76
ATOM     76  C   UNL A   1      39.577  33.690  36.872  1.00  0.00     0.064 A 
ATOM     77  C   UNL A   1      40.368  34.818  37.125  1.00  0.00     0.173 A 
ATOM     78  C   UNL A   1      38.671  33.293  37.868  1.00  0.00     0.173 A 
ATOM     79  F   UNL A   1      41.266  35.224  36.215  1.00  0.00    -0.203 F 
ATOM     80  C   UNL A   1      40.283  35.501  38.337  1.00  0.00     0.198 A 
ATOM     81  C   UNL A   1      38.564  33.996  39.066  1.00  0.00     0.198 A 
ATOM     82  F   UNL A   1      37.887  32.222  37.677  1.00  0.00    -0.203 F 
ATOM     83  F   UNL A   1      41.097  36.538  38.577  1.00  0.00    -0.200 F 
ATOM     84  C   UNL A   1      39.379  35.091  39.305  1.00  0.00     0.200 A 
ATOM     85  F   UNL A   1      37.677  33.605  39.993  1.00  0.00    -0.200 F 
ATOM     86  F   UNL A   1      39.302  35.744  40.473  1.00  0.00    -0.200 F 
ENDBRANCH  52  76
BRANCH  64  87
ATOM     87  C   UNL A   1      43.586  28.295  35.058  1.00  0.00     0.064 A 
ATOM     88  C   UNL A   1      43.272  27.127  35.769  1.00  0.00     0.173 A 
ATOM     89  C   UNL A   1      44.930  28.697  35.016  1.00  0.00     0.173 A 
ATOM     90  F   UNL A   1      41.998  26.711  35.854  1.00  0.00    -0.203 F 
ATOM     91  C   UNL A   1      44.261  26.403  36.428  1.00  0.00     0.198 A 
ATOM     92  C   UNL A   1      45.920  27.953  35.651  1.00  0.00     0.198 A 
ATOM     93  F   UNL A   1      45.284  29.804  34.346  1.00  0.00    -0.203 F 
ATOM     94  F   UNL A   1      43.930  25.315  37.138  1.00  0.00    -0.200 F 
ATOM     95  C   UNL A   1      45.584  26.811  36.361  1.00  0.00     0.200 A 
ATOM     96  F   UNL A   1      47.200  28.341  35.574  1.00  0.00    -0.200 F 
ATOM     97  F   UNL A   1      46.536  26.105  36.987  1.00  0.00    -0.200 F 
ENDBRANCH  64  87
ENDBRANCH  38  39
ENDBRANCH  30  33
ENDBRANCH  28  29
ENDBRANCH  27  28
ENDBRANCH   1  27
TORSDOF 14
ENDMDL
