MODEL 1
REMARK VINA RESULT:     -13.0      0.000      0.000
REMARK SMILES O=C(NCCCCNC(=O)c1cc2nn[nH]n2n1)c1ccc(-c2c3nc(c(-c4c(F)c(F)c(F)c(F)c4F)c4ccc([nH]4)c(-c4c(F)c(F)c(F)c(F)c4F)c4nc(c(-c5c(F)c(F)c(F)c(F)c5F)c5ccc2[nH]5)C=C4)C=C3)cc1
REMARK SMILES IDX 4 1 3 2 1 3 2 4 19 6 20 7 81 8 21 9 80 10 22 11 23 12 24 13
REMARK SMILES IDX 74 14 25 15 79 16 73 17 75 18 26 19 78 20 72 21 71 22 27 24
REMARK SMILES IDX 59 25 39 26 58 27 40 28 43 29 57 30 76 31 41 32 42 33 56 35
REMARK SMILES IDX 77 36 44 37 28 38 29 39 37 40 30 41 31 42 35 43 38 44 32 45
REMARK SMILES IDX 33 46 36 47 34 48 60 49 61 50 69 51 62 52 63 53 67 54 70 55
REMARK SMILES IDX 64 56 65 57 68 58 66 59 45 60 46 61 54 62 47 63 48 64 52 65
REMARK SMILES IDX 55 66 49 67 50 68 53 69 51 70 5 71 6 72 7 73 8 74 9 75 10 77
REMARK SMILES IDX 11 78 12 79 18 80 13 81 17 82 14 83 16 84 15 85
REMARK H PARENT 3 5 75 23 43 34 8 76 16 86
REMARK Flexibility Score: inf
ROOT
ATOM      1  C   UNL A   1      37.469  22.118  25.043  1.00  0.00     0.116 C 
ENDROOT
BRANCH   1   2
ATOM      2  N   UNL A   1      38.731  21.577  25.494  1.00  0.00    -0.352 N 
ATOM      3  O   UNL A   1      40.445  21.040  26.764  1.00  0.00    -0.269 OA
ATOM      4  C   UNL A   1      39.622  21.912  26.473  1.00  0.00     0.251 C 
ATOM      5  H   UNL A   1      39.012  20.786  24.978  1.00  0.00     0.163 HD
BRANCH   4   6
ATOM      6  C   UNL A   1      39.750  23.252  27.113  1.00  0.00     0.039 A 
ATOM      7  C   UNL A   1      38.921  24.357  26.914  1.00  0.00     0.014 A 
ATOM      8  C   UNL A   1      40.898  23.414  27.914  1.00  0.00     0.014 A 
ATOM      9  C   UNL A   1      39.319  25.618  27.372  1.00  0.00     0.010 A 
ATOM     10  C   UNL A   1      41.296  24.661  28.371  1.00  0.00     0.010 A 
ATOM     11  C   UNL A   1      40.545  25.779  28.036  1.00  0.00    -0.014 A 
BRANCH  11  12
ATOM     12  C   UNL A   1      40.903  27.078  28.614  1.00  0.00     0.031 A 
ATOM     13  C   UNL A   1      42.129  27.634  27.967  1.00  0.00     0.074 A 
ATOM     14  C   UNL A   1      40.144  27.755  29.513  1.00  0.00     0.049 A 
ATOM     15  N   UNL A   1      43.275  27.849  28.522  1.00  0.00    -0.248 NA
ATOM     16  C   UNL A   1      42.158  27.771  26.497  1.00  0.00     0.031 C 
ATOM     17  C   UNL A   1      38.835  27.380  30.057  1.00  0.00     0.029 A 
ATOM     18  N   UNL A   1      40.358  28.981  30.101  1.00  0.00    -0.354 N 
ATOM     19  C   UNL A   1      44.099  28.366  27.524  1.00  0.00     0.074 A 
ATOM     20  C   UNL A   1      43.429  28.115  26.280  1.00  0.00     0.031 C 
ATOM     21  C   UNL A   1      38.273  28.439  30.692  1.00  0.00     0.029 A 
ATOM     22  C   UNL A   1      39.226  29.532  30.731  1.00  0.00     0.049 A 
ATOM     23  H   UNL A   1      41.231  29.435  30.083  1.00  0.00     0.167 HD
ATOM     24  C   UNL A   1      45.111  29.215  27.856  1.00  0.00     0.037 A 
ATOM     25  C   UNL A   1      39.093  30.797  31.232  1.00  0.00     0.037 A 
ATOM     26  C   UNL A   1      45.453  29.050  29.249  1.00  0.00     0.049 A 
ATOM     27  C   UNL A   1      40.463  31.319  31.462  1.00  0.00     0.074 A 
ATOM     28  C   UNL A   1      45.960  28.027  30.025  1.00  0.00     0.029 A 
ATOM     29  N   UNL A   1      44.882  29.939  30.121  1.00  0.00    -0.354 N 
ATOM     30  N   UNL A   1      41.268  30.822  32.359  1.00  0.00    -0.248 NA
ATOM     31  C   UNL A   1      41.091  32.000  30.343  1.00  0.00     0.031 C 
ATOM     32  C   UNL A   1      45.266  28.127  31.268  1.00  0.00     0.029 A 
ATOM     33  C   UNL A   1      44.457  29.262  31.229  1.00  0.00     0.049 A 
ATOM     34  H   UNL A   1      44.792  30.908  29.973  1.00  0.00     0.167 HD
ATOM     35  C   UNL A   1      42.474  30.694  31.691  1.00  0.00     0.074 A 
ATOM     36  C   UNL A   1      42.309  31.462  30.454  1.00  0.00     0.031 C 
ATOM     37  C   UNL A   1      43.371  29.732  32.052  1.00  0.00     0.037 A 
BRANCH  24  38
ATOM     38  C   UNL A   1      45.400  30.514  27.118  1.00  0.00     0.064 A 
ATOM     39  C   UNL A   1      46.749  30.852  26.867  1.00  0.00     0.173 A 
ATOM     40  C   UNL A   1      44.483  31.579  26.974  1.00  0.00     0.173 A 
ATOM     41  F   UNL A   1      47.714  29.924  26.955  1.00  0.00    -0.203 F 
ATOM     42  C   UNL A   1      47.155  32.169  26.638  1.00  0.00     0.198 A 
ATOM     43  C   UNL A   1      44.889  32.886  26.704  1.00  0.00     0.198 A 
ATOM     44  F   UNL A   1      43.171  31.436  27.182  1.00  0.00    -0.203 F 
ATOM     45  F   UNL A   1      48.462  32.458  26.561  1.00  0.00    -0.200 F 
ATOM     46  C   UNL A   1      46.226  33.188  26.577  1.00  0.00     0.200 A 
ATOM     47  F   UNL A   1      43.971  33.862  26.658  1.00  0.00    -0.200 F 
ATOM     48  F   UNL A   1      46.617  34.461  26.436  1.00  0.00    -0.200 F 
ENDBRANCH  24  38
BRANCH  25  49
ATOM     49  C   UNL A   1      37.928  31.732  31.163  1.00  0.00     0.064 A 
ATOM     50  C   UNL A   1      37.448  32.245  29.939  1.00  0.00     0.173 A 
ATOM     51  C   UNL A   1      37.068  31.881  32.266  1.00  0.00     0.173 A 
ATOM     52  F   UNL A   1      38.165  32.094  28.814  1.00  0.00    -0.203 F 
ATOM     53  C   UNL A   1      36.187  32.853  29.830  1.00  0.00     0.198 A 
ATOM     54  C   UNL A   1      35.810  32.483  32.155  1.00  0.00     0.198 A 
ATOM     55  F   UNL A   1      37.388  31.351  33.453  1.00  0.00    -0.203 F 
ATOM     56  F   UNL A   1      35.744  33.280  28.637  1.00  0.00    -0.200 F 
ATOM     57  C   UNL A   1      35.365  32.962  30.937  1.00  0.00     0.200 A 
ATOM     58  F   UNL A   1      35.005  32.536  33.226  1.00  0.00    -0.200 F 
ATOM     59  F   UNL A   1      34.134  33.482  30.825  1.00  0.00    -0.200 F 
ENDBRANCH  25  49
BRANCH  37  60
ATOM     60  C   UNL A   1      43.129  28.994  33.339  1.00  0.00     0.064 A 
ATOM     61  C   UNL A   1      42.298  27.867  33.472  1.00  0.00     0.173 A 
ATOM     62  C   UNL A   1      43.893  29.368  34.451  1.00  0.00     0.173 A 
ATOM     63  F   UNL A   1      41.607  27.392  32.428  1.00  0.00    -0.203 F 
ATOM     64  C   UNL A   1      42.214  27.173  34.680  1.00  0.00     0.198 A 
ATOM     65  C   UNL A   1      43.835  28.654  35.642  1.00  0.00     0.198 A 
ATOM     66  F   UNL A   1      44.741  30.403  34.362  1.00  0.00    -0.203 F 
ATOM     67  F   UNL A   1      41.413  26.102  34.789  1.00  0.00    -0.200 F 
ATOM     68  C   UNL A   1      42.989  27.564  35.761  1.00  0.00     0.200 A 
ATOM     69  F   UNL A   1      44.626  29.004  36.664  1.00  0.00    -0.200 F 
ATOM     70  F   UNL A   1      42.941  26.874  36.909  1.00  0.00    -0.200 F 
ENDBRANCH  37  60
ENDBRANCH  11  12
ENDBRANCH   4   6
ENDBRANCH   1   2
BRANCH   1  71
ATOM     71  C   UNL A   1      36.274  21.196  25.277  1.00  0.00     0.023 C 
BRANCH  71  72
ATOM     72  C   UNL A   1      35.145  21.787  26.130  1.00  0.00     0.023 C 
BRANCH  72  73
ATOM     73  C   UNL A   1      33.853  20.973  26.189  1.00  0.00     0.116 C 
BRANCH  73  74
ATOM     74  N   UNL A   1      33.075  21.071  24.967  1.00  0.00    -0.351 N 
ATOM     75  C   UNL A   1      32.728  20.083  24.066  1.00  0.00     0.271 C 
ATOM     76  H   UNL A   1      32.747  21.973  24.750  1.00  0.00     0.163 HD
ATOM     77  O   UNL A   1      32.199  20.416  23.017  1.00  0.00    -0.267 OA
BRANCH  75  78
ATOM     78  C   UNL A   1      32.996  18.679  24.418  1.00  0.00     0.154 A 
ATOM     79  C   UNL A   1      34.233  17.954  24.258  1.00  0.00     0.089 A 
ATOM     80  N   UNL A   1      32.035  17.895  24.974  1.00  0.00    -0.143 NA
ATOM     81  C   UNL A   1      33.935  16.695  24.695  1.00  0.00     0.199 A 
ATOM     82  N   UNL A   1      32.671  16.751  25.118  1.00  0.00    -0.135 N 
ATOM     83  N   UNL A   1      34.405  15.437  24.853  1.00  0.00    -0.109 NA
ATOM     84  N   UNL A   1      32.344  15.526  25.479  1.00  0.00    -0.177 N 
ATOM     85  N   UNL A   1      33.468  14.729  25.368  1.00  0.00    -0.050 NA
ATOM     86  H   UNL A   1      31.453  15.230  25.777  1.00  0.00     0.216 HD
ENDBRANCH  75  78
ENDBRANCH  73  74
ENDBRANCH  72  73
ENDBRANCH  71  72
ENDBRANCH   1  71
TORSDOF 11
ENDMDL
MODEL 2
REMARK VINA RESULT:     -12.7      3.193      5.196
REMARK SMILES O=C(NCCCCNC(=O)c1cc2nn[nH]n2n1)c1ccc(-c2c3nc(c(-c4c(F)c(F)c(F)c(F)c4F)c4ccc([nH]4)c(-c4c(F)c(F)c(F)c(F)c4F)c4nc(c(-c5c(F)c(F)c(F)c(F)c5F)c5ccc2[nH]5)C=C4)C=C3)cc1
REMARK SMILES IDX 4 1 3 2 1 3 2 4 19 6 20 7 81 8 21 9 80 10 22 11 23 12 24 13
REMARK SMILES IDX 74 14 25 15 79 16 73 17 75 18 26 19 78 20 72 21 71 22 27 24
REMARK SMILES IDX 59 25 39 26 58 27 40 28 43 29 57 30 76 31 41 32 42 33 56 35
REMARK SMILES IDX 77 36 44 37 28 38 29 39 37 40 30 41 31 42 35 43 38 44 32 45
REMARK SMILES IDX 33 46 36 47 34 48 60 49 61 50 69 51 62 52 63 53 67 54 70 55
REMARK SMILES IDX 64 56 65 57 68 58 66 59 45 60 46 61 54 62 47 63 48 64 52 65
REMARK SMILES IDX 55 66 49 67 50 68 53 69 51 70 5 71 6 72 7 73 8 74 9 75 10 77
REMARK SMILES IDX 11 78 12 79 18 80 13 81 17 82 14 83 16 84 15 85
REMARK H PARENT 3 5 75 23 43 34 8 76 16 86
REMARK Flexibility Score: inf
ROOT
ATOM      1  C   UNL A   1      41.794  20.290  26.354  1.00  0.00     0.116 C 
ENDROOT
BRANCH   1   2
ATOM      2  N   UNL A   1      40.398  20.666  26.370  1.00  0.00    -0.352 N 
ATOM      3  O   UNL A   1      38.534  21.808  26.121  1.00  0.00    -0.269 OA
ATOM      4  C   UNL A   1      39.726  21.854  26.434  1.00  0.00     0.251 C 
ATOM      5  H   UNL A   1      39.794  19.889  26.323  1.00  0.00     0.163 HD
BRANCH   4   6
ATOM      6  C   UNL A   1      40.275  23.139  26.954  1.00  0.00     0.039 A 
ATOM      7  C   UNL A   1      41.342  23.295  27.840  1.00  0.00     0.014 A 
ATOM      8  C   UNL A   1      39.553  24.286  26.570  1.00  0.00     0.014 A 
ATOM      9  C   UNL A   1      41.569  24.536  28.445  1.00  0.00     0.010 A 
ATOM     10  C   UNL A   1      39.775  25.519  27.164  1.00  0.00     0.010 A 
ATOM     11  C   UNL A   1      40.736  25.629  28.159  1.00  0.00    -0.014 A 
BRANCH  11  12
ATOM     12  C   UNL A   1      41.049  26.954  28.705  1.00  0.00     0.031 A 
ATOM     13  C   UNL A   1      42.278  27.518  28.073  1.00  0.00     0.074 A 
ATOM     14  C   UNL A   1      40.250  27.640  29.562  1.00  0.00     0.049 A 
ATOM     15  N   UNL A   1      43.404  27.778  28.652  1.00  0.00    -0.248 NA
ATOM     16  C   UNL A   1      42.344  27.611  26.601  1.00  0.00     0.031 C 
ATOM     17  C   UNL A   1      38.935  27.251  30.082  1.00  0.00     0.029 A 
ATOM     18  N   UNL A   1      40.419  28.888  30.116  1.00  0.00    -0.354 N 
ATOM     19  C   UNL A   1      44.242  28.283  27.660  1.00  0.00     0.074 A 
ATOM     20  C   UNL A   1      43.613  27.978  26.407  1.00  0.00     0.031 C 
ATOM     21  C   UNL A   1      38.332  28.315  30.668  1.00  0.00     0.029 A 
ATOM     22  C   UNL A   1      39.258  29.431  30.698  1.00  0.00     0.049 A 
ATOM     23  H   UNL A   1      41.282  29.363  30.107  1.00  0.00     0.167 HD
ATOM     24  C   UNL A   1      45.225  29.166  27.991  1.00  0.00     0.037 A 
ATOM     25  C   UNL A   1      39.082  30.708  31.155  1.00  0.00     0.037 A 
ATOM     26  C   UNL A   1      45.533  29.053  29.398  1.00  0.00     0.049 A 
ATOM     27  C   UNL A   1      40.433  31.269  31.405  1.00  0.00     0.074 A 
ATOM     28  C   UNL A   1      46.042  28.067  30.219  1.00  0.00     0.029 A 
ATOM     29  N   UNL A   1      44.918  29.954  30.226  1.00  0.00    -0.354 N 
ATOM     30  N   UNL A   1      41.225  30.820  32.338  1.00  0.00    -0.248 NA
ATOM     31  C   UNL A   1      41.075  31.930  30.282  1.00  0.00     0.031 C 
ATOM     32  C   UNL A   1      45.312  28.188  31.440  1.00  0.00     0.029 A 
ATOM     33  C   UNL A   1      44.478  29.303  31.343  1.00  0.00     0.049 A 
ATOM     34  H   UNL A   1      44.809  30.916  30.045  1.00  0.00     0.167 HD
ATOM     35  C   UNL A   1      42.451  30.700  31.706  1.00  0.00     0.074 A 
ATOM     36  C   UNL A   1      42.302  31.425  30.442  1.00  0.00     0.031 C 
ATOM     37  C   UNL A   1      43.360  29.771  32.122  1.00  0.00     0.037 A 
BRANCH  24  38
ATOM     38  C   UNL A   1      45.504  30.448  27.221  1.00  0.00     0.064 A 
ATOM     39  C   UNL A   1      46.851  30.806  26.988  1.00  0.00     0.173 A 
ATOM     40  C   UNL A   1      44.569  31.489  27.025  1.00  0.00     0.173 A 
ATOM     41  F   UNL A   1      47.833  29.902  27.125  1.00  0.00    -0.203 F 
ATOM     42  C   UNL A   1      47.236  32.125  26.728  1.00  0.00     0.198 A 
ATOM     43  C   UNL A   1      44.955  32.796  26.725  1.00  0.00     0.198 A 
ATOM     44  F   UNL A   1      43.256  31.326  27.210  1.00  0.00    -0.203 F 
ATOM     45  F   UNL A   1      48.538  32.437  26.670  1.00  0.00    -0.200 F 
ATOM     46  C   UNL A   1      46.288  33.122  26.617  1.00  0.00     0.200 A 
ATOM     47  F   UNL A   1      44.018  33.751  26.630  1.00  0.00    -0.200 F 
ATOM     48  F   UNL A   1      46.656  34.398  26.446  1.00  0.00    -0.200 F 
ENDBRANCH  24  38
BRANCH  25  49
ATOM     49  C   UNL A   1      37.898  31.612  31.026  1.00  0.00     0.064 A 
ATOM     50  C   UNL A   1      37.416  32.043  29.771  1.00  0.00     0.173 A 
ATOM     51  C   UNL A   1      37.028  31.806  32.113  1.00  0.00     0.173 A 
ATOM     52  F   UNL A   1      38.144  31.843  28.661  1.00  0.00    -0.203 F 
ATOM     53  C   UNL A   1      36.143  32.617  29.620  1.00  0.00     0.198 A 
ATOM     54  C   UNL A   1      35.758  32.373  31.961  1.00  0.00     0.198 A 
ATOM     55  F   UNL A   1      37.350  31.352  33.331  1.00  0.00    -0.203 F 
ATOM     56  F   UNL A   1      35.699  32.964  28.402  1.00  0.00    -0.200 F 
ATOM     57  C   UNL A   1      35.311  32.771  30.714  1.00  0.00     0.200 A 
ATOM     58  F   UNL A   1      34.945  32.471  33.022  1.00  0.00    -0.200 F 
ATOM     59  F   UNL A   1      34.070  33.258  30.566  1.00  0.00    -0.200 F 
ENDBRANCH  25  49
BRANCH  37  60
ATOM     60  C   UNL A   1      43.099  29.068  33.424  1.00  0.00     0.064 A 
ATOM     61  C   UNL A   1      42.287  27.929  33.571  1.00  0.00     0.173 A 
ATOM     62  C   UNL A   1      43.828  29.490  34.543  1.00  0.00     0.173 A 
ATOM     63  F   UNL A   1      41.632  27.409  32.526  1.00  0.00    -0.203 F 
ATOM     64  C   UNL A   1      42.186  27.271  34.798  1.00  0.00     0.198 A 
ATOM     65  C   UNL A   1      43.754  28.812  35.754  1.00  0.00     0.198 A 
ATOM     66  F   UNL A   1      44.659  30.539  34.443  1.00  0.00    -0.203 F 
ATOM     67  F   UNL A   1      41.404  26.187  34.921  1.00  0.00    -0.200 F 
ATOM     68  C   UNL A   1      42.926  27.709  35.885  1.00  0.00     0.200 A 
ATOM     69  F   UNL A   1      44.513  29.209  36.783  1.00  0.00    -0.200 F 
ATOM     70  F   UNL A   1      42.864  27.054  37.053  1.00  0.00    -0.200 F 
ENDBRANCH  37  60
ENDBRANCH  11  12
ENDBRANCH   4   6
ENDBRANCH   1   2
BRANCH   1  71
ATOM     71  C   UNL A   1      42.146  19.155  27.313  1.00  0.00     0.023 C 
BRANCH  71  72
ATOM     72  C   UNL A   1      43.259  18.214  26.837  1.00  0.00     0.023 C 
BRANCH  72  73
ATOM     73  C   UNL A   1      43.743  18.419  25.401  1.00  0.00     0.116 C 
BRANCH  73  74
ATOM     74  N   UNL A   1      45.187  18.533  25.310  1.00  0.00    -0.351 N 
ATOM     75  C   UNL A   1      45.968  19.653  25.100  1.00  0.00     0.271 C 
ATOM     76  H   UNL A   1      45.681  17.688  25.413  1.00  0.00     0.163 HD
ATOM     77  O   UNL A   1      47.162  19.496  24.900  1.00  0.00    -0.267 OA
BRANCH  75  78
ATOM     78  C   UNL A   1      45.329  20.978  25.143  1.00  0.00     0.154 A 
ATOM     79  C   UNL A   1      45.643  22.076  26.025  1.00  0.00     0.089 A 
ATOM     80  N   UNL A   1      44.324  21.305  24.290  1.00  0.00    -0.143 NA
ATOM     81  C   UNL A   1      44.739  23.041  25.683  1.00  0.00     0.199 A 
ATOM     82  N   UNL A   1      44.043  22.536  24.663  1.00  0.00    -0.135 N 
ATOM     83  N   UNL A   1      44.275  24.276  25.974  1.00  0.00    -0.109 NA
ATOM     84  N   UNL A   1      43.119  23.428  24.365  1.00  0.00    -0.177 N 
ATOM     85  N   UNL A   1      43.324  24.543  25.156  1.00  0.00    -0.050 NA
ATOM     86  H   UNL A   1      42.406  23.318  23.694  1.00  0.00     0.216 HD
ENDBRANCH  75  78
ENDBRANCH  73  74
ENDBRANCH  72  73
ENDBRANCH  71  72
ENDBRANCH   1  71
TORSDOF 11
ENDMDL
MODEL 3
REMARK VINA RESULT:     -12.7      0.454      1.707
REMARK SMILES O=C(NCCCCNC(=O)c1cc2nn[nH]n2n1)c1ccc(-c2c3nc(c(-c4c(F)c(F)c(F)c(F)c4F)c4ccc([nH]4)c(-c4c(F)c(F)c(F)c(F)c4F)c4nc(c(-c5c(F)c(F)c(F)c(F)c5F)c5ccc2[nH]5)C=C4)C=C3)cc1
REMARK SMILES IDX 4 1 3 2 1 3 2 4 19 6 20 7 81 8 21 9 80 10 22 11 23 12 24 13
REMARK SMILES IDX 74 14 25 15 79 16 73 17 75 18 26 19 78 20 72 21 71 22 27 24
REMARK SMILES IDX 59 25 39 26 58 27 40 28 43 29 57 30 76 31 41 32 42 33 56 35
REMARK SMILES IDX 77 36 44 37 28 38 29 39 37 40 30 41 31 42 35 43 38 44 32 45
REMARK SMILES IDX 33 46 36 47 34 48 60 49 61 50 69 51 62 52 63 53 67 54 70 55
REMARK SMILES IDX 64 56 65 57 68 58 66 59 45 60 46 61 54 62 47 63 48 64 52 65
REMARK SMILES IDX 55 66 49 67 50 68 53 69 51 70 5 71 6 72 7 73 8 74 9 75 10 77
REMARK SMILES IDX 11 78 12 79 18 80 13 81 17 82 14 83 16 84 15 85
REMARK H PARENT 3 5 75 23 43 34 8 76 16 86
REMARK Flexibility Score: inf
ROOT
ATOM      1  C   UNL A   1      37.785  21.962  25.105  1.00  0.00     0.116 C 
ENDROOT
BRANCH   1   2
ATOM      2  N   UNL A   1      39.026  21.439  25.630  1.00  0.00    -0.352 N 
ATOM      3  O   UNL A   1      40.675  20.937  26.999  1.00  0.00    -0.269 OA
ATOM      4  C   UNL A   1      39.861  21.797  26.651  1.00  0.00     0.251 C 
ATOM      5  H   UNL A   1      39.341  20.643  25.143  1.00  0.00     0.163 HD
BRANCH   4   6
ATOM      6  C   UNL A   1      39.944  23.148  27.275  1.00  0.00     0.039 A 
ATOM      7  C   UNL A   1      39.030  24.193  27.133  1.00  0.00     0.014 A 
ATOM      8  C   UNL A   1      41.132  23.393  27.992  1.00  0.00     0.014 A 
ATOM      9  C   UNL A   1      39.373  25.482  27.557  1.00  0.00     0.010 A 
ATOM     10  C   UNL A   1      41.477  24.668  28.415  1.00  0.00     0.010 A 
ATOM     11  C   UNL A   1      40.629  25.730  28.131  1.00  0.00    -0.014 A 
BRANCH  11  12
ATOM     12  C   UNL A   1      40.939  27.055  28.677  1.00  0.00     0.031 A 
ATOM     13  C   UNL A   1      42.149  27.636  28.022  1.00  0.00     0.074 A 
ATOM     14  C   UNL A   1      40.152  27.728  29.555  1.00  0.00     0.049 A 
ATOM     15  N   UNL A   1      43.284  27.905  28.578  1.00  0.00    -0.248 NA
ATOM     16  C   UNL A   1      42.181  27.738  26.550  1.00  0.00     0.031 C 
ATOM     17  C   UNL A   1      38.853  27.322  30.102  1.00  0.00     0.029 A 
ATOM     18  N   UNL A   1      40.320  28.975  30.113  1.00  0.00    -0.354 N 
ATOM     19  C   UNL A   1      44.095  28.425  27.571  1.00  0.00     0.074 A 
ATOM     20  C   UNL A   1      43.441  28.119  26.330  1.00  0.00     0.031 C 
ATOM     21  C   UNL A   1      38.252  28.376  30.707  1.00  0.00     0.029 A 
ATOM     22  C   UNL A   1      39.166  29.502  30.723  1.00  0.00     0.049 A 
ATOM     23  H   UNL A   1      41.177  29.459  30.088  1.00  0.00     0.167 HD
ATOM     24  C   UNL A   1      45.075  29.317  27.885  1.00  0.00     0.037 A 
ATOM     25  C   UNL A   1      38.987  30.774  31.191  1.00  0.00     0.037 A 
ATOM     26  C   UNL A   1      45.415  29.199  29.284  1.00  0.00     0.049 A 
ATOM     27  C   UNL A   1      40.336  31.349  31.414  1.00  0.00     0.074 A 
ATOM     28  C   UNL A   1      45.952  28.215  30.088  1.00  0.00     0.029 A 
ATOM     29  N   UNL A   1      44.808  30.089  30.130  1.00  0.00    -0.354 N 
ATOM     30  N   UNL A   1      41.153  30.903  32.327  1.00  0.00    -0.248 NA
ATOM     31  C   UNL A   1      40.947  32.023  30.281  1.00  0.00     0.031 C 
ATOM     32  C   UNL A   1      45.247  28.321  31.325  1.00  0.00     0.029 A 
ATOM     33  C   UNL A   1      44.400  29.427  31.253  1.00  0.00     0.049 A 
ATOM     34  H   UNL A   1      44.685  31.050  29.958  1.00  0.00     0.167 HD
ATOM     35  C   UNL A   1      42.367  30.800  31.669  1.00  0.00     0.074 A 
ATOM     36  C   UNL A   1      42.182  31.530  30.412  1.00  0.00     0.031 C 
ATOM     37  C   UNL A   1      43.294  29.879  32.059  1.00  0.00     0.037 A 
BRANCH  24  38
ATOM     38  C   UNL A   1      45.323  30.606  27.117  1.00  0.00     0.064 A 
ATOM     39  C   UNL A   1      46.661  30.974  26.846  1.00  0.00     0.173 A 
ATOM     40  C   UNL A   1      44.376  31.643  26.956  1.00  0.00     0.173 A 
ATOM     41  F   UNL A   1      47.651  30.074  26.947  1.00  0.00    -0.203 F 
ATOM     42  C   UNL A   1      47.030  32.296  26.585  1.00  0.00     0.198 A 
ATOM     43  C   UNL A   1      44.746  32.953  26.654  1.00  0.00     0.198 A 
ATOM     44  F   UNL A   1      43.071  31.470  27.179  1.00  0.00    -0.203 F 
ATOM     45  F   UNL A   1      48.328  32.617  26.490  1.00  0.00    -0.200 F 
ATOM     46  C   UNL A   1      46.073  33.289  26.509  1.00  0.00     0.200 A 
ATOM     47  F   UNL A   1      43.801  33.903  26.594  1.00  0.00    -0.200 F 
ATOM     48  F   UNL A   1      46.429  34.568  26.336  1.00  0.00    -0.200 F 
ENDBRANCH  24  38
BRANCH  25  49
ATOM     49  C   UNL A   1      37.790  31.666  31.093  1.00  0.00     0.064 A 
ATOM     50  C   UNL A   1      37.232  32.301  32.223  1.00  0.00     0.173 A 
ATOM     51  C   UNL A   1      37.373  32.164  29.845  1.00  0.00     0.173 A 
ATOM     52  F   UNL A   1      37.616  31.943  33.458  1.00  0.00    -0.203 F 
ATOM     53  C   UNL A   1      36.328  33.370  32.106  1.00  0.00     0.198 A 
ATOM     54  C   UNL A   1      36.476  33.231  29.730  1.00  0.00     0.198 A 
ATOM     55  F   UNL A   1      37.909  31.693  28.712  1.00  0.00    -0.203 F 
ATOM     56  F   UNL A   1      35.861  33.982  33.205  1.00  0.00    -0.200 F 
ATOM     57  C   UNL A   1      35.960  33.840  30.859  1.00  0.00     0.200 A 
ATOM     58  F   UNL A   1      36.168  33.709  28.516  1.00  0.00    -0.200 F 
ATOM     59  F   UNL A   1      35.149  34.902  30.742  1.00  0.00    -0.200 F 
ENDBRANCH  25  49
BRANCH  37  60
ATOM     60  C   UNL A   1      43.070  29.165  33.363  1.00  0.00     0.064 A 
ATOM     61  C   UNL A   1      43.466  29.651  34.621  1.00  0.00     0.173 A 
ATOM     62  C   UNL A   1      42.287  28.004  33.336  1.00  0.00     0.173 A 
ATOM     63  F   UNL A   1      44.137  30.805  34.736  1.00  0.00    -0.203 F 
ATOM     64  C   UNL A   1      43.120  28.978  35.794  1.00  0.00     0.198 A 
ATOM     65  C   UNL A   1      41.914  27.355  34.507  1.00  0.00     0.198 A 
ATOM     66  F   UNL A   1      41.838  27.527  32.165  1.00  0.00    -0.203 F 
ATOM     67  F   UNL A   1      43.510  29.455  36.986  1.00  0.00    -0.200 F 
ATOM     68  C   UNL A   1      42.339  27.835  35.735  1.00  0.00     0.200 A 
ATOM     69  F   UNL A   1      41.114  26.283  34.444  1.00  0.00    -0.200 F 
ATOM     70  F   UNL A   1      41.970  27.210  36.862  1.00  0.00    -0.200 F 
ENDBRANCH  37  60
ENDBRANCH  11  12
ENDBRANCH   4   6
ENDBRANCH   1   2
BRANCH   1  71
ATOM     71  C   UNL A   1      36.570  21.080  25.380  1.00  0.00     0.023 C 
BRANCH  71  72
ATOM     72  C   UNL A   1      35.347  21.806  25.951  1.00  0.00     0.023 C 
BRANCH  72  73
ATOM     73  C   UNL A   1      34.070  20.975  26.074  1.00  0.00     0.116 C 
BRANCH  73  74
ATOM     74  N   UNL A   1      33.217  21.086  24.905  1.00  0.00    -0.351 N 
ATOM     75  C   UNL A   1      32.778  20.101  24.041  1.00  0.00     0.271 C 
ATOM     76  H   UNL A   1      32.907  21.997  24.697  1.00  0.00     0.163 HD
ATOM     77  O   UNL A   1      32.192  20.440  23.025  1.00  0.00    -0.267 OA
BRANCH  75  78
ATOM     78  C   UNL A   1      33.020  18.693  24.395  1.00  0.00     0.154 A 
ATOM     79  C   UNL A   1      34.250  17.951  24.256  1.00  0.00     0.089 A 
ATOM     80  N   UNL A   1      32.038  17.920  24.929  1.00  0.00    -0.143 NA
ATOM     81  C   UNL A   1      33.927  16.696  24.683  1.00  0.00     0.199 A 
ATOM     82  N   UNL A   1      32.656  16.767  25.081  1.00  0.00    -0.135 N 
ATOM     83  N   UNL A   1      34.377  15.431  24.846  1.00  0.00    -0.109 NA
ATOM     84  N   UNL A   1      32.306  15.545  25.432  1.00  0.00    -0.177 N 
ATOM     85  N   UNL A   1      33.421  14.734  25.340  1.00  0.00    -0.050 NA
ATOM     86  H   UNL A   1      31.406  15.261  25.712  1.00  0.00     0.216 HD
ENDBRANCH  75  78
ENDBRANCH  73  74
ENDBRANCH  72  73
ENDBRANCH  71  72
ENDBRANCH   1  71
TORSDOF 11
ENDMDL
