MODEL 1
REMARK VINA RESULT:     -12.6      0.000      0.000
REMARK SMILES O=C(NCCCCNC(=O)c1ccccc1C[N@H+]1CCCC[C@@H]1CCn1cccn1)c1ccc(-c2c3nc(c(-c4c(F)c(F)c(F)c(F)c4F)c4ccc([nH]4)c(-c4c(F)c(F)c(F)c(F)c4F)c4nc(c(-c5c(F)c(F)c(F)c(F)c5F)c5ccc2[nH]5)C=C4)C=C3)cc1
REMARK SMILES IDX 7 1 6 2 5 3 4 4 3 5 1 6 2 7 31 9 32 10 93 11 33 12 92 13
REMARK SMILES IDX 34 14 35 15 36 16 86 17 37 18 91 19 85 20 87 21 38 22 90 23
REMARK SMILES IDX 84 24 83 25 39 27 71 28 51 29 70 30 52 31 55 32 69 33 88 34
REMARK SMILES IDX 53 35 54 36 68 38 89 39 56 40 40 41 41 42 49 43 42 44 43 45
REMARK SMILES IDX 47 46 50 47 44 48 45 49 48 50 46 51 72 52 73 53 81 54 74 55
REMARK SMILES IDX 75 56 79 57 82 58 76 59 77 60 80 61 78 62 57 63 58 64 66 65
REMARK SMILES IDX 59 66 60 67 64 68 67 69 61 70 62 71 65 72 63 73 8 74 9 75
REMARK SMILES IDX 10 77 11 78 12 79 16 80 13 81 15 82 14 83 17 84 18 85 19 86
REMARK SMILES IDX 23 87 20 89 22 90 21 91 24 92 25 93 26 94 27 95 30 96 28 97
REMARK SMILES IDX 29 98
REMARK H PARENT 3 8 87 26 55 37 8 76 18 88
REMARK Flexibility Score: inf
ROOT
ATOM      1  C   UNL A   1      36.396  23.699  25.232  1.00  0.00     0.116 C 
ENDROOT
BRANCH   1   2
ATOM      2  C   UNL A   1      36.554  22.248  25.658  1.00  0.00     0.023 C 
BRANCH   2   3
ATOM      3  C   UNL A   1      37.912  21.618  25.347  1.00  0.00     0.023 C 
BRANCH   3   4
ATOM      4  C   UNL A   1      39.052  21.973  26.305  1.00  0.00     0.116 C 
BRANCH   4   5
ATOM      5  N   UNL A   1      40.384  21.835  25.756  1.00  0.00    -0.352 N 
ATOM      6  O   UNL A   1      42.581  21.930  25.519  1.00  0.00    -0.269 OA
ATOM      7  C   UNL A   1      41.574  22.472  25.980  1.00  0.00     0.251 C 
ATOM      8  H   UNL A   1      40.448  21.130  25.073  1.00  0.00     0.163 HD
BRANCH   7   9
ATOM      9  C   UNL A   1      41.719  23.796  26.644  1.00  0.00     0.039 A 
ATOM     10  C   UNL A   1      42.387  24.036  27.844  1.00  0.00     0.014 A 
ATOM     11  C   UNL A   1      41.042  24.865  26.027  1.00  0.00     0.014 A 
ATOM     12  C   UNL A   1      42.257  25.259  28.490  1.00  0.00     0.010 A 
ATOM     13  C   UNL A   1      40.935  26.101  26.649  1.00  0.00     0.010 A 
ATOM     14  C   UNL A   1      41.495  26.274  27.909  1.00  0.00    -0.014 A 
BRANCH  14  15
ATOM     15  C   UNL A   1      41.445  27.563  28.588  1.00  0.00     0.031 A 
ATOM     16  C   UNL A   1      42.596  28.460  28.273  1.00  0.00     0.074 A 
ATOM     17  C   UNL A   1      40.388  27.963  29.324  1.00  0.00     0.049 A 
ATOM     18  N   UNL A   1      43.446  28.997  29.089  1.00  0.00    -0.248 NA
ATOM     19  C   UNL A   1      42.912  28.689  26.852  1.00  0.00     0.031 C 
ATOM     20  C   UNL A   1      39.093  27.298  29.484  1.00  0.00     0.029 A 
ATOM     21  N   UNL A   1      40.219  29.120  30.023  1.00  0.00    -0.354 N 
ATOM     22  C   UNL A   1      44.304  29.767  28.302  1.00  0.00     0.074 A 
ATOM     23  C   UNL A   1      44.017  29.429  26.935  1.00  0.00     0.031 C 
ATOM     24  C   UNL A   1      38.208  28.164  30.028  1.00  0.00     0.029 A 
ATOM     25  C   UNL A   1      38.901  29.392  30.375  1.00  0.00     0.049 A 
ATOM     26  H   UNL A   1      40.966  29.714  30.260  1.00  0.00     0.167 HD
ATOM     27  C   UNL A   1      45.033  30.784  28.838  1.00  0.00     0.037 A 
ATOM     28  C   UNL A   1      38.416  30.568  30.848  1.00  0.00     0.037 A 
ATOM     29  C   UNL A   1      45.196  30.612  30.257  1.00  0.00     0.049 A 
ATOM     30  C   UNL A   1      39.568  31.352  31.361  1.00  0.00     0.074 A 
ATOM     31  C   UNL A   1      45.793  29.658  31.059  1.00  0.00     0.029 A 
ATOM     32  N   UNL A   1      44.397  31.346  31.097  1.00  0.00    -0.354 N 
ATOM     33  N   UNL A   1      40.258  31.019  32.415  1.00  0.00    -0.248 NA
ATOM     34  C   UNL A   1      40.236  32.247  30.428  1.00  0.00     0.031 C 
ATOM     35  C   UNL A   1      44.943  29.553  32.199  1.00  0.00     0.029 A 
ATOM     36  C   UNL A   1      43.921  30.489  32.053  1.00  0.00     0.049 A 
ATOM     37  H   UNL A   1      44.202  32.308  31.025  1.00  0.00     0.167 HD
ATOM     38  C   UNL A   1      41.573  31.296  32.074  1.00  0.00     0.074 A 
ATOM     39  C   UNL A   1      41.491  32.115  30.865  1.00  0.00     0.031 C 
ATOM     40  C   UNL A   1      42.606  30.601  32.631  1.00  0.00     0.037 A 
BRANCH  27  41
ATOM     41  C   UNL A   1      45.246  32.123  28.162  1.00  0.00     0.064 A 
ATOM     42  C   UNL A   1      44.121  32.932  27.889  1.00  0.00     0.173 A 
ATOM     43  C   UNL A   1      46.427  32.486  27.479  1.00  0.00     0.173 A 
ATOM     44  F   UNL A   1      42.944  32.693  28.488  1.00  0.00    -0.203 F 
ATOM     45  C   UNL A   1      44.147  33.934  26.916  1.00  0.00     0.198 A 
ATOM     46  C   UNL A   1      46.461  33.519  26.542  1.00  0.00     0.198 A 
ATOM     47  F   UNL A   1      47.568  31.801  27.600  1.00  0.00    -0.203 F 
ATOM     48  F   UNL A   1      43.015  34.571  26.587  1.00  0.00    -0.200 F 
ATOM     49  C   UNL A   1      45.313  34.214  26.229  1.00  0.00     0.200 A 
ATOM     50  F   UNL A   1      47.601  33.771  25.883  1.00  0.00    -0.200 F 
ATOM     51  F   UNL A   1      45.322  35.116  25.240  1.00  0.00    -0.200 F 
ENDBRANCH  27  41
BRANCH  28  52
ATOM     52  C   UNL A   1      37.105  31.198  30.556  1.00  0.00     0.064 A 
ATOM     53  C   UNL A   1      36.231  31.584  31.588  1.00  0.00     0.173 A 
ATOM     54  C   UNL A   1      36.806  31.693  29.270  1.00  0.00     0.173 A 
ATOM     55  F   UNL A   1      36.472  31.205  32.851  1.00  0.00    -0.203 F 
ATOM     56  C   UNL A   1      35.137  32.425  31.349  1.00  0.00     0.198 A 
ATOM     57  C   UNL A   1      35.713  32.527  29.033  1.00  0.00     0.198 A 
ATOM     58  F   UNL A   1      37.628  31.458  28.238  1.00  0.00    -0.203 F 
ATOM     59  F   UNL A   1      34.360  32.820  32.368  1.00  0.00    -0.200 F 
ATOM     60  C   UNL A   1      34.885  32.902  30.073  1.00  0.00     0.200 A 
ATOM     61  F   UNL A   1      35.505  33.015  27.802  1.00  0.00    -0.200 F 
ATOM     62  F   UNL A   1      33.874  33.755  29.854  1.00  0.00    -0.200 F 
ENDBRANCH  28  52
BRANCH  40  63
ATOM     63  C   UNL A   1      42.302  29.700  33.792  1.00  0.00     0.064 A 
ATOM     64  C   UNL A   1      41.850  28.375  33.659  1.00  0.00     0.173 A 
ATOM     65  C   UNL A   1      42.635  30.143  35.079  1.00  0.00     0.173 A 
ATOM     66  F   UNL A   1      41.607  27.846  32.454  1.00  0.00    -0.203 F 
ATOM     67  C   UNL A   1      41.705  27.548  34.771  1.00  0.00     0.198 A 
ATOM     68  C   UNL A   1      42.524  29.303  36.183  1.00  0.00     0.198 A 
ATOM     69  F   UNL A   1      43.124  31.380  35.256  1.00  0.00    -0.203 F 
ATOM     70  F   UNL A   1      41.269  26.287  34.620  1.00  0.00    -0.200 F 
ATOM     71  C   UNL A   1      42.051  28.009  36.031  1.00  0.00     0.200 A 
ATOM     72  F   UNL A   1      42.908  29.738  37.390  1.00  0.00    -0.200 F 
ATOM     73  F   UNL A   1      41.959  27.199  37.094  1.00  0.00    -0.200 F 
ENDBRANCH  40  63
ENDBRANCH  14  15
ENDBRANCH   7   9
ENDBRANCH   4   5
ENDBRANCH   3   4
ENDBRANCH   2   3
ENDBRANCH   1   2
BRANCH   1  74
ATOM     74  N   UNL A   1      35.823  23.860  23.907  1.00  0.00    -0.352 N 
ATOM     75  C   UNL A   1      34.521  24.117  23.539  1.00  0.00     0.251 C 
ATOM     76  H   UNL A   1      36.460  23.774  23.161  1.00  0.00     0.163 HD
ATOM     77  O   UNL A   1      34.231  24.223  22.358  1.00  0.00    -0.269 OA
BRANCH  75  78
ATOM     78  C   UNL A   1      33.456  24.188  24.568  1.00  0.00     0.048 A 
ATOM     79  C   UNL A   1      32.835  22.963  24.873  1.00  0.00     0.014 A 
ATOM     80  C   UNL A   1      33.076  25.375  25.224  1.00  0.00     0.019 A 
ATOM     81  C   UNL A   1      31.883  22.882  25.885  1.00  0.00     0.001 A 
ATOM     82  C   UNL A   1      32.182  25.235  26.297  1.00  0.00     0.010 A 
ATOM     83  C   UNL A   1      31.576  24.018  26.615  1.00  0.00     0.001 A 
BRANCH  80  84
ATOM     84  C   UNL A   1      33.640  26.737  24.857  1.00  0.00     0.300 C 
BRANCH  84  85
ATOM     85  N   UNL A   1      33.265  27.912  25.671  1.00  0.00    -0.329 N 
ATOM     86  C   UNL A   1      34.435  28.400  26.420  1.00  0.00     0.262 C 
ATOM     87  C   UNL A   1      32.492  28.986  25.007  1.00  0.00     0.186 C 
ATOM     88  H   UNL A   1      32.565  27.564  26.325  1.00  0.00     0.348 HD
ATOM     89  C   UNL A   1      34.052  29.448  27.458  1.00  0.00     0.062 C 
ATOM     90  C   UNL A   1      32.089  30.054  26.050  1.00  0.00     0.065 C 
ATOM     91  C   UNL A   1      33.298  30.593  26.806  1.00  0.00     0.012 C 
BRANCH  87  92
ATOM     92  C   UNL A   1      31.217  28.449  24.297  1.00  0.00     0.088 C 
BRANCH  92  93
ATOM     93  C   UNL A   1      31.018  28.913  22.847  1.00  0.00     0.150 C 
BRANCH  93  94
ATOM     94  N   UNL A   1      29.821  29.710  22.647  1.00  0.00    -0.273 N 
ATOM     95  C   UNL A   1      29.237  30.557  23.544  1.00  0.00     0.108 A 
ATOM     96  N   UNL A   1      29.170  29.660  21.468  1.00  0.00    -0.182 NA
ATOM     97  C   UNL A   1      28.172  31.130  22.890  1.00  0.00     0.042 A 
ATOM     98  C   UNL A   1      28.177  30.540  21.613  1.00  0.00     0.135 A 
ENDBRANCH  93  94
ENDBRANCH  92  93
ENDBRANCH  87  92
ENDBRANCH  84  85
ENDBRANCH  80  84
ENDBRANCH  75  78
ENDBRANCH   1  74
TORSDOF 16
ENDMDL
MODEL 2
REMARK VINA RESULT:     -12.5      3.361      9.070
REMARK SMILES O=C(NCCCCNC(=O)c1ccccc1C[N@H+]1CCCC[C@@H]1CCn1cccn1)c1ccc(-c2c3nc(c(-c4c(F)c(F)c(F)c(F)c4F)c4ccc([nH]4)c(-c4c(F)c(F)c(F)c(F)c4F)c4nc(c(-c5c(F)c(F)c(F)c(F)c5F)c5ccc2[nH]5)C=C4)C=C3)cc1
REMARK SMILES IDX 7 1 6 2 5 3 4 4 3 5 1 6 2 7 31 9 32 10 93 11 33 12 92 13
REMARK SMILES IDX 34 14 35 15 36 16 86 17 37 18 91 19 85 20 87 21 38 22 90 23
REMARK SMILES IDX 84 24 83 25 39 27 71 28 51 29 70 30 52 31 55 32 69 33 88 34
REMARK SMILES IDX 53 35 54 36 68 38 89 39 56 40 40 41 41 42 49 43 42 44 43 45
REMARK SMILES IDX 47 46 50 47 44 48 45 49 48 50 46 51 72 52 73 53 81 54 74 55
REMARK SMILES IDX 75 56 79 57 82 58 76 59 77 60 80 61 78 62 57 63 58 64 66 65
REMARK SMILES IDX 59 66 60 67 64 68 67 69 61 70 62 71 65 72 63 73 8 74 9 75
REMARK SMILES IDX 10 77 11 78 12 79 16 80 13 81 15 82 14 83 17 84 18 85 19 86
REMARK SMILES IDX 23 87 20 89 22 90 21 91 24 92 25 93 26 94 27 95 30 96 28 97
REMARK SMILES IDX 29 98
REMARK H PARENT 3 8 87 26 55 37 8 76 18 88
REMARK Flexibility Score: inf
ROOT
ATOM      1  C   UNL A   1      31.964  28.071  26.291  1.00  0.00     0.116 C 
ENDROOT
BRANCH   1   2
ATOM      2  C   UNL A   1      33.478  28.129  26.410  1.00  0.00     0.023 C 
BRANCH   2   3
ATOM      3  C   UNL A   1      34.012  28.946  27.588  1.00  0.00     0.023 C 
BRANCH   3   4
ATOM      4  C   UNL A   1      34.344  30.411  27.293  1.00  0.00     0.116 C 
BRANCH   4   5
ATOM      5  N   UNL A   1      34.317  31.292  28.441  1.00  0.00    -0.352 N 
ATOM      6  O   UNL A   1      34.954  32.665  30.054  1.00  0.00    -0.269 OA
ATOM      7  C   UNL A   1      35.256  31.700  29.348  1.00  0.00     0.251 C 
ATOM      8  H   UNL A   1      33.429  31.683  28.605  1.00  0.00     0.163 HD
BRANCH   7   9
ATOM      9  C   UNL A   1      36.552  31.012  29.599  1.00  0.00     0.039 A 
ATOM     10  C   UNL A   1      37.816  31.533  29.328  1.00  0.00     0.014 A 
ATOM     11  C   UNL A   1      36.458  29.691  30.075  1.00  0.00     0.014 A 
ATOM     12  C   UNL A   1      38.939  30.717  29.379  1.00  0.00     0.010 A 
ATOM     13  C   UNL A   1      37.579  28.878  30.161  1.00  0.00     0.010 A 
ATOM     14  C   UNL A   1      38.810  29.379  29.755  1.00  0.00    -0.014 A 
BRANCH  14  15
ATOM     15  C   UNL A   1      40.025  28.580  29.862  1.00  0.00     0.031 A 
ATOM     16  C   UNL A   1      40.522  28.416  31.261  1.00  0.00     0.074 A 
ATOM     17  C   UNL A   1      40.572  27.934  28.813  1.00  0.00     0.049 A 
ATOM     18  N   UNL A   1      41.678  28.733  31.747  1.00  0.00    -0.248 NA
ATOM     19  C   UNL A   1      39.559  27.948  32.274  1.00  0.00     0.031 C 
ATOM     20  C   UNL A   1      40.034  27.791  27.458  1.00  0.00     0.029 A 
ATOM     21  N   UNL A   1      41.705  27.178  28.767  1.00  0.00    -0.354 N 
ATOM     22  C   UNL A   1      41.651  28.353  33.090  1.00  0.00     0.074 A 
ATOM     23  C   UNL A   1      40.287  28.009  33.389  1.00  0.00     0.031 C 
ATOM     24  C   UNL A   1      40.711  26.816  26.807  1.00  0.00     0.029 A 
ATOM     25  C   UNL A   1      41.807  26.363  27.645  1.00  0.00     0.049 A 
ATOM     26  H   UNL A   1      42.394  27.206  29.469  1.00  0.00     0.167 HD
ATOM     27  C   UNL A   1      42.799  28.142  33.790  1.00  0.00     0.037 A 
ATOM     28  C   UNL A   1      42.687  25.345  27.462  1.00  0.00     0.037 A 
ATOM     29  C   UNL A   1      43.908  28.828  33.180  1.00  0.00     0.049 A 
ATOM     30  C   UNL A   1      43.800  25.539  28.425  1.00  0.00     0.074 A 
ATOM     31  C   UNL A   1      44.213  30.152  32.927  1.00  0.00     0.029 A 
ATOM     32  N   UNL A   1      44.778  28.099  32.410  1.00  0.00    -0.354 N 
ATOM     33  N   UNL A   1      44.657  26.518  28.353  1.00  0.00    -0.248 NA
ATOM     34  C   UNL A   1      43.672  24.910  29.731  1.00  0.00     0.031 C 
ATOM     35  C   UNL A   1      44.878  30.140  31.665  1.00  0.00     0.029 A 
ATOM     36  C   UNL A   1      44.994  28.812  31.261  1.00  0.00     0.049 A 
ATOM     37  H   UNL A   1      45.173  27.227  32.640  1.00  0.00     0.167 HD
ATOM     38  C   UNL A   1      44.850  26.912  29.668  1.00  0.00     0.074 A 
ATOM     39  C   UNL A   1      44.271  25.841  30.477  1.00  0.00     0.031 C 
ATOM     40  C   UNL A   1      45.198  28.195  29.974  1.00  0.00     0.037 A 
BRANCH  27  41
ATOM     41  C   UNL A   1      42.999  27.006  34.772  1.00  0.00     0.064 A 
ATOM     42  C   UNL A   1      43.060  27.304  36.151  1.00  0.00     0.173 A 
ATOM     43  C   UNL A   1      43.463  25.722  34.412  1.00  0.00     0.173 A 
ATOM     44  F   UNL A   1      42.636  28.489  36.615  1.00  0.00    -0.203 F 
ATOM     45  C   UNL A   1      43.659  26.438  37.070  1.00  0.00     0.198 A 
ATOM     46  C   UNL A   1      44.017  24.841  35.342  1.00  0.00     0.198 A 
ATOM     47  F   UNL A   1      43.504  25.300  33.145  1.00  0.00    -0.203 F 
ATOM     48  F   UNL A   1      43.829  26.831  38.339  1.00  0.00    -0.200 F 
ATOM     49  C   UNL A   1      44.154  25.215  36.660  1.00  0.00     0.200 A 
ATOM     50  F   UNL A   1      44.498  23.662  34.923  1.00  0.00    -0.200 F 
ATOM     51  F   UNL A   1      44.801  24.418  37.521  1.00  0.00    -0.200 F 
ENDBRANCH  27  41
BRANCH  28  52
ATOM     52  C   UNL A   1      42.452  24.047  26.783  1.00  0.00     0.064 A 
ATOM     53  C   UNL A   1      43.382  23.520  25.869  1.00  0.00     0.173 A 
ATOM     54  C   UNL A   1      41.450  23.163  27.231  1.00  0.00     0.173 A 
ATOM     55  F   UNL A   1      44.401  24.274  25.434  1.00  0.00    -0.203 F 
ATOM     56  C   UNL A   1      43.318  22.187  25.442  1.00  0.00     0.198 A 
ATOM     57  C   UNL A   1      41.385  21.837  26.801  1.00  0.00     0.198 A 
ATOM     58  F   UNL A   1      40.573  23.541  28.171  1.00  0.00    -0.203 F 
ATOM     59  F   UNL A   1      44.256  21.703  24.615  1.00  0.00    -0.200 F 
ATOM     60  C   UNL A   1      42.325  21.346  25.916  1.00  0.00     0.200 A 
ATOM     61  F   UNL A   1      40.445  21.022  27.301  1.00  0.00    -0.200 F 
ATOM     62  F   UNL A   1      42.300  20.054  25.556  1.00  0.00    -0.200 F 
ENDBRANCH  28  52
BRANCH  40  63
ATOM     63  C   UNL A   1      45.601  29.102  28.848  1.00  0.00     0.064 A 
ATOM     64  C   UNL A   1      44.694  29.885  28.111  1.00  0.00     0.173 A 
ATOM     65  C   UNL A   1      46.967  29.305  28.618  1.00  0.00     0.173 A 
ATOM     66  F   UNL A   1      43.378  29.821  28.343  1.00  0.00    -0.203 F 
ATOM     67  C   UNL A   1      45.141  30.802  27.161  1.00  0.00     0.198 A 
ATOM     68  C   UNL A   1      47.411  30.248  27.696  1.00  0.00     0.198 A 
ATOM     69  F   UNL A   1      47.876  28.626  29.334  1.00  0.00    -0.203 F 
ATOM     70  F   UNL A   1      44.258  31.536  26.467  1.00  0.00    -0.200 F 
ATOM     71  C   UNL A   1      46.499  30.990  26.962  1.00  0.00     0.200 A 
ATOM     72  F   UNL A   1      48.724  30.461  27.544  1.00  0.00    -0.200 F 
ATOM     73  F   UNL A   1      46.930  31.906  26.084  1.00  0.00    -0.200 F 
ENDBRANCH  40  63
ENDBRANCH  14  15
ENDBRANCH   7   9
ENDBRANCH   4   5
ENDBRANCH   3   4
ENDBRANCH   2   3
ENDBRANCH   1   2
BRANCH   1  74
ATOM     74  N   UNL A   1      31.384  26.839  26.797  1.00  0.00    -0.352 N 
ATOM     75  C   UNL A   1      31.355  25.584  26.230  1.00  0.00     0.251 C 
ATOM     76  H   UNL A   1      30.948  26.911  27.677  1.00  0.00     0.163 HD
ATOM     77  O   UNL A   1      30.816  24.661  26.819  1.00  0.00    -0.269 OA
BRANCH  75  78
ATOM     78  C   UNL A   1      31.909  25.368  24.871  1.00  0.00     0.048 A 
ATOM     79  C   UNL A   1      31.117  25.859  23.817  1.00  0.00     0.014 A 
ATOM     80  C   UNL A   1      33.140  24.734  24.617  1.00  0.00     0.019 A 
ATOM     81  C   UNL A   1      31.569  25.797  22.502  1.00  0.00     0.001 A 
ATOM     82  C   UNL A   1      33.600  24.774  23.292  1.00  0.00     0.010 A 
ATOM     83  C   UNL A   1      32.826  25.276  22.244  1.00  0.00     0.001 A 
BRANCH  80  84
ATOM     84  C   UNL A   1      33.980  24.095  25.710  1.00  0.00     0.300 C 
BRANCH  84  85
ATOM     85  N   UNL A   1      35.233  23.404  25.342  1.00  0.00    -0.329 N 
ATOM     86  C   UNL A   1      36.371  24.012  26.050  1.00  0.00     0.262 C 
ATOM     87  C   UNL A   1      35.233  21.924  25.372  1.00  0.00     0.186 C 
ATOM     88  H   UNL A   1      35.333  23.563  24.340  1.00  0.00     0.348 HD
ATOM     89  C   UNL A   1      37.708  23.506  25.524  1.00  0.00     0.062 C 
ATOM     90  C   UNL A   1      36.582  21.395  24.832  1.00  0.00     0.065 C 
ATOM     91  C   UNL A   1      37.766  21.990  25.585  1.00  0.00     0.012 C 
BRANCH  87  92
ATOM     92  C   UNL A   1      34.068  21.312  24.544  1.00  0.00     0.088 C 
BRANCH  92  93
ATOM     93  C   UNL A   1      33.308  20.159  25.216  1.00  0.00     0.150 C 
BRANCH  93  94
ATOM     94  N   UNL A   1      33.474  18.881  24.546  1.00  0.00    -0.273 N 
ATOM     95  C   UNL A   1      32.502  18.139  23.938  1.00  0.00     0.108 A 
ATOM     96  N   UNL A   1      34.694  18.313  24.473  1.00  0.00    -0.182 NA
ATOM     97  C   UNL A   1      33.139  17.049  23.395  1.00  0.00     0.042 A 
ATOM     98  C   UNL A   1      34.489  17.206  23.756  1.00  0.00     0.135 A 
ENDBRANCH  93  94
ENDBRANCH  92  93
ENDBRANCH  87  92
ENDBRANCH  84  85
ENDBRANCH  80  84
ENDBRANCH  75  78
ENDBRANCH   1  74
TORSDOF 16
ENDMDL
MODEL 3
REMARK VINA RESULT:     -12.4      3.106      8.961
REMARK SMILES O=C(NCCCCNC(=O)c1ccccc1C[N@H+]1CCCC[C@@H]1CCn1cccn1)c1ccc(-c2c3nc(c(-c4c(F)c(F)c(F)c(F)c4F)c4ccc([nH]4)c(-c4c(F)c(F)c(F)c(F)c4F)c4nc(c(-c5c(F)c(F)c(F)c(F)c5F)c5ccc2[nH]5)C=C4)C=C3)cc1
REMARK SMILES IDX 7 1 6 2 5 3 4 4 3 5 1 6 2 7 31 9 32 10 93 11 33 12 92 13
REMARK SMILES IDX 34 14 35 15 36 16 86 17 37 18 91 19 85 20 87 21 38 22 90 23
REMARK SMILES IDX 84 24 83 25 39 27 71 28 51 29 70 30 52 31 55 32 69 33 88 34
REMARK SMILES IDX 53 35 54 36 68 38 89 39 56 40 40 41 41 42 49 43 42 44 43 45
REMARK SMILES IDX 47 46 50 47 44 48 45 49 48 50 46 51 72 52 73 53 81 54 74 55
REMARK SMILES IDX 75 56 79 57 82 58 76 59 77 60 80 61 78 62 57 63 58 64 66 65
REMARK SMILES IDX 59 66 60 67 64 68 67 69 61 70 62 71 65 72 63 73 8 74 9 75
REMARK SMILES IDX 10 77 11 78 12 79 16 80 13 81 15 82 14 83 17 84 18 85 19 86
REMARK SMILES IDX 23 87 20 89 22 90 21 91 24 92 25 93 26 94 27 95 30 96 28 97
REMARK SMILES IDX 29 98
REMARK H PARENT 3 8 87 26 55 37 8 76 18 88
REMARK Flexibility Score: inf
ROOT
ATOM      1  C   UNL A   1      31.725  26.779  26.636  1.00  0.00     0.116 C 
ENDROOT
BRANCH   1   2
ATOM      2  C   UNL A   1      31.959  28.166  27.214  1.00  0.00     0.023 C 
BRANCH   2   3
ATOM      3  C   UNL A   1      33.397  28.680  27.122  1.00  0.00     0.023 C 
BRANCH   3   4
ATOM      4  C   UNL A   1      33.558  30.161  26.768  1.00  0.00     0.116 C 
BRANCH   4   5
ATOM      5  N   UNL A   1      33.731  31.049  27.897  1.00  0.00    -0.352 N 
ATOM      6  O   UNL A   1      34.634  32.451  29.351  1.00  0.00    -0.269 OA
ATOM      7  C   UNL A   1      34.819  31.491  28.601  1.00  0.00     0.251 C 
ATOM      8  H   UNL A   1      32.882  31.416  28.233  1.00  0.00     0.163 HD
BRANCH   7   9
ATOM      9  C   UNL A   1      36.158  30.842  28.592  1.00  0.00     0.039 A 
ATOM     10  C   UNL A   1      36.419  29.521  28.231  1.00  0.00     0.014 A 
ATOM     11  C   UNL A   1      37.220  31.629  29.074  1.00  0.00     0.014 A 
ATOM     12  C   UNL A   1      37.662  28.954  28.487  1.00  0.00     0.010 A 
ATOM     13  C   UNL A   1      38.474  31.080  29.301  1.00  0.00     0.010 A 
ATOM     14  C   UNL A   1      38.673  29.726  29.061  1.00  0.00    -0.014 A 
BRANCH  14  15
ATOM     15  C   UNL A   1      39.981  29.109  29.246  1.00  0.00     0.031 A 
ATOM     16  C   UNL A   1      40.357  28.901  30.676  1.00  0.00     0.074 A 
ATOM     17  C   UNL A   1      40.723  28.643  28.221  1.00  0.00     0.049 A 
ATOM     18  N   UNL A   1      41.396  29.343  31.308  1.00  0.00    -0.248 NA
ATOM     19  C   UNL A   1      39.383  28.211  31.542  1.00  0.00     0.031 C 
ATOM     20  C   UNL A   1      40.351  28.538  26.808  1.00  0.00     0.029 A 
ATOM     21  N   UNL A   1      41.959  28.070  28.248  1.00  0.00    -0.354 N 
ATOM     22  C   UNL A   1      41.296  28.849  32.610  1.00  0.00     0.074 A 
ATOM     23  C   UNL A   1      39.979  28.284  32.731  1.00  0.00     0.031 C 
ATOM     24  C   UNL A   1      41.232  27.734  26.170  1.00  0.00     0.029 A 
ATOM     25  C   UNL A   1      42.297  27.377  27.091  1.00  0.00     0.049 A 
ATOM     26  H   UNL A   1      42.562  28.139  29.023  1.00  0.00     0.167 HD
ATOM     27  C   UNL A   1      42.388  28.752  33.416  1.00  0.00     0.037 A 
ATOM     28  C   UNL A   1      43.339  26.520  26.936  1.00  0.00     0.037 A 
ATOM     29  C   UNL A   1      43.432  29.643  32.982  1.00  0.00     0.049 A 
ATOM     30  C   UNL A   1      44.308  26.793  28.027  1.00  0.00     0.074 A 
ATOM     31  C   UNL A   1      43.549  31.015  32.856  1.00  0.00     0.029 A 
ATOM     32  N   UNL A   1      44.476  29.120  32.264  1.00  0.00    -0.354 N 
ATOM     33  N   UNL A   1      45.005  27.890  28.119  1.00  0.00    -0.248 NA
ATOM     34  C   UNL A   1      44.150  26.043  29.264  1.00  0.00     0.031 C 
ATOM     35  C   UNL A   1      44.329  31.209  31.679  1.00  0.00     0.029 A 
ATOM     36  C   UNL A   1      44.690  29.952  31.198  1.00  0.00     0.049 A 
ATOM     37  H   UNL A   1      44.978  28.299  32.475  1.00  0.00     0.167 HD
ATOM     38  C   UNL A   1      45.002  28.195  29.471  1.00  0.00     0.074 A 
ATOM     39  C   UNL A   1      44.520  26.984  30.135  1.00  0.00     0.031 C 
ATOM     40  C   UNL A   1      45.114  29.484  29.902  1.00  0.00     0.037 A 
BRANCH  27  41
ATOM     41  C   UNL A   1      42.665  27.577  34.333  1.00  0.00     0.064 A 
ATOM     42  C   UNL A   1      43.171  26.384  33.772  1.00  0.00     0.173 A 
ATOM     43  C   UNL A   1      42.149  27.456  35.641  1.00  0.00     0.173 A 
ATOM     44  F   UNL A   1      43.699  26.376  32.539  1.00  0.00    -0.203 F 
ATOM     45  C   UNL A   1      43.047  25.151  34.419  1.00  0.00     0.198 A 
ATOM     46  C   UNL A   1      42.071  26.230  36.302  1.00  0.00     0.198 A 
ATOM     47  F   UNL A   1      41.602  28.484  36.297  1.00  0.00    -0.203 F 
ATOM     48  F   UNL A   1      43.405  24.028  33.782  1.00  0.00    -0.200 F 
ATOM     49  C   UNL A   1      42.479  25.073  35.676  1.00  0.00     0.200 A 
ATOM     50  F   UNL A   1      41.511  26.175  37.519  1.00  0.00    -0.200 F 
ATOM     51  F   UNL A   1      42.284  23.886  36.264  1.00  0.00    -0.200 F 
ENDBRANCH  27  41
BRANCH  28  52
ATOM     52  C   UNL A   1      43.378  25.264  26.146  1.00  0.00     0.064 A 
ATOM     53  C   UNL A   1      44.450  24.974  25.285  1.00  0.00     0.173 A 
ATOM     54  C   UNL A   1      42.505  24.196  26.437  1.00  0.00     0.173 A 
ATOM     55  F   UNL A   1      45.360  25.916  25.000  1.00  0.00    -0.203 F 
ATOM     56  C   UNL A   1      44.643  23.690  24.760  1.00  0.00     0.198 A 
ATOM     57  C   UNL A   1      42.696  22.919  25.908  1.00  0.00     0.198 A 
ATOM     58  F   UNL A   1      41.506  24.347  27.318  1.00  0.00    -0.203 F 
ATOM     59  F   UNL A   1      45.710  23.435  23.989  1.00  0.00    -0.200 F 
ATOM     60  C   UNL A   1      43.771  22.662  25.079  1.00  0.00     0.200 A 
ATOM     61  F   UNL A   1      41.869  21.924  26.260  1.00  0.00    -0.200 F 
ATOM     62  F   UNL A   1      43.990  21.419  24.626  1.00  0.00    -0.200 F 
ENDBRANCH  28  52
BRANCH  40  63
ATOM     63  C   UNL A   1      45.480  30.534  28.894  1.00  0.00     0.064 A 
ATOM     64  C   UNL A   1      46.802  30.835  28.519  1.00  0.00     0.173 A 
ATOM     65  C   UNL A   1      44.448  31.139  28.165  1.00  0.00     0.173 A 
ATOM     66  F   UNL A   1      47.840  30.222  29.099  1.00  0.00    -0.203 F 
ATOM     67  C   UNL A   1      47.072  31.730  27.486  1.00  0.00     0.198 A 
ATOM     68  C   UNL A   1      44.721  32.005  27.110  1.00  0.00     0.198 A 
ATOM     69  F   UNL A   1      43.168  30.844  28.443  1.00  0.00    -0.203 F 
ATOM     70  F   UNL A   1      48.342  32.005  27.148  1.00  0.00    -0.200 F 
ATOM     71  C   UNL A   1      46.031  32.307  26.776  1.00  0.00     0.200 A 
ATOM     72  F   UNL A   1      43.712  32.518  26.395  1.00  0.00    -0.200 F 
ATOM     73  F   UNL A   1      46.290  33.130  25.751  1.00  0.00    -0.200 F 
ENDBRANCH  40  63
ENDBRANCH  14  15
ENDBRANCH   7   9
ENDBRANCH   4   5
ENDBRANCH   3   4
ENDBRANCH   2   3
ENDBRANCH   1   2
BRANCH   1  74
ATOM     74  N   UNL A   1      30.558  26.693  25.776  1.00  0.00    -0.352 N 
ATOM     75  C   UNL A   1      30.461  26.848  24.411  1.00  0.00     0.251 C 
ATOM     76  H   UNL A   1      29.711  26.495  26.236  1.00  0.00     0.163 HD
ATOM     77  O   UNL A   1      29.378  26.734  23.860  1.00  0.00    -0.269 OA
BRANCH  75  78
ATOM     78  C   UNL A   1      31.654  27.228  23.617  1.00  0.00     0.048 A 
ATOM     79  C   UNL A   1      31.950  28.604  23.601  1.00  0.00     0.014 A 
ATOM     80  C   UNL A   1      32.465  26.306  22.927  1.00  0.00     0.019 A 
ATOM     81  C   UNL A   1      33.094  29.076  22.966  1.00  0.00     0.001 A 
ATOM     82  C   UNL A   1      33.654  26.810  22.378  1.00  0.00     0.010 A 
ATOM     83  C   UNL A   1      33.962  28.172  22.376  1.00  0.00     0.001 A 
BRANCH  80  84
ATOM     84  C   UNL A   1      32.130  24.827  22.825  1.00  0.00     0.300 C 
BRANCH  84  85
ATOM     85  N   UNL A   1      32.329  23.963  24.007  1.00  0.00    -0.329 N 
ATOM     86  C   UNL A   1      31.051  23.351  24.405  1.00  0.00     0.262 C 
ATOM     87  C   UNL A   1      33.462  23.011  23.976  1.00  0.00     0.186 C 
ATOM     88  H   UNL A   1      32.645  24.595  24.742  1.00  0.00     0.348 HD
ATOM     89  C   UNL A   1      31.147  22.652  25.755  1.00  0.00     0.062 C 
ATOM     90  C   UNL A   1      33.578  22.299  25.343  1.00  0.00     0.065 C 
ATOM     91  C   UNL A   1      32.270  21.630  25.747  1.00  0.00     0.012 C 
BRANCH  87  92
ATOM     92  C   UNL A   1      34.812  23.704  23.636  1.00  0.00     0.088 C 
BRANCH  92  93
ATOM     93  C   UNL A   1      35.990  22.762  23.348  1.00  0.00     0.150 C 
BRANCH  93  94
ATOM     94  N   UNL A   1      36.958  22.690  24.428  1.00  0.00    -0.273 N 
ATOM     95  C   UNL A   1      37.324  23.697  25.274  1.00  0.00     0.108 A 
ATOM     96  N   UNL A   1      37.597  21.530  24.681  1.00  0.00    -0.182 NA
ATOM     97  C   UNL A   1      38.216  23.144  26.162  1.00  0.00     0.042 A 
ATOM     98  C   UNL A   1      38.349  21.806  25.750  1.00  0.00     0.135 A 
ENDBRANCH  93  94
ENDBRANCH  92  93
ENDBRANCH  87  92
ENDBRANCH  84  85
ENDBRANCH  80  84
ENDBRANCH  75  78
ENDBRANCH   1  74
TORSDOF 16
ENDMDL
