MODEL 1
REMARK VINA RESULT:     -11.9      0.000      0.000
REMARK SMILES O=C(NCCCCNC(=O)[C@]1(NC(=O)c2nc(C3CC3)n[nH]2)CCSC1)c1ccc(-c2c3nc(c(-c4c(F)c(F)c(F)c(F)c4F)c4ccc([nH]4)c(-c4c(F)c(F)c(F)c(F)c4F)c4nc(c(-c5c(F)c(F)c(F)c(F)c5F)c5ccc2[nH]5)C=C4)C=C3)cc1
REMARK SMILES IDX 6 1 5 2 4 3 3 4 1 5 2 6 27 8 28 9 89 10 29 11 88 12 30 13
REMARK SMILES IDX 31 14 32 15 82 16 33 17 87 18 81 19 83 20 34 21 86 22 80 23
REMARK SMILES IDX 79 24 35 26 67 27 47 28 66 29 48 30 51 31 65 32 84 33 49 34
REMARK SMILES IDX 50 35 64 37 85 38 52 39 36 40 37 41 45 42 38 43 39 44 43 45
REMARK SMILES IDX 46 46 40 47 41 48 44 49 42 50 68 51 69 52 77 53 70 54 71 55
REMARK SMILES IDX 75 56 78 57 72 58 73 59 76 60 74 61 53 62 54 63 62 64 55 65
REMARK SMILES IDX 56 66 60 67 63 68 57 69 58 70 61 71 59 72 7 73 8 74 9 75
REMARK SMILES IDX 10 77 11 78 23 79 26 80 24 81 25 82 12 83 13 84 14 86 15 87
REMARK SMILES IDX 16 88 22 89 17 90 21 91 18 93 19 94 20 95
REMARK H PARENT 3 7 83 25 51 36 8 76 12 85 22 92
REMARK Flexibility Score: inf
ROOT
ATOM      1  C   UNL A   1      31.791  27.408  26.649  1.00  0.00     0.023 C 
ENDROOT
BRANCH   1   2
ATOM      2  C   UNL A   1      31.570  28.872  26.244  1.00  0.00     0.023 C 
BRANCH   2   3
ATOM      3  C   UNL A   1      32.829  29.710  26.021  1.00  0.00     0.116 C 
BRANCH   3   4
ATOM      4  N   UNL A   1      32.636  31.106  26.371  1.00  0.00    -0.352 N 
ATOM      5  O   UNL A   1      32.913  33.017  27.525  1.00  0.00    -0.269 OA
ATOM      6  C   UNL A   1      33.333  31.895  27.252  1.00  0.00     0.251 C 
ATOM      7  H   UNL A   1      31.893  31.555  25.906  1.00  0.00     0.163 HD
BRANCH   6   8
ATOM      8  C   UNL A   1      34.570  31.403  27.900  1.00  0.00     0.039 A 
ATOM      9  C   UNL A   1      34.694  30.081  28.337  1.00  0.00     0.014 A 
ATOM     10  C   UNL A   1      35.651  32.285  28.023  1.00  0.00     0.014 A 
ATOM     11  C   UNL A   1      35.863  29.670  28.982  1.00  0.00     0.010 A 
ATOM     12  C   UNL A   1      36.830  31.864  28.642  1.00  0.00     0.010 A 
ATOM     13  C   UNL A   1      36.934  30.562  29.153  1.00  0.00    -0.014 A 
BRANCH  13  14
ATOM     14  C   UNL A   1      38.156  30.134  29.875  1.00  0.00     0.031 A 
ATOM     15  C   UNL A   1      38.415  30.611  31.276  1.00  0.00     0.074 A 
ATOM     16  C   UNL A   1      39.039  29.320  29.271  1.00  0.00     0.049 A 
ATOM     17  N   UNL A   1      39.422  30.340  32.069  1.00  0.00    -0.248 NA
ATOM     18  C   UNL A   1      37.417  31.520  31.860  1.00  0.00     0.031 C 
ATOM     19  C   UNL A   1      38.919  28.811  27.906  1.00  0.00     0.029 A 
ATOM     20  N   UNL A   1      40.216  28.783  29.728  1.00  0.00    -0.354 N 
ATOM     21  C   UNL A   1      39.186  31.050  33.236  1.00  0.00     0.074 A 
ATOM     22  C   UNL A   1      37.950  31.780  33.047  1.00  0.00     0.031 C 
ATOM     23  C   UNL A   1      39.977  28.028  27.638  1.00  0.00     0.029 A 
ATOM     24  C   UNL A   1      40.854  27.994  28.806  1.00  0.00     0.049 A 
ATOM     25  H   UNL A   1      40.569  28.948  30.634  1.00  0.00     0.167 HD
ATOM     26  C   UNL A   1      39.927  31.082  34.370  1.00  0.00     0.037 A 
ATOM     27  C   UNL A   1      42.016  27.320  28.892  1.00  0.00     0.037 A 
ATOM     28  C   UNL A   1      41.138  30.335  34.581  1.00  0.00     0.049 A 
ATOM     29  C   UNL A   1      42.811  27.358  30.164  1.00  0.00     0.074 A 
ATOM     30  C   UNL A   1      41.909  30.245  35.726  1.00  0.00     0.029 A 
ATOM     31  N   UNL A   1      41.754  29.549  33.620  1.00  0.00    -0.354 N 
ATOM     32  N   UNL A   1      42.548  27.991  31.280  1.00  0.00    -0.248 NA
ATOM     33  C   UNL A   1      44.062  26.588  30.189  1.00  0.00     0.031 C 
ATOM     34  C   UNL A   1      43.006  29.420  35.452  1.00  0.00     0.029 A 
ATOM     35  C   UNL A   1      42.907  28.987  34.141  1.00  0.00     0.049 A 
ATOM     36  H   UNL A   1      41.422  29.412  32.704  1.00  0.00     0.167 HD
ATOM     37  C   UNL A   1      43.598  27.699  32.139  1.00  0.00     0.074 A 
ATOM     38  C   UNL A   1      44.496  26.819  31.421  1.00  0.00     0.031 C 
ATOM     39  C   UNL A   1      43.798  28.127  33.408  1.00  0.00     0.037 A 
BRANCH  26  40
ATOM     40  C   UNL A   1      39.442  31.956  35.482  1.00  0.00     0.064 A 
ATOM     41  C   UNL A   1      38.547  31.476  36.447  1.00  0.00     0.173 A 
ATOM     42  C   UNL A   1      39.915  33.270  35.610  1.00  0.00     0.173 A 
ATOM     43  F   UNL A   1      38.059  30.230  36.354  1.00  0.00    -0.203 F 
ATOM     44  C   UNL A   1      38.132  32.287  37.500  1.00  0.00     0.198 A 
ATOM     45  C   UNL A   1      39.508  34.074  36.671  1.00  0.00     0.198 A 
ATOM     46  F   UNL A   1      40.774  33.771  34.709  1.00  0.00    -0.203 F 
ATOM     47  F   UNL A   1      37.257  31.818  38.400  1.00  0.00    -0.200 F 
ATOM     48  C   UNL A   1      38.615  33.582  37.613  1.00  0.00     0.200 A 
ATOM     49  F   UNL A   1      39.975  35.324  36.781  1.00  0.00    -0.200 F 
ATOM     50  F   UNL A   1      38.217  34.360  38.629  1.00  0.00    -0.200 F 
ENDBRANCH  26  40
BRANCH  27  51
ATOM     51  C   UNL A   1      42.488  26.541  27.724  1.00  0.00     0.064 A 
ATOM     52  C   UNL A   1      43.393  27.094  26.810  1.00  0.00     0.173 A 
ATOM     53  C   UNL A   1      42.068  25.220  27.521  1.00  0.00     0.173 A 
ATOM     54  F   UNL A   1      43.802  28.362  26.958  1.00  0.00    -0.203 F 
ATOM     55  C   UNL A   1      43.863  26.351  25.731  1.00  0.00     0.198 A 
ATOM     56  C   UNL A   1      42.548  24.473  26.449  1.00  0.00     0.198 A 
ATOM     57  F   UNL A   1      41.200  24.654  28.372  1.00  0.00    -0.203 F 
ATOM     58  F   UNL A   1      44.716  26.905  24.859  1.00  0.00    -0.200 F 
ATOM     59  C   UNL A   1      43.445  25.039  25.554  1.00  0.00     0.200 A 
ATOM     60  F   UNL A   1      42.146  23.206  26.282  1.00  0.00    -0.200 F 
ATOM     61  F   UNL A   1      43.904  24.322  24.520  1.00  0.00    -0.200 F 
ENDBRANCH  27  51
BRANCH  39  62
ATOM     62  C   UNL A   1      45.042  27.660  34.095  1.00  0.00     0.064 A 
ATOM     63  C   UNL A   1      46.221  28.416  34.041  1.00  0.00     0.173 A 
ATOM     64  C   UNL A   1      45.047  26.474  34.840  1.00  0.00     0.173 A 
ATOM     65  F   UNL A   1      46.263  29.551  33.326  1.00  0.00    -0.203 F 
ATOM     66  C   UNL A   1      47.370  27.993  34.702  1.00  0.00     0.198 A 
ATOM     67  C   UNL A   1      46.195  26.059  35.510  1.00  0.00     0.198 A 
ATOM     68  F   UNL A   1      43.941  25.721  34.920  1.00  0.00    -0.203 F 
ATOM     69  F   UNL A   1      48.495  28.716  34.619  1.00  0.00    -0.200 F 
ATOM     70  C   UNL A   1      47.355  26.817  35.439  1.00  0.00     0.200 A 
ATOM     71  F   UNL A   1      46.180  24.924  36.222  1.00  0.00    -0.200 F 
ATOM     72  F   UNL A   1      48.462  26.410  36.075  1.00  0.00    -0.200 F 
ENDBRANCH  39  62
ENDBRANCH  13  14
ENDBRANCH   6   8
ENDBRANCH   3   4
ENDBRANCH   2   3
ENDBRANCH   1   2
BRANCH   1  73
ATOM     73  C   UNL A   1      32.458  26.522  25.597  1.00  0.00     0.116 C 
BRANCH  73  74
ATOM     74  N   UNL A   1      31.554  25.539  25.038  1.00  0.00    -0.354 N 
ATOM     75  C   UNL A   1      31.776  24.500  24.181  1.00  0.00     0.246 C 
ATOM     76  H   UNL A   1      30.617  25.637  25.325  1.00  0.00     0.163 HD
ATOM     77  O   UNL A   1      30.766  23.874  23.841  1.00  0.00    -0.272 OA
BRANCH  75  78
ATOM     78  C   UNL A   1      33.157  24.279  23.478  1.00  0.00     0.129 C 
ATOM     79  C   UNL A   1      33.525  22.786  23.704  1.00  0.00     0.050 C 
ATOM     80  C   UNL A   1      34.278  25.096  24.163  1.00  0.00     0.108 C 
ATOM     81  C   UNL A   1      34.024  22.616  25.127  1.00  0.00     0.072 C 
ATOM     82  S   UNL A   1      35.151  24.005  25.339  1.00  0.00    -0.159 SA
BRANCH  78  83
ATOM     83  N   UNL A   1      33.146  24.508  22.008  1.00  0.00    -0.334 N 
ATOM     84  C   UNL A   1      32.785  25.607  21.268  1.00  0.00     0.289 C 
ATOM     85  H   UNL A   1      33.448  23.738  21.474  1.00  0.00     0.165 HD
ATOM     86  O   UNL A   1      32.939  25.533  20.047  1.00  0.00    -0.266 OA
BRANCH  84  87
ATOM     87  C   UNL A   1      32.123  26.726  21.881  1.00  0.00     0.214 A 
ATOM     88  N   UNL A   1      30.840  26.878  22.125  1.00  0.00    -0.207 NA
ATOM     89  N   UNL A   1      32.780  27.858  22.270  1.00  0.00    -0.255 N 
ATOM     90  C   UNL A   1      30.754  28.167  22.587  1.00  0.00     0.154 A 
ATOM     91  N   UNL A   1      31.919  28.825  22.626  1.00  0.00    -0.158 NA
ATOM     92  H   UNL A   1      33.759  27.953  22.287  1.00  0.00     0.192 HD
BRANCH  90  93
ATOM     93  C   UNL A   1      29.448  28.815  23.011  1.00  0.00     0.060 C 
ATOM     94  C   UNL A   1      29.439  30.293  23.344  1.00  0.00     0.012 C 
ATOM     95  C   UNL A   1      28.805  29.822  22.079  1.00  0.00     0.012 C 
ENDBRANCH  90  93
ENDBRANCH  84  87
ENDBRANCH  78  83
ENDBRANCH  75  78
ENDBRANCH  73  74
ENDBRANCH   1  73
TORSDOF 14
ENDMDL
MODEL 2
REMARK VINA RESULT:     -11.8      4.727      8.028
REMARK SMILES O=C(NCCCCNC(=O)[C@]1(NC(=O)c2nc(C3CC3)n[nH]2)CCSC1)c1ccc(-c2c3nc(c(-c4c(F)c(F)c(F)c(F)c4F)c4ccc([nH]4)c(-c4c(F)c(F)c(F)c(F)c4F)c4nc(c(-c5c(F)c(F)c(F)c(F)c5F)c5ccc2[nH]5)C=C4)C=C3)cc1
REMARK SMILES IDX 6 1 5 2 4 3 3 4 1 5 2 6 27 8 28 9 89 10 29 11 88 12 30 13
REMARK SMILES IDX 31 14 32 15 82 16 33 17 87 18 81 19 83 20 34 21 86 22 80 23
REMARK SMILES IDX 79 24 35 26 67 27 47 28 66 29 48 30 51 31 65 32 84 33 49 34
REMARK SMILES IDX 50 35 64 37 85 38 52 39 36 40 37 41 45 42 38 43 39 44 43 45
REMARK SMILES IDX 46 46 40 47 41 48 44 49 42 50 68 51 69 52 77 53 70 54 71 55
REMARK SMILES IDX 75 56 78 57 72 58 73 59 76 60 74 61 53 62 54 63 62 64 55 65
REMARK SMILES IDX 56 66 60 67 63 68 57 69 58 70 61 71 59 72 7 73 8 74 9 75
REMARK SMILES IDX 10 77 11 78 23 79 26 80 24 81 25 82 12 83 13 84 14 86 15 87
REMARK SMILES IDX 16 88 22 89 17 90 21 91 18 93 19 94 20 95
REMARK H PARENT 3 7 83 25 51 36 8 76 12 85 22 92
REMARK Flexibility Score: inf
ROOT
ATOM      1  C   UNL A   1      36.576  20.751  24.620  1.00  0.00     0.023 C 
ENDROOT
BRANCH   1   2
ATOM      2  C   UNL A   1      37.647  19.720  25.004  1.00  0.00     0.023 C 
BRANCH   2   3
ATOM      3  C   UNL A   1      38.873  20.260  25.740  1.00  0.00     0.116 C 
BRANCH   3   4
ATOM      4  N   UNL A   1      39.915  19.259  25.891  1.00  0.00    -0.352 N 
ATOM      5  O   UNL A   1      42.004  18.446  26.066  1.00  0.00    -0.269 OA
ATOM      6  C   UNL A   1      41.258  19.420  26.127  1.00  0.00     0.251 C 
ATOM      7  H   UNL A   1      39.613  18.326  25.812  1.00  0.00     0.163 HD
BRANCH   6   8
ATOM      8  C   UNL A   1      41.825  20.754  26.427  1.00  0.00     0.039 A 
ATOM      9  C   UNL A   1      42.090  21.162  27.738  1.00  0.00     0.014 A 
ATOM     10  C   UNL A   1      42.143  21.596  25.355  1.00  0.00     0.014 A 
ATOM     11  C   UNL A   1      42.584  22.446  27.980  1.00  0.00     0.010 A 
ATOM     12  C   UNL A   1      42.665  22.870  25.596  1.00  0.00     0.010 A 
ATOM     13  C   UNL A   1      42.860  23.315  26.912  1.00  0.00    -0.014 A 
BRANCH  13  14
ATOM     14  C   UNL A   1      43.345  24.692  27.175  1.00  0.00     0.031 A 
ATOM     15  C   UNL A   1      42.405  25.737  27.704  1.00  0.00     0.074 A 
ATOM     16  C   UNL A   1      44.629  25.007  26.932  1.00  0.00     0.049 A 
ATOM     17  N   UNL A   1      42.645  26.990  28.002  1.00  0.00    -0.248 NA
ATOM     18  C   UNL A   1      41.011  25.325  27.921  1.00  0.00     0.031 C 
ATOM     19  C   UNL A   1      45.633  24.092  26.390  1.00  0.00     0.029 A 
ATOM     20  N   UNL A   1      45.307  26.187  27.104  1.00  0.00    -0.354 N 
ATOM     21  C   UNL A   1      41.436  27.517  28.428  1.00  0.00     0.074 A 
ATOM     22  C   UNL A   1      40.455  26.456  28.336  1.00  0.00     0.031 C 
ATOM     23  C   UNL A   1      46.802  24.744  26.281  1.00  0.00     0.029 A 
ATOM     24  C   UNL A   1      46.624  26.122  26.731  1.00  0.00     0.049 A 
ATOM     25  H   UNL A   1      44.886  27.003  27.463  1.00  0.00     0.167 HD
ATOM     26  C   UNL A   1      41.167  28.769  28.867  1.00  0.00     0.037 A 
ATOM     27  C   UNL A   1      47.582  27.069  26.748  1.00  0.00     0.037 A 
ATOM     28  C   UNL A   1      42.140  29.821  28.994  1.00  0.00     0.049 A 
ATOM     29  C   UNL A   1      47.264  28.445  27.255  1.00  0.00     0.074 A 
ATOM     30  C   UNL A   1      41.973  31.096  29.506  1.00  0.00     0.029 A 
ATOM     31  N   UNL A   1      43.465  29.717  28.602  1.00  0.00    -0.354 N 
ATOM     32  N   UNL A   1      46.127  28.915  27.706  1.00  0.00    -0.248 NA
ATOM     33  C   UNL A   1      48.362  29.423  27.256  1.00  0.00     0.031 C 
ATOM     34  C   UNL A   1      43.194  31.773  29.404  1.00  0.00     0.029 A 
ATOM     35  C   UNL A   1      44.122  30.912  28.842  1.00  0.00     0.049 A 
ATOM     36  H   UNL A   1      43.878  28.914  28.210  1.00  0.00     0.167 HD
ATOM     37  C   UNL A   1      46.369  30.239  28.042  1.00  0.00     0.074 A 
ATOM     38  C   UNL A   1      47.765  30.496  27.759  1.00  0.00     0.031 C 
ATOM     39  C   UNL A   1      45.507  31.157  28.539  1.00  0.00     0.037 A 
BRANCH  26  40
ATOM     40  C   UNL A   1      39.755  29.075  29.251  1.00  0.00     0.064 A 
ATOM     41  C   UNL A   1      38.809  29.465  28.294  1.00  0.00     0.173 A 
ATOM     42  C   UNL A   1      39.333  28.930  30.581  1.00  0.00     0.173 A 
ATOM     43  F   UNL A   1      39.173  29.629  27.014  1.00  0.00    -0.203 F 
ATOM     44  C   UNL A   1      37.488  29.710  28.657  1.00  0.00     0.198 A 
ATOM     45  C   UNL A   1      38.009  29.164  30.938  1.00  0.00     0.198 A 
ATOM     46  F   UNL A   1      40.205  28.558  31.530  1.00  0.00    -0.203 F 
ATOM     47  F   UNL A   1      36.602  30.105  27.732  1.00  0.00    -0.200 F 
ATOM     48  C   UNL A   1      37.088  29.556  29.976  1.00  0.00     0.200 A 
ATOM     49  F   UNL A   1      37.623  29.014  32.212  1.00  0.00    -0.200 F 
ATOM     50  F   UNL A   1      35.815  29.790  30.323  1.00  0.00    -0.200 F 
ENDBRANCH  26  40
BRANCH  27  51
ATOM     51  C   UNL A   1      48.942  26.730  26.272  1.00  0.00     0.064 A 
ATOM     52  C   UNL A   1      49.292  26.891  24.926  1.00  0.00     0.173 A 
ATOM     53  C   UNL A   1      49.924  26.272  27.160  1.00  0.00     0.173 A 
ATOM     54  F   UNL A   1      48.375  27.307  24.041  1.00  0.00    -0.203 F 
ATOM     55  C   UNL A   1      50.581  26.604  24.483  1.00  0.00     0.198 A 
ATOM     56  C   UNL A   1      51.216  25.997  26.719  1.00  0.00     0.198 A 
ATOM     57  F   UNL A   1      49.629  26.102  28.457  1.00  0.00    -0.203 F 
ATOM     58  F   UNL A   1      50.890  26.750  23.188  1.00  0.00    -0.200 F 
ATOM     59  C   UNL A   1      51.543  26.164  25.381  1.00  0.00     0.200 A 
ATOM     60  F   UNL A   1      52.144  25.576  27.589  1.00  0.00    -0.200 F 
ATOM     61  F   UNL A   1      52.785  25.897  24.956  1.00  0.00    -0.200 F 
ENDBRANCH  27  51
BRANCH  39  62
ATOM     62  C   UNL A   1      46.048  32.529  28.794  1.00  0.00     0.064 A 
ATOM     63  C   UNL A   1      45.958  33.530  27.818  1.00  0.00     0.173 A 
ATOM     64  C   UNL A   1      46.622  32.854  30.029  1.00  0.00     0.173 A 
ATOM     65  F   UNL A   1      45.427  33.256  26.616  1.00  0.00    -0.203 F 
ATOM     66  C   UNL A   1      46.438  34.813  28.066  1.00  0.00     0.198 A 
ATOM     67  C   UNL A   1      47.091  34.141  30.279  1.00  0.00     0.198 A 
ATOM     68  F   UNL A   1      46.727  31.927  30.992  1.00  0.00    -0.203 F 
ATOM     69  F   UNL A   1      46.366  35.751  27.113  1.00  0.00    -0.200 F 
ATOM     70  C   UNL A   1      47.001  35.118  29.298  1.00  0.00     0.200 A 
ATOM     71  F   UNL A   1      47.634  34.436  31.468  1.00  0.00    -0.200 F 
ATOM     72  F   UNL A   1      47.462  36.353  29.536  1.00  0.00    -0.200 F 
ENDBRANCH  39  62
ENDBRANCH  13  14
ENDBRANCH   6   8
ENDBRANCH   3   4
ENDBRANCH   2   3
ENDBRANCH   1   2
BRANCH   1  73
ATOM     73  C   UNL A   1      35.452  20.950  25.636  1.00  0.00     0.116 C 
BRANCH  73  74
ATOM     74  N   UNL A   1      34.295  20.125  25.358  1.00  0.00    -0.354 N 
ATOM     75  C   UNL A   1      32.988  20.456  25.139  1.00  0.00     0.246 C 
ATOM     76  H   UNL A   1      34.481  19.159  25.321  1.00  0.00     0.163 HD
ATOM     77  O   UNL A   1      32.221  19.499  24.988  1.00  0.00    -0.272 OA
BRANCH  75  78
ATOM     78  C   UNL A   1      32.456  21.917  25.325  1.00  0.00     0.129 C 
ATOM     79  C   UNL A   1      31.786  22.309  23.978  1.00  0.00     0.050 C 
ATOM     80  C   UNL A   1      33.616  22.921  25.525  1.00  0.00     0.108 C 
ATOM     81  C   UNL A   1      32.872  22.645  22.972  1.00  0.00     0.072 C 
ATOM     82  S   UNL A   1      33.998  23.690  23.912  1.00  0.00    -0.159 SA
BRANCH  78  83
ATOM     83  N   UNL A   1      31.424  22.068  26.385  1.00  0.00    -0.334 N 
ATOM     84  C   UNL A   1      30.632  23.136  26.729  1.00  0.00     0.289 C 
ATOM     85  H   UNL A   1      31.284  21.264  26.935  1.00  0.00     0.165 HD
ATOM     86  O   UNL A   1      29.807  22.954  27.626  1.00  0.00    -0.266 OA
BRANCH  84  87
ATOM     87  C   UNL A   1      30.864  24.440  26.168  1.00  0.00     0.214 A 
ATOM     88  N   UNL A   1      31.647  25.393  26.626  1.00  0.00    -0.207 NA
ATOM     89  N   UNL A   1      30.231  24.893  25.047  1.00  0.00    -0.255 N 
ATOM     90  C   UNL A   1      31.384  26.449  25.788  1.00  0.00     0.154 A 
ATOM     91  N   UNL A   1      30.467  26.199  24.846  1.00  0.00    -0.158 NA
ATOM     92  H   UNL A   1      29.673  24.332  24.462  1.00  0.00     0.192 HD
BRANCH  90  93
ATOM     93  C   UNL A   1      32.060  27.802  25.916  1.00  0.00     0.060 C 
ATOM     94  C   UNL A   1      33.232  27.948  26.864  1.00  0.00     0.012 C 
ATOM     95  C   UNL A   1      33.473  27.958  25.392  1.00  0.00     0.012 C 
ENDBRANCH  90  93
ENDBRANCH  84  87
ENDBRANCH  78  83
ENDBRANCH  75  78
ENDBRANCH  73  74
ENDBRANCH   1  73
TORSDOF 14
ENDMDL
MODEL 3
REMARK VINA RESULT:     -11.8      3.318      5.254
REMARK SMILES O=C(NCCCCNC(=O)[C@]1(NC(=O)c2nc(C3CC3)n[nH]2)CCSC1)c1ccc(-c2c3nc(c(-c4c(F)c(F)c(F)c(F)c4F)c4ccc([nH]4)c(-c4c(F)c(F)c(F)c(F)c4F)c4nc(c(-c5c(F)c(F)c(F)c(F)c5F)c5ccc2[nH]5)C=C4)C=C3)cc1
REMARK SMILES IDX 6 1 5 2 4 3 3 4 1 5 2 6 27 8 28 9 89 10 29 11 88 12 30 13
REMARK SMILES IDX 31 14 32 15 82 16 33 17 87 18 81 19 83 20 34 21 86 22 80 23
REMARK SMILES IDX 79 24 35 26 67 27 47 28 66 29 48 30 51 31 65 32 84 33 49 34
REMARK SMILES IDX 50 35 64 37 85 38 52 39 36 40 37 41 45 42 38 43 39 44 43 45
REMARK SMILES IDX 46 46 40 47 41 48 44 49 42 50 68 51 69 52 77 53 70 54 71 55
REMARK SMILES IDX 75 56 78 57 72 58 73 59 76 60 74 61 53 62 54 63 62 64 55 65
REMARK SMILES IDX 56 66 60 67 63 68 57 69 58 70 61 71 59 72 7 73 8 74 9 75
REMARK SMILES IDX 10 77 11 78 23 79 26 80 24 81 25 82 12 83 13 84 14 86 15 87
REMARK SMILES IDX 16 88 22 89 17 90 21 91 18 93 19 94 20 95
REMARK H PARENT 3 7 83 25 51 36 8 76 12 85 22 92
REMARK Flexibility Score: inf
ROOT
ATOM      1  C   UNL A   1      33.417  26.970  24.427  1.00  0.00     0.023 C 
ENDROOT
BRANCH   1   2
ATOM      2  C   UNL A   1      33.951  28.250  25.085  1.00  0.00     0.023 C 
BRANCH   2   3
ATOM      3  C   UNL A   1      33.920  28.287  26.613  1.00  0.00     0.116 C 
BRANCH   3   4
ATOM      4  N   UNL A   1      33.732  29.631  27.132  1.00  0.00    -0.352 N 
ATOM      5  O   UNL A   1      34.151  31.452  28.382  1.00  0.00    -0.269 OA
ATOM      6  C   UNL A   1      34.562  30.393  27.917  1.00  0.00     0.251 C 
ATOM      7  H   UNL A   1      32.880  30.059  26.884  1.00  0.00     0.163 HD
BRANCH   6   8
ATOM      8  C   UNL A   1      35.936  29.943  28.231  1.00  0.00     0.039 A 
ATOM      9  C   UNL A   1      36.249  29.333  29.450  1.00  0.00     0.014 A 
ATOM     10  C   UNL A   1      36.925  30.094  27.251  1.00  0.00     0.014 A 
ATOM     11  C   UNL A   1      37.567  28.963  29.724  1.00  0.00     0.010 A 
ATOM     12  C   UNL A   1      38.239  29.697  27.515  1.00  0.00     0.010 A 
ATOM     13  C   UNL A   1      38.575  29.156  28.764  1.00  0.00    -0.014 A 
BRANCH  13  14
ATOM     14  C   UNL A   1      39.981  28.801  29.075  1.00  0.00     0.031 A 
ATOM     15  C   UNL A   1      40.848  29.748  29.854  1.00  0.00     0.074 A 
ATOM     16  C   UNL A   1      40.483  27.627  28.651  1.00  0.00     0.049 A 
ATOM     17  N   UNL A   1      42.096  29.610  30.227  1.00  0.00    -0.248 NA
ATOM     18  C   UNL A   1      40.236  31.021  30.261  1.00  0.00     0.031 C 
ATOM     19  C   UNL A   1      39.755  26.635  27.861  1.00  0.00     0.029 A 
ATOM     20  N   UNL A   1      41.728  27.076  28.821  1.00  0.00    -0.354 N 
ATOM     21  C   UNL A   1      42.421  30.778  30.900  1.00  0.00     0.074 A 
ATOM     22  C   UNL A   1      41.248  31.625  30.871  1.00  0.00     0.031 C 
ATOM     23  C   UNL A   1      40.565  25.591  27.621  1.00  0.00     0.029 A 
ATOM     24  C   UNL A   1      41.869  25.848  28.227  1.00  0.00     0.049 A 
ATOM     25  H   UNL A   1      42.451  27.520  29.323  1.00  0.00     0.167 HD
ATOM     26  C   UNL A   1      43.590  31.111  31.497  1.00  0.00     0.037 A 
ATOM     27  C   UNL A   1      42.933  25.024  28.175  1.00  0.00     0.037 A 
ATOM     28  C   UNL A   1      44.751  30.264  31.561  1.00  0.00     0.049 A 
ATOM     29  C   UNL A   1      44.211  25.408  28.859  1.00  0.00     0.074 A 
ATOM     30  C   UNL A   1      45.950  30.487  32.215  1.00  0.00     0.029 A 
ATOM     31  N   UNL A   1      44.856  29.027  30.943  1.00  0.00    -0.354 N 
ATOM     32  N   UNL A   1      44.488  26.493  29.538  1.00  0.00    -0.248 NA
ATOM     33  C   UNL A   1      45.325  24.452  28.770  1.00  0.00     0.031 C 
ATOM     34  C   UNL A   1      46.790  29.394  31.976  1.00  0.00     0.029 A 
ATOM     35  C   UNL A   1      46.107  28.486  31.184  1.00  0.00     0.049 A 
ATOM     36  H   UNL A   1      44.147  28.599  30.411  1.00  0.00     0.167 HD
ATOM     37  C   UNL A   1      45.804  26.354  29.956  1.00  0.00     0.074 A 
ATOM     38  C   UNL A   1      46.268  25.072  29.468  1.00  0.00     0.031 C 
ATOM     39  C   UNL A   1      46.558  27.216  30.678  1.00  0.00     0.037 A 
BRANCH  26  40
ATOM     40  C   UNL A   1      43.673  32.458  32.142  1.00  0.00     0.064 A 
ATOM     41  C   UNL A   1      43.331  32.641  33.488  1.00  0.00     0.173 A 
ATOM     42  C   UNL A   1      44.142  33.564  31.419  1.00  0.00     0.173 A 
ATOM     43  F   UNL A   1      42.865  31.613  34.212  1.00  0.00    -0.203 F 
ATOM     44  C   UNL A   1      43.448  33.891  34.089  1.00  0.00     0.198 A 
ATOM     45  C   UNL A   1      44.269  34.810  32.026  1.00  0.00     0.198 A 
ATOM     46  F   UNL A   1      44.480  33.433  30.127  1.00  0.00    -0.203 F 
ATOM     47  F   UNL A   1      43.095  34.053  35.371  1.00  0.00    -0.200 F 
ATOM     48  C   UNL A   1      43.920  34.973  33.359  1.00  0.00     0.200 A 
ATOM     49  F   UNL A   1      44.726  35.853  31.321  1.00  0.00    -0.200 F 
ATOM     50  F   UNL A   1      44.034  36.175  33.940  1.00  0.00    -0.200 F 
ENDBRANCH  26  40
BRANCH  27  51
ATOM     51  C   UNL A   1      42.816  23.740  27.446  1.00  0.00     0.064 A 
ATOM     52  C   UNL A   1      42.294  22.603  28.073  1.00  0.00     0.173 A 
ATOM     53  C   UNL A   1      43.195  23.638  26.100  1.00  0.00     0.173 A 
ATOM     54  F   UNL A   1      41.940  22.654  29.365  1.00  0.00    -0.203 F 
ATOM     55  C   UNL A   1      42.153  21.405  27.378  1.00  0.00     0.198 A 
ATOM     56  C   UNL A   1      43.043  22.443  25.403  1.00  0.00     0.198 A 
ATOM     57  F   UNL A   1      43.703  24.703  25.464  1.00  0.00    -0.203 F 
ATOM     58  F   UNL A   1      41.665  20.324  28.002  1.00  0.00    -0.200 F 
ATOM     59  C   UNL A   1      42.521  21.327  26.042  1.00  0.00     0.200 A 
ATOM     60  F   UNL A   1      43.396  22.372  24.112  1.00  0.00    -0.200 F 
ATOM     61  F   UNL A   1      42.378  20.176  25.372  1.00  0.00    -0.200 F 
ENDBRANCH  27  51
BRANCH  39  62
ATOM     62  C   UNL A   1      47.967  26.807  30.970  1.00  0.00     0.064 A 
ATOM     63  C   UNL A   1      48.267  25.999  32.075  1.00  0.00     0.173 A 
ATOM     64  C   UNL A   1      49.015  27.192  30.124  1.00  0.00     0.173 A 
ATOM     65  F   UNL A   1      47.295  25.620  32.919  1.00  0.00    -0.203 F 
ATOM     66  C   UNL A   1      49.575  25.598  32.330  1.00  0.00     0.198 A 
ATOM     67  C   UNL A   1      50.321  26.780  30.376  1.00  0.00     0.198 A 
ATOM     68  F   UNL A   1      48.772  27.965  29.055  1.00  0.00    -0.203 F 
ATOM     69  F   UNL A   1      49.847  24.846  33.405  1.00  0.00    -0.200 F 
ATOM     70  C   UNL A   1      50.600  25.987  31.479  1.00  0.00     0.200 A 
ATOM     71  F   UNL A   1      51.310  27.155  29.553  1.00  0.00    -0.200 F 
ATOM     72  F   UNL A   1      51.859  25.600  31.726  1.00  0.00    -0.200 F 
ENDBRANCH  39  62
ENDBRANCH  13  14
ENDBRANCH   6   8
ENDBRANCH   3   4
ENDBRANCH   2   3
ENDBRANCH   1   2
BRANCH   1  73
ATOM     73  C   UNL A   1      33.864  25.657  25.069  1.00  0.00     0.116 C 
BRANCH  73  74
ATOM     74  N   UNL A   1      34.366  24.703  24.101  1.00  0.00    -0.354 N 
ATOM     75  C   UNL A   1      35.001  23.506  24.267  1.00  0.00     0.246 C 
ATOM     76  H   UNL A   1      34.227  24.963  23.162  1.00  0.00     0.163 HD
ATOM     77  O   UNL A   1      35.363  22.953  23.223  1.00  0.00    -0.272 OA
BRANCH  75  78
ATOM     78  C   UNL A   1      35.469  22.998  25.673  1.00  0.00     0.129 C 
ATOM     79  C   UNL A   1      36.603  23.959  26.126  1.00  0.00     0.050 C 
ATOM     80  C   UNL A   1      36.118  21.596  25.581  1.00  0.00     0.108 C 
ATOM     81  C   UNL A   1      37.875  23.601  25.379  1.00  0.00     0.072 C 
ATOM     82  S   UNL A   1      37.931  21.804  25.495  1.00  0.00    -0.159 SA
BRANCH  78  83
ATOM     83  N   UNL A   1      34.418  23.037  26.725  1.00  0.00    -0.334 N 
ATOM     84  C   UNL A   1      33.314  22.246  26.928  1.00  0.00     0.289 C 
ATOM     85  H   UNL A   1      34.534  23.754  27.389  1.00  0.00     0.165 HD
ATOM     86  O   UNL A   1      32.641  22.475  27.935  1.00  0.00    -0.266 OA
BRANCH  84  87
ATOM     87  C   UNL A   1      32.889  21.299  25.934  1.00  0.00     0.214 A 
ATOM     88  N   UNL A   1      33.049  19.994  25.933  1.00  0.00    -0.207 NA
ATOM     89  N   UNL A   1      32.266  21.664  24.775  1.00  0.00    -0.255 N 
ATOM     90  C   UNL A   1      32.580  19.616  24.700  1.00  0.00     0.154 A 
ATOM     91  N   UNL A   1      32.153  20.626  23.932  1.00  0.00    -0.158 NA
ATOM     92  H   UNL A   1      31.942  22.574  24.583  1.00  0.00     0.192 HD
BRANCH  90  93
ATOM     93  C   UNL A   1      32.556  18.175  24.223  1.00  0.00     0.060 C 
ATOM     94  C   UNL A   1      32.762  17.888  22.750  1.00  0.00     0.012 C 
ATOM     95  C   UNL A   1      33.844  17.556  23.721  1.00  0.00     0.012 C 
ENDBRANCH  90  93
ENDBRANCH  84  87
ENDBRANCH  78  83
ENDBRANCH  75  78
ENDBRANCH  73  74
ENDBRANCH   1  73
TORSDOF 14
ENDMDL
