MODEL 1
REMARK VINA RESULT:     -11.8      0.000      0.000
REMARK SMILES COc1ccc(N[C@H](C)[C@@H](C)C(=O)NCCCCNC(=O)c2ccc(-c3c4nc(c(-c5c(F)c(F)c(F)c(F)c5F)c5ccc([nH]5)c(-c5c(F)c(F)c(F)c(F)c5F)c5nc(c(-c6c(F)c(F)c(F)c(F)c6F)c6ccc3[nH]6)C=C5)C=C4)cc2)cn1
REMARK SMILES IDX 15 1 14 2 12 3 13 4 10 6 11 7 8 8 9 9 7 10 6 12 3 13 4 14
REMARK SMILES IDX 86 15 5 16 85 17 2 18 1 19 16 20 17 21 18 22 19 23 20 24
REMARK SMILES IDX 21 26 22 27 23 28 84 29 24 30 83 31 25 32 26 33 27 34 77 35
REMARK SMILES IDX 28 36 82 37 76 38 78 39 29 40 81 41 75 42 74 43 30 45 62 46
REMARK SMILES IDX 42 47 61 48 43 49 46 50 60 51 79 52 44 53 45 54 59 56 80 57
REMARK SMILES IDX 47 58 31 59 32 60 40 61 33 62 34 63 38 64 41 65 35 66 36 67
REMARK SMILES IDX 39 68 37 69 63 70 64 71 72 72 65 73 66 74 70 75 73 76 67 77
REMARK SMILES IDX 68 78 71 79 69 80 48 81 49 82 57 83 50 84 51 85 55 86 58 87
REMARK SMILES IDX 52 88 53 89 56 90 54 91
REMARK H PARENT 14 5 7 11 19 25 78 44 46 55
REMARK Flexibility Score: inf
ROOT
ATOM      1  C   UNL A   1      31.634  30.078  25.280  1.00  0.00     0.116 C 
ENDROOT
BRANCH   1   2
ATOM      2  N   UNL A   1      32.904  29.654  24.729  1.00  0.00    -0.356 N 
ATOM      3  C   UNL A   1      33.363  28.428  24.372  1.00  0.00     0.224 C 
ATOM      4  O   UNL A   1      34.326  28.412  23.596  1.00  0.00    -0.275 OA
ATOM      5  H   UNL A   1      33.549  30.385  24.589  1.00  0.00     0.163 HD
BRANCH   3   6
ATOM      6  C   UNL A   1      32.702  27.115  24.791  1.00  0.00     0.097 C 
ATOM      7  C   UNL A   1      33.814  26.246  25.400  1.00  0.00     0.020 C 
BRANCH   6   8
ATOM      8  C   UNL A   1      31.828  26.456  23.697  1.00  0.00     0.088 C 
ATOM      9  C   UNL A   1      31.825  24.917  23.808  1.00  0.00     0.031 C 
BRANCH   8  10
ATOM     10  N   UNL A   1      30.399  26.842  23.661  1.00  0.00    -0.381 N 
ATOM     11  H   UNL A   1      29.798  26.252  24.169  1.00  0.00     0.160 HD
BRANCH  10  12
ATOM     12  C   UNL A   1      29.775  27.899  23.024  1.00  0.00     0.053 A 
ATOM     13  C   UNL A   1      28.441  30.008  21.815  1.00  0.00     0.213 A 
ATOM     14  C   UNL A   1      27.728  29.175  22.651  1.00  0.00     0.070 A 
ATOM     15  N   UNL A   1      29.749  29.862  21.555  1.00  0.00    -0.220 NA
ATOM     16  C   UNL A   1      28.411  28.121  23.263  1.00  0.00     0.033 A 
ATOM     17  C   UNL A   1      30.376  28.825  22.174  1.00  0.00     0.140 A 
BRANCH  13  18
ATOM     18  O   UNL A   1      27.772  31.000  21.145  1.00  0.00    -0.481 OA
ATOM     19  C   UNL A   1      28.257  32.272  21.562  1.00  0.00     0.280 C 
ENDBRANCH  13  18
ENDBRANCH  10  12
ENDBRANCH   8  10
ENDBRANCH   6   8
ENDBRANCH   3   6
ENDBRANCH   1   2
BRANCH   1  20
ATOM     20  C   UNL A   1      31.745  30.620  26.703  1.00  0.00     0.023 C 
BRANCH  20  21
ATOM     21  C   UNL A   1      31.519  32.124  26.861  1.00  0.00     0.023 C 
BRANCH  21  22
ATOM     22  C   UNL A   1      32.752  32.945  27.220  1.00  0.00     0.116 C 
BRANCH  22  23
ATOM     23  N   UNL A   1      32.435  34.297  27.651  1.00  0.00    -0.352 N 
ATOM     24  C   UNL A   1      33.012  35.062  28.633  1.00  0.00     0.251 C 
ATOM     25  H   UNL A   1      31.695  34.730  27.166  1.00  0.00     0.163 HD
ATOM     26  O   UNL A   1      32.532  36.156  28.920  1.00  0.00    -0.269 OA
BRANCH  24  27
ATOM     27  C   UNL A   1      34.183  34.553  29.379  1.00  0.00     0.039 A 
ATOM     28  C   UNL A   1      33.967  33.928  30.609  1.00  0.00     0.014 A 
ATOM     29  C   UNL A   1      35.479  34.671  28.869  1.00  0.00     0.014 A 
ATOM     30  C   UNL A   1      35.042  33.358  31.293  1.00  0.00     0.010 A 
ATOM     31  C   UNL A   1      36.536  34.032  29.512  1.00  0.00     0.010 A 
ATOM     32  C   UNL A   1      36.329  33.367  30.729  1.00  0.00    -0.014 A 
BRANCH  32  33
ATOM     33  C   UNL A   1      37.453  32.659  31.393  1.00  0.00     0.031 A 
ATOM     34  C   UNL A   1      38.130  31.498  30.719  1.00  0.00     0.074 A 
ATOM     35  C   UNL A   1      37.833  33.038  32.629  1.00  0.00     0.049 A 
ATOM     36  N   UNL A   1      39.119  30.754  31.149  1.00  0.00    -0.248 NA
ATOM     37  C   UNL A   1      37.618  31.105  29.397  1.00  0.00     0.031 C 
ATOM     38  C   UNL A   1      37.217  34.114  33.410  1.00  0.00     0.029 A 
ATOM     39  N   UNL A   1      38.824  32.562  33.450  1.00  0.00    -0.354 N 
ATOM     40  C   UNL A   1      39.335  29.802  30.161  1.00  0.00     0.074 A 
ATOM     41  C   UNL A   1      38.344  30.029  29.132  1.00  0.00     0.031 C 
ATOM     42  C   UNL A   1      37.868  34.239  34.577  1.00  0.00     0.029 A 
ATOM     43  C   UNL A   1      38.917  33.228  34.648  1.00  0.00     0.049 A 
ATOM     44  H   UNL A   1      39.415  31.813  33.203  1.00  0.00     0.167 HD
ATOM     45  C   UNL A   1      40.286  28.840  30.111  1.00  0.00     0.037 A 
ATOM     46  C   UNL A   1      39.753  33.041  35.688  1.00  0.00     0.037 A 
ATOM     47  C   UNL A   1      41.286  28.635  31.127  1.00  0.00     0.049 A 
ATOM     48  C   UNL A   1      40.791  31.954  35.604  1.00  0.00     0.074 A 
ATOM     49  C   UNL A   1      42.341  27.741  31.128  1.00  0.00     0.029 A 
ATOM     50  N   UNL A   1      41.348  29.329  32.327  1.00  0.00    -0.354 N 
ATOM     51  N   UNL A   1      41.049  31.125  34.622  1.00  0.00    -0.248 NA
ATOM     52  C   UNL A   1      41.662  31.783  36.776  1.00  0.00     0.031 C 
ATOM     53  C   UNL A   1      43.004  27.848  32.356  1.00  0.00     0.029 A 
ATOM     54  C   UNL A   1      42.402  28.855  33.092  1.00  0.00     0.049 A 
ATOM     55  H   UNL A   1      40.734  30.050  32.595  1.00  0.00     0.167 HD
ATOM     56  C   UNL A   1      42.128  30.360  35.043  1.00  0.00     0.074 A 
ATOM     57  C   UNL A   1      42.492  30.839  36.359  1.00  0.00     0.031 C 
ATOM     58  C   UNL A   1      42.759  29.348  34.398  1.00  0.00     0.037 A 
BRANCH  45  59
ATOM     59  C   UNL A   1      40.300  27.927  28.918  1.00  0.00     0.064 A 
ATOM     60  C   UNL A   1      41.036  28.232  27.762  1.00  0.00     0.173 A 
ATOM     61  C   UNL A   1      39.622  26.700  28.957  1.00  0.00     0.173 A 
ATOM     62  F   UNL A   1      41.694  29.397  27.668  1.00  0.00    -0.203 F 
ATOM     63  C   UNL A   1      41.074  27.352  26.683  1.00  0.00     0.198 A 
ATOM     64  C   UNL A   1      39.688  25.808  27.890  1.00  0.00     0.198 A 
ATOM     65  F   UNL A   1      38.909  26.355  30.040  1.00  0.00    -0.203 F 
ATOM     66  F   UNL A   1      41.750  27.683  25.575  1.00  0.00    -0.200 F 
ATOM     67  C   UNL A   1      40.409  26.137  26.753  1.00  0.00     0.200 A 
ATOM     68  F   UNL A   1      39.059  24.627  27.964  1.00  0.00    -0.200 F 
ATOM     69  F   UNL A   1      40.461  25.284  25.720  1.00  0.00    -0.200 F 
ENDBRANCH  45  59
BRANCH  46  70
ATOM     70  C   UNL A   1      39.662  33.909  36.894  1.00  0.00     0.064 A 
ATOM     71  C   UNL A   1      38.879  33.532  37.994  1.00  0.00     0.173 A 
ATOM     72  C   UNL A   1      40.321  35.146  36.957  1.00  0.00     0.173 A 
ATOM     73  F   UNL A   1      38.212  32.368  37.973  1.00  0.00    -0.203 F 
ATOM     74  C   UNL A   1      38.729  34.372  39.095  1.00  0.00     0.198 A 
ATOM     75  C   UNL A   1      40.198  35.970  38.074  1.00  0.00     0.198 A 
ATOM     76  F   UNL A   1      41.086  35.554  35.935  1.00  0.00    -0.203 F 
ATOM     77  F   UNL A   1      37.922  34.015  40.102  1.00  0.00    -0.200 F 
ATOM     78  C   UNL A   1      39.391  35.590  39.136  1.00  0.00     0.200 A 
ATOM     79  F   UNL A   1      40.853  37.139  38.117  1.00  0.00    -0.200 F 
ATOM     80  F   UNL A   1      39.243  36.400  40.193  1.00  0.00    -0.200 F 
ENDBRANCH  46  70
BRANCH  58  81
ATOM     81  C   UNL A   1      43.934  28.718  35.091  1.00  0.00     0.064 A 
ATOM     82  C   UNL A   1      45.239  29.204  34.925  1.00  0.00     0.173 A 
ATOM     83  C   UNL A   1      43.747  27.625  35.952  1.00  0.00     0.173 A 
ATOM     84  F   UNL A   1      45.475  30.237  34.101  1.00  0.00    -0.203 F 
ATOM     85  C   UNL A   1      46.317  28.596  35.563  1.00  0.00     0.198 A 
ATOM     86  C   UNL A   1      44.822  27.043  36.617  1.00  0.00     0.198 A 
ATOM     87  F   UNL A   1      42.519  27.125  36.155  1.00  0.00    -0.203 F 
ATOM     88  F   UNL A   1      47.562  29.038  35.337  1.00  0.00    -0.200 F 
ATOM     89  C   UNL A   1      46.107  27.522  36.413  1.00  0.00     0.200 A 
ATOM     90  F   UNL A   1      44.615  26.017  37.453  1.00  0.00    -0.200 F 
ATOM     91  F   UNL A   1      47.145  26.941  37.030  1.00  0.00    -0.200 F 
ENDBRANCH  58  81
ENDBRANCH  32  33
ENDBRANCH  24  27
ENDBRANCH  22  23
ENDBRANCH  21  22
ENDBRANCH  20  21
ENDBRANCH   1  20
TORSDOF 15
ENDMDL
MODEL 2
REMARK VINA RESULT:     -11.6      0.758      7.485
REMARK SMILES COc1ccc(N[C@H](C)[C@@H](C)C(=O)NCCCCNC(=O)c2ccc(-c3c4nc(c(-c5c(F)c(F)c(F)c(F)c5F)c5ccc([nH]5)c(-c5c(F)c(F)c(F)c(F)c5F)c5nc(c(-c6c(F)c(F)c(F)c(F)c6F)c6ccc3[nH]6)C=C5)C=C4)cc2)cn1
REMARK SMILES IDX 15 1 14 2 12 3 13 4 10 6 11 7 8 8 9 9 7 10 6 12 3 13 4 14
REMARK SMILES IDX 86 15 5 16 85 17 2 18 1 19 16 20 17 21 18 22 19 23 20 24
REMARK SMILES IDX 21 26 22 27 23 28 84 29 24 30 83 31 25 32 26 33 27 34 77 35
REMARK SMILES IDX 28 36 82 37 76 38 78 39 29 40 81 41 75 42 74 43 30 45 62 46
REMARK SMILES IDX 42 47 61 48 43 49 46 50 60 51 79 52 44 53 45 54 59 56 80 57
REMARK SMILES IDX 47 58 31 59 32 60 40 61 33 62 34 63 38 64 41 65 35 66 36 67
REMARK SMILES IDX 39 68 37 69 63 70 64 71 72 72 65 73 66 74 70 75 73 76 67 77
REMARK SMILES IDX 68 78 71 79 69 80 48 81 49 82 57 83 50 84 51 85 55 86 58 87
REMARK SMILES IDX 52 88 53 89 56 90 54 91
REMARK H PARENT 14 5 7 11 19 25 78 44 46 55
REMARK Flexibility Score: inf
ROOT
ATOM      1  C   UNL A   1      32.918  30.006  26.453  1.00  0.00     0.116 C 
ENDROOT
BRANCH   1   2
ATOM      2  N   UNL A   1      33.636  29.569  25.274  1.00  0.00    -0.356 N 
ATOM      3  C   UNL A   1      33.398  28.557  24.403  1.00  0.00     0.224 C 
ATOM      4  O   UNL A   1      33.950  28.647  23.300  1.00  0.00    -0.275 OA
ATOM      5  H   UNL A   1      34.439  30.101  25.069  1.00  0.00     0.163 HD
BRANCH   3   6
ATOM      6  C   UNL A   1      32.432  27.404  24.678  1.00  0.00     0.097 C 
ATOM      7  C   UNL A   1      33.262  26.294  25.342  1.00  0.00     0.020 C 
BRANCH   6   8
ATOM      8  C   UNL A   1      31.563  26.990  23.467  1.00  0.00     0.088 C 
ATOM      9  C   UNL A   1      31.666  25.480  23.170  1.00  0.00     0.031 C 
BRANCH   8  10
ATOM     10  N   UNL A   1      30.111  27.265  23.561  1.00  0.00    -0.381 N 
ATOM     11  H   UNL A   1      29.571  26.521  23.913  1.00  0.00     0.160 HD
BRANCH  10  12
ATOM     12  C   UNL A   1      29.393  28.400  23.233  1.00  0.00     0.053 A 
ATOM     13  C   UNL A   1      28.044  30.721  22.538  1.00  0.00     0.213 A 
ATOM     14  C   UNL A   1      29.422  30.753  22.587  1.00  0.00     0.070 A 
ATOM     15  N   UNL A   1      27.315  29.627  22.803  1.00  0.00    -0.220 NA
ATOM     16  C   UNL A   1      30.093  29.577  22.928  1.00  0.00     0.033 A 
ATOM     17  C   UNL A   1      28.008  28.502  23.128  1.00  0.00     0.140 A 
BRANCH  13  18
ATOM     18  O   UNL A   1      27.365  31.884  22.281  1.00  0.00    -0.481 OA
ATOM     19  C   UNL A   1      27.992  32.578  21.207  1.00  0.00     0.280 C 
ENDBRANCH  13  18
ENDBRANCH  10  12
ENDBRANCH   8  10
ENDBRANCH   6   8
ENDBRANCH   3   6
ENDBRANCH   1   2
BRANCH   1  20
ATOM     20  C   UNL A   1      31.594  30.696  26.132  1.00  0.00     0.023 C 
BRANCH  20  21
ATOM     21  C   UNL A   1      31.372  32.053  26.801  1.00  0.00     0.023 C 
BRANCH  21  22
ATOM     22  C   UNL A   1      32.634  32.827  27.164  1.00  0.00     0.116 C 
BRANCH  22  23
ATOM     23  N   UNL A   1      32.365  34.180  27.623  1.00  0.00    -0.352 N 
ATOM     24  C   UNL A   1      33.001  34.921  28.588  1.00  0.00     0.251 C 
ATOM     25  H   UNL A   1      31.615  34.633  27.175  1.00  0.00     0.163 HD
ATOM     26  O   UNL A   1      32.557  36.021  28.907  1.00  0.00    -0.269 OA
BRANCH  24  27
ATOM     27  C   UNL A   1      34.191  34.379  29.276  1.00  0.00     0.039 A 
ATOM     28  C   UNL A   1      34.003  33.628  30.438  1.00  0.00     0.014 A 
ATOM     29  C   UNL A   1      35.480  34.590  28.778  1.00  0.00     0.014 A 
ATOM     30  C   UNL A   1      35.099  33.029  31.059  1.00  0.00     0.010 A 
ATOM     31  C   UNL A   1      36.561  33.926  29.351  1.00  0.00     0.010 A 
ATOM     32  C   UNL A   1      36.382  33.136  30.496  1.00  0.00    -0.014 A 
BRANCH  32  33
ATOM     33  C   UNL A   1      37.532  32.403  31.084  1.00  0.00     0.031 A 
ATOM     34  C   UNL A   1      38.045  32.756  32.452  1.00  0.00     0.074 A 
ATOM     35  C   UNL A   1      38.144  31.445  30.359  1.00  0.00     0.049 A 
ATOM     36  N   UNL A   1      39.043  32.235  33.122  1.00  0.00    -0.248 NA
ATOM     37  C   UNL A   1      37.363  33.854  33.155  1.00  0.00     0.031 C 
ATOM     38  C   UNL A   1      37.775  31.049  28.998  1.00  0.00     0.029 A 
ATOM     39  N   UNL A   1      39.207  30.632  30.661  1.00  0.00    -0.354 N 
ATOM     40  C   UNL A   1      39.116  32.948  34.311  1.00  0.00     0.074 A 
ATOM     41  C   UNL A   1      38.095  33.971  34.254  1.00  0.00     0.031 C 
ATOM     42  C   UNL A   1      38.572  30.046  28.599  1.00  0.00     0.029 A 
ATOM     43  C   UNL A   1      39.536  29.755  29.655  1.00  0.00     0.049 A 
ATOM     44  H   UNL A   1      39.690  30.672  31.520  1.00  0.00     0.167 HD
ATOM     45  C   UNL A   1      39.946  32.752  35.362  1.00  0.00     0.037 A 
ATOM     46  C   UNL A   1      40.508  28.825  29.592  1.00  0.00     0.037 A 
ATOM     47  C   UNL A   1      40.944  31.714  35.425  1.00  0.00     0.049 A 
ATOM     48  C   UNL A   1      41.422  28.641  30.773  1.00  0.00     0.074 A 
ATOM     49  C   UNL A   1      41.777  31.384  36.478  1.00  0.00     0.029 A 
ATOM     50  N   UNL A   1      41.248  30.846  34.386  1.00  0.00    -0.354 N 
ATOM     51  N   UNL A   1      41.416  29.255  31.931  1.00  0.00    -0.248 NA
ATOM     52  C   UNL A   1      42.476  27.626  30.640  1.00  0.00     0.031 C 
ATOM     53  C   UNL A   1      42.630  30.359  36.056  1.00  0.00     0.029 A 
ATOM     54  C   UNL A   1      42.283  30.005  34.763  1.00  0.00     0.049 A 
ATOM     55  H   UNL A   1      40.796  30.831  33.512  1.00  0.00     0.167 HD
ATOM     56  C   UNL A   1      42.439  28.680  32.673  1.00  0.00     0.074 A 
ATOM     57  C   UNL A   1      43.028  27.651  31.843  1.00  0.00     0.031 C 
ATOM     58  C   UNL A   1      42.855  28.979  33.929  1.00  0.00     0.037 A 
BRANCH  45  59
ATOM     59  C   UNL A   1      39.819  33.675  36.540  1.00  0.00     0.064 A 
ATOM     60  C   UNL A   1      40.510  34.895  36.601  1.00  0.00     0.173 A 
ATOM     61  C   UNL A   1      38.942  33.367  37.591  1.00  0.00     0.173 A 
ATOM     62  F   UNL A   1      41.368  35.235  35.628  1.00  0.00    -0.203 F 
ATOM     63  C   UNL A   1      40.345  35.760  37.680  1.00  0.00     0.198 A 
ATOM     64  C   UNL A   1      38.755  34.248  38.653  1.00  0.00     0.198 A 
ATOM     65  F   UNL A   1      38.252  32.216  37.581  1.00  0.00    -0.203 F 
ATOM     66  F   UNL A   1      41.045  36.901  37.736  1.00  0.00    -0.200 F 
ATOM     67  C   UNL A   1      39.459  35.441  38.699  1.00  0.00     0.200 A 
ATOM     68  F   UNL A   1      37.888  33.945  39.628  1.00  0.00    -0.200 F 
ATOM     69  F   UNL A   1      39.288  36.282  39.728  1.00  0.00    -0.200 F 
ENDBRANCH  45  59
BRANCH  46  70
ATOM     70  C   UNL A   1      40.662  27.978  28.377  1.00  0.00     0.064 A 
ATOM     71  C   UNL A   1      40.061  26.713  28.301  1.00  0.00     0.173 A 
ATOM     72  C   UNL A   1      41.442  28.394  27.288  1.00  0.00     0.173 A 
ATOM     73  F   UNL A   1      39.322  26.261  29.326  1.00  0.00    -0.203 F 
ATOM     74  C   UNL A   1      40.262  25.884  27.200  1.00  0.00     0.198 A 
ATOM     75  C   UNL A   1      41.614  27.578  26.172  1.00  0.00     0.198 A 
ATOM     76  F   UNL A   1      42.036  29.596  27.306  1.00  0.00    -0.203 F 
ATOM     77  F   UNL A   1      39.729  24.655  27.184  1.00  0.00    -0.200 F 
ATOM     78  C   UNL A   1      41.036  26.318  26.134  1.00  0.00     0.200 A 
ATOM     79  F   UNL A   1      42.349  28.008  25.137  1.00  0.00    -0.200 F 
ATOM     80  F   UNL A   1      41.233  25.518  25.078  1.00  0.00    -0.200 F 
ENDBRANCH  46  70
BRANCH  58  81
ATOM     81  C   UNL A   1      43.977  28.155  34.495  1.00  0.00     0.064 A 
ATOM     82  C   UNL A   1      43.743  26.939  35.154  1.00  0.00     0.173 A 
ATOM     83  C   UNL A   1      45.308  28.580  34.357  1.00  0.00     0.173 A 
ATOM     84  F   UNL A   1      42.488  26.495  35.326  1.00  0.00    -0.203 F 
ATOM     85  C   UNL A   1      44.795  26.199  35.687  1.00  0.00     0.198 A 
ATOM     86  C   UNL A   1      46.360  27.818  34.858  1.00  0.00     0.198 A 
ATOM     87  F   UNL A   1      45.590  29.731  33.728  1.00  0.00    -0.203 F 
ATOM     88  F   UNL A   1      44.541  25.073  36.368  1.00  0.00    -0.200 F 
ATOM     89  C   UNL A   1      46.102  26.635  35.532  1.00  0.00     0.200 A 
ATOM     90  F   UNL A   1      47.623  28.233  34.692  1.00  0.00    -0.200 F 
ATOM     91  F   UNL A   1      47.113  25.919  36.042  1.00  0.00    -0.200 F 
ENDBRANCH  58  81
ENDBRANCH  32  33
ENDBRANCH  24  27
ENDBRANCH  22  23
ENDBRANCH  21  22
ENDBRANCH  20  21
ENDBRANCH   1  20
TORSDOF 15
ENDMDL
MODEL 3
REMARK VINA RESULT:     -11.5      0.676      7.567
REMARK SMILES COc1ccc(N[C@H](C)[C@@H](C)C(=O)NCCCCNC(=O)c2ccc(-c3c4nc(c(-c5c(F)c(F)c(F)c(F)c5F)c5ccc([nH]5)c(-c5c(F)c(F)c(F)c(F)c5F)c5nc(c(-c6c(F)c(F)c(F)c(F)c6F)c6ccc3[nH]6)C=C5)C=C4)cc2)cn1
REMARK SMILES IDX 15 1 14 2 12 3 13 4 10 6 11 7 8 8 9 9 7 10 6 12 3 13 4 14
REMARK SMILES IDX 86 15 5 16 85 17 2 18 1 19 16 20 17 21 18 22 19 23 20 24
REMARK SMILES IDX 21 26 22 27 23 28 84 29 24 30 83 31 25 32 26 33 27 34 77 35
REMARK SMILES IDX 28 36 82 37 76 38 78 39 29 40 81 41 75 42 74 43 30 45 62 46
REMARK SMILES IDX 42 47 61 48 43 49 46 50 60 51 79 52 44 53 45 54 59 56 80 57
REMARK SMILES IDX 47 58 31 59 32 60 40 61 33 62 34 63 38 64 41 65 35 66 36 67
REMARK SMILES IDX 39 68 37 69 63 70 64 71 72 72 65 73 66 74 70 75 73 76 67 77
REMARK SMILES IDX 68 78 71 79 69 80 48 81 49 82 57 83 50 84 51 85 55 86 58 87
REMARK SMILES IDX 52 88 53 89 56 90 54 91
REMARK H PARENT 14 5 7 11 19 25 78 44 46 55
REMARK Flexibility Score: inf
ROOT
ATOM      1  C   UNL A   1      32.920  30.056  26.326  1.00  0.00     0.116 C 
ENDROOT
BRANCH   1   2
ATOM      2  N   UNL A   1      33.727  29.634  25.200  1.00  0.00    -0.356 N 
ATOM      3  C   UNL A   1      33.679  28.517  24.432  1.00  0.00     0.224 C 
ATOM      4  O   UNL A   1      34.233  28.591  23.329  1.00  0.00    -0.275 OA
ATOM      5  H   UNL A   1      34.435  30.270  24.948  1.00  0.00     0.163 HD
BRANCH   3   6
ATOM      6  C   UNL A   1      32.913  27.251  24.814  1.00  0.00     0.097 C 
ATOM      7  C   UNL A   1      33.766  26.530  25.869  1.00  0.00     0.020 C 
BRANCH   6   8
ATOM      8  C   UNL A   1      32.433  26.402  23.612  1.00  0.00     0.088 C 
ATOM      9  C   UNL A   1      32.842  24.920  23.751  1.00  0.00     0.031 C 
BRANCH   8  10
ATOM     10  N   UNL A   1      30.976  26.375  23.351  1.00  0.00    -0.381 N 
ATOM     11  H   UNL A   1      30.573  25.477  23.341  1.00  0.00     0.160 HD
BRANCH  10  12
ATOM     12  C   UNL A   1      30.091  27.412  23.117  1.00  0.00     0.053 A 
ATOM     13  C   UNL A   1      28.389  29.534  22.581  1.00  0.00     0.213 A 
ATOM     14  C   UNL A   1      29.710  29.642  22.201  1.00  0.00     0.070 A 
ATOM     15  N   UNL A   1      27.875  28.456  23.192  1.00  0.00    -0.220 NA
ATOM     16  C   UNL A   1      30.558  28.564  22.467  1.00  0.00     0.033 A 
ATOM     17  C   UNL A   1      28.734  27.428  23.429  1.00  0.00     0.140 A 
BRANCH  13  18
ATOM     18  O   UNL A   1      27.560  30.611  22.399  1.00  0.00    -0.481 OA
ATOM     19  C   UNL A   1      27.628  31.465  23.536  1.00  0.00     0.280 C 
ENDBRANCH  13  18
ENDBRANCH  10  12
ENDBRANCH   8  10
ENDBRANCH   6   8
ENDBRANCH   3   6
ENDBRANCH   1   2
BRANCH   1  20
ATOM     20  C   UNL A   1      31.628  30.758  25.913  1.00  0.00     0.023 C 
BRANCH  20  21
ATOM     21  C   UNL A   1      31.348  32.093  26.602  1.00  0.00     0.023 C 
BRANCH  21  22
ATOM     22  C   UNL A   1      32.547  32.762  27.264  1.00  0.00     0.116 C 
BRANCH  22  23
ATOM     23  N   UNL A   1      32.287  34.134  27.671  1.00  0.00    -0.352 N 
ATOM     24  C   UNL A   1      32.944  34.915  28.588  1.00  0.00     0.251 C 
ATOM     25  H   UNL A   1      31.526  34.567  27.221  1.00  0.00     0.163 HD
ATOM     26  O   UNL A   1      32.506  36.028  28.869  1.00  0.00    -0.269 OA
BRANCH  24  27
ATOM     27  C   UNL A   1      34.150  34.404  29.271  1.00  0.00     0.039 A 
ATOM     28  C   UNL A   1      34.013  33.878  30.558  1.00  0.00     0.014 A 
ATOM     29  C   UNL A   1      35.402  34.423  28.650  1.00  0.00     0.014 A 
ATOM     30  C   UNL A   1      35.116  33.307  31.192  1.00  0.00     0.010 A 
ATOM     31  C   UNL A   1      36.482  33.781  29.251  1.00  0.00     0.010 A 
ATOM     32  C   UNL A   1      36.350  33.213  30.526  1.00  0.00    -0.014 A 
BRANCH  32  33
ATOM     33  C   UNL A   1      37.495  32.500  31.147  1.00  0.00     0.031 A 
ATOM     34  C   UNL A   1      37.990  32.891  32.512  1.00  0.00     0.074 A 
ATOM     35  C   UNL A   1      38.120  31.526  30.456  1.00  0.00     0.049 A 
ATOM     36  N   UNL A   1      38.981  32.391  33.208  1.00  0.00    -0.248 NA
ATOM     37  C   UNL A   1      37.296  34.005  33.178  1.00  0.00     0.031 C 
ATOM     38  C   UNL A   1      37.769  31.093  29.101  1.00  0.00     0.029 A 
ATOM     39  N   UNL A   1      39.182  30.725  30.793  1.00  0.00    -0.354 N 
ATOM     40  C   UNL A   1      39.036  33.136  34.379  1.00  0.00     0.074 A 
ATOM     41  C   UNL A   1      38.014  34.153  34.282  1.00  0.00     0.031 C 
ATOM     42  C   UNL A   1      38.575  30.082  28.739  1.00  0.00     0.029 A 
ATOM     43  C   UNL A   1      39.526  29.824  29.814  1.00  0.00     0.049 A 
ATOM     44  H   UNL A   1      39.654  30.789  31.655  1.00  0.00     0.167 HD
ATOM     45  C   UNL A   1      39.854  32.970  35.445  1.00  0.00     0.037 A 
ATOM     46  C   UNL A   1      40.501  28.895  29.787  1.00  0.00     0.037 A 
ATOM     47  C   UNL A   1      40.855  31.938  35.547  1.00  0.00     0.049 A 
ATOM     48  C   UNL A   1      41.402  28.746  30.984  1.00  0.00     0.074 A 
ATOM     49  C   UNL A   1      41.676  31.639  36.619  1.00  0.00     0.029 A 
ATOM     50  N   UNL A   1      41.175  31.044  34.535  1.00  0.00    -0.354 N 
ATOM     51  N   UNL A   1      41.379  29.390  32.126  1.00  0.00    -0.248 NA
ATOM     52  C   UNL A   1      42.460  27.731  30.891  1.00  0.00     0.031 C 
ATOM     53  C   UNL A   1      42.538  30.606  36.234  1.00  0.00     0.029 A 
ATOM     54  C   UNL A   1      42.208  30.217  34.947  1.00  0.00     0.049 A 
ATOM     55  H   UNL A   1      40.734  31.004  33.657  1.00  0.00     0.167 HD
ATOM     56  C   UNL A   1      42.394  28.838  32.895  1.00  0.00     0.074 A 
ATOM     57  C   UNL A   1      42.998  27.790  32.100  1.00  0.00     0.031 C 
ATOM     58  C   UNL A   1      42.794  29.171  34.147  1.00  0.00     0.037 A 
BRANCH  45  59
ATOM     59  C   UNL A   1      39.709  33.924  36.597  1.00  0.00     0.064 A 
ATOM     60  C   UNL A   1      38.921  33.616  37.716  1.00  0.00     0.173 A 
ATOM     61  C   UNL A   1      40.422  35.132  36.610  1.00  0.00     0.173 A 
ATOM     62  F   UNL A   1      38.211  32.479  37.751  1.00  0.00    -0.203 F 
ATOM     63  C   UNL A   1      38.834  34.493  38.795  1.00  0.00     0.198 A 
ATOM     64  C   UNL A   1      40.359  35.992  37.704  1.00  0.00     0.198 A 
ATOM     65  F   UNL A   1      41.196  35.472  35.568  1.00  0.00    -0.203 F 
ATOM     66  F   UNL A   1      38.044  34.196  39.835  1.00  0.00    -0.200 F 
ATOM     67  C   UNL A   1      39.562  35.674  38.792  1.00  0.00     0.200 A 
ATOM     68  F   UNL A   1      41.075  37.124  37.706  1.00  0.00    -0.200 F 
ATOM     69  F   UNL A   1      39.492  36.508  39.839  1.00  0.00    -0.200 F 
ENDBRANCH  45  59
BRANCH  46  70
ATOM     70  C   UNL A   1      40.674  28.017  28.597  1.00  0.00     0.064 A 
ATOM     71  C   UNL A   1      41.505  28.402  27.534  1.00  0.00     0.173 A 
ATOM     72  C   UNL A   1      39.987  26.801  28.478  1.00  0.00     0.173 A 
ATOM     73  F   UNL A   1      42.168  29.568  27.591  1.00  0.00    -0.203 F 
ATOM     74  C   UNL A   1      41.614  27.623  26.385  1.00  0.00     0.198 A 
ATOM     75  C   UNL A   1      40.125  26.004  27.343  1.00  0.00     0.198 A 
ATOM     76  F   UNL A   1      39.183  26.383  29.466  1.00  0.00    -0.203 F 
ATOM     77  F   UNL A   1      42.363  28.047  25.360  1.00  0.00    -0.200 F 
ATOM     78  C   UNL A   1      40.926  26.422  26.291  1.00  0.00     0.200 A 
ATOM     79  F   UNL A   1      39.471  24.837  27.263  1.00  0.00    -0.200 F 
ATOM     80  F   UNL A   1      41.028  25.675  25.184  1.00  0.00    -0.200 F 
ENDBRANCH  46  70
BRANCH  58  81
ATOM     81  C   UNL A   1      43.911  28.367  34.749  1.00  0.00     0.064 A 
ATOM     82  C   UNL A   1      45.250  28.775  34.656  1.00  0.00     0.173 A 
ATOM     83  C   UNL A   1      43.635  27.180  35.447  1.00  0.00     0.173 A 
ATOM     84  F   UNL A   1      45.569  29.893  33.986  1.00  0.00    -0.203 F 
ATOM     85  C   UNL A   1      46.273  28.007  35.205  1.00  0.00     0.198 A 
ATOM     86  C   UNL A   1      44.657  26.435  36.027  1.00  0.00     0.198 A 
ATOM     87  F   UNL A   1      42.371  26.748  35.574  1.00  0.00    -0.203 F 
ATOM     88  F   UNL A   1      47.549  28.384  35.048  1.00  0.00    -0.200 F 
ATOM     89  C   UNL A   1      45.976  26.843  35.896  1.00  0.00     0.200 A 
ATOM     90  F   UNL A   1      44.366  25.319  36.709  1.00  0.00    -0.200 F 
ATOM     91  F   UNL A   1      46.961  26.107  36.428  1.00  0.00    -0.200 F 
ENDBRANCH  58  81
ENDBRANCH  32  33
ENDBRANCH  24  27
ENDBRANCH  22  23
ENDBRANCH  21  22
ENDBRANCH  20  21
ENDBRANCH   1  20
TORSDOF 15
ENDMDL
