MODEL 1
REMARK VINA RESULT:     -12.3      0.000      0.000
REMARK SMILES CN(Cc1ccc(C(=O)NCCCCNC(=O)c2ccc(-c3c4nc(c(-c5c(F)c(F)c(F)c(F)c5F)c5ccc([nH]5)c(-c5c(F)c(F)c(F)c(F)c5F)c5nc(c(-c6c(F)c(F)c(F)c(F)c6F)c6ccc3[nH]6)C=C5)C=C4)cc2)cc1)c1ccccc1N
REMARK SMILES IDX 11 1 10 2 8 3 9 4 7 6 4 7 5 8 82 9 6 10 81 11 3 12 2 13 1 14
REMARK SMILES IDX 83 15 84 16 88 17 85 18 87 19 86 20 89 21 12 24 13 25 14 26
REMARK SMILES IDX 15 27 16 28 17 30 18 31 19 32 80 33 20 34 79 35 21 36 22 37
REMARK SMILES IDX 23 38 73 39 24 40 78 41 72 42 74 43 25 44 77 45 71 46 70 47
REMARK SMILES IDX 26 49 58 50 38 51 57 52 39 53 42 54 56 55 75 56 40 57 41 58
REMARK SMILES IDX 55 60 76 61 43 62 27 63 28 64 36 65 29 66 30 67 34 68 37 69
REMARK SMILES IDX 31 70 32 71 35 72 33 73 59 74 60 75 68 76 61 77 62 78 66 79
REMARK SMILES IDX 69 80 63 81 64 82 67 83 65 84 44 85 45 86 53 87 46 88 47 89
REMARK SMILES IDX 51 90 54 91 48 92 49 93 52 94 50 95
REMARK H PARENT 10 5 89 22 89 23 15 29 74 48 42 59
REMARK Flexibility Score: inf
ROOT
ATOM      1  C   UNL A   1      35.698  20.937  25.135  1.00  0.00     0.116 C 
ENDROOT
BRANCH   1   2
ATOM      2  N   UNL A   1      35.349  21.443  26.452  1.00  0.00    -0.352 N 
ATOM      3  C   UNL A   1      34.511  22.475  26.808  1.00  0.00     0.251 C 
ATOM      4  O   UNL A   1      34.237  22.654  27.992  1.00  0.00    -0.269 OA
ATOM      5  H   UNL A   1      35.778  20.976  27.206  1.00  0.00     0.163 HD
BRANCH   3   6
ATOM      6  C   UNL A   1      33.881  23.324  25.772  1.00  0.00     0.039 A 
ATOM      7  C   UNL A   1      32.629  25.138  24.038  1.00  0.00    -0.029 A 
ATOM      8  C   UNL A   1      33.927  25.388  24.508  1.00  0.00     0.006 A 
ATOM      9  C   UNL A   1      32.016  23.914  24.356  1.00  0.00     0.006 A 
ATOM     10  C   UNL A   1      34.555  24.480  25.364  1.00  0.00     0.014 A 
ATOM     11  C   UNL A   1      32.639  23.011  25.217  1.00  0.00     0.014 A 
BRANCH   7  12
ATOM     12  C   UNL A   1      31.846  26.213  23.308  1.00  0.00     0.151 C 
BRANCH  12  13
ATOM     13  N   UNL A   1      30.879  26.851  24.204  1.00  0.00    -0.369 N 
ATOM     14  C   UNL A   1      29.540  26.315  24.342  1.00  0.00     0.144 C 
BRANCH  13  15
ATOM     15  C   UNL A   1      31.350  27.750  25.163  1.00  0.00     0.060 A 
ATOM     16  C   UNL A   1      31.403  27.333  26.506  1.00  0.00     0.028 A 
ATOM     17  C   UNL A   1      31.765  29.066  24.857  1.00  0.00     0.055 A 
ATOM     18  C   UNL A   1      31.766  28.205  27.532  1.00  0.00     0.002 A 
ATOM     19  C   UNL A   1      32.132  29.933  25.897  1.00  0.00     0.027 A 
ATOM     20  C   UNL A   1      32.124  29.510  27.228  1.00  0.00     0.002 A 
BRANCH  17  21
ATOM     21  N   UNL A   1      31.676  29.581  23.564  1.00  0.00    -0.397 N 
ATOM     22  H   UNL A   1      32.462  29.560  22.971  1.00  0.00     0.156 HD
ATOM     23  H   UNL A   1      30.829  29.966  23.244  1.00  0.00     0.156 HD
ENDBRANCH  17  21
ENDBRANCH  13  15
ENDBRANCH  12  13
ENDBRANCH   7  12
ENDBRANCH   3   6
ENDBRANCH   1   2
BRANCH   1  24
ATOM     24  C   UNL A   1      37.162  21.213  24.794  1.00  0.00     0.023 C 
BRANCH  24  25
ATOM     25  C   UNL A   1      38.102  20.021  25.000  1.00  0.00     0.023 C 
BRANCH  25  26
ATOM     26  C   UNL A   1      39.210  20.231  26.027  1.00  0.00     0.116 C 
BRANCH  26  27
ATOM     27  N   UNL A   1      40.216  19.180  26.008  1.00  0.00    -0.352 N 
ATOM     28  C   UNL A   1      41.581  19.283  26.132  1.00  0.00     0.251 C 
ATOM     29  H   UNL A   1      39.871  18.266  25.890  1.00  0.00     0.163 HD
ATOM     30  O   UNL A   1      42.291  18.292  25.979  1.00  0.00    -0.269 OA
BRANCH  28  31
ATOM     31  C   UNL A   1      42.202  20.595  26.412  1.00  0.00     0.039 A 
ATOM     32  C   UNL A   1      42.591  21.399  25.336  1.00  0.00     0.014 A 
ATOM     33  C   UNL A   1      42.389  21.040  27.724  1.00  0.00     0.014 A 
ATOM     34  C   UNL A   1      43.101  22.677  25.574  1.00  0.00     0.010 A 
ATOM     35  C   UNL A   1      42.832  22.339  27.958  1.00  0.00     0.010 A 
ATOM     36  C   UNL A   1      43.188  23.172  26.885  1.00  0.00    -0.014 A 
BRANCH  36  37
ATOM     37  C   UNL A   1      43.638  24.562  27.155  1.00  0.00     0.031 A 
ATOM     38  C   UNL A   1      42.660  25.593  27.645  1.00  0.00     0.074 A 
ATOM     39  C   UNL A   1      44.911  24.912  26.889  1.00  0.00     0.049 A 
ATOM     40  N   UNL A   1      42.843  26.870  27.863  1.00  0.00    -0.248 NA
ATOM     41  C   UNL A   1      41.285  25.133  27.897  1.00  0.00     0.031 C 
ATOM     42  C   UNL A   1      45.942  24.016  26.364  1.00  0.00     0.029 A 
ATOM     43  N   UNL A   1      45.552  26.121  27.010  1.00  0.00    -0.354 N 
ATOM     44  C   UNL A   1      41.609  27.367  28.261  1.00  0.00     0.074 A 
ATOM     45  C   UNL A   1      40.673  26.265  28.206  1.00  0.00     0.031 C 
ATOM     46  C   UNL A   1      47.091  24.699  26.228  1.00  0.00     0.029 A 
ATOM     47  C   UNL A   1      46.869  26.088  26.620  1.00  0.00     0.049 A 
ATOM     48  H   UNL A   1      45.110  26.934  27.346  1.00  0.00     0.167 HD
ATOM     49  C   UNL A   1      41.291  28.623  28.658  1.00  0.00     0.037 A 
ATOM     50  C   UNL A   1      47.789  27.069  26.575  1.00  0.00     0.037 A 
ATOM     51  C   UNL A   1      42.231  29.710  28.738  1.00  0.00     0.049 A 
ATOM     52  C   UNL A   1      47.408  28.456  27.017  1.00  0.00     0.074 A 
ATOM     53  C   UNL A   1      42.021  31.001  29.191  1.00  0.00     0.029 A 
ATOM     54  N   UNL A   1      43.561  29.633  28.353  1.00  0.00    -0.354 N 
ATOM     55  N   UNL A   1      46.257  28.896  27.462  1.00  0.00    -0.248 NA
ATOM     56  C   UNL A   1      48.459  29.482  26.958  1.00  0.00     0.031 C 
ATOM     57  C   UNL A   1      43.212  31.718  29.038  1.00  0.00     0.029 A 
ATOM     58  C   UNL A   1      44.178  30.861  28.537  1.00  0.00     0.049 A 
ATOM     59  H   UNL A   1      44.003  28.826  28.001  1.00  0.00     0.167 HD
ATOM     60  C   UNL A   1      46.451  30.237  27.764  1.00  0.00     0.074 A 
ATOM     61  C   UNL A   1      47.835  30.537  27.465  1.00  0.00     0.031 C 
ATOM     62  C   UNL A   1      45.562  31.139  28.245  1.00  0.00     0.037 A 
BRANCH  49  63
ATOM     63  C   UNL A   1      39.865  28.891  29.041  1.00  0.00     0.064 A 
ATOM     64  C   UNL A   1      38.917  29.314  28.095  1.00  0.00     0.173 A 
ATOM     65  C   UNL A   1      39.429  28.685  30.358  1.00  0.00     0.173 A 
ATOM     66  F   UNL A   1      39.283  29.536  26.825  1.00  0.00    -0.203 F 
ATOM     67  C   UNL A   1      37.594  29.547  28.462  1.00  0.00     0.198 A 
ATOM     68  C   UNL A   1      38.099  28.890  30.715  1.00  0.00     0.198 A 
ATOM     69  F   UNL A   1      40.293  28.275  31.299  1.00  0.00    -0.203 F 
ATOM     70  F   UNL A   1      36.718  29.996  27.553  1.00  0.00    -0.200 F 
ATOM     71  C   UNL A   1      37.185  29.328  29.769  1.00  0.00     0.200 A 
ATOM     72  F   UNL A   1      37.701  28.664  31.975  1.00  0.00    -0.200 F 
ATOM     73  F   UNL A   1      35.909  29.545  30.117  1.00  0.00    -0.200 F 
ENDBRANCH  49  63
BRANCH  50  74
ATOM     74  C   UNL A   1      49.171  26.772  26.114  1.00  0.00     0.064 A 
ATOM     75  C   UNL A   1      50.142  26.307  27.012  1.00  0.00     0.173 A 
ATOM     76  C   UNL A   1      49.554  26.959  24.778  1.00  0.00     0.173 A 
ATOM     77  F   UNL A   1      49.830  26.135  28.305  1.00  0.00    -0.203 F 
ATOM     78  C   UNL A   1      51.449  26.061  26.596  1.00  0.00     0.198 A 
ATOM     79  C   UNL A   1      50.854  26.684  24.357  1.00  0.00     0.198 A 
ATOM     80  F   UNL A   1      48.661  27.398  23.878  1.00  0.00    -0.203 F 
ATOM     81  F   UNL A   1      52.369  25.664  27.486  1.00  0.00    -0.200 F 
ATOM     82  C   UNL A   1      51.802  26.244  25.268  1.00  0.00     0.200 A 
ATOM     83  F   UNL A   1      51.188  26.850  23.070  1.00  0.00    -0.200 F 
ATOM     84  F   UNL A   1      53.058  26.006  24.868  1.00  0.00    -0.200 F 
ENDBRANCH  50  74
BRANCH  62  85
ATOM     85  C   UNL A   1      46.066  32.527  28.515  1.00  0.00     0.064 A 
ATOM     86  C   UNL A   1      46.634  32.878  29.749  1.00  0.00     0.173 A 
ATOM     87  C   UNL A   1      46.015  33.507  27.512  1.00  0.00     0.173 A 
ATOM     88  F   UNL A   1      46.692  31.981  30.745  1.00  0.00    -0.203 F 
ATOM     89  C   UNL A   1      47.111  34.166  29.976  1.00  0.00     0.198 A 
ATOM     90  C   UNL A   1      46.521  34.785  27.734  1.00  0.00     0.198 A 
ATOM     91  F   UNL A   1      45.488  33.221  26.313  1.00  0.00    -0.203 F 
ATOM     92  F   UNL A   1      47.607  34.492  31.178  1.00  0.00    -0.200 F 
ATOM     93  C   UNL A   1      47.061  35.116  28.967  1.00  0.00     0.200 A 
ATOM     94  F   UNL A   1      46.484  35.697  26.752  1.00  0.00    -0.200 F 
ATOM     95  F   UNL A   1      47.527  36.353  29.185  1.00  0.00    -0.200 F 
ENDBRANCH  62  85
ENDBRANCH  36  37
ENDBRANCH  28  31
ENDBRANCH  26  27
ENDBRANCH  25  26
ENDBRANCH  24  25
ENDBRANCH   1  24
TORSDOF 15
ENDMDL
MODEL 2
REMARK VINA RESULT:     -12.2      5.534     11.172
REMARK SMILES CN(Cc1ccc(C(=O)NCCCCNC(=O)c2ccc(-c3c4nc(c(-c5c(F)c(F)c(F)c(F)c5F)c5ccc([nH]5)c(-c5c(F)c(F)c(F)c(F)c5F)c5nc(c(-c6c(F)c(F)c(F)c(F)c6F)c6ccc3[nH]6)C=C5)C=C4)cc2)cc1)c1ccccc1N
REMARK SMILES IDX 11 1 10 2 8 3 9 4 7 6 4 7 5 8 82 9 6 10 81 11 3 12 2 13 1 14
REMARK SMILES IDX 83 15 84 16 88 17 85 18 87 19 86 20 89 21 12 24 13 25 14 26
REMARK SMILES IDX 15 27 16 28 17 30 18 31 19 32 80 33 20 34 79 35 21 36 22 37
REMARK SMILES IDX 23 38 73 39 24 40 78 41 72 42 74 43 25 44 77 45 71 46 70 47
REMARK SMILES IDX 26 49 58 50 38 51 57 52 39 53 42 54 56 55 75 56 40 57 41 58
REMARK SMILES IDX 55 60 76 61 43 62 27 63 28 64 36 65 29 66 30 67 34 68 37 69
REMARK SMILES IDX 31 70 32 71 35 72 33 73 59 74 60 75 68 76 61 77 62 78 66 79
REMARK SMILES IDX 69 80 63 81 64 82 67 83 65 84 44 85 45 86 53 87 46 88 47 89
REMARK SMILES IDX 51 90 54 91 48 92 49 93 52 94 50 95
REMARK H PARENT 10 5 89 22 89 23 15 29 74 48 42 59
REMARK Flexibility Score: inf
ROOT
ATOM      1  C   UNL A   1      33.071  30.054  26.228  1.00  0.00     0.116 C 
ENDROOT
BRANCH   1   2
ATOM      2  N   UNL A   1      33.362  29.918  24.810  1.00  0.00    -0.352 N 
ATOM      3  C   UNL A   1      33.296  28.809  23.997  1.00  0.00     0.251 C 
ATOM      4  O   UNL A   1      33.446  28.936  22.785  1.00  0.00    -0.269 OA
ATOM      5  H   UNL A   1      33.650  30.746  24.362  1.00  0.00     0.163 HD
BRANCH   3   6
ATOM      6  C   UNL A   1      32.973  27.480  24.563  1.00  0.00     0.039 A 
ATOM      7  C   UNL A   1      32.548  24.842  25.414  1.00  0.00    -0.029 A 
ATOM      8  C   UNL A   1      33.759  25.491  25.697  1.00  0.00     0.006 A 
ATOM      9  C   UNL A   1      31.514  25.571  24.802  1.00  0.00     0.006 A 
ATOM     10  C   UNL A   1      33.968  26.809  25.282  1.00  0.00     0.014 A 
ATOM     11  C   UNL A   1      31.725  26.884  24.381  1.00  0.00     0.014 A 
BRANCH   7  12
ATOM     12  C   UNL A   1      32.394  23.350  25.642  1.00  0.00     0.151 C 
BRANCH  12  13
ATOM     13  N   UNL A   1      32.941  22.592  24.514  1.00  0.00    -0.369 N 
ATOM     14  C   UNL A   1      32.170  22.424  23.299  1.00  0.00     0.144 C 
BRANCH  13  15
ATOM     15  C   UNL A   1      34.312  22.333  24.488  1.00  0.00     0.060 A 
ATOM     16  C   UNL A   1      35.106  23.019  23.550  1.00  0.00     0.028 A 
ATOM     17  C   UNL A   1      34.945  21.405  25.346  1.00  0.00     0.055 A 
ATOM     18  C   UNL A   1      36.465  22.740  23.394  1.00  0.00     0.002 A 
ATOM     19  C   UNL A   1      36.313  21.137  25.183  1.00  0.00     0.027 A 
ATOM     20  C   UNL A   1      37.067  21.792  24.208  1.00  0.00     0.002 A 
BRANCH  17  21
ATOM     21  N   UNL A   1      34.220  20.633  26.253  1.00  0.00    -0.397 N 
ATOM     22  H   UNL A   1      34.187  19.654  26.149  1.00  0.00     0.156 HD
ATOM     23  H   UNL A   1      33.742  21.065  26.997  1.00  0.00     0.156 HD
ENDBRANCH  17  21
ENDBRANCH  13  15
ENDBRANCH  12  13
ENDBRANCH   7  12
ENDBRANCH   3   6
ENDBRANCH   1   2
BRANCH   1  24
ATOM     24  C   UNL A   1      31.630  30.503  26.468  1.00  0.00     0.023 C 
BRANCH  24  25
ATOM     25  C   UNL A   1      31.453  32.013  26.651  1.00  0.00     0.023 C 
BRANCH  25  26
ATOM     26  C   UNL A   1      32.644  32.742  27.264  1.00  0.00     0.116 C 
BRANCH  26  27
ATOM     27  N   UNL A   1      32.354  34.125  27.610  1.00  0.00    -0.352 N 
ATOM     28  C   UNL A   1      32.965  34.935  28.537  1.00  0.00     0.251 C 
ATOM     29  H   UNL A   1      31.616  34.541  27.107  1.00  0.00     0.163 HD
ATOM     30  O   UNL A   1      32.512  36.051  28.776  1.00  0.00    -0.269 OA
BRANCH  28  31
ATOM     31  C   UNL A   1      34.148  34.448  29.278  1.00  0.00     0.039 A 
ATOM     32  C   UNL A   1      33.957  33.819  30.512  1.00  0.00     0.014 A 
ATOM     33  C   UNL A   1      35.437  34.599  28.759  1.00  0.00     0.014 A 
ATOM     34  C   UNL A   1      35.051  33.276  31.190  1.00  0.00     0.010 A 
ATOM     35  C   UNL A   1      36.516  33.997  29.401  1.00  0.00     0.010 A 
ATOM     36  C   UNL A   1      36.333  33.326  30.620  1.00  0.00    -0.014 A 
BRANCH  36  37
ATOM     37  C   UNL A   1      37.494  32.672  31.279  1.00  0.00     0.031 A 
ATOM     38  C   UNL A   1      38.204  31.533  30.604  1.00  0.00     0.074 A 
ATOM     39  C   UNL A   1      37.860  33.058  32.517  1.00  0.00     0.049 A 
ATOM     40  N   UNL A   1      39.185  30.788  31.049  1.00  0.00    -0.248 NA
ATOM     41  C   UNL A   1      37.733  31.163  29.260  1.00  0.00     0.031 C 
ATOM     42  C   UNL A   1      37.218  34.117  33.296  1.00  0.00     0.029 A 
ATOM     43  N   UNL A   1      38.854  32.593  33.342  1.00  0.00    -0.354 N 
ATOM     44  C   UNL A   1      39.435  29.856  30.051  1.00  0.00     0.074 A 
ATOM     45  C   UNL A   1      38.472  30.096  28.998  1.00  0.00     0.031 C 
ATOM     46  C   UNL A   1      37.847  34.235  34.478  1.00  0.00     0.029 A 
ATOM     47  C   UNL A   1      38.909  33.238  34.554  1.00  0.00     0.049 A 
ATOM     48  H   UNL A   1      39.469  31.867  33.089  1.00  0.00     0.167 HD
ATOM     49  C   UNL A   1      40.395  28.902  30.006  1.00  0.00     0.037 A 
ATOM     50  C   UNL A   1      39.721  33.040  35.610  1.00  0.00     0.037 A 
ATOM     51  C   UNL A   1      41.369  28.684  31.043  1.00  0.00     0.049 A 
ATOM     52  C   UNL A   1      40.777  31.970  35.536  1.00  0.00     0.074 A 
ATOM     53  C   UNL A   1      42.424  27.787  31.063  1.00  0.00     0.029 A 
ATOM     54  N   UNL A   1      41.407  29.370  32.248  1.00  0.00    -0.354 N 
ATOM     55  N   UNL A   1      41.052  31.144  34.557  1.00  0.00    -0.248 NA
ATOM     56  C   UNL A   1      41.640  31.810  36.715  1.00  0.00     0.031 C 
ATOM     57  C   UNL A   1      43.072  27.899  32.297  1.00  0.00     0.029 A 
ATOM     58  C   UNL A   1      42.452  28.901  33.028  1.00  0.00     0.049 A 
ATOM     59  H   UNL A   1      40.783  30.086  32.511  1.00  0.00     0.167 HD
ATOM     60  C   UNL A   1      42.136  30.390  34.985  1.00  0.00     0.074 A 
ATOM     61  C   UNL A   1      42.478  30.865  36.309  1.00  0.00     0.031 C 
ATOM     62  C   UNL A   1      42.788  29.393  34.340  1.00  0.00     0.037 A 
BRANCH  49  63
ATOM     63  C   UNL A   1      40.444  28.020  28.794  1.00  0.00     0.064 A 
ATOM     64  C   UNL A   1      41.193  28.370  27.659  1.00  0.00     0.173 A 
ATOM     65  C   UNL A   1      39.768  26.791  28.778  1.00  0.00     0.173 A 
ATOM     66  F   UNL A   1      41.850  29.538  27.618  1.00  0.00    -0.203 F 
ATOM     67  C   UNL A   1      41.240  27.536  26.546  1.00  0.00     0.198 A 
ATOM     68  C   UNL A   1      39.841  25.945  27.674  1.00  0.00     0.198 A 
ATOM     69  F   UNL A   1      39.042  26.405  29.838  1.00  0.00    -0.203 F 
ATOM     70  F   UNL A   1      41.923  27.913  25.456  1.00  0.00    -0.200 F 
ATOM     71  C   UNL A   1      40.570  26.322  26.557  1.00  0.00     0.200 A 
ATOM     72  F   UNL A   1      39.205  24.765  27.691  1.00  0.00    -0.200 F 
ATOM     73  F   UNL A   1      40.624  25.516  25.486  1.00  0.00    -0.200 F 
ENDBRANCH  49  63
BRANCH  50  74
ATOM     74  C   UNL A   1      39.585  33.889  36.822  1.00  0.00     0.064 A 
ATOM     75  C   UNL A   1      38.813  33.464  37.913  1.00  0.00     0.173 A 
ATOM     76  C   UNL A   1      40.208  35.142  36.914  1.00  0.00     0.173 A 
ATOM     77  F   UNL A   1      38.179  32.283  37.864  1.00  0.00    -0.203 F 
ATOM     78  C   UNL A   1      38.651  34.270  39.039  1.00  0.00     0.198 A 
ATOM     79  C   UNL A   1      40.069  35.934  38.052  1.00  0.00     0.198 A 
ATOM     80  F   UNL A   1      40.961  35.593  35.899  1.00  0.00    -0.203 F 
ATOM     81  F   UNL A   1      37.868  33.859  40.045  1.00  0.00    -0.200 F 
ATOM     82  C   UNL A   1      39.284  35.501  39.109  1.00  0.00     0.200 A 
ATOM     83  F   UNL A   1      40.693  37.117  38.121  1.00  0.00    -0.200 F 
ATOM     84  F   UNL A   1      39.129  36.275  40.192  1.00  0.00    -0.200 F 
ENDBRANCH  50  74
BRANCH  62  85
ATOM     85  C   UNL A   1      43.962  28.773  35.039  1.00  0.00     0.064 A 
ATOM     86  C   UNL A   1      43.819  27.649  35.866  1.00  0.00     0.173 A 
ATOM     87  C   UNL A   1      45.254  29.288  34.848  1.00  0.00     0.173 A 
ATOM     88  F   UNL A   1      42.604  27.129  36.094  1.00  0.00    -0.203 F 
ATOM     89  C   UNL A   1      44.922  27.079  36.495  1.00  0.00     0.198 A 
ATOM     90  C   UNL A   1      46.358  28.696  35.454  1.00  0.00     0.198 A 
ATOM     91  F   UNL A   1      45.445  30.357  34.061  1.00  0.00    -0.203 F 
ATOM     92  F   UNL A   1      44.756  26.033  37.318  1.00  0.00    -0.200 F 
ATOM     93  C   UNL A   1      46.191  27.597  36.282  1.00  0.00     0.200 A 
ATOM     94  F   UNL A   1      47.585  29.191  35.235  1.00  0.00    -0.200 F 
ATOM     95  F   UNL A   1      47.253  27.041  36.882  1.00  0.00    -0.200 F 
ENDBRANCH  62  85
ENDBRANCH  36  37
ENDBRANCH  28  31
ENDBRANCH  26  27
ENDBRANCH  25  26
ENDBRANCH  24  25
ENDBRANCH   1  24
TORSDOF 15
ENDMDL
MODEL 3
REMARK VINA RESULT:     -12.2      3.889      7.969
REMARK SMILES CN(Cc1ccc(C(=O)NCCCCNC(=O)c2ccc(-c3c4nc(c(-c5c(F)c(F)c(F)c(F)c5F)c5ccc([nH]5)c(-c5c(F)c(F)c(F)c(F)c5F)c5nc(c(-c6c(F)c(F)c(F)c(F)c6F)c6ccc3[nH]6)C=C5)C=C4)cc2)cc1)c1ccccc1N
REMARK SMILES IDX 11 1 10 2 8 3 9 4 7 6 4 7 5 8 82 9 6 10 81 11 3 12 2 13 1 14
REMARK SMILES IDX 83 15 84 16 88 17 85 18 87 19 86 20 89 21 12 24 13 25 14 26
REMARK SMILES IDX 15 27 16 28 17 30 18 31 19 32 80 33 20 34 79 35 21 36 22 37
REMARK SMILES IDX 23 38 73 39 24 40 78 41 72 42 74 43 25 44 77 45 71 46 70 47
REMARK SMILES IDX 26 49 58 50 38 51 57 52 39 53 42 54 56 55 75 56 40 57 41 58
REMARK SMILES IDX 55 60 76 61 43 62 27 63 28 64 36 65 29 66 30 67 34 68 37 69
REMARK SMILES IDX 31 70 32 71 35 72 33 73 59 74 60 75 68 76 61 77 62 78 66 79
REMARK SMILES IDX 69 80 63 81 64 82 67 83 65 84 44 85 45 86 53 87 46 88 47 89
REMARK SMILES IDX 51 90 54 91 48 92 49 93 52 94 50 95
REMARK H PARENT 10 5 89 22 89 23 15 29 74 48 42 59
REMARK Flexibility Score: inf
ROOT
ATOM      1  C   UNL A   1      31.391  29.438  25.023  1.00  0.00     0.116 C 
ENDROOT
BRANCH   1   2
ATOM      2  N   UNL A   1      30.808  29.645  23.708  1.00  0.00    -0.352 N 
ATOM      3  C   UNL A   1      30.721  28.787  22.635  1.00  0.00     0.251 C 
ATOM      4  O   UNL A   1      30.058  29.108  21.653  1.00  0.00    -0.269 OA
ATOM      5  H   UNL A   1      30.415  30.536  23.561  1.00  0.00     0.163 HD
BRANCH   3   6
ATOM      6  C   UNL A   1      31.359  27.453  22.686  1.00  0.00     0.039 A 
ATOM      7  C   UNL A   1      32.525  24.911  22.472  1.00  0.00    -0.029 A 
ATOM      8  C   UNL A   1      33.229  26.050  22.054  1.00  0.00     0.006 A 
ATOM      9  C   UNL A   1      31.281  25.076  23.103  1.00  0.00     0.006 A 
ATOM     10  C   UNL A   1      32.652  27.318  22.170  1.00  0.00     0.014 A 
ATOM     11  C   UNL A   1      30.701  26.340  23.212  1.00  0.00     0.014 A 
BRANCH   7  12
ATOM     12  C   UNL A   1      33.030  23.520  22.138  1.00  0.00     0.151 C 
BRANCH  12  13
ATOM     13  N   UNL A   1      33.405  22.796  23.355  1.00  0.00    -0.369 N 
ATOM     14  C   UNL A   1      32.742  21.556  23.706  1.00  0.00     0.144 C 
BRANCH  13  15
ATOM     15  C   UNL A   1      34.611  23.119  23.978  1.00  0.00     0.060 A 
ATOM     16  C   UNL A   1      35.813  22.753  23.344  1.00  0.00     0.028 A 
ATOM     17  C   UNL A   1      34.691  23.785  25.222  1.00  0.00     0.055 A 
ATOM     18  C   UNL A   1      37.054  22.950  23.950  1.00  0.00     0.002 A 
ATOM     19  C   UNL A   1      35.945  23.982  25.820  1.00  0.00     0.027 A 
ATOM     20  C   UNL A   1      37.119  23.560  25.194  1.00  0.00     0.002 A 
BRANCH  17  21
ATOM     21  N   UNL A   1      33.548  24.118  25.950  1.00  0.00    -0.397 N 
ATOM     22  H   UNL A   1      33.528  23.981  26.924  1.00  0.00     0.156 HD
ATOM     23  H   UNL A   1      32.762  24.491  25.489  1.00  0.00     0.156 HD
ENDBRANCH  17  21
ENDBRANCH  13  15
ENDBRANCH  12  13
ENDBRANCH   7  12
ENDBRANCH   3   6
ENDBRANCH   1   2
BRANCH   1  24
ATOM     24  C   UNL A   1      32.914  29.563  24.993  1.00  0.00     0.023 C 
BRANCH  24  25
ATOM     25  C   UNL A   1      33.663  28.429  25.698  1.00  0.00     0.023 C 
BRANCH  25  26
ATOM     26  C   UNL A   1      33.794  28.572  27.211  1.00  0.00     0.116 C 
BRANCH  26  27
ATOM     27  N   UNL A   1      33.729  29.953  27.664  1.00  0.00    -0.352 N 
ATOM     28  C   UNL A   1      34.684  30.701  28.309  1.00  0.00     0.251 C 
ATOM     29  H   UNL A   1      32.880  30.418  27.482  1.00  0.00     0.163 HD
ATOM     30  O   UNL A   1      34.413  31.826  28.720  1.00  0.00    -0.269 OA
BRANCH  28  31
ATOM     31  C   UNL A   1      36.030  30.137  28.545  1.00  0.00     0.039 A 
ATOM     32  C   UNL A   1      36.989  30.236  27.533  1.00  0.00     0.014 A 
ATOM     33  C   UNL A   1      36.353  29.525  29.760  1.00  0.00     0.014 A 
ATOM     34  C   UNL A   1      38.291  29.788  27.764  1.00  0.00     0.010 A 
ATOM     35  C   UNL A   1      37.667  29.142  30.013  1.00  0.00     0.010 A 
ATOM     36  C   UNL A   1      38.650  29.274  29.020  1.00  0.00    -0.014 A 
BRANCH  36  37
ATOM     37  C   UNL A   1      40.051  28.879  29.318  1.00  0.00     0.031 A 
ATOM     38  C   UNL A   1      40.953  29.806  30.082  1.00  0.00     0.074 A 
ATOM     39  C   UNL A   1      40.531  27.716  28.835  1.00  0.00     0.049 A 
ATOM     40  N   UNL A   1      42.222  29.674  30.373  1.00  0.00    -0.248 NA
ATOM     41  C   UNL A   1      40.356  31.063  30.561  1.00  0.00     0.031 C 
ATOM     42  C   UNL A   1      39.770  26.754  28.038  1.00  0.00     0.029 A 
ATOM     43  N   UNL A   1      41.780  27.153  28.934  1.00  0.00    -0.354 N 
ATOM     44  C   UNL A   1      42.578  30.832  31.052  1.00  0.00     0.074 A 
ATOM     45  C   UNL A   1      41.405  31.678  31.087  1.00  0.00     0.031 C 
ATOM     46  C   UNL A   1      40.561  25.710  27.737  1.00  0.00     0.029 A 
ATOM     47  C   UNL A   1      41.892  25.946  28.287  1.00  0.00     0.049 A 
ATOM     48  H   UNL A   1      42.524  27.573  29.423  1.00  0.00     0.167 HD
ATOM     49  C   UNL A   1      43.768  31.151  31.615  1.00  0.00     0.037 A 
ATOM     50  C   UNL A   1      42.951  25.127  28.147  1.00  0.00     0.037 A 
ATOM     51  C   UNL A   1      44.925  30.295  31.603  1.00  0.00     0.049 A 
ATOM     52  C   UNL A   1      44.263  25.507  28.780  1.00  0.00     0.074 A 
ATOM     53  C   UNL A   1      46.157  30.499  32.202  1.00  0.00     0.029 A 
ATOM     54  N   UNL A   1      44.995  29.070  30.955  1.00  0.00    -0.354 N 
ATOM     55  N   UNL A   1      44.566  26.571  29.482  1.00  0.00    -0.248 NA
ATOM     56  C   UNL A   1      45.379  24.567  28.604  1.00  0.00     0.031 C 
ATOM     57  C   UNL A   1      46.985  29.420  31.880  1.00  0.00     0.029 A 
ATOM     58  C   UNL A   1      46.255  28.518  31.121  1.00  0.00     0.049 A 
ATOM     59  H   UNL A   1      44.258  28.654  30.452  1.00  0.00     0.167 HD
ATOM     60  C   UNL A   1      45.893  26.415  29.858  1.00  0.00     0.074 A 
ATOM     61  C   UNL A   1      46.335  25.147  29.317  1.00  0.00     0.031 C 
ATOM     62  C   UNL A   1      46.676  27.248  30.586  1.00  0.00     0.037 A 
BRANCH  49  63
ATOM     63  C   UNL A   1      43.881  32.483  32.297  1.00  0.00     0.064 A 
ATOM     64  C   UNL A   1      44.304  33.629  31.606  1.00  0.00     0.173 A 
ATOM     65  C   UNL A   1      43.523  32.626  33.645  1.00  0.00     0.173 A 
ATOM     66  F   UNL A   1      44.668  33.545  30.318  1.00  0.00    -0.203 F 
ATOM     67  C   UNL A   1      44.392  34.861  32.248  1.00  0.00     0.198 A 
ATOM     68  C   UNL A   1      43.583  33.866  34.277  1.00  0.00     0.198 A 
ATOM     69  F   UNL A   1      43.106  31.564  34.351  1.00  0.00    -0.203 F 
ATOM     70  F   UNL A   1      44.844  35.932  31.580  1.00  0.00    -0.200 F 
ATOM     71  C   UNL A   1      44.025  34.980  33.580  1.00  0.00     0.200 A 
ATOM     72  F   UNL A   1      43.214  33.983  35.560  1.00  0.00    -0.200 F 
ATOM     73  F   UNL A   1      44.102  36.170  34.193  1.00  0.00    -0.200 F 
ENDBRANCH  49  63
BRANCH  50  74
ATOM     74  C   UNL A   1      42.812  23.852  27.396  1.00  0.00     0.064 A 
ATOM     75  C   UNL A   1      42.350  22.691  28.032  1.00  0.00     0.173 A 
ATOM     76  C   UNL A   1      43.149  23.761  26.038  1.00  0.00     0.173 A 
ATOM     77  F   UNL A   1      42.037  22.722  29.336  1.00  0.00    -0.203 F 
ATOM     78  C   UNL A   1      42.251  21.483  27.344  1.00  0.00     0.198 A 
ATOM     79  C   UNL A   1      43.021  22.560  25.343  1.00  0.00     0.198 A 
ATOM     80  F   UNL A   1      43.591  24.844  25.382  1.00  0.00    -0.203 F 
ATOM     81  F   UNL A   1      41.853  20.379  27.989  1.00  0.00    -0.200 F 
ATOM     82  C   UNL A   1      42.581  21.420  25.999  1.00  0.00     0.200 A 
ATOM     83  F   UNL A   1      43.329  22.506  24.040  1.00  0.00    -0.200 F 
ATOM     84  F   UNL A   1      42.485  20.259  25.337  1.00  0.00    -0.200 F 
ENDBRANCH  50  74
BRANCH  62  85
ATOM     85  C   UNL A   1      48.079  26.800  30.873  1.00  0.00     0.064 A 
ATOM     86  C   UNL A   1      49.155  27.175  30.054  1.00  0.00     0.173 A 
ATOM     87  C   UNL A   1      48.355  26.016  32.004  1.00  0.00     0.173 A 
ATOM     88  F   UNL A   1      48.941  27.910  28.953  1.00  0.00    -0.203 F 
ATOM     89  C   UNL A   1      50.452  26.761  30.344  1.00  0.00     0.198 A 
ATOM     90  C   UNL A   1      49.658  25.631  32.307  1.00  0.00     0.198 A 
ATOM     91  F   UNL A   1      47.363  25.637  32.822  1.00  0.00    -0.203 F 
ATOM     92  F   UNL A   1      51.459  27.092  29.523  1.00  0.00    -0.200 F 
ATOM     93  C   UNL A   1      50.704  25.997  31.474  1.00  0.00     0.200 A 
ATOM     94  F   UNL A   1      49.900  24.904  33.408  1.00  0.00    -0.200 F 
ATOM     95  F   UNL A   1      51.955  25.607  31.756  1.00  0.00    -0.200 F 
ENDBRANCH  62  85
ENDBRANCH  36  37
ENDBRANCH  28  31
ENDBRANCH  26  27
ENDBRANCH  25  26
ENDBRANCH  24  25
ENDBRANCH   1  24
TORSDOF 15
ENDMDL
