MODEL 1
REMARK VINA RESULT:     -12.2      0.000      0.000
REMARK SMILES C[C@@H]1C[C@H](C)C[C@H]([N@H+]2[C@@H](C(=O)NCCCCNC(=O)c3ccc(-c4c5nc(c(-c6c(F)c(F)c(F)c(F)c6F)c6ccc([nH]6)c(-c6c(F)c(F)c(F)c(F)c6F)c6nc(c(-c7c(F)c(F)c(F)c(F)c7F)c7ccc4[nH]7)C=C6)C=C5)cc3)CC[C@@H]3CCCC[C@@H]32)C1
REMARK SMILES IDX 15 1 14 2 13 3 12 4 10 5 11 6 9 8 8 9 90 10 83 12 85 13
REMARK SMILES IDX 89 14 84 15 86 16 88 17 87 18 7 19 5 20 4 21 6 22 3 23 2 24
REMARK SMILES IDX 91 25 1 26 16 27 17 28 18 29 19 31 20 32 21 33 82 34 22 35
REMARK SMILES IDX 81 36 23 37 24 38 25 39 75 40 26 41 80 42 74 43 76 44 27 45
REMARK SMILES IDX 79 46 73 47 72 48 28 50 60 51 40 52 59 53 41 54 44 55 58 56
REMARK SMILES IDX 77 57 42 58 43 59 57 61 78 62 45 63 29 64 30 65 38 66 31 67
REMARK SMILES IDX 32 68 36 69 39 70 33 71 34 72 37 73 35 74 61 75 62 76 70 77
REMARK SMILES IDX 63 78 64 79 68 80 71 81 65 82 66 83 69 84 67 85 46 86 47 87
REMARK SMILES IDX 55 88 48 89 49 90 53 91 56 92 50 93 51 94 54 95 52 96
REMARK H PARENT 12 7 8 11 17 30 76 49 44 60
REMARK Flexibility Score: inf
ROOT
ATOM      1  C   UNL A   1      35.577  22.391  25.299  1.00  0.00     0.023 C 
ENDROOT
BRANCH   1   2
ATOM      2  C   UNL A   1      34.571  21.908  26.344  1.00  0.00     0.023 C 
BRANCH   2   3
ATOM      3  C   UNL A   1      34.023  23.010  27.245  1.00  0.00     0.116 C 
BRANCH   3   4
ATOM      4  N   UNL A   1      32.576  23.071  27.203  1.00  0.00    -0.351 N 
ATOM      5  C   UNL A   1      31.782  23.889  26.436  1.00  0.00     0.278 C 
ATOM      6  O   UNL A   1      30.565  23.762  26.568  1.00  0.00    -0.268 OA
ATOM      7  H   UNL A   1      32.102  22.448  27.799  1.00  0.00     0.163 HD
BRANCH   5   8
ATOM      8  C   UNL A   1      32.479  24.881  25.447  1.00  0.00     0.274 C 
ATOM      9  N   UNL A   1      31.821  26.240  25.343  1.00  0.00    -0.320 N 
ATOM     10  C   UNL A   1      30.532  26.137  24.602  1.00  0.00     0.188 C 
ATOM     11  H   UNL A   1      32.032  27.009  24.707  1.00  0.00     0.349 HD
ATOM     12  C   UNL A   1      32.754  24.230  24.101  1.00  0.00     0.076 C 
ATOM     13  C   UNL A   1      30.772  25.498  23.183  1.00  0.00     0.048 C 
ATOM     14  C   UNL A   1      29.523  27.269  24.287  1.00  0.00     0.065 C 
ATOM     15  C   UNL A   1      31.527  24.170  23.226  1.00  0.00     0.016 C 
ATOM     16  C   UNL A   1      31.461  26.471  22.215  1.00  0.00     0.010 C 
ATOM     17  C   UNL A   1      29.677  28.165  23.048  1.00  0.00     0.006 C 
ATOM     18  C   UNL A   1      30.685  27.759  21.977  1.00  0.00     0.001 C 
BRANCH   9  19
ATOM     19  C   UNL A   1      32.280  27.014  26.535  1.00  0.00     0.185 C 
ATOM     20  C   UNL A   1      34.019  28.309  24.265  1.00  0.00     0.008 C 
ATOM     21  C   UNL A   1      34.321  28.382  25.740  1.00  0.00    -0.008 C 
ATOM     22  C   UNL A   1      33.826  27.128  26.460  1.00  0.00     0.068 C 
ATOM     23  C   UNL A   1      33.745  29.675  26.333  1.00  0.00     0.007 C 
ATOM     24  C   UNL A   1      32.285  29.642  26.832  1.00  0.00    -0.008 C 
ATOM     25  C   UNL A   1      31.764  28.270  27.257  1.00  0.00     0.068 C 
ATOM     26  C   UNL A   1      31.256  30.343  25.955  1.00  0.00     0.008 C 
ENDBRANCH   9  19
ENDBRANCH   5   8
ENDBRANCH   3   4
ENDBRANCH   2   3
ENDBRANCH   1   2
BRANCH   1  27
ATOM     27  C   UNL A   1      36.781  23.141  25.858  1.00  0.00     0.116 C 
BRANCH  27  28
ATOM     28  N   UNL A   1      37.969  22.311  25.991  1.00  0.00    -0.352 N 
ATOM     29  C   UNL A   1      39.230  22.675  26.411  1.00  0.00     0.251 C 
ATOM     30  H   UNL A   1      37.856  21.363  25.751  1.00  0.00     0.163 HD
ATOM     31  O   UNL A   1      40.156  21.886  26.362  1.00  0.00    -0.269 OA
BRANCH  29  32
ATOM     32  C   UNL A   1      39.448  24.058  26.885  1.00  0.00     0.039 A 
ATOM     33  C   UNL A   1      39.117  24.379  28.202  1.00  0.00     0.014 A 
ATOM     34  C   UNL A   1      40.030  25.012  26.046  1.00  0.00     0.014 A 
ATOM     35  C   UNL A   1      39.443  25.640  28.705  1.00  0.00     0.010 A 
ATOM     36  C   UNL A   1      40.427  26.236  26.571  1.00  0.00     0.010 A 
ATOM     37  C   UNL A   1      40.141  26.561  27.906  1.00  0.00    -0.014 A 
BRANCH  37  38
ATOM     38  C   UNL A   1      40.590  27.869  28.448  1.00  0.00     0.031 A 
ATOM     39  C   UNL A   1      42.033  28.077  28.811  1.00  0.00     0.074 A 
ATOM     40  C   UNL A   1      39.686  28.840  28.682  1.00  0.00     0.049 A 
ATOM     41  N   UNL A   1      42.605  29.110  29.375  1.00  0.00    -0.248 NA
ATOM     42  C   UNL A   1      42.952  26.963  28.527  1.00  0.00     0.031 C 
ATOM     43  C   UNL A   1      38.250  28.742  28.416  1.00  0.00     0.029 A 
ATOM     44  N   UNL A   1      39.839  30.097  29.213  1.00  0.00    -0.354 N 
ATOM     45  C   UNL A   1      43.941  28.764  29.527  1.00  0.00     0.074 A 
ATOM     46  C   UNL A   1      44.085  27.406  29.050  1.00  0.00     0.031 C 
ATOM     47  C   UNL A   1      37.658  29.896  28.763  1.00  0.00     0.029 A 
ATOM     48  C   UNL A   1      38.662  30.798  29.319  1.00  0.00     0.049 A 
ATOM     49  H   UNL A   1      40.710  30.462  29.491  1.00  0.00     0.167 HD
ATOM     50  C   UNL A   1      44.960  29.522  29.997  1.00  0.00     0.037 A 
ATOM     51  C   UNL A   1      38.419  32.024  29.821  1.00  0.00     0.037 A 
ATOM     52  C   UNL A   1      44.814  30.879  30.453  1.00  0.00     0.049 A 
ATOM     53  C   UNL A   1      39.566  32.835  30.361  1.00  0.00     0.074 A 
ATOM     54  C   UNL A   1      45.795  31.751  30.892  1.00  0.00     0.029 A 
ATOM     55  N   UNL A   1      43.607  31.560  30.534  1.00  0.00    -0.354 N 
ATOM     56  N   UNL A   1      40.839  32.527  30.430  1.00  0.00    -0.248 NA
ATOM     57  C   UNL A   1      39.244  34.169  30.888  1.00  0.00     0.031 C 
ATOM     58  C   UNL A   1      45.175  32.937  31.296  1.00  0.00     0.029 A 
ATOM     59  C   UNL A   1      43.817  32.830  31.045  1.00  0.00     0.049 A 
ATOM     60  H   UNL A   1      42.733  31.194  30.268  1.00  0.00     0.167 HD
ATOM     61  C   UNL A   1      41.471  33.636  30.977  1.00  0.00     0.074 A 
ATOM     62  C   UNL A   1      40.444  34.630  31.209  1.00  0.00     0.031 C 
ATOM     63  C   UNL A   1      42.785  33.815  31.261  1.00  0.00     0.037 A 
BRANCH  50  64
ATOM     64  C   UNL A   1      46.325  28.896  30.047  1.00  0.00     0.064 A 
ATOM     65  C   UNL A   1      46.780  28.207  31.182  1.00  0.00     0.173 A 
ATOM     66  C   UNL A   1      47.176  28.954  28.933  1.00  0.00     0.173 A 
ATOM     67  F   UNL A   1      46.011  28.130  32.279  1.00  0.00    -0.203 F 
ATOM     68  C   UNL A   1      48.046  27.628  31.211  1.00  0.00     0.198 A 
ATOM     69  C   UNL A   1      48.428  28.344  28.953  1.00  0.00     0.198 A 
ATOM     70  F   UNL A   1      46.790  29.594  27.819  1.00  0.00    -0.203 F 
ATOM     71  F   UNL A   1      48.478  27.023  32.326  1.00  0.00    -0.200 F 
ATOM     72  C   UNL A   1      48.865  27.691  30.095  1.00  0.00     0.200 A 
ATOM     73  F   UNL A   1      49.212  28.392  27.867  1.00  0.00    -0.200 F 
ATOM     74  F   UNL A   1      50.080  27.125  30.121  1.00  0.00    -0.200 F 
ENDBRANCH  50  64
BRANCH  51  75
ATOM     75  C   UNL A   1      37.033  32.565  29.825  1.00  0.00     0.064 A 
ATOM     76  C   UNL A   1      36.535  33.278  28.725  1.00  0.00     0.173 A 
ATOM     77  C   UNL A   1      36.184  32.391  30.927  1.00  0.00     0.173 A 
ATOM     78  F   UNL A   1      37.317  33.489  27.655  1.00  0.00    -0.203 F 
ATOM     79  C   UNL A   1      35.250  33.817  28.737  1.00  0.00     0.198 A 
ATOM     80  C   UNL A   1      34.886  32.902  30.924  1.00  0.00     0.198 A 
ATOM     81  F   UNL A   1      36.607  31.712  32.003  1.00  0.00    -0.203 F 
ATOM     82  F   UNL A   1      34.819  34.537  27.693  1.00  0.00    -0.200 F 
ATOM     83  C   UNL A   1      34.424  33.623  29.834  1.00  0.00     0.200 A 
ATOM     84  F   UNL A   1      34.087  32.698  31.980  1.00  0.00    -0.200 F 
ATOM     85  F   UNL A   1      33.187  34.137  29.843  1.00  0.00    -0.200 F 
ENDBRANCH  51  75
BRANCH  63  86
ATOM     86  C   UNL A   1      43.201  35.148  31.812  1.00  0.00     0.064 A 
ATOM     87  C   UNL A   1      43.658  36.182  30.983  1.00  0.00     0.173 A 
ATOM     88  C   UNL A   1      43.089  35.410  33.188  1.00  0.00     0.173 A 
ATOM     89  F   UNL A   1      43.799  35.979  29.664  1.00  0.00    -0.203 F 
ATOM     90  C   UNL A   1      44.010  37.422  31.512  1.00  0.00     0.198 A 
ATOM     91  C   UNL A   1      43.408  36.661  33.707  1.00  0.00     0.198 A 
ATOM     92  F   UNL A   1      42.649  34.458  34.024  1.00  0.00    -0.203 F 
ATOM     93  F   UNL A   1      44.489  38.379  30.707  1.00  0.00    -0.200 F 
ATOM     94  C   UNL A   1      43.875  37.663  32.871  1.00  0.00     0.200 A 
ATOM     95  F   UNL A   1      43.259  36.897  35.018  1.00  0.00    -0.200 F 
ATOM     96  F   UNL A   1      44.200  38.861  33.376  1.00  0.00    -0.200 F 
ENDBRANCH  63  86
ENDBRANCH  37  38
ENDBRANCH  29  32
ENDBRANCH  27  28
ENDBRANCH   1  27
TORSDOF 12
ENDMDL
MODEL 2
REMARK VINA RESULT:     -12.2      4.023      8.881
REMARK SMILES C[C@@H]1C[C@H](C)C[C@H]([N@H+]2[C@@H](C(=O)NCCCCNC(=O)c3ccc(-c4c5nc(c(-c6c(F)c(F)c(F)c(F)c6F)c6ccc([nH]6)c(-c6c(F)c(F)c(F)c(F)c6F)c6nc(c(-c7c(F)c(F)c(F)c(F)c7F)c7ccc4[nH]7)C=C6)C=C5)cc3)CC[C@@H]3CCCC[C@@H]32)C1
REMARK SMILES IDX 15 1 14 2 13 3 12 4 10 5 11 6 9 8 8 9 90 10 83 12 85 13
REMARK SMILES IDX 89 14 84 15 86 16 88 17 87 18 7 19 5 20 4 21 6 22 3 23 2 24
REMARK SMILES IDX 91 25 1 26 16 27 17 28 18 29 19 31 20 32 21 33 82 34 22 35
REMARK SMILES IDX 81 36 23 37 24 38 25 39 75 40 26 41 80 42 74 43 76 44 27 45
REMARK SMILES IDX 79 46 73 47 72 48 28 50 60 51 40 52 59 53 41 54 44 55 58 56
REMARK SMILES IDX 77 57 42 58 43 59 57 61 78 62 45 63 29 64 30 65 38 66 31 67
REMARK SMILES IDX 32 68 36 69 39 70 33 71 34 72 37 73 35 74 61 75 62 76 70 77
REMARK SMILES IDX 63 78 64 79 68 80 71 81 65 82 66 83 69 84 67 85 46 86 47 87
REMARK SMILES IDX 55 88 48 89 49 90 53 91 56 92 50 93 51 94 54 95 52 96
REMARK H PARENT 12 7 8 11 17 30 76 49 44 60
REMARK Flexibility Score: inf
ROOT
ATOM      1  C   UNL A   1      31.367  32.240  26.820  1.00  0.00     0.023 C 
ENDROOT
BRANCH   1   2
ATOM      2  C   UNL A   1      31.644  30.898  26.142  1.00  0.00     0.023 C 
BRANCH   2   3
ATOM      3  C   UNL A   1      32.178  29.819  27.079  1.00  0.00     0.116 C 
BRANCH   3   4
ATOM      4  N   UNL A   1      33.513  29.395  26.707  1.00  0.00    -0.351 N 
ATOM      5  C   UNL A   1      33.878  28.468  25.762  1.00  0.00     0.278 C 
ATOM      6  O   UNL A   1      35.084  28.270  25.616  1.00  0.00    -0.268 OA
ATOM      7  H   UNL A   1      34.252  29.827  27.194  1.00  0.00     0.163 HD
BRANCH   5   8
ATOM      8  C   UNL A   1      32.748  27.770  24.935  1.00  0.00     0.274 C 
ATOM      9  N   UNL A   1      32.828  26.259  24.901  1.00  0.00    -0.320 N 
ATOM     10  C   UNL A   1      33.964  25.819  24.043  1.00  0.00     0.188 C 
ATOM     11  H   UNL A   1      32.270  25.598  24.361  1.00  0.00     0.349 HD
ATOM     12  C   UNL A   1      32.582  28.404  23.564  1.00  0.00     0.076 C 
ATOM     13  C   UNL A   1      33.818  26.425  22.597  1.00  0.00     0.048 C 
ATOM     14  C   UNL A   1      34.428  24.371  23.748  1.00  0.00     0.065 C 
ATOM     15  C   UNL A   1      33.630  27.941  22.582  1.00  0.00     0.016 C 
ATOM     16  C   UNL A   1      32.705  25.742  21.789  1.00  0.00     0.010 C 
ATOM     17  C   UNL A   1      33.803  23.539  22.616  1.00  0.00     0.006 C 
ATOM     18  C   UNL A   1      32.905  24.244  21.605  1.00  0.00     0.001 C 
BRANCH   9  19
ATOM     19  C   UNL A   1      32.255  25.785  26.196  1.00  0.00     0.185 C 
ATOM     20  C   UNL A   1      29.735  25.641  24.329  1.00  0.00     0.008 C 
ATOM     21  C   UNL A   1      29.700  25.680  25.836  1.00  0.00    -0.008 C 
ATOM     22  C   UNL A   1      30.879  26.479  26.388  1.00  0.00     0.068 C 
ATOM     23  C   UNL A   1      29.631  24.254  26.398  1.00  0.00     0.007 C 
ATOM     24  C   UNL A   1      30.966  23.519  26.642  1.00  0.00    -0.008 C 
ATOM     25  C   UNL A   1      32.177  24.417  26.893  1.00  0.00     0.068 C 
ATOM     26  C   UNL A   1      31.326  22.423  25.648  1.00  0.00     0.008 C 
ENDBRANCH   9  19
ENDBRANCH   5   8
ENDBRANCH   3   4
ENDBRANCH   2   3
ENDBRANCH   1   2
BRANCH   1  27
ATOM     27  C   UNL A   1      32.598  32.956  27.366  1.00  0.00     0.116 C 
BRANCH  27  28
ATOM     28  N   UNL A   1      32.356  34.351  27.700  1.00  0.00    -0.352 N 
ATOM     29  C   UNL A   1      32.995  35.135  28.636  1.00  0.00     0.251 C 
ATOM     30  H   UNL A   1      31.641  34.794  27.189  1.00  0.00     0.163 HD
ATOM     31  O   UNL A   1      32.600  36.261  28.881  1.00  0.00    -0.269 OA
BRANCH  29  32
ATOM     32  C   UNL A   1      34.145  34.567  29.370  1.00  0.00     0.039 A 
ATOM     33  C   UNL A   1      33.913  33.901  30.574  1.00  0.00     0.014 A 
ATOM     34  C   UNL A   1      35.434  34.644  28.838  1.00  0.00     0.014 A 
ATOM     35  C   UNL A   1      34.967  33.243  31.209  1.00  0.00     0.010 A 
ATOM     36  C   UNL A   1      36.464  33.921  29.427  1.00  0.00     0.010 A 
ATOM     37  C   UNL A   1      36.240  33.209  30.616  1.00  0.00    -0.014 A 
BRANCH  37  38
ATOM     38  C   UNL A   1      37.352  32.430  31.217  1.00  0.00     0.031 A 
ATOM     39  C   UNL A   1      37.872  32.791  32.580  1.00  0.00     0.074 A 
ATOM     40  C   UNL A   1      37.943  31.450  30.506  1.00  0.00     0.049 A 
ATOM     41  N   UNL A   1      38.886  32.292  33.239  1.00  0.00    -0.248 NA
ATOM     42  C   UNL A   1      37.174  33.878  33.287  1.00  0.00     0.031 C 
ATOM     43  C   UNL A   1      37.561  31.039  29.154  1.00  0.00     0.029 A 
ATOM     44  N   UNL A   1      39.001  30.632  30.815  1.00  0.00    -0.354 N 
ATOM     45  C   UNL A   1      38.956  33.012  34.425  1.00  0.00     0.074 A 
ATOM     46  C   UNL A   1      37.920  34.020  34.371  1.00  0.00     0.031 C 
ATOM     47  C   UNL A   1      38.356  30.031  28.760  1.00  0.00     0.029 A 
ATOM     48  C   UNL A   1      39.335  29.758  29.808  1.00  0.00     0.049 A 
ATOM     49  H   UNL A   1      39.476  30.668  31.676  1.00  0.00     0.167 HD
ATOM     50  C   UNL A   1      39.793  32.831  35.474  1.00  0.00     0.037 A 
ATOM     51  C   UNL A   1      40.325  28.848  29.735  1.00  0.00     0.037 A 
ATOM     52  C   UNL A   1      40.810  31.814  35.529  1.00  0.00     0.049 A 
ATOM     53  C   UNL A   1      41.257  28.684  30.905  1.00  0.00     0.074 A 
ATOM     54  C   UNL A   1      41.669  31.510  36.571  1.00  0.00     0.029 A 
ATOM     55  N   UNL A   1      41.110  30.939  34.495  1.00  0.00    -0.354 N 
ATOM     56  N   UNL A   1      41.267  29.320  32.052  1.00  0.00    -0.248 NA
ATOM     57  C   UNL A   1      42.314  27.672  30.774  1.00  0.00     0.031 C 
ATOM     58  C   UNL A   1      42.528  30.492  36.146  1.00  0.00     0.029 A 
ATOM     59  C   UNL A   1      42.161  30.115  34.864  1.00  0.00     0.049 A 
ATOM     60  H   UNL A   1      40.644  30.908  33.627  1.00  0.00     0.167 HD
ATOM     61  C   UNL A   1      42.305  28.764  32.788  1.00  0.00     0.074 A 
ATOM     62  C   UNL A   1      42.895  27.730  31.963  1.00  0.00     0.031 C 
ATOM     63  C   UNL A   1      42.731  29.081  34.036  1.00  0.00     0.037 A 
BRANCH  50  64
ATOM     64  C   UNL A   1      39.646  33.757  36.648  1.00  0.00     0.064 A 
ATOM     65  C   UNL A   1      40.280  35.009  36.684  1.00  0.00     0.173 A 
ATOM     66  C   UNL A   1      38.831  33.405  37.734  1.00  0.00     0.173 A 
ATOM     67  F   UNL A   1      41.079  35.391  35.676  1.00  0.00    -0.203 F 
ATOM     68  C   UNL A   1      40.130  35.858  37.777  1.00  0.00     0.198 A 
ATOM     69  C   UNL A   1      38.656  34.271  38.811  1.00  0.00     0.198 A 
ATOM     70  F   UNL A   1      38.196  32.223  37.750  1.00  0.00    -0.203 F 
ATOM     71  F   UNL A   1      40.790  37.023  37.813  1.00  0.00    -0.200 F 
ATOM     72  C   UNL A   1      39.313  35.492  38.835  1.00  0.00     0.200 A 
ATOM     73  F   UNL A   1      37.852  33.923  39.825  1.00  0.00    -0.200 F 
ATOM     74  F   UNL A   1      39.162  36.314  39.883  1.00  0.00    -0.200 F 
ENDBRANCH  50  64
BRANCH  51  75
ATOM     75  C   UNL A   1      40.479  28.013  28.514  1.00  0.00     0.064 A 
ATOM     76  C   UNL A   1      39.874  26.752  28.423  1.00  0.00     0.173 A 
ATOM     77  C   UNL A   1      41.240  28.450  27.420  1.00  0.00     0.173 A 
ATOM     78  F   UNL A   1      39.154  26.279  29.452  1.00  0.00    -0.203 F 
ATOM     79  C   UNL A   1      40.044  25.950  27.296  1.00  0.00     0.198 A 
ATOM     80  C   UNL A   1      41.381  27.662  26.279  1.00  0.00     0.198 A 
ATOM     81  F   UNL A   1      41.835  29.652  27.451  1.00  0.00    -0.203 F 
ATOM     82  F   UNL A   1      39.496  24.727  27.258  1.00  0.00    -0.200 F 
ATOM     83  C   UNL A   1      40.792  26.408  26.222  1.00  0.00     0.200 A 
ATOM     84  F   UNL A   1      42.091  28.116  25.238  1.00  0.00    -0.200 F 
ATOM     85  F   UNL A   1      40.951  25.640  25.136  1.00  0.00    -0.200 F 
ENDBRANCH  51  75
BRANCH  63  86
ATOM     86  C   UNL A   1      43.862  28.276  34.609  1.00  0.00     0.064 A 
ATOM     87  C   UNL A   1      45.195  28.703  34.517  1.00  0.00     0.173 A 
ATOM     88  C   UNL A   1      43.600  27.086  35.307  1.00  0.00     0.173 A 
ATOM     89  F   UNL A   1      45.501  29.824  33.848  1.00  0.00    -0.203 F 
ATOM     90  C   UNL A   1      46.225  27.956  35.083  1.00  0.00     0.198 A 
ATOM     91  C   UNL A   1      44.629  26.362  35.901  1.00  0.00     0.198 A 
ATOM     92  F   UNL A   1      42.341  26.638  35.430  1.00  0.00    -0.203 F 
ATOM     93  F   UNL A   1      47.495  28.358  34.943  1.00  0.00    -0.200 F 
ATOM     94  C   UNL A   1      45.940  26.793  35.782  1.00  0.00     0.200 A 
ATOM     95  F   UNL A   1      44.349  25.248  36.591  1.00  0.00    -0.200 F 
ATOM     96  F   UNL A   1      46.932  26.083  36.338  1.00  0.00    -0.200 F 
ENDBRANCH  63  86
ENDBRANCH  37  38
ENDBRANCH  29  32
ENDBRANCH  27  28
ENDBRANCH   1  27
TORSDOF 12
ENDMDL
MODEL 3
REMARK VINA RESULT:     -12.2      4.015      8.935
REMARK SMILES C[C@@H]1C[C@H](C)C[C@H]([N@H+]2[C@@H](C(=O)NCCCCNC(=O)c3ccc(-c4c5nc(c(-c6c(F)c(F)c(F)c(F)c6F)c6ccc([nH]6)c(-c6c(F)c(F)c(F)c(F)c6F)c6nc(c(-c7c(F)c(F)c(F)c(F)c7F)c7ccc4[nH]7)C=C6)C=C5)cc3)CC[C@@H]3CCCC[C@@H]32)C1
REMARK SMILES IDX 15 1 14 2 13 3 12 4 10 5 11 6 9 8 8 9 90 10 83 12 85 13
REMARK SMILES IDX 89 14 84 15 86 16 88 17 87 18 7 19 5 20 4 21 6 22 3 23 2 24
REMARK SMILES IDX 91 25 1 26 16 27 17 28 18 29 19 31 20 32 21 33 82 34 22 35
REMARK SMILES IDX 81 36 23 37 24 38 25 39 75 40 26 41 80 42 74 43 76 44 27 45
REMARK SMILES IDX 79 46 73 47 72 48 28 50 60 51 40 52 59 53 41 54 44 55 58 56
REMARK SMILES IDX 77 57 42 58 43 59 57 61 78 62 45 63 29 64 30 65 38 66 31 67
REMARK SMILES IDX 32 68 36 69 39 70 33 71 34 72 37 73 35 74 61 75 62 76 70 77
REMARK SMILES IDX 63 78 64 79 68 80 71 81 65 82 66 83 69 84 67 85 46 86 47 87
REMARK SMILES IDX 55 88 48 89 49 90 53 91 56 92 50 93 51 94 54 95 52 96
REMARK H PARENT 12 7 8 11 17 30 76 49 44 60
REMARK Flexibility Score: inf
ROOT
ATOM      1  C   UNL A   1      31.373  32.290  26.845  1.00  0.00     0.023 C 
ENDROOT
BRANCH   1   2
ATOM      2  C   UNL A   1      31.650  30.955  26.153  1.00  0.00     0.023 C 
BRANCH   2   3
ATOM      3  C   UNL A   1      32.151  29.856  27.085  1.00  0.00     0.116 C 
BRANCH   3   4
ATOM      4  N   UNL A   1      33.488  29.421  26.735  1.00  0.00    -0.351 N 
ATOM      5  C   UNL A   1      33.860  28.485  25.800  1.00  0.00     0.278 C 
ATOM      6  O   UNL A   1      35.067  28.278  25.673  1.00  0.00    -0.268 OA
ATOM      7  H   UNL A   1      34.223  29.850  27.230  1.00  0.00     0.163 HD
BRANCH   5   8
ATOM      8  C   UNL A   1      32.737  27.791  24.961  1.00  0.00     0.274 C 
ATOM      9  N   UNL A   1      32.821  26.280  24.918  1.00  0.00    -0.320 N 
ATOM     10  C   UNL A   1      33.963  25.848  24.064  1.00  0.00     0.188 C 
ATOM     11  H   UNL A   1      32.268  25.621  24.370  1.00  0.00     0.349 HD
ATOM     12  C   UNL A   1      32.579  28.434  23.594  1.00  0.00     0.076 C 
ATOM     13  C   UNL A   1      33.826  26.465  22.622  1.00  0.00     0.048 C 
ATOM     14  C   UNL A   1      34.433  24.403  23.762  1.00  0.00     0.065 C 
ATOM     15  C   UNL A   1      33.634  27.980  22.616  1.00  0.00     0.016 C 
ATOM     16  C   UNL A   1      32.719  25.784  21.801  1.00  0.00     0.010 C 
ATOM     17  C   UNL A   1      33.817  23.579  22.620  1.00  0.00     0.006 C 
ATOM     18  C   UNL A   1      32.924  24.288  21.609  1.00  0.00     0.001 C 
BRANCH   9  19
ATOM     19  C   UNL A   1      32.240  25.795  26.206  1.00  0.00     0.185 C 
ATOM     20  C   UNL A   1      29.736  25.645  24.317  1.00  0.00     0.008 C 
ATOM     21  C   UNL A   1      29.689  25.676  25.824  1.00  0.00    -0.008 C 
ATOM     22  C   UNL A   1      30.859  26.479  26.390  1.00  0.00     0.068 C 
ATOM     23  C   UNL A   1      29.625  24.246  26.378  1.00  0.00     0.007 C 
ATOM     24  C   UNL A   1      30.963  23.519  26.630  1.00  0.00    -0.008 C 
ATOM     25  C   UNL A   1      32.165  24.424  26.895  1.00  0.00     0.068 C 
ATOM     26  C   UNL A   1      31.338  22.431  25.633  1.00  0.00     0.008 C 
ENDBRANCH   9  19
ENDBRANCH   5   8
ENDBRANCH   3   4
ENDBRANCH   2   3
ENDBRANCH   1   2
BRANCH   1  27
ATOM     27  C   UNL A   1      32.606  33.006  27.388  1.00  0.00     0.116 C 
BRANCH  27  28
ATOM     28  N   UNL A   1      32.362  34.399  27.730  1.00  0.00    -0.352 N 
ATOM     29  C   UNL A   1      33.004  35.180  28.666  1.00  0.00     0.251 C 
ATOM     30  H   UNL A   1      31.645  34.843  27.223  1.00  0.00     0.163 HD
ATOM     31  O   UNL A   1      32.608  36.305  28.918  1.00  0.00    -0.269 OA
BRANCH  29  32
ATOM     32  C   UNL A   1      34.158  34.611  29.393  1.00  0.00     0.039 A 
ATOM     33  C   UNL A   1      33.940  33.989  30.623  1.00  0.00     0.014 A 
ATOM     34  C   UNL A   1      35.436  34.643  28.831  1.00  0.00     0.014 A 
ATOM     35  C   UNL A   1      34.993  33.328  31.255  1.00  0.00     0.010 A 
ATOM     36  C   UNL A   1      36.464  33.916  29.420  1.00  0.00     0.010 A 
ATOM     37  C   UNL A   1      36.252  33.248  30.636  1.00  0.00    -0.014 A 
BRANCH  37  38
ATOM     38  C   UNL A   1      37.361  32.465  31.237  1.00  0.00     0.031 A 
ATOM     39  C   UNL A   1      37.884  32.827  32.599  1.00  0.00     0.074 A 
ATOM     40  C   UNL A   1      37.945  31.480  30.528  1.00  0.00     0.049 A 
ATOM     41  N   UNL A   1      38.897  32.324  33.257  1.00  0.00    -0.248 NA
ATOM     42  C   UNL A   1      37.194  33.919  33.303  1.00  0.00     0.031 C 
ATOM     43  C   UNL A   1      37.559  31.067  29.178  1.00  0.00     0.029 A 
ATOM     44  N   UNL A   1      38.999  30.657  30.837  1.00  0.00    -0.354 N 
ATOM     45  C   UNL A   1      38.973  33.047  34.441  1.00  0.00     0.074 A 
ATOM     46  C   UNL A   1      37.943  34.060  34.386  1.00  0.00     0.031 C 
ATOM     47  C   UNL A   1      38.348  30.054  28.784  1.00  0.00     0.029 A 
ATOM     48  C   UNL A   1      39.327  29.778  29.832  1.00  0.00     0.049 A 
ATOM     49  H   UNL A   1      39.476  30.693  31.697  1.00  0.00     0.167 HD
ATOM     50  C   UNL A   1      39.811  32.864  35.489  1.00  0.00     0.037 A 
ATOM     51  C   UNL A   1      40.312  28.863  29.760  1.00  0.00     0.037 A 
ATOM     52  C   UNL A   1      40.822  31.842  35.545  1.00  0.00     0.049 A 
ATOM     53  C   UNL A   1      41.245  28.697  30.929  1.00  0.00     0.074 A 
ATOM     54  C   UNL A   1      41.681  31.536  36.587  1.00  0.00     0.029 A 
ATOM     55  N   UNL A   1      41.115  30.962  34.513  1.00  0.00    -0.354 N 
ATOM     56  N   UNL A   1      41.260  29.336  32.074  1.00  0.00    -0.248 NA
ATOM     57  C   UNL A   1      42.296  27.679  30.798  1.00  0.00     0.031 C 
ATOM     58  C   UNL A   1      42.534  30.512  36.163  1.00  0.00     0.029 A 
ATOM     59  C   UNL A   1      42.163  30.134  34.882  1.00  0.00     0.049 A 
ATOM     60  H   UNL A   1      40.648  30.931  33.646  1.00  0.00     0.167 HD
ATOM     61  C   UNL A   1      42.297  28.776  32.810  1.00  0.00     0.074 A 
ATOM     62  C   UNL A   1      42.879  27.737  31.987  1.00  0.00     0.031 C 
ATOM     63  C   UNL A   1      42.726  29.095  34.056  1.00  0.00     0.037 A 
BRANCH  50  64
ATOM     64  C   UNL A   1      39.671  33.794  36.660  1.00  0.00     0.064 A 
ATOM     65  C   UNL A   1      40.321  35.037  36.698  1.00  0.00     0.173 A 
ATOM     66  C   UNL A   1      38.846  33.454  37.744  1.00  0.00     0.173 A 
ATOM     67  F   UNL A   1      41.129  35.407  35.693  1.00  0.00    -0.203 F 
ATOM     68  C   UNL A   1      40.177  35.890  37.789  1.00  0.00     0.198 A 
ATOM     69  C   UNL A   1      38.678  34.325  38.818  1.00  0.00     0.198 A 
ATOM     70  F   UNL A   1      38.195  32.282  37.758  1.00  0.00    -0.203 F 
ATOM     71  F   UNL A   1      40.852  37.047  37.825  1.00  0.00    -0.200 F 
ATOM     72  C   UNL A   1      39.350  35.537  38.844  1.00  0.00     0.200 A 
ATOM     73  F   UNL A   1      37.865  33.989  39.829  1.00  0.00    -0.200 F 
ATOM     74  F   UNL A   1      39.206  36.363  39.889  1.00  0.00    -0.200 F 
ENDBRANCH  50  64
BRANCH  51  75
ATOM     75  C   UNL A   1      40.460  28.024  28.540  1.00  0.00     0.064 A 
ATOM     76  C   UNL A   1      39.848  26.765  28.454  1.00  0.00     0.173 A 
ATOM     77  C   UNL A   1      41.221  28.454  27.444  1.00  0.00     0.173 A 
ATOM     78  F   UNL A   1      39.127  26.300  29.485  1.00  0.00    -0.203 F 
ATOM     79  C   UNL A   1      40.011  25.960  27.329  1.00  0.00     0.198 A 
ATOM     80  C   UNL A   1      41.356  27.662  26.305  1.00  0.00     0.198 A 
ATOM     81  F   UNL A   1      41.822  29.652  27.471  1.00  0.00    -0.203 F 
ATOM     82  F   UNL A   1      39.457  24.740  27.295  1.00  0.00    -0.200 F 
ATOM     83  C   UNL A   1      40.760  26.411  26.252  1.00  0.00     0.200 A 
ATOM     84  F   UNL A   1      42.067  28.110  25.262  1.00  0.00    -0.200 F 
ATOM     85  F   UNL A   1      40.913  25.639  25.169  1.00  0.00    -0.200 F 
ENDBRANCH  51  75
BRANCH  63  86
ATOM     86  C   UNL A   1      43.854  28.285  34.630  1.00  0.00     0.064 A 
ATOM     87  C   UNL A   1      43.635  27.044  35.244  1.00  0.00     0.173 A 
ATOM     88  C   UNL A   1      45.178  28.737  34.514  1.00  0.00     0.173 A 
ATOM     89  F   UNL A   1      42.388  26.574  35.393  1.00  0.00    -0.203 F 
ATOM     90  C   UNL A   1      44.699  26.295  35.741  1.00  0.00     0.198 A 
ATOM     91  C   UNL A   1      46.241  27.969  34.982  1.00  0.00     0.198 A 
ATOM     92  F   UNL A   1      45.443  29.915  33.928  1.00  0.00    -0.203 F 
ATOM     93  F   UNL A   1      44.462  25.133  36.366  1.00  0.00    -0.200 F 
ATOM     94  C   UNL A   1      46.000  26.753  35.601  1.00  0.00     0.200 A 
ATOM     95  F   UNL A   1      47.499  28.406  34.828  1.00  0.00    -0.200 F 
ATOM     96  F   UNL A   1      47.023  26.024  36.068  1.00  0.00    -0.200 F 
ENDBRANCH  63  86
ENDBRANCH  37  38
ENDBRANCH  29  32
ENDBRANCH  27  28
ENDBRANCH   1  27
TORSDOF 12
ENDMDL
