MODEL 1
REMARK VINA RESULT:     -13.0      0.000      0.000
REMARK SMILES COc1ccc(-c2cc([C@@H]3CC[N@@H+](CC(=O)NCCCCNC(=O)c4ccc(-c5c6nc(c(-c7c(F)c(F)c(F)c(F)c7F)c7ccc([nH]7)c(-c7c(F)c(F)c(F)c(F)c7F)c7nc(c(-c8c(F)c(F)c(F)c(F)c8F)c8ccc5[nH]8)C=C7)C=C6)cc4)C3)ccn2)c2ccc(C)nc12
REMARK SMILES IDX 18 1 17 2 15 3 16 4 14 6 13 7 10 8 11 9 88 10 12 11 9 13
REMARK SMILES IDX 7 14 8 15 91 16 90 17 89 18 6 19 3 20 4 21 98 22 5 23 92 24
REMARK SMILES IDX 97 25 93 26 95 27 94 28 96 29 2 30 1 31 19 32 20 33 21 34
REMARK SMILES IDX 22 35 23 36 24 38 25 39 26 40 87 41 27 42 86 43 28 44 29 45
REMARK SMILES IDX 30 46 80 47 31 48 85 49 79 50 81 51 32 52 84 53 78 54 77 55
REMARK SMILES IDX 33 57 65 58 45 59 64 60 46 61 49 62 63 63 82 64 47 65 48 66
REMARK SMILES IDX 62 68 83 69 50 70 34 71 35 72 43 73 36 74 37 75 41 76 44 77
REMARK SMILES IDX 38 78 39 79 42 80 40 81 66 82 67 83 75 84 68 85 69 86 73 87
REMARK SMILES IDX 76 88 70 89 71 90 74 91 72 92 51 93 52 94 60 95 53 96 54 97
REMARK SMILES IDX 58 98 61 99 55 100 56 101 59 102 57 103
REMARK H PARENT 17 5 13 12 22 37 81 56 49 67
REMARK Flexibility Score: inf
ROOT
ATOM      1  C   UNL A   1      35.091  33.231  27.967  1.00  0.00     0.116 C 
ENDROOT
BRANCH   1   2
ATOM      2  N   UNL A   1      35.766  31.943  28.044  1.00  0.00    -0.351 N 
ATOM      3  C   UNL A   1      35.398  30.679  27.667  1.00  0.00     0.275 C 
ATOM      4  O   UNL A   1      36.221  29.778  27.866  1.00  0.00    -0.269 OA
ATOM      5  H   UNL A   1      36.664  31.990  28.446  1.00  0.00     0.163 HD
BRANCH   3   6
ATOM      6  C   UNL A   1      34.023  30.367  27.057  1.00  0.00     0.363 C 
BRANCH   6   7
ATOM      7  N   UNL A   1      33.948  29.128  26.236  1.00  0.00    -0.327 N 
ATOM      8  C   UNL A   1      31.974  27.668  26.112  1.00  0.00     0.080 C 
ATOM      9  C   UNL A   1      31.799  28.926  25.265  1.00  0.00     0.075 C 
ATOM     10  C   UNL A   1      33.292  27.966  26.877  1.00  0.00     0.271 C 
ATOM     11  C   UNL A   1      33.235  29.370  24.994  1.00  0.00     0.263 C 
ATOM     12  H   UNL A   1      34.930  28.891  26.094  1.00  0.00     0.348 HD
BRANCH   8  13
ATOM     13  C   UNL A   1      31.947  26.490  25.150  1.00  0.00    -0.035 A 
ATOM     14  C   UNL A   1      33.079  24.542  24.227  1.00  0.00     0.071 A 
ATOM     15  C   UNL A   1      32.910  25.488  25.235  1.00  0.00     0.033 A 
ATOM     16  N   UNL A   1      32.297  24.548  23.126  1.00  0.00    -0.256 NA
ATOM     17  C   UNL A   1      31.330  25.496  23.065  1.00  0.00     0.112 A 
ATOM     18  C   UNL A   1      31.120  26.475  24.031  1.00  0.00     0.024 A 
BRANCH  14  19
ATOM     19  C   UNL A   1      34.202  23.579  24.296  1.00  0.00     0.010 A 
ATOM     20  C   UNL A   1      36.354  21.834  24.723  1.00  0.00     0.145 A 
ATOM     21  C   UNL A   1      36.573  23.212  24.662  1.00  0.00     0.049 A 
ATOM     22  C   UNL A   1      35.067  21.281  24.618  1.00  0.00     0.113 A 
ATOM     23  C   UNL A   1      35.507  24.077  24.449  1.00  0.00     0.015 A 
ATOM     24  C   UNL A   1      33.992  22.159  24.353  1.00  0.00     0.013 A 
ATOM     25  N   UNL A   1      34.862  19.948  24.783  1.00  0.00    -0.249 NA
ATOM     26  C   UNL A   1      32.726  21.552  24.173  1.00  0.00     0.013 A 
ATOM     27  C   UNL A   1      33.620  19.425  24.683  1.00  0.00     0.038 A 
ATOM     28  C   UNL A   1      32.526  20.195  24.365  1.00  0.00     0.024 A 
ATOM     29  C   UNL A   1      33.484  17.947  24.871  1.00  0.00     0.067 C 
BRANCH  20  30
ATOM     30  O   UNL A   1      37.498  21.095  24.947  1.00  0.00    -0.494 OA
ATOM     31  C   UNL A   1      38.459  21.780  25.752  1.00  0.00     0.278 C 
ENDBRANCH  20  30
ENDBRANCH  14  19
ENDBRANCH   8  13
ENDBRANCH   6   7
ENDBRANCH   3   6
ENDBRANCH   1   2
BRANCH   1  32
ATOM     32  C   UNL A   1      34.238  33.603  29.192  1.00  0.00     0.023 C 
BRANCH  32  33
ATOM     33  C   UNL A   1      33.111  34.600  28.957  1.00  0.00     0.023 C 
BRANCH  33  34
ATOM     34  C   UNL A   1      33.388  35.921  29.630  1.00  0.00     0.116 C 
BRANCH  34  35
ATOM     35  N   UNL A   1      32.470  36.155  30.740  1.00  0.00    -0.352 N 
ATOM     36  C   UNL A   1      32.550  35.725  32.035  1.00  0.00     0.251 C 
ATOM     37  H   UNL A   1      31.679  36.702  30.524  1.00  0.00     0.163 HD
ATOM     38  O   UNL A   1      31.615  35.883  32.803  1.00  0.00    -0.269 OA
BRANCH  36  39
ATOM     39  C   UNL A   1      33.772  35.032  32.469  1.00  0.00     0.039 A 
ATOM     40  C   UNL A   1      33.670  33.711  32.902  1.00  0.00     0.014 A 
ATOM     41  C   UNL A   1      35.010  35.675  32.404  1.00  0.00     0.014 A 
ATOM     42  C   UNL A   1      34.828  33.022  33.242  1.00  0.00     0.010 A 
ATOM     43  C   UNL A   1      36.168  34.952  32.623  1.00  0.00     0.010 A 
ATOM     44  C   UNL A   1      36.083  33.632  33.080  1.00  0.00    -0.014 A 
BRANCH  44  45
ATOM     45  C   UNL A   1      37.323  32.918  33.438  1.00  0.00     0.031 A 
ATOM     46  C   UNL A   1      38.006  33.233  34.737  1.00  0.00     0.074 A 
ATOM     47  C   UNL A   1      37.840  32.029  32.571  1.00  0.00     0.049 A 
ATOM     48  N   UNL A   1      39.112  32.741  35.228  1.00  0.00    -0.248 NA
ATOM     49  C   UNL A   1      37.386  34.268  35.582  1.00  0.00     0.031 C 
ATOM     50  C   UNL A   1      37.280  31.704  31.257  1.00  0.00     0.029 A 
ATOM     51  N   UNL A   1      38.949  31.233  32.667  1.00  0.00    -0.354 N 
ATOM     52  C   UNL A   1      39.321  33.413  36.424  1.00  0.00     0.074 A 
ATOM     53  C   UNL A   1      38.277  34.401  36.552  1.00  0.00     0.031 C 
ATOM     54  C   UNL A   1      38.028  30.747  30.687  1.00  0.00     0.029 A 
ATOM     55  C   UNL A   1      39.137  30.423  31.576  1.00  0.00     0.049 A 
ATOM     56  H   UNL A   1      39.554  31.242  33.444  1.00  0.00     0.167 HD
ATOM     57  C   UNL A   1      40.284  33.197  37.351  1.00  0.00     0.037 A 
ATOM     58  C   UNL A   1      40.101  29.518  31.331  1.00  0.00     0.037 A 
ATOM     59  C   UNL A   1      41.300  32.189  37.217  1.00  0.00     0.049 A 
ATOM     60  C   UNL A   1      41.154  29.291  32.383  1.00  0.00     0.074 A 
ATOM     61  C   UNL A   1      42.292  31.838  38.113  1.00  0.00     0.029 A 
ATOM     62  N   UNL A   1      41.452  31.368  36.106  1.00  0.00    -0.354 N 
ATOM     63  N   UNL A   1      41.301  29.875  33.548  1.00  0.00    -0.248 NA
ATOM     64  C   UNL A   1      42.164  28.268  32.091  1.00  0.00     0.031 C 
ATOM     65  C   UNL A   1      43.080  30.845  37.522  1.00  0.00     0.029 A 
ATOM     66  C   UNL A   1      42.537  30.528  36.285  1.00  0.00     0.049 A 
ATOM     67  H   UNL A   1      40.872  31.382  35.311  1.00  0.00     0.167 HD
ATOM     68  C   UNL A   1      42.400  29.271  34.142  1.00  0.00     0.074 A 
ATOM     69  C   UNL A   1      42.867  28.261  33.215  1.00  0.00     0.031 C 
ATOM     70  C   UNL A   1      42.974  29.528  35.344  1.00  0.00     0.037 A 
BRANCH  57  71
ATOM     71  C   UNL A   1      40.277  34.064  38.578  1.00  0.00     0.064 A 
ATOM     72  C   UNL A   1      41.005  35.262  38.641  1.00  0.00     0.173 A 
ATOM     73  C   UNL A   1      39.514  33.703  39.698  1.00  0.00     0.173 A 
ATOM     74  F   UNL A   1      41.766  35.648  37.605  1.00  0.00    -0.203 F 
ATOM     75  C   UNL A   1      40.996  36.049  39.790  1.00  0.00     0.198 A 
ATOM     76  C   UNL A   1      39.479  34.510  40.833  1.00  0.00     0.198 A 
ATOM     77  F   UNL A   1      38.801  32.567  39.694  1.00  0.00    -0.203 F 
ATOM     78  F   UNL A   1      41.747  37.157  39.849  1.00  0.00    -0.200 F 
ATOM     79  C   UNL A   1      40.227  35.677  40.882  1.00  0.00     0.200 A 
ATOM     80  F   UNL A   1      38.725  34.154  41.882  1.00  0.00    -0.200 F 
ATOM     81  F   UNL A   1      40.212  36.438  41.984  1.00  0.00    -0.200 F 
ENDBRANCH  57  71
BRANCH  58  82
ATOM     82  C   UNL A   1      40.093  28.744  30.063  1.00  0.00     0.064 A 
ATOM     83  C   UNL A   1      40.701  29.247  28.905  1.00  0.00     0.173 A 
ATOM     84  C   UNL A   1      39.479  27.486  29.981  1.00  0.00     0.173 A 
ATOM     85  F   UNL A   1      41.292  30.452  28.928  1.00  0.00    -0.203 F 
ATOM     86  C   UNL A   1      40.668  28.537  27.706  1.00  0.00     0.198 A 
ATOM     87  C   UNL A   1      39.476  26.761  28.791  1.00  0.00     0.198 A 
ATOM     88  F   UNL A   1      38.894  26.951  31.064  1.00  0.00    -0.203 F 
ATOM     89  F   UNL A   1      41.211  29.066  26.602  1.00  0.00    -0.200 F 
ATOM     90  C   UNL A   1      40.060  27.292  27.652  1.00  0.00     0.200 A 
ATOM     91  F   UNL A   1      38.905  25.549  28.749  1.00  0.00    -0.200 F 
ATOM     92  F   UNL A   1      40.032  26.607  26.501  1.00  0.00    -0.200 F 
ENDBRANCH  58  82
BRANCH  70  93
ATOM     93  C   UNL A   1      44.142  28.669  35.736  1.00  0.00     0.064 A 
ATOM     94  C   UNL A   1      45.462  29.026  35.422  1.00  0.00     0.173 A 
ATOM     95  C   UNL A   1      43.936  27.484  36.459  1.00  0.00     0.173 A 
ATOM     96  F   UNL A   1      45.712  30.144  34.722  1.00  0.00    -0.203 F 
ATOM     97  C   UNL A   1      46.528  28.206  35.780  1.00  0.00     0.198 A 
ATOM     98  C   UNL A   1      45.008  26.687  36.850  1.00  0.00     0.198 A 
ATOM     99  F   UNL A   1      42.694  27.103  36.795  1.00  0.00    -0.203 F 
ATOM    100  F   UNL A   1      47.774  28.532  35.410  1.00  0.00    -0.200 F 
ATOM    101  C   UNL A   1      46.301  27.042  36.499  1.00  0.00     0.200 A 
ATOM    102  F   UNL A   1      44.787  25.573  37.561  1.00  0.00    -0.200 F 
ATOM    103  F   UNL A   1      47.330  26.256  36.846  1.00  0.00    -0.200 F 
ENDBRANCH  70  93
ENDBRANCH  44  45
ENDBRANCH  36  39
ENDBRANCH  34  35
ENDBRANCH  33  34
ENDBRANCH  32  33
ENDBRANCH   1  32
TORSDOF 15
ENDMDL
MODEL 2
REMARK VINA RESULT:     -12.5      6.070     12.226
REMARK SMILES COc1ccc(-c2cc([C@@H]3CC[N@@H+](CC(=O)NCCCCNC(=O)c4ccc(-c5c6nc(c(-c7c(F)c(F)c(F)c(F)c7F)c7ccc([nH]7)c(-c7c(F)c(F)c(F)c(F)c7F)c7nc(c(-c8c(F)c(F)c(F)c(F)c8F)c8ccc5[nH]8)C=C7)C=C6)cc4)C3)ccn2)c2ccc(C)nc12
REMARK SMILES IDX 18 1 17 2 15 3 16 4 14 6 13 7 10 8 11 9 88 10 12 11 9 13
REMARK SMILES IDX 7 14 8 15 91 16 90 17 89 18 6 19 3 20 4 21 98 22 5 23 92 24
REMARK SMILES IDX 97 25 93 26 95 27 94 28 96 29 2 30 1 31 19 32 20 33 21 34
REMARK SMILES IDX 22 35 23 36 24 38 25 39 26 40 87 41 27 42 86 43 28 44 29 45
REMARK SMILES IDX 30 46 80 47 31 48 85 49 79 50 81 51 32 52 84 53 78 54 77 55
REMARK SMILES IDX 33 57 65 58 45 59 64 60 46 61 49 62 63 63 82 64 47 65 48 66
REMARK SMILES IDX 62 68 83 69 50 70 34 71 35 72 43 73 36 74 37 75 41 76 44 77
REMARK SMILES IDX 38 78 39 79 42 80 40 81 66 82 67 83 75 84 68 85 69 86 73 87
REMARK SMILES IDX 76 88 70 89 71 90 74 91 72 92 51 93 52 94 60 95 53 96 54 97
REMARK SMILES IDX 58 98 61 99 55 100 56 101 59 102 57 103
REMARK H PARENT 17 5 13 12 22 37 81 56 49 67
REMARK Flexibility Score: inf
ROOT
ATOM      1  C   UNL A   1      39.557  21.687  26.116  1.00  0.00     0.116 C 
ENDROOT
BRANCH   1   2
ATOM      2  N   UNL A   1      38.572  20.664  25.795  1.00  0.00    -0.351 N 
ATOM      3  C   UNL A   1      37.478  20.656  24.973  1.00  0.00     0.275 C 
ATOM      4  O   UNL A   1      36.836  19.601  24.913  1.00  0.00    -0.269 OA
ATOM      5  H   UNL A   1      38.724  19.809  26.260  1.00  0.00     0.163 HD
BRANCH   3   6
ATOM      6  C   UNL A   1      37.030  21.895  24.183  1.00  0.00     0.363 C 
BRANCH   6   7
ATOM      7  N   UNL A   1      35.865  22.631  24.744  1.00  0.00    -0.327 N 
ATOM      8  C   UNL A   1      33.524  22.181  24.142  1.00  0.00     0.080 C 
ATOM      9  C   UNL A   1      34.065  21.139  25.117  1.00  0.00     0.075 C 
ATOM     10  C   UNL A   1      34.800  22.988  23.780  1.00  0.00     0.271 C 
ATOM     11  C   UNL A   1      35.224  21.864  25.798  1.00  0.00     0.263 C 
ATOM     12  H   UNL A   1      36.284  23.498  25.079  1.00  0.00     0.348 HD
BRANCH   8  13
ATOM     13  C   UNL A   1      32.393  22.901  24.859  1.00  0.00    -0.035 A 
ATOM     14  C   UNL A   1      31.512  24.974  25.782  1.00  0.00     0.071 A 
ATOM     15  C   UNL A   1      32.371  24.292  24.926  1.00  0.00     0.033 A 
ATOM     16  N   UNL A   1      30.644  24.311  26.576  1.00  0.00    -0.256 NA
ATOM     17  C   UNL A   1      30.633  22.959  26.477  1.00  0.00     0.112 A 
ATOM     18  C   UNL A   1      31.475  22.219  25.653  1.00  0.00     0.024 A 
BRANCH  14  19
ATOM     19  C   UNL A   1      31.617  26.446  25.920  1.00  0.00     0.010 A 
ATOM     20  C   UNL A   1      32.098  29.204  26.055  1.00  0.00     0.145 A 
ATOM     21  C   UNL A   1      32.746  28.337  26.938  1.00  0.00     0.049 A 
ATOM     22  C   UNL A   1      31.229  28.734  25.056  1.00  0.00     0.113 A 
ATOM     23  C   UNL A   1      32.507  26.970  26.871  1.00  0.00     0.015 A 
ATOM     24  C   UNL A   1      30.950  27.349  25.023  1.00  0.00     0.013 A 
ATOM     25  N   UNL A   1      30.688  29.582  24.143  1.00  0.00    -0.249 NA
ATOM     26  C   UNL A   1      30.007  26.929  24.054  1.00  0.00     0.013 A 
ATOM     27  C   UNL A   1      29.855  29.120  23.184  1.00  0.00     0.038 A 
ATOM     28  C   UNL A   1      29.479  27.799  23.115  1.00  0.00     0.024 A 
ATOM     29  C   UNL A   1      29.298  30.123  22.222  1.00  0.00     0.067 C 
BRANCH  20  30
ATOM     30  O   UNL A   1      32.433  30.531  26.227  1.00  0.00    -0.494 OA
ATOM     31  C   UNL A   1      33.421  30.733  27.238  1.00  0.00     0.278 C 
ENDBRANCH  20  30
ENDBRANCH  14  19
ENDBRANCH   8  13
ENDBRANCH   6   7
ENDBRANCH   3   6
ENDBRANCH   1   2
BRANCH   1  32
ATOM     32  C   UNL A   1      41.008  21.191  26.239  1.00  0.00     0.023 C 
BRANCH  32  33
ATOM     33  C   UNL A   1      41.234  19.699  26.027  1.00  0.00     0.023 C 
BRANCH  33  34
ATOM     34  C   UNL A   1      42.629  19.286  26.427  1.00  0.00     0.116 C 
BRANCH  34  35
ATOM     35  N   UNL A   1      43.429  18.920  25.264  1.00  0.00    -0.352 N 
ATOM     36  C   UNL A   1      44.249  19.700  24.496  1.00  0.00     0.251 C 
ATOM     37  H   UNL A   1      43.371  17.975  24.993  1.00  0.00     0.163 HD
ATOM     38  O   UNL A   1      44.730  19.268  23.461  1.00  0.00    -0.269 OA
BRANCH  36  39
ATOM     39  C   UNL A   1      44.504  21.083  24.926  1.00  0.00     0.039 A 
ATOM     40  C   UNL A   1      43.942  22.124  24.189  1.00  0.00     0.014 A 
ATOM     41  C   UNL A   1      45.258  21.339  26.074  1.00  0.00     0.014 A 
ATOM     42  C   UNL A   1      44.112  23.430  24.629  1.00  0.00     0.010 A 
ATOM     43  C   UNL A   1      45.322  22.625  26.577  1.00  0.00     0.010 A 
ATOM     44  C   UNL A   1      44.782  23.683  25.838  1.00  0.00    -0.014 A 
BRANCH  44  45
ATOM     45  C   UNL A   1      44.975  25.064  26.321  1.00  0.00     0.031 A 
ATOM     46  C   UNL A   1      46.334  25.694  26.225  1.00  0.00     0.074 A 
ATOM     47  C   UNL A   1      43.937  25.715  26.876  1.00  0.00     0.049 A 
ATOM     48  N   UNL A   1      46.723  26.881  26.611  1.00  0.00    -0.248 NA
ATOM     49  C   UNL A   1      47.413  24.868  25.656  1.00  0.00     0.031 C 
ATOM     50  C   UNL A   1      42.595  25.160  27.068  1.00  0.00     0.029 A 
ATOM     51  N   UNL A   1      43.848  26.986  27.376  1.00  0.00    -0.354 N 
ATOM     52  C   UNL A   1      48.083  26.934  26.343  1.00  0.00     0.074 A 
ATOM     53  C   UNL A   1      48.473  25.640  25.835  1.00  0.00     0.031 C 
ATOM     54  C   UNL A   1      41.806  26.101  27.609  1.00  0.00     0.029 A 
ATOM     55  C   UNL A   1      42.596  27.306  27.836  1.00  0.00     0.049 A 
ATOM     56  H   UNL A   1      44.610  27.610  27.403  1.00  0.00     0.167 HD
ATOM     57  C   UNL A   1      48.924  27.986  26.477  1.00  0.00     0.037 A 
ATOM     58  C   UNL A   1      42.144  28.451  28.378  1.00  0.00     0.037 A 
ATOM     59  C   UNL A   1      48.509  29.275  26.960  1.00  0.00     0.049 A 
ATOM     60  C   UNL A   1      43.098  29.608  28.506  1.00  0.00     0.074 A 
ATOM     61  C   UNL A   1      49.256  30.431  27.085  1.00  0.00     0.029 A 
ATOM     62  N   UNL A   1      47.226  29.574  27.400  1.00  0.00    -0.354 N 
ATOM     63  N   UNL A   1      44.366  29.676  28.178  1.00  0.00    -0.248 NA
ATOM     64  C   UNL A   1      42.554  30.849  29.067  1.00  0.00     0.031 C 
ATOM     65  C   UNL A   1      48.441  31.414  27.655  1.00  0.00     0.029 A 
ATOM     66  C   UNL A   1      47.167  30.891  27.820  1.00  0.00     0.049 A 
ATOM     67  H   UNL A   1      46.472  28.942  27.410  1.00  0.00     0.167 HD
ATOM     68  C   UNL A   1      44.764  30.975  28.462  1.00  0.00     0.074 A 
ATOM     69  C   UNL A   1      43.595  31.663  28.970  1.00  0.00     0.031 C 
ATOM     70  C   UNL A   1      45.985  31.549  28.318  1.00  0.00     0.037 A 
BRANCH  57  71
ATOM     71  C   UNL A   1      50.363  27.779  26.098  1.00  0.00     0.064 A 
ATOM     72  C   UNL A   1      51.350  27.509  27.059  1.00  0.00     0.173 A 
ATOM     73  C   UNL A   1      50.758  27.831  24.753  1.00  0.00     0.173 A 
ATOM     74  F   UNL A   1      51.033  27.465  28.362  1.00  0.00    -0.203 F 
ATOM     75  C   UNL A   1      52.682  27.332  26.691  1.00  0.00     0.198 A 
ATOM     76  C   UNL A   1      52.084  27.618  24.385  1.00  0.00     0.198 A 
ATOM     77  F   UNL A   1      49.857  28.088  23.792  1.00  0.00    -0.203 F 
ATOM     78  F   UNL A   1      53.616  27.135  27.632  1.00  0.00    -0.200 F 
ATOM     79  C   UNL A   1      53.046  27.378  25.354  1.00  0.00     0.200 A 
ATOM     80  F   UNL A   1      52.432  27.651  23.091  1.00  0.00    -0.200 F 
ATOM     81  F   UNL A   1      54.326  27.198  24.999  1.00  0.00    -0.200 F 
ENDBRANCH  57  71
BRANCH  58  82
ATOM     82  C   UNL A   1      40.725  28.566  28.801  1.00  0.00     0.064 A 
ATOM     83  C   UNL A   1      39.739  29.018  27.914  1.00  0.00     0.173 A 
ATOM     84  C   UNL A   1      40.322  28.225  30.101  1.00  0.00     0.173 A 
ATOM     85  F   UNL A   1      40.075  29.367  26.662  1.00  0.00    -0.203 F 
ATOM     86  C   UNL A   1      38.413  29.155  28.317  1.00  0.00     0.198 A 
ATOM     87  C   UNL A   1      38.989  28.330  30.494  1.00  0.00     0.198 A 
ATOM     88  F   UNL A   1      41.223  27.773  30.987  1.00  0.00    -0.203 F 
ATOM     89  F   UNL A   1      37.502  29.640  27.463  1.00  0.00    -0.200 F 
ATOM     90  C   UNL A   1      38.038  28.806  29.606  1.00  0.00     0.200 A 
ATOM     91  F   UNL A   1      38.629  27.972  31.735  1.00  0.00    -0.200 F 
ATOM     92  F   UNL A   1      36.762  28.934  29.994  1.00  0.00    -0.200 F 
ENDBRANCH  58  82
BRANCH  70  93
ATOM     93  C   UNL A   1      46.099  33.003  28.676  1.00  0.00     0.064 A 
ATOM     94  C   UNL A   1      46.448  33.422  29.969  1.00  0.00     0.173 A 
ATOM     95  C   UNL A   1      45.878  33.989  27.702  1.00  0.00     0.173 A 
ATOM     96  F   UNL A   1      46.658  32.519  30.939  1.00  0.00    -0.203 F 
ATOM     97  C   UNL A   1      46.530  34.776  30.283  1.00  0.00     0.198 A 
ATOM     98  C   UNL A   1      46.000  35.340  28.010  1.00  0.00     0.198 A 
ATOM     99  F   UNL A   1      45.553  33.642  26.448  1.00  0.00    -0.203 F 
ATOM    100  F   UNL A   1      46.799  35.153  31.540  1.00  0.00    -0.200 F 
ATOM    101  C   UNL A   1      46.314  35.733  29.302  1.00  0.00     0.200 A 
ATOM    102  F   UNL A   1      45.809  36.263  27.057  1.00  0.00    -0.200 F 
ATOM    103  F   UNL A   1      46.397  37.035  29.606  1.00  0.00    -0.200 F 
ENDBRANCH  70  93
ENDBRANCH  44  45
ENDBRANCH  36  39
ENDBRANCH  34  35
ENDBRANCH  33  34
ENDBRANCH  32  33
ENDBRANCH   1  32
TORSDOF 15
ENDMDL
MODEL 3
REMARK VINA RESULT:     -12.5      0.910      2.252
REMARK SMILES COc1ccc(-c2cc([C@@H]3CC[N@@H+](CC(=O)NCCCCNC(=O)c4ccc(-c5c6nc(c(-c7c(F)c(F)c(F)c(F)c7F)c7ccc([nH]7)c(-c7c(F)c(F)c(F)c(F)c7F)c7nc(c(-c8c(F)c(F)c(F)c(F)c8F)c8ccc5[nH]8)C=C7)C=C6)cc4)C3)ccn2)c2ccc(C)nc12
REMARK SMILES IDX 18 1 17 2 15 3 16 4 14 6 13 7 10 8 11 9 88 10 12 11 9 13
REMARK SMILES IDX 7 14 8 15 91 16 90 17 89 18 6 19 3 20 4 21 98 22 5 23 92 24
REMARK SMILES IDX 97 25 93 26 95 27 94 28 96 29 2 30 1 31 19 32 20 33 21 34
REMARK SMILES IDX 22 35 23 36 24 38 25 39 26 40 87 41 27 42 86 43 28 44 29 45
REMARK SMILES IDX 30 46 80 47 31 48 85 49 79 50 81 51 32 52 84 53 78 54 77 55
REMARK SMILES IDX 33 57 65 58 45 59 64 60 46 61 49 62 63 63 82 64 47 65 48 66
REMARK SMILES IDX 62 68 83 69 50 70 34 71 35 72 43 73 36 74 37 75 41 76 44 77
REMARK SMILES IDX 38 78 39 79 42 80 40 81 66 82 67 83 75 84 68 85 69 86 73 87
REMARK SMILES IDX 76 88 70 89 71 90 74 91 72 92 51 93 52 94 60 95 53 96 54 97
REMARK SMILES IDX 58 98 61 99 55 100 56 101 59 102 57 103
REMARK H PARENT 17 5 13 12 22 37 81 56 49 67
REMARK Flexibility Score: inf
ROOT
ATOM      1  C   UNL A   1      34.418  32.576  27.976  1.00  0.00     0.116 C 
ENDROOT
BRANCH   1   2
ATOM      2  N   UNL A   1      35.274  31.399  28.023  1.00  0.00    -0.351 N 
ATOM      3  C   UNL A   1      35.078  30.096  27.654  1.00  0.00     0.275 C 
ATOM      4  O   UNL A   1      36.028  29.322  27.819  1.00  0.00    -0.269 OA
ATOM      5  H   UNL A   1      36.169  31.575  28.392  1.00  0.00     0.163 HD
BRANCH   3   6
ATOM      6  C   UNL A   1      33.740  29.589  27.093  1.00  0.00     0.363 C 
BRANCH   6   7
ATOM      7  N   UNL A   1      33.828  28.427  26.168  1.00  0.00    -0.327 N 
ATOM      8  C   UNL A   1      32.012  27.704  24.677  1.00  0.00     0.080 C 
ATOM      9  C   UNL A   1      32.738  28.928  24.127  1.00  0.00     0.075 C 
ATOM     10  C   UNL A   1      32.627  27.565  26.096  1.00  0.00     0.271 C 
ATOM     11  C   UNL A   1      34.103  28.863  24.810  1.00  0.00     0.263 C 
ATOM     12  H   UNL A   1      34.584  27.873  26.571  1.00  0.00     0.348 HD
BRANCH   8  13
ATOM     13  C   UNL A   1      32.237  26.581  23.677  1.00  0.00    -0.035 A 
ATOM     14  C   UNL A   1      32.929  24.283  23.263  1.00  0.00     0.071 A 
ATOM     15  C   UNL A   1      32.465  25.279  24.118  1.00  0.00     0.033 A 
ATOM     16  N   UNL A   1      33.162  24.536  21.957  1.00  0.00    -0.256 NA
ATOM     17  C   UNL A   1      32.897  25.791  21.519  1.00  0.00     0.112 A 
ATOM     18  C   UNL A   1      32.445  26.832  22.325  1.00  0.00     0.024 A 
BRANCH  14  19
ATOM     19  C   UNL A   1      33.286  22.951  23.803  1.00  0.00     0.010 A 
ATOM     20  C   UNL A   1      33.987  20.336  24.532  1.00  0.00     0.145 A 
ATOM     21  C   UNL A   1      32.716  20.603  24.020  1.00  0.00     0.049 A 
ATOM     22  C   UNL A   1      34.961  21.341  24.662  1.00  0.00     0.113 A 
ATOM     23  C   UNL A   1      32.368  21.898  23.659  1.00  0.00     0.015 A 
ATOM     24  C   UNL A   1      34.588  22.666  24.340  1.00  0.00     0.013 A 
ATOM     25  N   UNL A   1      36.223  21.044  25.066  1.00  0.00    -0.249 NA
ATOM     26  C   UNL A   1      35.574  23.658  24.563  1.00  0.00     0.013 A 
ATOM     27  C   UNL A   1      37.155  22.016  25.184  1.00  0.00     0.038 A 
ATOM     28  C   UNL A   1      36.863  23.340  24.954  1.00  0.00     0.024 A 
ATOM     29  C   UNL A   1      38.518  21.604  25.642  1.00  0.00     0.067 C 
BRANCH  20  30
ATOM     30  O   UNL A   1      34.199  19.008  24.841  1.00  0.00    -0.494 OA
ATOM     31  C   UNL A   1      33.523  18.113  23.958  1.00  0.00     0.278 C 
ENDBRANCH  20  30
ENDBRANCH  14  19
ENDBRANCH   8  13
ENDBRANCH   6   7
ENDBRANCH   3   6
ENDBRANCH   1   2
BRANCH   1  32
ATOM     32  C   UNL A   1      35.140  33.924  28.154  1.00  0.00     0.023 C 
BRANCH  32  33
ATOM     33  C   UNL A   1      34.328  35.050  28.782  1.00  0.00     0.023 C 
BRANCH  33  34
ATOM     34  C   UNL A   1      33.055  34.536  29.407  1.00  0.00     0.116 C 
BRANCH  34  35
ATOM     35  N   UNL A   1      32.574  35.434  30.450  1.00  0.00    -0.352 N 
ATOM     36  C   UNL A   1      33.015  35.583  31.736  1.00  0.00     0.251 C 
ATOM     37  H   UNL A   1      31.823  36.017  30.190  1.00  0.00     0.163 HD
ATOM     38  O   UNL A   1      32.399  36.276  32.529  1.00  0.00    -0.269 OA
BRANCH  36  39
ATOM     39  C   UNL A   1      34.224  34.856  32.150  1.00  0.00     0.039 A 
ATOM     40  C   UNL A   1      34.106  33.512  32.499  1.00  0.00     0.014 A 
ATOM     41  C   UNL A   1      35.467  35.494  32.150  1.00  0.00     0.014 A 
ATOM     42  C   UNL A   1      35.253  32.796  32.818  1.00  0.00     0.010 A 
ATOM     43  C   UNL A   1      36.616  34.752  32.347  1.00  0.00     0.010 A 
ATOM     44  C   UNL A   1      36.514  33.407  32.719  1.00  0.00    -0.014 A 
BRANCH  44  45
ATOM     45  C   UNL A   1      37.744  32.663  33.057  1.00  0.00     0.031 A 
ATOM     46  C   UNL A   1      38.453  32.961  34.345  1.00  0.00     0.074 A 
ATOM     47  C   UNL A   1      38.226  31.764  32.181  1.00  0.00     0.049 A 
ATOM     48  N   UNL A   1      39.556  32.442  34.819  1.00  0.00    -0.248 NA
ATOM     49  C   UNL A   1      37.870  34.008  35.202  1.00  0.00     0.031 C 
ATOM     50  C   UNL A   1      37.639  31.455  30.875  1.00  0.00     0.029 A 
ATOM     51  N   UNL A   1      39.318  30.943  32.258  1.00  0.00    -0.354 N 
ATOM     52  C   UNL A   1      39.798  33.107  36.013  1.00  0.00     0.074 A 
ATOM     53  C   UNL A   1      38.779  34.119  36.158  1.00  0.00     0.031 C 
ATOM     54  C   UNL A   1      38.355  30.482  30.292  1.00  0.00     0.029 A 
ATOM     55  C   UNL A   1      39.470  30.131  31.164  1.00  0.00     0.049 A 
ATOM     56  H   UNL A   1      39.935  30.937  33.027  1.00  0.00     0.167 HD
ATOM     57  C   UNL A   1      40.770  32.867  36.924  1.00  0.00     0.037 A 
ATOM     58  C   UNL A   1      40.410  29.204  30.903  1.00  0.00     0.037 A 
ATOM     59  C   UNL A   1      41.760  31.837  36.773  1.00  0.00     0.049 A 
ATOM     60  C   UNL A   1      41.473  28.951  31.937  1.00  0.00     0.074 A 
ATOM     61  C   UNL A   1      42.757  31.462  37.653  1.00  0.00     0.029 A 
ATOM     62  N   UNL A   1      41.876  31.015  35.659  1.00  0.00    -0.354 N 
ATOM     63  N   UNL A   1      41.651  29.530  33.101  1.00  0.00    -0.248 NA
ATOM     64  C   UNL A   1      42.455  27.906  31.629  1.00  0.00     0.031 C 
ATOM     65  C   UNL A   1      43.513  30.452  37.048  1.00  0.00     0.029 A 
ATOM     66  C   UNL A   1      42.944  30.150  35.820  1.00  0.00     0.049 A 
ATOM     67  H   UNL A   1      41.285  31.044  34.873  1.00  0.00     0.167 HD
ATOM     68  C   UNL A   1      42.746  28.900  33.677  1.00  0.00     0.074 A 
ATOM     69  C   UNL A   1      43.174  27.881  32.741  1.00  0.00     0.031 C 
ATOM     70  C   UNL A   1      43.344  29.141  34.871  1.00  0.00     0.037 A 
BRANCH  57  71
ATOM     71  C   UNL A   1      40.802  33.733  38.152  1.00  0.00     0.064 A 
ATOM     72  C   UNL A   1      41.646  34.850  38.248  1.00  0.00     0.173 A 
ATOM     73  C   UNL A   1      39.961  33.453  39.240  1.00  0.00     0.173 A 
ATOM     74  F   UNL A   1      42.483  35.155  37.245  1.00  0.00    -0.203 F 
ATOM     75  C   UNL A   1      41.670  35.635  39.398  1.00  0.00     0.198 A 
ATOM     76  C   UNL A   1      39.963  34.261  40.374  1.00  0.00     0.198 A 
ATOM     77  F   UNL A   1      39.136  32.396  39.203  1.00  0.00    -0.203 F 
ATOM     78  F   UNL A   1      42.527  36.661  39.490  1.00  0.00    -0.200 F 
ATOM     79  C   UNL A   1      40.823  35.345  40.457  1.00  0.00     0.200 A 
ATOM     80  F   UNL A   1      39.134  33.985  41.391  1.00  0.00    -0.200 F 
ATOM     81  F   UNL A   1      40.841  36.105  41.560  1.00  0.00    -0.200 F 
ENDBRANCH  57  71
BRANCH  58  82
ATOM     82  C   UNL A   1      40.364  28.433  29.634  1.00  0.00     0.064 A 
ATOM     83  C   UNL A   1      39.615  27.253  29.531  1.00  0.00     0.173 A 
ATOM     84  C   UNL A   1      41.067  28.859  28.496  1.00  0.00     0.173 A 
ATOM     85  F   UNL A   1      38.935  26.797  30.594  1.00  0.00    -0.203 F 
ATOM     86  C   UNL A   1      39.595  26.512  28.351  1.00  0.00     0.198 A 
ATOM     87  C   UNL A   1      41.018  28.136  27.307  1.00  0.00     0.198 A 
ATOM     88  F   UNL A   1      41.788  29.989  28.536  1.00  0.00    -0.203 F 
ATOM     89  F   UNL A   1      38.913  25.360  28.298  1.00  0.00    -0.200 F 
ATOM     90  C   UNL A   1      40.292  26.957  27.239  1.00  0.00     0.200 A 
ATOM     91  F   UNL A   1      41.678  28.580  26.228  1.00  0.00    -0.200 F 
ATOM     92  F   UNL A   1      40.270  26.247  26.102  1.00  0.00    -0.200 F 
ENDBRANCH  58  82
BRANCH  70  93
ATOM     93  C   UNL A   1      44.498  28.255  35.244  1.00  0.00     0.064 A 
ATOM     94  C   UNL A   1      44.311  27.050  35.937  1.00  0.00     0.173 A 
ATOM     95  C   UNL A   1      45.806  28.608  34.878  1.00  0.00     0.173 A 
ATOM     96  F   UNL A   1      43.081  26.673  36.319  1.00  0.00    -0.203 F 
ATOM     97  C   UNL A   1      45.397  26.252  36.288  1.00  0.00     0.198 A 
ATOM     98  C   UNL A   1      46.884  27.788  35.196  1.00  0.00     0.198 A 
ATOM     99  F   UNL A   1      46.037  29.745  34.204  1.00  0.00    -0.203 F 
ATOM    100  F   UNL A   1      45.202  25.140  37.009  1.00  0.00    -0.200 F 
ATOM    101  C   UNL A   1      46.680  26.618  35.911  1.00  0.00     0.200 A 
ATOM    102  F   UNL A   1      48.121  28.134  34.814  1.00  0.00    -0.200 F 
ATOM    103  F   UNL A   1      47.724  25.847  36.246  1.00  0.00    -0.200 F 
ENDBRANCH  70  93
ENDBRANCH  44  45
ENDBRANCH  36  39
ENDBRANCH  34  35
ENDBRANCH  33  34
ENDBRANCH  32  33
ENDBRANCH   1  32
TORSDOF 15
ENDMDL
