MODEL 1
REMARK VINA RESULT:     -13.2      0.000      0.000
REMARK SMILES O=C(NCCCCNC(=O)c1ccc(Br)c(NC(=S)NC(=O)c2ccc(F)cc2)c1)c1ccc(-c2c3nc(c(-c4c(F)c(F)c(F)c(F)c4F)c4ccc([nH]4)c(-c4c(F)c(F)c(F)c(F)c4F)c4nc(c(-c5c(F)c(F)c(F)c(F)c5F)c5ccc2[nH]5)C=C4)C=C3)cc1
REMARK SMILES IDX 6 1 5 2 4 3 3 4 1 5 2 6 31 8 32 9 93 10 33 11 92 12 34 13
REMARK SMILES IDX 35 14 36 15 86 16 37 17 91 18 85 19 87 20 38 21 90 22 84 23
REMARK SMILES IDX 83 24 39 26 71 27 51 28 70 29 52 30 55 31 69 32 88 33 53 34
REMARK SMILES IDX 54 35 68 37 89 38 56 39 40 40 41 41 49 42 42 43 43 44 47 45
REMARK SMILES IDX 50 46 44 47 45 48 48 49 46 50 72 51 73 52 81 53 74 54 75 55
REMARK SMILES IDX 79 56 82 57 76 58 77 59 80 60 78 61 57 62 58 63 66 64 59 65
REMARK SMILES IDX 60 66 64 67 67 68 61 69 62 70 65 71 63 72 7 73 8 74 9 75
REMARK SMILES IDX 10 77 11 78 12 79 30 80 13 81 16 82 14 83 15 84 17 85 18 87
REMARK SMILES IDX 19 88 20 89 21 90 22 92 23 93 24 94 29 95 25 96 28 97 26 98
REMARK SMILES IDX 27 99
REMARK H PARENT 3 7 87 25 55 36 8 76 17 86 20 91
REMARK Flexibility Score: inf
ROOT
ATOM      1  C   UNL A   1      37.120  20.615  25.126  1.00  0.00     0.023 C 
ENDROOT
BRANCH   1   2
ATOM      2  C   UNL A   1      38.268  19.623  24.998  1.00  0.00     0.023 C 
BRANCH   2   3
ATOM      3  C   UNL A   1      39.519  20.032  25.759  1.00  0.00     0.116 C 
BRANCH   3   4
ATOM      4  N   UNL A   1      40.488  18.946  25.895  1.00  0.00    -0.352 N 
ATOM      5  O   UNL A   1      42.547  18.030  26.110  1.00  0.00    -0.269 OA
ATOM      6  C   UNL A   1      41.835  19.026  26.132  1.00  0.00     0.251 C 
ATOM      7  H   UNL A   1      40.125  18.036  25.802  1.00  0.00     0.163 HD
BRANCH   6   8
ATOM      8  C   UNL A   1      42.401  20.357  26.377  1.00  0.00     0.039 A 
ATOM      9  C   UNL A   1      42.384  20.874  27.674  1.00  0.00     0.014 A 
ATOM     10  C   UNL A   1      42.838  21.119  25.294  1.00  0.00     0.014 A 
ATOM     11  C   UNL A   1      42.650  22.217  27.864  1.00  0.00     0.010 A 
ATOM     12  C   UNL A   1      43.217  22.440  25.510  1.00  0.00     0.010 A 
ATOM     13  C   UNL A   1      43.095  23.004  26.790  1.00  0.00    -0.014 A 
BRANCH  13  14
ATOM     14  C   UNL A   1      43.504  24.400  27.051  1.00  0.00     0.031 A 
ATOM     15  C   UNL A   1      42.547  25.400  27.622  1.00  0.00     0.074 A 
ATOM     16  C   UNL A   1      44.777  24.741  26.775  1.00  0.00     0.049 A 
ATOM     17  N   UNL A   1      42.746  26.665  27.891  1.00  0.00    -0.248 NA
ATOM     18  C   UNL A   1      41.186  24.928  27.924  1.00  0.00     0.031 C 
ATOM     19  C   UNL A   1      45.784  23.833  26.219  1.00  0.00     0.029 A 
ATOM     20  N   UNL A   1      45.448  25.921  26.941  1.00  0.00    -0.354 N 
ATOM     21  C   UNL A   1      41.537  27.145  28.375  1.00  0.00     0.074 A 
ATOM     22  C   UNL A   1      40.598  26.044  28.333  1.00  0.00     0.031 C 
ATOM     23  C   UNL A   1      46.958  24.472  26.147  1.00  0.00     0.029 A 
ATOM     24  C   UNL A   1      46.766  25.852  26.569  1.00  0.00     0.049 A 
ATOM     25  H   UNL A   1      45.027  26.738  27.293  1.00  0.00     0.167 HD
ATOM     26  C   UNL A   1      41.250  28.392  28.820  1.00  0.00     0.037 A 
ATOM     27  C   UNL A   1      47.716  26.804  26.544  1.00  0.00     0.037 A 
ATOM     28  C   UNL A   1      42.206  29.471  28.857  1.00  0.00     0.049 A 
ATOM     29  C   UNL A   1      47.358  28.187  26.996  1.00  0.00     0.074 A 
ATOM     30  C   UNL A   1      42.025  30.767  29.307  1.00  0.00     0.029 A 
ATOM     31  N   UNL A   1      43.523  29.380  28.423  1.00  0.00    -0.354 N 
ATOM     32  N   UNL A   1      46.214  28.632  27.459  1.00  0.00    -0.248 NA
ATOM     33  C   UNL A   1      48.414  29.202  26.916  1.00  0.00     0.031 C 
ATOM     34  C   UNL A   1      43.210  31.474  29.090  1.00  0.00     0.029 A 
ATOM     35  C   UNL A   1      44.155  30.604  28.570  1.00  0.00     0.049 A 
ATOM     36  H   UNL A   1      43.944  28.565  28.065  1.00  0.00     0.167 HD
ATOM     37  C   UNL A   1      46.414  29.973  27.743  1.00  0.00     0.074 A 
ATOM     38  C   UNL A   1      47.796  30.265  27.412  1.00  0.00     0.031 C 
ATOM     39  C   UNL A   1      45.533  30.877  28.234  1.00  0.00     0.037 A 
BRANCH  26  40
ATOM     40  C   UNL A   1      39.848  28.668  29.282  1.00  0.00     0.064 A 
ATOM     41  C   UNL A   1      39.477  28.419  30.613  1.00  0.00     0.173 A 
ATOM     42  C   UNL A   1      38.855  29.128  28.404  1.00  0.00     0.173 A 
ATOM     43  F   UNL A   1      40.382  27.972  31.497  1.00  0.00    -0.203 F 
ATOM     44  C   UNL A   1      38.165  28.609  31.042  1.00  0.00     0.198 A 
ATOM     45  C   UNL A   1      37.552  29.348  28.845  1.00  0.00     0.198 A 
ATOM     46  F   UNL A   1      39.157  29.394  27.124  1.00  0.00    -0.203 F 
ATOM     47  F   UNL A   1      37.829  28.333  32.311  1.00  0.00    -0.200 F 
ATOM     48  C   UNL A   1      37.206  29.080  30.160  1.00  0.00     0.200 A 
ATOM     49  F   UNL A   1      36.632  29.830  27.997  1.00  0.00    -0.200 F 
ATOM     50  F   UNL A   1      35.949  29.281  30.579  1.00  0.00    -0.200 F 
ENDBRANCH  26  40
BRANCH  27  51
ATOM     51  C   UNL A   1      49.080  26.446  26.088  1.00  0.00     0.064 A 
ATOM     52  C   UNL A   1      50.032  25.923  26.978  1.00  0.00     0.173 A 
ATOM     53  C   UNL A   1      49.489  26.713  24.776  1.00  0.00     0.173 A 
ATOM     54  F   UNL A   1      49.692  25.668  28.251  1.00  0.00    -0.203 F 
ATOM     55  C   UNL A   1      51.350  25.716  26.581  1.00  0.00     0.198 A 
ATOM     56  C   UNL A   1      50.800  26.475  24.371  1.00  0.00     0.198 A 
ATOM     57  F   UNL A   1      48.611  27.203  23.888  1.00  0.00    -0.203 F 
ATOM     58  F   UNL A   1      52.253  25.274  27.466  1.00  0.00    -0.200 F 
ATOM     59  C   UNL A   1      51.733  25.990  25.277  1.00  0.00     0.200 A 
ATOM     60  F   UNL A   1      51.163  26.727  23.106  1.00  0.00    -0.200 F 
ATOM     61  F   UNL A   1      53.002  25.794  24.894  1.00  0.00    -0.200 F 
ENDBRANCH  27  51
BRANCH  39  62
ATOM     62  C   UNL A   1      46.035  32.271  28.472  1.00  0.00     0.064 A 
ATOM     63  C   UNL A   1      46.577  32.625  29.718  1.00  0.00     0.173 A 
ATOM     64  C   UNL A   1      45.912  33.275  27.500  1.00  0.00     0.173 A 
ATOM     65  F   UNL A   1      46.711  31.702  30.683  1.00  0.00    -0.203 F 
ATOM     66  C   UNL A   1      46.957  33.935  29.988  1.00  0.00     0.198 A 
ATOM     67  C   UNL A   1      46.323  34.577  27.763  1.00  0.00     0.198 A 
ATOM     68  F   UNL A   1      45.414  32.983  26.289  1.00  0.00    -0.203 F 
ATOM     69  F   UNL A   1      47.433  34.257  31.199  1.00  0.00    -0.200 F 
ATOM     70  C   UNL A   1      46.833  34.909  29.009  1.00  0.00     0.200 A 
ATOM     71  F   UNL A   1      46.229  35.513  26.809  1.00  0.00    -0.200 F 
ATOM     72  F   UNL A   1      47.208  36.170  29.268  1.00  0.00    -0.200 F 
ENDBRANCH  39  62
ENDBRANCH  13  14
ENDBRANCH   6   8
ENDBRANCH   3   4
ENDBRANCH   2   3
ENDBRANCH   1   2
BRANCH   1  73
ATOM     73  C   UNL A   1      37.558  22.073  24.968  1.00  0.00     0.116 C 
BRANCH  73  74
ATOM     74  N   UNL A   1      36.697  22.753  23.978  1.00  0.00    -0.352 N 
ATOM     75  C   UNL A   1      35.528  23.691  23.861  1.00  0.00     0.251 C 
ATOM     76  H   UNL A   1      36.994  22.501  23.074  1.00  0.00     0.163 HD
ATOM     77  O   UNL A   1      35.347  23.305  22.648  1.00  0.00    -0.269 OA
BRANCH  75  78
ATOM     78  C   UNL A   1      34.554  25.117  25.125  1.00  0.00     0.041 A 
ATOM     79  C   UNL A   1      34.604  26.640  25.200  1.00  0.00     0.015 A 
ATOM     80  C   UNL A   1      33.541  24.870  26.176  1.00  0.00     0.041 A 
ATOM     81  C   UNL A   1      33.779  27.527  25.951  1.00  0.00     0.018 A 
ATOM     82  C   UNL A   1      32.504  25.675  26.612  1.00  0.00     0.055 A 
ATOM     83  C   UNL A   1      32.682  27.034  26.623  1.00  0.00     0.041 A 
ATOM     84  Br  UNL A   1      31.501  28.207  27.505  1.00  0.00    -0.049 Br
BRANCH  82  85
ATOM     85  N   UNL A   1      31.338  25.016  27.010  1.00  0.00    -0.331 N 
ATOM     86  H   UNL A   1      31.240  24.910  27.984  1.00  0.00     0.169 HD
BRANCH  85  87
ATOM     87  C   UNL A   1      30.317  24.496  26.281  1.00  0.00     0.177 C 
ATOM     88  S   UNL A   1      29.898  22.902  26.607  1.00  0.00    -0.040 S 
BRANCH  87  89
ATOM     89  N   UNL A   1      29.517  25.167  25.349  1.00  0.00    -0.299 N 
ATOM     90  C   UNL A   1      29.341  26.123  24.292  1.00  0.00     0.257 C 
ATOM     91  H   UNL A   1      28.616  24.794  25.490  1.00  0.00     0.172 HD
ATOM     92  O   UNL A   1      28.199  26.486  24.016  1.00  0.00    -0.269 OA
BRANCH  90  93
ATOM     93  C   UNL A   1      30.457  26.686  23.509  1.00  0.00     0.040 A 
ATOM     94  C   UNL A   1      31.524  25.588  22.502  1.00  0.00     0.017 A 
ATOM     95  C   UNL A   1      30.922  28.427  23.751  1.00  0.00     0.017 A 
ATOM     96  C   UNL A   1      33.140  26.186  21.928  1.00  0.00     0.040 A 
ATOM     97  C   UNL A   1      32.406  29.097  22.951  1.00  0.00     0.040 A 
ATOM     98  C   UNL A   1      33.555  27.968  22.086  1.00  0.00     0.123 A 
ATOM     99  F   UNL A   1      34.716  28.439  21.608  1.00  0.00    -0.207 F 
ENDBRANCH  90  93
ENDBRANCH  87  89
ENDBRANCH  85  87
ENDBRANCH  82  85
ENDBRANCH  75  78
ENDBRANCH  73  74
ENDBRANCH   1  73
TORSDOF 15
ENDMDL
MODEL 2
REMARK VINA RESULT:     -13.2      0.405      7.261
REMARK SMILES O=C(NCCCCNC(=O)c1ccc(Br)c(NC(=S)NC(=O)c2ccc(F)cc2)c1)c1ccc(-c2c3nc(c(-c4c(F)c(F)c(F)c(F)c4F)c4ccc([nH]4)c(-c4c(F)c(F)c(F)c(F)c4F)c4nc(c(-c5c(F)c(F)c(F)c(F)c5F)c5ccc2[nH]5)C=C4)C=C3)cc1
REMARK SMILES IDX 6 1 5 2 4 3 3 4 1 5 2 6 31 8 32 9 93 10 33 11 92 12 34 13
REMARK SMILES IDX 35 14 36 15 86 16 37 17 91 18 85 19 87 20 38 21 90 22 84 23
REMARK SMILES IDX 83 24 39 26 71 27 51 28 70 29 52 30 55 31 69 32 88 33 53 34
REMARK SMILES IDX 54 35 68 37 89 38 56 39 40 40 41 41 49 42 42 43 43 44 47 45
REMARK SMILES IDX 50 46 44 47 45 48 48 49 46 50 72 51 73 52 81 53 74 54 75 55
REMARK SMILES IDX 79 56 82 57 76 58 77 59 80 60 78 61 57 62 58 63 66 64 59 65
REMARK SMILES IDX 60 66 64 67 67 68 61 69 62 70 65 71 63 72 7 73 8 74 9 75
REMARK SMILES IDX 10 77 11 78 12 79 30 80 13 81 16 82 14 83 15 84 17 85 18 87
REMARK SMILES IDX 19 88 20 89 21 90 22 92 23 93 24 94 29 95 25 96 28 97 26 98
REMARK SMILES IDX 27 99
REMARK H PARENT 3 7 87 25 55 36 8 76 17 86 20 91
REMARK Flexibility Score: inf
ROOT
ATOM      1  C   UNL A   1      37.143  20.528  25.114  1.00  0.00     0.023 C 
ENDROOT
BRANCH   1   2
ATOM      2  C   UNL A   1      38.340  19.604  24.934  1.00  0.00     0.023 C 
BRANCH   2   3
ATOM      3  C   UNL A   1      39.548  19.996  25.771  1.00  0.00     0.116 C 
BRANCH   3   4
ATOM      4  N   UNL A   1      40.539  18.927  25.880  1.00  0.00    -0.352 N 
ATOM      5  O   UNL A   1      42.617  18.049  26.071  1.00  0.00    -0.269 OA
ATOM      6  C   UNL A   1      41.885  19.029  26.116  1.00  0.00     0.251 C 
ATOM      7  H   UNL A   1      40.194  18.011  25.770  1.00  0.00     0.163 HD
BRANCH   6   8
ATOM      8  C   UNL A   1      42.425  20.366  26.389  1.00  0.00     0.039 A 
ATOM      9  C   UNL A   1      42.411  20.851  27.698  1.00  0.00     0.014 A 
ATOM     10  C   UNL A   1      42.833  21.164  25.321  1.00  0.00     0.014 A 
ATOM     11  C   UNL A   1      42.649  22.194  27.919  1.00  0.00     0.010 A 
ATOM     12  C   UNL A   1      43.185  22.488  25.565  1.00  0.00     0.010 A 
ATOM     13  C   UNL A   1      43.065  23.017  26.859  1.00  0.00    -0.014 A 
BRANCH  13  14
ATOM     14  C   UNL A   1      43.447  24.415  27.151  1.00  0.00     0.031 A 
ATOM     15  C   UNL A   1      44.830  24.919  26.875  1.00  0.00     0.074 A 
ATOM     16  C   UNL A   1      42.501  25.229  27.655  1.00  0.00     0.049 A 
ATOM     17  N   UNL A   1      45.326  26.110  27.092  1.00  0.00    -0.248 NA
ATOM     18  C   UNL A   1      45.786  23.966  26.291  1.00  0.00     0.031 C 
ATOM     19  C   UNL A   1      41.124  24.828  27.954  1.00  0.00     0.029 A 
ATOM     20  N   UNL A   1      42.541  26.557  27.985  1.00  0.00    -0.354 N 
ATOM     21  C   UNL A   1      46.653  26.047  26.689  1.00  0.00     0.074 A 
ATOM     22  C   UNL A   1      46.895  24.691  26.244  1.00  0.00     0.031 C 
ATOM     23  C   UNL A   1      40.434  25.900  28.365  1.00  0.00     0.029 A 
ATOM     24  C   UNL A   1      41.340  27.038  28.440  1.00  0.00     0.049 A 
ATOM     25  H   UNL A   1      43.351  27.111  27.903  1.00  0.00     0.167 HD
ATOM     26  C   UNL A   1      47.574  27.040  26.686  1.00  0.00     0.037 A 
ATOM     27  C   UNL A   1      41.007  28.259  28.895  1.00  0.00     0.037 A 
ATOM     28  C   UNL A   1      47.306  28.386  27.129  1.00  0.00     0.049 A 
ATOM     29  C   UNL A   1      42.058  29.325  28.927  1.00  0.00     0.074 A 
ATOM     30  C   UNL A   1      48.162  29.472  27.149  1.00  0.00     0.029 A 
ATOM     31  N   UNL A   1      46.089  28.827  27.633  1.00  0.00    -0.354 N 
ATOM     32  N   UNL A   1      43.309  29.260  28.537  1.00  0.00    -0.248 NA
ATOM     33  C   UNL A   1      41.659  30.630  29.465  1.00  0.00     0.031 C 
ATOM     34  C   UNL A   1      47.483  30.552  27.720  1.00  0.00     0.029 A 
ATOM     35  C   UNL A   1      46.181  30.163  27.992  1.00  0.00     0.049 A 
ATOM     36  H   UNL A   1      45.279  28.272  27.721  1.00  0.00     0.167 HD
ATOM     37  C   UNL A   1      43.845  30.517  28.767  1.00  0.00     0.074 A 
ATOM     38  C   UNL A   1      42.777  31.329  29.317  1.00  0.00     0.031 C 
ATOM     39  C   UNL A   1      45.106  30.955  28.540  1.00  0.00     0.037 A 
BRANCH  26  40
ATOM     40  C   UNL A   1      48.961  26.711  26.212  1.00  0.00     0.064 A 
ATOM     41  C   UNL A   1      49.332  26.952  24.879  1.00  0.00     0.173 A 
ATOM     42  C   UNL A   1      49.909  26.110  27.053  1.00  0.00     0.173 A 
ATOM     43  F   UNL A   1      48.465  27.519  24.027  1.00  0.00    -0.203 F 
ATOM     44  C   UNL A   1      50.593  26.594  24.407  1.00  0.00     0.198 A 
ATOM     45  C   UNL A   1      51.180  25.783  26.587  1.00  0.00     0.198 A 
ATOM     46  F   UNL A   1      49.612  25.867  28.340  1.00  0.00    -0.203 F 
ATOM     47  F   UNL A   1      50.911  26.806  23.122  1.00  0.00    -0.200 F 
ATOM     48  C   UNL A   1      51.517  26.017  25.262  1.00  0.00     0.200 A 
ATOM     49  F   UNL A   1      52.083  25.250  27.422  1.00  0.00    -0.200 F 
ATOM     50  F   UNL A   1      52.737  25.691  24.812  1.00  0.00    -0.200 F 
ENDBRANCH  26  40
BRANCH  27  51
ATOM     51  C   UNL A   1      39.611  28.506  29.330  1.00  0.00     0.064 A 
ATOM     52  C   UNL A   1      38.660  29.051  28.453  1.00  0.00     0.173 A 
ATOM     53  C   UNL A   1      39.228  28.295  30.661  1.00  0.00     0.173 A 
ATOM     54  F   UNL A   1      38.985  29.287  27.173  1.00  0.00    -0.203 F 
ATOM     55  C   UNL A   1      37.391  29.409  28.900  1.00  0.00     0.198 A 
ATOM     56  C   UNL A   1      37.949  28.625  31.100  1.00  0.00     0.198 A 
ATOM     57  F   UNL A   1      40.102  27.768  31.532  1.00  0.00    -0.203 F 
ATOM     58  F   UNL A   1      36.523  29.983  28.057  1.00  0.00    -0.200 F 
ATOM     59  C   UNL A   1      37.035  29.194  30.223  1.00  0.00     0.200 A 
ATOM     60  F   UNL A   1      37.603  28.402  32.375  1.00  0.00    -0.200 F 
ATOM     61  F   UNL A   1      35.815  29.541  30.655  1.00  0.00    -0.200 F 
ENDBRANCH  27  51
BRANCH  39  62
ATOM     62  C   UNL A   1      45.406  32.390  28.861  1.00  0.00     0.064 A 
ATOM     63  C   UNL A   1      45.868  32.748  30.138  1.00  0.00     0.173 A 
ATOM     64  C   UNL A   1      45.166  33.418  27.938  1.00  0.00     0.173 A 
ATOM     65  F   UNL A   1      46.109  31.803  31.059  1.00  0.00    -0.203 F 
ATOM     66  C   UNL A   1      46.058  34.082  30.483  1.00  0.00     0.198 A 
ATOM     67  C   UNL A   1      45.388  34.749  28.276  1.00  0.00     0.198 A 
ATOM     68  F   UNL A   1      44.739  33.125  26.700  1.00  0.00    -0.203 F 
ATOM     69  F   UNL A   1      46.460  34.401  31.721  1.00  0.00    -0.200 F 
ATOM     70  C   UNL A   1      45.822  35.081  29.551  1.00  0.00     0.200 A 
ATOM     71  F   UNL A   1      45.186  35.712  27.367  1.00  0.00    -0.200 F 
ATOM     72  F   UNL A   1      46.013  36.365  29.882  1.00  0.00    -0.200 F 
ENDBRANCH  39  62
ENDBRANCH  13  14
ENDBRANCH   6   8
ENDBRANCH   3   4
ENDBRANCH   2   3
ENDBRANCH   1   2
BRANCH   1  73
ATOM     73  C   UNL A   1      37.514  22.013  25.079  1.00  0.00     0.116 C 
BRANCH  73  74
ATOM     74  N   UNL A   1      36.694  22.713  24.069  1.00  0.00    -0.352 N 
ATOM     75  C   UNL A   1      35.544  23.671  23.924  1.00  0.00     0.251 C 
ATOM     76  H   UNL A   1      37.013  22.463  23.173  1.00  0.00     0.163 HD
ATOM     77  O   UNL A   1      35.393  23.296  22.704  1.00  0.00    -0.269 OA
BRANCH  75  78
ATOM     78  C   UNL A   1      34.556  25.105  25.168  1.00  0.00     0.041 A 
ATOM     79  C   UNL A   1      34.606  26.628  25.235  1.00  0.00     0.015 A 
ATOM     80  C   UNL A   1      33.530  24.865  26.209  1.00  0.00     0.041 A 
ATOM     81  C   UNL A   1      33.772  27.520  25.971  1.00  0.00     0.018 A 
ATOM     82  C   UNL A   1      32.489  25.672  26.628  1.00  0.00     0.055 A 
ATOM     83  C   UNL A   1      32.668  27.032  26.633  1.00  0.00     0.041 A 
ATOM     84  Br  UNL A   1      31.477  28.210  27.494  1.00  0.00    -0.049 Br
BRANCH  82  85
ATOM     85  N   UNL A   1      31.318  25.016  27.016  1.00  0.00    -0.331 N 
ATOM     86  H   UNL A   1      31.211  24.911  27.989  1.00  0.00     0.169 HD
BRANCH  85  87
ATOM     87  C   UNL A   1      30.302  24.499  26.279  1.00  0.00     0.177 C 
ATOM     88  S   UNL A   1      29.879  22.905  26.598  1.00  0.00    -0.040 S 
BRANCH  87  89
ATOM     89  N   UNL A   1      29.510  25.172  25.342  1.00  0.00    -0.299 N 
ATOM     90  C   UNL A   1      29.344  26.130  24.283  1.00  0.00     0.257 C 
ATOM     91  H   UNL A   1      28.607  24.802  25.476  1.00  0.00     0.172 HD
ATOM     92  O   UNL A   1      28.204  26.495  24.000  1.00  0.00    -0.269 OA
BRANCH  90  93
ATOM     93  C   UNL A   1      30.466  26.689  23.509  1.00  0.00     0.040 A 
ATOM     94  C   UNL A   1      31.548  25.588  22.521  1.00  0.00     0.017 A 
ATOM     95  C   UNL A   1      30.923  28.434  23.741  1.00  0.00     0.017 A 
ATOM     96  C   UNL A   1      33.168  26.186  21.961  1.00  0.00     0.040 A 
ATOM     97  C   UNL A   1      32.413  29.103  22.953  1.00  0.00     0.040 A 
ATOM     98  C   UNL A   1      33.575  27.971  22.109  1.00  0.00     0.123 A 
ATOM     99  F   UNL A   1      34.740  28.442  21.640  1.00  0.00    -0.207 F 
ENDBRANCH  90  93
ENDBRANCH  87  89
ENDBRANCH  85  87
ENDBRANCH  82  85
ENDBRANCH  75  78
ENDBRANCH  73  74
ENDBRANCH   1  73
TORSDOF 15
ENDMDL
MODEL 3
REMARK VINA RESULT:     -13.1      2.142      7.628
REMARK SMILES O=C(NCCCCNC(=O)c1ccc(Br)c(NC(=S)NC(=O)c2ccc(F)cc2)c1)c1ccc(-c2c3nc(c(-c4c(F)c(F)c(F)c(F)c4F)c4ccc([nH]4)c(-c4c(F)c(F)c(F)c(F)c4F)c4nc(c(-c5c(F)c(F)c(F)c(F)c5F)c5ccc2[nH]5)C=C4)C=C3)cc1
REMARK SMILES IDX 6 1 5 2 4 3 3 4 1 5 2 6 31 8 32 9 93 10 33 11 92 12 34 13
REMARK SMILES IDX 35 14 36 15 86 16 37 17 91 18 85 19 87 20 38 21 90 22 84 23
REMARK SMILES IDX 83 24 39 26 71 27 51 28 70 29 52 30 55 31 69 32 88 33 53 34
REMARK SMILES IDX 54 35 68 37 89 38 56 39 40 40 41 41 49 42 42 43 43 44 47 45
REMARK SMILES IDX 50 46 44 47 45 48 48 49 46 50 72 51 73 52 81 53 74 54 75 55
REMARK SMILES IDX 79 56 82 57 76 58 77 59 80 60 78 61 57 62 58 63 66 64 59 65
REMARK SMILES IDX 60 66 64 67 67 68 61 69 62 70 65 71 63 72 7 73 8 74 9 75
REMARK SMILES IDX 10 77 11 78 12 79 30 80 13 81 16 82 14 83 15 84 17 85 18 87
REMARK SMILES IDX 19 88 20 89 21 90 22 92 23 93 24 94 29 95 25 96 28 97 26 98
REMARK SMILES IDX 27 99
REMARK H PARENT 3 7 87 25 55 36 8 76 17 86 20 91
REMARK Flexibility Score: inf
ROOT
ATOM      1  C   UNL A   1      39.027  22.924  26.441  1.00  0.00     0.023 C 
ENDROOT
BRANCH   1   2
ATOM      2  C   UNL A   1      39.219  21.580  25.752  1.00  0.00     0.023 C 
BRANCH   2   3
ATOM      3  C   UNL A   1      39.678  20.473  26.687  1.00  0.00     0.116 C 
BRANCH   3   4
ATOM      4  N   UNL A   1      40.696  19.608  26.094  1.00  0.00    -0.352 N 
ATOM      5  O   UNL A   1      42.727  19.098  25.234  1.00  0.00    -0.269 OA
ATOM      6  C   UNL A   1      42.013  19.885  25.841  1.00  0.00     0.251 C 
ATOM      7  H   UNL A   1      40.395  18.704  25.842  1.00  0.00     0.163 HD
BRANCH   6   8
ATOM      8  C   UNL A   1      42.531  21.182  26.294  1.00  0.00     0.039 A 
ATOM      9  C   UNL A   1      42.648  21.426  27.663  1.00  0.00     0.014 A 
ATOM     10  C   UNL A   1      42.784  22.178  25.352  1.00  0.00     0.014 A 
ATOM     11  C   UNL A   1      42.859  22.720  28.099  1.00  0.00     0.010 A 
ATOM     12  C   UNL A   1      43.111  23.456  25.794  1.00  0.00     0.010 A 
ATOM     13  C   UNL A   1      43.120  23.741  27.169  1.00  0.00    -0.014 A 
BRANCH  13  14
ATOM     14  C   UNL A   1      43.480  25.085  27.667  1.00  0.00     0.031 A 
ATOM     15  C   UNL A   1      44.910  25.507  27.807  1.00  0.00     0.074 A 
ATOM     16  C   UNL A   1      42.477  25.927  27.974  1.00  0.00     0.049 A 
ATOM     17  N   UNL A   1      45.390  26.643  28.246  1.00  0.00    -0.248 NA
ATOM     18  C   UNL A   1      45.939  24.531  27.414  1.00  0.00     0.031 C 
ATOM     19  C   UNL A   1      41.052  25.605  27.867  1.00  0.00     0.029 A 
ATOM     20  N   UNL A   1      42.493  27.223  28.415  1.00  0.00    -0.354 N 
ATOM     21  C   UNL A   1      46.771  26.513  28.200  1.00  0.00     0.074 A 
ATOM     22  C   UNL A   1      47.055  25.177  27.721  1.00  0.00     0.031 C 
ATOM     23  C   UNL A   1      40.332  26.692  28.173  1.00  0.00     0.029 A 
ATOM     24  C   UNL A   1      41.241  27.755  28.579  1.00  0.00     0.049 A 
ATOM     25  H   UNL A   1      43.322  27.722  28.595  1.00  0.00     0.167 HD
ATOM     26  C   UNL A   1      47.709  27.436  28.523  1.00  0.00     0.037 A 
ATOM     27  C   UNL A   1      40.860  28.963  29.032  1.00  0.00     0.037 A 
ATOM     28  C   UNL A   1      47.400  28.764  28.993  1.00  0.00     0.049 A 
ATOM     29  C   UNL A   1      41.917  29.947  29.429  1.00  0.00     0.074 A 
ATOM     30  C   UNL A   1      48.273  29.784  29.329  1.00  0.00     0.029 A 
ATOM     31  N   UNL A   1      46.116  29.255  29.196  1.00  0.00    -0.354 N 
ATOM     32  N   UNL A   1      43.221  29.820  29.376  1.00  0.00    -0.248 NA
ATOM     33  C   UNL A   1      41.455  31.237  29.953  1.00  0.00     0.031 C 
ATOM     34  C   UNL A   1      47.521  30.867  29.792  1.00  0.00     0.029 A 
ATOM     35  C   UNL A   1      46.176  30.553  29.679  1.00  0.00     0.049 A 
ATOM     36  H   UNL A   1      45.286  28.754  29.023  1.00  0.00     0.167 HD
ATOM     37  C   UNL A   1      43.739  31.018  29.843  1.00  0.00     0.074 A 
ATOM     38  C   UNL A   1      42.605  31.864  30.162  1.00  0.00     0.031 C 
ATOM     39  C   UNL A   1      45.035  31.381  29.993  1.00  0.00     0.037 A 
BRANCH  26  40
ATOM     40  C   UNL A   1      49.154  27.043  28.401  1.00  0.00     0.064 A 
ATOM     41  C   UNL A   1      49.824  27.173  27.175  1.00  0.00     0.173 A 
ATOM     42  C   UNL A   1      49.864  26.491  29.478  1.00  0.00     0.173 A 
ATOM     43  F   UNL A   1      49.194  27.689  26.109  1.00  0.00    -0.203 F 
ATOM     44  C   UNL A   1      51.145  26.754  27.029  1.00  0.00     0.198 A 
ATOM     45  C   UNL A   1      51.195  26.103  29.338  1.00  0.00     0.198 A 
ATOM     46  F   UNL A   1      49.276  26.355  30.677  1.00  0.00    -0.203 F 
ATOM     47  F   UNL A   1      51.753  26.858  25.839  1.00  0.00    -0.200 F 
ATOM     48  C   UNL A   1      51.831  26.227  28.111  1.00  0.00     0.200 A 
ATOM     49  F   UNL A   1      51.865  25.620  30.392  1.00  0.00    -0.200 F 
ATOM     50  F   UNL A   1      53.107  25.841  27.975  1.00  0.00    -0.200 F 
ENDBRANCH  26  40
BRANCH  27  51
ATOM     51  C   UNL A   1      39.413  29.277  29.107  1.00  0.00     0.064 A 
ATOM     52  C   UNL A   1      38.720  29.236  30.328  1.00  0.00     0.173 A 
ATOM     53  C   UNL A   1      38.674  29.527  27.944  1.00  0.00     0.173 A 
ATOM     54  F   UNL A   1      39.382  28.982  31.467  1.00  0.00    -0.203 F 
ATOM     55  C   UNL A   1      37.339  29.397  30.376  1.00  0.00     0.198 A 
ATOM     56  C   UNL A   1      37.296  29.720  27.998  1.00  0.00     0.198 A 
ATOM     57  F   UNL A   1      39.295  29.586  26.757  1.00  0.00    -0.203 F 
ATOM     58  F   UNL A   1      36.695  29.293  31.546  1.00  0.00    -0.200 F 
ATOM     59  C   UNL A   1      36.627  29.641  29.212  1.00  0.00     0.200 A 
ATOM     60  F   UNL A   1      36.613  29.970  26.872  1.00  0.00    -0.200 F 
ATOM     61  F   UNL A   1      35.296  29.793  29.257  1.00  0.00    -0.200 F 
ENDBRANCH  27  51
BRANCH  39  62
ATOM     62  C   UNL A   1      45.310  32.765  30.501  1.00  0.00     0.064 A 
ATOM     63  C   UNL A   1      45.409  33.005  31.882  1.00  0.00     0.173 A 
ATOM     64  C   UNL A   1      45.401  33.864  29.635  1.00  0.00     0.173 A 
ATOM     65  F   UNL A   1      45.324  31.988  32.752  1.00  0.00    -0.203 F 
ATOM     66  C   UNL A   1      45.566  34.296  32.374  1.00  0.00     0.198 A 
ATOM     67  C   UNL A   1      45.591  35.150  30.130  1.00  0.00     0.198 A 
ATOM     68  F   UNL A   1      45.329  33.684  28.307  1.00  0.00    -0.203 F 
ATOM     69  F   UNL A   1      45.616  34.505  33.698  1.00  0.00    -0.200 F 
ATOM     70  C   UNL A   1      45.661  35.367  31.499  1.00  0.00     0.200 A 
ATOM     71  F   UNL A   1      45.709  36.182  29.283  1.00  0.00    -0.200 F 
ATOM     72  F   UNL A   1      45.821  36.609  31.974  1.00  0.00    -0.200 F 
ENDBRANCH  39  62
ENDBRANCH  13  14
ENDBRANCH   6   8
ENDBRANCH   3   4
ENDBRANCH   2   3
ENDBRANCH   1   2
BRANCH   1  73
ATOM     73  C   UNL A   1      37.778  23.675  25.970  1.00  0.00     0.116 C 
BRANCH  73  74
ATOM     74  N   UNL A   1      37.417  23.243  24.604  1.00  0.00    -0.352 N 
ATOM     75  C   UNL A   1      36.297  23.273  23.602  1.00  0.00     0.251 C 
ATOM     76  H   UNL A   1      38.182  22.766  24.210  1.00  0.00     0.163 HD
ATOM     77  O   UNL A   1      36.854  22.309  22.958  1.00  0.00    -0.269 OA
BRANCH  75  78
ATOM     78  C   UNL A   1      34.521  24.428  23.298  1.00  0.00     0.041 A 
ATOM     79  C   UNL A   1      33.290  24.225  22.421  1.00  0.00     0.015 A 
ATOM     80  C   UNL A   1      34.111  25.678  23.979  1.00  0.00     0.041 A 
ATOM     81  C   UNL A   1      32.063  24.950  22.417  1.00  0.00     0.018 A 
ATOM     82  C   UNL A   1      32.846  26.153  24.270  1.00  0.00     0.055 A 
ATOM     83  C   UNL A   1      31.825  25.892  23.393  1.00  0.00     0.041 A 
ATOM     84  Br  UNL A   1      30.156  26.762  23.489  1.00  0.00    -0.049 Br
BRANCH  82  85
ATOM     85  N   UNL A   1      32.716  26.873  25.461  1.00  0.00    -0.331 N 
ATOM     86  H   UNL A   1      33.293  27.669  25.523  1.00  0.00     0.169 HD
BRANCH  85  87
ATOM     87  C   UNL A   1      31.931  26.660  26.548  1.00  0.00     0.177 C 
ATOM     88  S   UNL A   1      31.603  27.997  27.510  1.00  0.00    -0.040 S 
BRANCH  87  89
ATOM     89  N   UNL A   1      31.291  25.468  26.907  1.00  0.00    -0.299 N 
ATOM     90  C   UNL A   1      31.122  24.044  26.806  1.00  0.00     0.257 C 
ATOM     91  H   UNL A   1      30.611  25.746  27.564  1.00  0.00     0.172 HD
ATOM     92  O   UNL A   1      30.090  23.546  27.250  1.00  0.00    -0.269 OA
BRANCH  90  93
ATOM     93  C   UNL A   1      32.126  23.146  26.209  1.00  0.00     0.040 A 
ATOM     94  C   UNL A   1      31.717  22.166  24.715  1.00  0.00     0.017 A 
ATOM     95  C   UNL A   1      33.676  22.825  27.104  1.00  0.00     0.017 A 
ATOM     96  C   UNL A   1      32.752  20.745  24.261  1.00  0.00     0.040 A 
ATOM     97  C   UNL A   1      34.845  21.580  26.493  1.00  0.00     0.040 A 
ATOM     98  C   UNL A   1      34.364  20.493  25.104  1.00  0.00     0.123 A 
ATOM     99  F   UNL A   1      35.172  19.487  24.736  1.00  0.00    -0.207 F 
ENDBRANCH  90  93
ENDBRANCH  87  89
ENDBRANCH  85  87
ENDBRANCH  82  85
ENDBRANCH  75  78
ENDBRANCH  73  74
ENDBRANCH   1  73
TORSDOF 15
ENDMDL
