MODEL 1
REMARK VINA RESULT:     -11.5      0.000      0.000
REMARK SMILES O=C(CC1CCN(C(=O)N2CCCC[C@@H]2CCO)CC1)NCCCCNC(=O)c1ccc(-c2c3nc(c(-c4c(F)c(F)c(F)c(F)c4F)c4ccc([nH]4)c(-c4c(F)c(F)c(F)c(F)c4F)c4nc(c(-c5c(F)c(F)c(F)c(F)c5F)c5ccc2[nH]5)C=C4)C=C3)cc1
REMARK SMILES IDX 22 1 21 2 1 3 2 4 3 6 4 7 5 8 20 9 6 10 19 11 7 12 8 13 9 14
REMARK SMILES IDX 10 15 11 16 15 17 12 18 14 19 13 20 16 21 17 22 18 23 23 25
REMARK SMILES IDX 24 26 25 27 26 28 27 29 28 31 29 32 30 33 91 34 31 35 90 36
REMARK SMILES IDX 32 37 33 38 34 39 84 40 35 41 89 42 83 43 85 44 36 45 88 46
REMARK SMILES IDX 82 47 81 48 37 50 69 51 49 52 68 53 50 54 53 55 67 56 86 57
REMARK SMILES IDX 51 58 52 59 66 61 87 62 54 63 38 64 39 65 47 66 40 67 41 68
REMARK SMILES IDX 45 69 48 70 42 71 43 72 46 73 44 74 70 75 71 76 79 77 72 78
REMARK SMILES IDX 73 79 77 80 80 81 74 82 75 83 78 84 76 85 55 86 56 87 64 88
REMARK SMILES IDX 57 89 58 90 62 91 65 92 59 93 60 94 63 95 61 96
REMARK H PARENT 21 5 18 24 26 30 85 49 53 60
REMARK Flexibility Score: inf
ROOT
ATOM      1  C   UNL A   1      35.021  32.687  28.006  1.00  0.00     0.116 C 
ENDROOT
BRANCH   1   2
ATOM      2  N   UNL A   1      34.351  31.433  27.726  1.00  0.00    -0.356 N 
ATOM      3  O   UNL A   1      36.271  30.186  27.585  1.00  0.00    -0.275 OA
ATOM      4  C   UNL A   1      35.047  30.259  27.576  1.00  0.00     0.220 C 
ATOM      5  H   UNL A   1      33.370  31.424  27.641  1.00  0.00     0.163 HD
BRANCH   4   6
ATOM      6  C   UNL A   1      34.182  29.032  27.391  1.00  0.00     0.103 C 
BRANCH   6   7
ATOM      7  C   UNL A   1      33.319  28.999  26.112  1.00  0.00     0.002 C 
ATOM      8  C   UNL A   1      31.800  28.844  26.324  1.00  0.00     0.026 C 
ATOM      9  C   UNL A   1      33.799  27.864  25.184  1.00  0.00     0.026 C 
ATOM     10  C   UNL A   1      31.437  27.460  26.851  1.00  0.00     0.121 C 
ATOM     11  C   UNL A   1      33.371  26.476  25.680  1.00  0.00     0.121 C 
ATOM     12  N   UNL A   1      31.933  26.437  25.941  1.00  0.00    -0.325 N 
ATOM     13  C   UNL A   1      31.019  25.677  25.238  1.00  0.00     0.320 C 
ATOM     14  O   UNL A   1      29.834  25.997  25.134  1.00  0.00    -0.248 OA
BRANCH  13  15
ATOM     15  N   UNL A   1      31.502  24.569  24.573  1.00  0.00    -0.322 N 
ATOM     16  C   UNL A   1      31.600  23.360  25.377  1.00  0.00     0.121 C 
ATOM     17  C   UNL A   1      31.634  24.457  23.099  1.00  0.00     0.089 C 
ATOM     18  C   UNL A   1      32.779  22.482  25.003  1.00  0.00     0.022 C 
ATOM     19  C   UNL A   1      32.836  23.550  22.748  1.00  0.00     0.025 C 
ATOM     20  C   UNL A   1      32.803  22.227  23.504  1.00  0.00     0.004 C 
BRANCH  17  21
ATOM     21  C   UNL A   1      31.792  25.820  22.382  1.00  0.00     0.053 C 
BRANCH  21  22
ATOM     22  C   UNL A   1      33.212  26.124  21.912  1.00  0.00     0.158 C 
BRANCH  22  23
ATOM     23  O   UNL A   1      33.244  26.325  20.504  1.00  0.00    -0.396 OA
ATOM     24  H   UNL A   1      34.165  26.396  20.209  1.00  0.00     0.210 HD
ENDBRANCH  22  23
ENDBRANCH  21  22
ENDBRANCH  17  21
ENDBRANCH  13  15
ENDBRANCH   6   7
ENDBRANCH   4   6
ENDBRANCH   1   2
BRANCH   1  25
ATOM     25  C   UNL A   1      34.410  33.407  29.203  1.00  0.00     0.023 C 
BRANCH  25  26
ATOM     26  C   UNL A   1      33.287  34.386  28.855  1.00  0.00     0.023 C 
BRANCH  26  27
ATOM     27  C   UNL A   1      33.450  35.793  29.420  1.00  0.00     0.116 C 
BRANCH  27  28
ATOM     28  N   UNL A   1      32.543  36.067  30.522  1.00  0.00    -0.352 N 
ATOM     29  C   UNL A   1      32.624  35.682  31.838  1.00  0.00     0.251 C 
ATOM     30  H   UNL A   1      31.754  36.608  30.291  1.00  0.00     0.163 HD
ATOM     31  O   UNL A   1      31.677  35.879  32.596  1.00  0.00    -0.269 OA
BRANCH  29  32
ATOM     32  C   UNL A   1      33.838  35.002  32.344  1.00  0.00     0.039 A 
ATOM     33  C   UNL A   1      33.715  33.715  32.873  1.00  0.00     0.014 A 
ATOM     34  C   UNL A   1      35.088  35.625  32.303  1.00  0.00     0.014 A 
ATOM     35  C   UNL A   1      34.855  33.024  33.292  1.00  0.00     0.010 A 
ATOM     36  C   UNL A   1      36.232  34.907  32.649  1.00  0.00     0.010 A 
ATOM     37  C   UNL A   1      36.129  33.599  33.146  1.00  0.00    -0.014 A 
BRANCH  37  38
ATOM     38  C   UNL A   1      37.359  32.841  33.495  1.00  0.00     0.031 A 
ATOM     39  C   UNL A   1      38.103  33.144  34.767  1.00  0.00     0.074 A 
ATOM     40  C   UNL A   1      37.843  31.922  32.637  1.00  0.00     0.049 A 
ATOM     41  N   UNL A   1      39.228  32.639  35.209  1.00  0.00    -0.248 NA
ATOM     42  C   UNL A   1      37.519  34.168  35.647  1.00  0.00     0.031 C 
ATOM     43  C   UNL A   1      37.240  31.566  31.351  1.00  0.00     0.029 A 
ATOM     44  N   UNL A   1      38.960  31.126  32.711  1.00  0.00    -0.354 N 
ATOM     45  C   UNL A   1      39.489  33.289  36.408  1.00  0.00     0.074 A 
ATOM     46  C   UNL A   1      38.438  34.265  36.598  1.00  0.00     0.031 C 
ATOM     47  C   UNL A   1      37.979  30.608  30.769  1.00  0.00     0.029 A 
ATOM     48  C   UNL A   1      39.131  30.314  31.615  1.00  0.00     0.049 A 
ATOM     49  H   UNL A   1      39.579  31.136  33.476  1.00  0.00     0.167 HD
ATOM     50  C   UNL A   1      40.502  33.076  37.284  1.00  0.00     0.037 A 
ATOM     51  C   UNL A   1      40.112  29.438  31.320  1.00  0.00     0.037 A 
ATOM     52  C   UNL A   1      41.538  32.092  37.102  1.00  0.00     0.049 A 
ATOM     53  C   UNL A   1      41.237  29.237  32.300  1.00  0.00     0.074 A 
ATOM     54  C   UNL A   1      42.574  31.764  37.958  1.00  0.00     0.029 A 
ATOM     55  N   UNL A   1      41.673  31.283  35.984  1.00  0.00    -0.354 N 
ATOM     56  N   UNL A   1      41.435  29.809  33.463  1.00  0.00    -0.248 NA
ATOM     57  C   UNL A   1      42.272  28.263  31.928  1.00  0.00     0.031 C 
ATOM     58  C   UNL A   1      43.369  30.797  37.334  1.00  0.00     0.029 A 
ATOM     59  C   UNL A   1      42.791  30.475  36.116  1.00  0.00     0.049 A 
ATOM     60  H   UNL A   1      41.063  31.281  35.210  1.00  0.00     0.167 HD
ATOM     61  C   UNL A   1      42.595  29.242  33.974  1.00  0.00     0.074 A 
ATOM     62  C   UNL A   1      43.048  28.270  33.002  1.00  0.00     0.031 C 
ATOM     63  C   UNL A   1      43.228  29.505  35.145  1.00  0.00     0.037 A 
BRANCH  50  64
ATOM     64  C   UNL A   1      40.541  33.925  38.523  1.00  0.00     0.064 A 
ATOM     65  C   UNL A   1      39.873  33.546  39.697  1.00  0.00     0.173 A 
ATOM     66  C   UNL A   1      41.293  35.110  38.551  1.00  0.00     0.173 A 
ATOM     67  F   UNL A   1      39.133  32.428  39.723  1.00  0.00    -0.203 F 
ATOM     68  C   UNL A   1      39.930  34.336  40.843  1.00  0.00     0.198 A 
ATOM     69  C   UNL A   1      41.376  35.880  39.709  1.00  0.00     0.198 A 
ATOM     70  F   UNL A   1      41.958  35.516  37.459  1.00  0.00    -0.203 F 
ATOM     71  F   UNL A   1      39.242  33.980  41.936  1.00  0.00    -0.200 F 
ATOM     72  C   UNL A   1      40.688  35.498  40.851  1.00  0.00     0.200 A 
ATOM     73  F   UNL A   1      42.122  36.994  39.718  1.00  0.00    -0.200 F 
ATOM     74  F   UNL A   1      40.752  36.252  41.956  1.00  0.00    -0.200 F 
ENDBRANCH  50  64
BRANCH  51  75
ATOM     75  C   UNL A   1      40.070  28.673  30.046  1.00  0.00     0.064 A 
ATOM     76  C   UNL A   1      39.457  27.413  29.981  1.00  0.00     0.173 A 
ATOM     77  C   UNL A   1      40.653  29.175  28.872  1.00  0.00     0.173 A 
ATOM     78  F   UNL A   1      38.905  26.880  31.080  1.00  0.00    -0.203 F 
ATOM     79  C   UNL A   1      39.454  26.674  28.799  1.00  0.00     0.198 A 
ATOM     80  C   UNL A   1      40.619  28.449  27.684  1.00  0.00     0.198 A 
ATOM     81  F   UNL A   1      41.247  30.377  28.878  1.00  0.00    -0.203 F 
ATOM     82  F   UNL A   1      38.911  25.449  28.780  1.00  0.00    -0.200 F 
ATOM     83  C   UNL A   1      40.029  27.195  27.650  1.00  0.00     0.200 A 
ATOM     84  F   UNL A   1      41.162  28.964  26.572  1.00  0.00    -0.200 F 
ATOM     85  F   UNL A   1      40.024  26.485  26.514  1.00  0.00    -0.200 F 
ENDBRANCH  51  75
BRANCH  63  86
ATOM     86  C   UNL A   1      44.457  28.699  35.462  1.00  0.00     0.064 A 
ATOM     87  C   UNL A   1      44.385  27.481  36.153  1.00  0.00     0.173 A 
ATOM     88  C   UNL A   1      45.720  29.135  35.032  1.00  0.00     0.173 A 
ATOM     89  F   UNL A   1      43.204  27.026  36.600  1.00  0.00    -0.203 F 
ATOM     90  C   UNL A   1      45.534  26.744  36.429  1.00  0.00     0.198 A 
ATOM     91  C   UNL A   1      46.863  28.380  35.279  1.00  0.00     0.198 A 
ATOM     92  F   UNL A   1      45.845  30.290  34.359  1.00  0.00    -0.203 F 
ATOM     93  F   UNL A   1      45.447  25.611  37.138  1.00  0.00    -0.200 F 
ATOM     94  C   UNL A   1      46.770  27.190  35.984  1.00  0.00     0.200 A 
ATOM     95  F   UNL A   1      48.054  28.803  34.833  1.00  0.00    -0.200 F 
ATOM     96  F   UNL A   1      47.874  26.475  36.242  1.00  0.00    -0.200 F 
ENDBRANCH  63  86
ENDBRANCH  37  38
ENDBRANCH  29  32
ENDBRANCH  27  28
ENDBRANCH  26  27
ENDBRANCH  25  26
ENDBRANCH   1  25
TORSDOF 16
ENDMDL
MODEL 2
REMARK VINA RESULT:     -11.4      1.970      7.867
REMARK SMILES O=C(CC1CCN(C(=O)N2CCCC[C@@H]2CCO)CC1)NCCCCNC(=O)c1ccc(-c2c3nc(c(-c4c(F)c(F)c(F)c(F)c4F)c4ccc([nH]4)c(-c4c(F)c(F)c(F)c(F)c4F)c4nc(c(-c5c(F)c(F)c(F)c(F)c5F)c5ccc2[nH]5)C=C4)C=C3)cc1
REMARK SMILES IDX 22 1 21 2 1 3 2 4 3 6 4 7 5 8 20 9 6 10 19 11 7 12 8 13 9 14
REMARK SMILES IDX 10 15 11 16 15 17 12 18 14 19 13 20 16 21 17 22 18 23 23 25
REMARK SMILES IDX 24 26 25 27 26 28 27 29 28 31 29 32 30 33 91 34 31 35 90 36
REMARK SMILES IDX 32 37 33 38 34 39 84 40 35 41 89 42 83 43 85 44 36 45 88 46
REMARK SMILES IDX 82 47 81 48 37 50 69 51 49 52 68 53 50 54 53 55 67 56 86 57
REMARK SMILES IDX 51 58 52 59 66 61 87 62 54 63 38 64 39 65 47 66 40 67 41 68
REMARK SMILES IDX 45 69 48 70 42 71 43 72 46 73 44 74 70 75 71 76 79 77 72 78
REMARK SMILES IDX 73 79 77 80 80 81 74 82 75 83 78 84 76 85 55 86 56 87 64 88
REMARK SMILES IDX 57 89 58 90 62 91 65 92 59 93 60 94 63 95 61 96
REMARK H PARENT 21 5 18 24 26 30 85 49 53 60
REMARK Flexibility Score: inf
ROOT
ATOM      1  C   UNL A   1      31.024  30.365  24.910  1.00  0.00     0.116 C 
ENDROOT
BRANCH   1   2
ATOM      2  N   UNL A   1      31.483  29.106  24.357  1.00  0.00    -0.356 N 
ATOM      3  O   UNL A   1      29.455  28.508  23.467  1.00  0.00    -0.275 OA
ATOM      4  C   UNL A   1      30.650  28.289  23.633  1.00  0.00     0.220 C 
ATOM      5  H   UNL A   1      32.416  28.831  24.503  1.00  0.00     0.163 HD
BRANCH   4   6
ATOM      6  C   UNL A   1      31.320  27.068  23.044  1.00  0.00     0.103 C 
BRANCH   6   7
ATOM      7  C   UNL A   1      30.795  25.703  23.539  1.00  0.00     0.002 C 
ATOM      8  C   UNL A   1      30.444  25.615  25.037  1.00  0.00     0.026 C 
ATOM      9  C   UNL A   1      31.821  24.598  23.214  1.00  0.00     0.026 C 
ATOM     10  C   UNL A   1      31.686  25.689  25.919  1.00  0.00     0.121 C 
ATOM     11  C   UNL A   1      33.038  24.629  24.149  1.00  0.00     0.121 C 
ATOM     12  N   UNL A   1      32.619  24.632  25.549  1.00  0.00    -0.325 N 
ATOM     13  C   UNL A   1      32.855  23.613  26.451  1.00  0.00     0.320 C 
ATOM     14  O   UNL A   1      32.125  23.406  27.421  1.00  0.00    -0.248 OA
BRANCH  13  15
ATOM     15  N   UNL A   1      33.909  22.765  26.179  1.00  0.00    -0.322 N 
ATOM     16  C   UNL A   1      35.218  23.262  26.573  1.00  0.00     0.121 C 
ATOM     17  C   UNL A   1      33.771  21.335  25.810  1.00  0.00     0.089 C 
ATOM     18  C   UNL A   1      36.332  22.833  25.637  1.00  0.00     0.022 C 
ATOM     19  C   UNL A   1      34.923  20.924  24.864  1.00  0.00     0.025 C 
ATOM     20  C   UNL A   1      36.288  21.331  25.405  1.00  0.00     0.004 C 
BRANCH  17  21
ATOM     21  C   UNL A   1      32.414  20.990  25.148  1.00  0.00     0.053 C 
BRANCH  21  22
ATOM     22  C   UNL A   1      32.308  19.554  24.641  1.00  0.00     0.158 C 
BRANCH  22  23
ATOM     23  O   UNL A   1      32.153  18.647  25.725  1.00  0.00    -0.396 OA
ATOM     24  H   UNL A   1      32.056  17.746  25.381  1.00  0.00     0.210 HD
ENDBRANCH  22  23
ENDBRANCH  21  22
ENDBRANCH  17  21
ENDBRANCH  13  15
ENDBRANCH   6   7
ENDBRANCH   4   6
ENDBRANCH   1   2
BRANCH   1  25
ATOM     25  C   UNL A   1      31.668  30.665  26.259  1.00  0.00     0.023 C 
BRANCH  25  26
ATOM     26  C   UNL A   1      31.432  32.084  26.778  1.00  0.00     0.023 C 
BRANCH  26  27
ATOM     27  C   UNL A   1      32.680  32.821  27.254  1.00  0.00     0.116 C 
BRANCH  27  28
ATOM     28  N   UNL A   1      32.415  34.203  27.617  1.00  0.00    -0.352 N 
ATOM     29  C   UNL A   1      32.991  34.976  28.595  1.00  0.00     0.251 C 
ATOM     30  H   UNL A   1      31.720  34.651  27.083  1.00  0.00     0.163 HD
ATOM     31  O   UNL A   1      32.527  36.083  28.858  1.00  0.00    -0.269 OA
BRANCH  29  32
ATOM     32  C   UNL A   1      34.154  34.470  29.358  1.00  0.00     0.039 A 
ATOM     33  C   UNL A   1      33.933  33.876  30.604  1.00  0.00     0.014 A 
ATOM     34  C   UNL A   1      35.454  34.580  28.857  1.00  0.00     0.014 A 
ATOM     35  C   UNL A   1      35.006  33.328  31.312  1.00  0.00     0.010 A 
ATOM     36  C   UNL A   1      36.511  33.965  29.527  1.00  0.00     0.010 A 
ATOM     37  C   UNL A   1      36.298  33.331  30.761  1.00  0.00    -0.014 A 
BRANCH  37  38
ATOM     38  C   UNL A   1      37.432  32.667  31.456  1.00  0.00     0.031 A 
ATOM     39  C   UNL A   1      38.134  31.498  30.820  1.00  0.00     0.074 A 
ATOM     40  C   UNL A   1      37.791  33.075  32.689  1.00  0.00     0.049 A 
ATOM     41  N   UNL A   1      39.095  30.748  31.299  1.00  0.00    -0.248 NA
ATOM     42  C   UNL A   1      37.678  31.103  29.478  1.00  0.00     0.031 C 
ATOM     43  C   UNL A   1      37.162  34.168  33.434  1.00  0.00     0.029 A 
ATOM     44  N   UNL A   1      38.764  32.612  33.540  1.00  0.00    -0.354 N 
ATOM     45  C   UNL A   1      39.349  29.791  30.325  1.00  0.00     0.074 A 
ATOM     46  C   UNL A   1      38.406  30.019  29.253  1.00  0.00     0.031 C 
ATOM     47  C   UNL A   1      37.780  34.305  34.618  1.00  0.00     0.029 A 
ATOM     48  C   UNL A   1      38.816  33.285  34.737  1.00  0.00     0.049 A 
ATOM     49  H   UNL A   1      39.369  31.868  33.314  1.00  0.00     0.167 HD
ATOM     50  C   UNL A   1      40.301  28.826  30.316  1.00  0.00     0.037 A 
ATOM     51  C   UNL A   1      39.604  33.095  35.814  1.00  0.00     0.037 A 
ATOM     52  C   UNL A   1      41.251  28.612  31.376  1.00  0.00     0.049 A 
ATOM     53  C   UNL A   1      40.636  31.999  35.786  1.00  0.00     0.074 A 
ATOM     54  C   UNL A   1      42.286  27.696  31.435  1.00  0.00     0.029 A 
ATOM     55  N   UNL A   1      41.278  29.320  32.568  1.00  0.00    -0.354 N 
ATOM     56  N   UNL A   1      40.913  31.147  34.830  1.00  0.00    -0.248 NA
ATOM     57  C   UNL A   1      41.471  31.846  36.985  1.00  0.00     0.031 C 
ATOM     58  C   UNL A   1      42.903  27.810  32.684  1.00  0.00     0.029 A 
ATOM     59  C   UNL A   1      42.294  28.842  33.380  1.00  0.00     0.049 A 
ATOM     60  H   UNL A   1      40.665  30.054  32.804  1.00  0.00     0.167 HD
ATOM     61  C   UNL A   1      41.971  30.379  35.298  1.00  0.00     0.074 A 
ATOM     62  C   UNL A   1      42.297  30.878  36.617  1.00  0.00     0.031 C 
ATOM     63  C   UNL A   1      42.615  29.352  34.689  1.00  0.00     0.037 A 
BRANCH  50  64
ATOM     64  C   UNL A   1      40.361  27.921  29.117  1.00  0.00     0.064 A 
ATOM     65  C   UNL A   1      39.639  26.720  29.063  1.00  0.00     0.173 A 
ATOM     66  C   UNL A   1      41.115  28.283  27.989  1.00  0.00     0.173 A 
ATOM     67  F   UNL A   1      38.909  26.322  30.115  1.00  0.00    -0.203 F 
ATOM     68  C   UNL A   1      39.693  25.898  27.939  1.00  0.00     0.198 A 
ATOM     69  C   UNL A   1      41.139  27.476  26.854  1.00  0.00     0.198 A 
ATOM     70  F   UNL A   1      41.819  29.424  27.982  1.00  0.00    -0.203 F 
ATOM     71  F   UNL A   1      39.035  24.731  27.932  1.00  0.00    -0.200 F 
ATOM     72  C   UNL A   1      40.436  26.281  26.833  1.00  0.00     0.200 A 
ATOM     73  F   UNL A   1      41.846  27.856  25.780  1.00  0.00    -0.200 F 
ATOM     74  F   UNL A   1      40.480  25.496  25.747  1.00  0.00    -0.200 F 
ENDBRANCH  50  64
BRANCH  51  75
ATOM     75  C   UNL A   1      39.456  33.969  37.008  1.00  0.00     0.064 A 
ATOM     76  C   UNL A   1      40.084  35.222  37.067  1.00  0.00     0.173 A 
ATOM     77  C   UNL A   1      38.701  33.566  38.120  1.00  0.00     0.173 A 
ATOM     78  F   UNL A   1      40.835  35.643  36.039  1.00  0.00    -0.203 F 
ATOM     79  C   UNL A   1      39.984  36.025  38.202  1.00  0.00     0.198 A 
ATOM     80  C   UNL A   1      38.576  34.385  39.240  1.00  0.00     0.198 A 
ATOM     81  F   UNL A   1      38.076  32.380  38.114  1.00  0.00    -0.203 F 
ATOM     82  F   UNL A   1      40.641  37.192  38.252  1.00  0.00    -0.200 F 
ATOM     83  C   UNL A   1      39.226  35.609  39.284  1.00  0.00     0.200 A 
ATOM     84  F   UNL A   1      37.828  33.985  40.278  1.00  0.00    -0.200 F 
ATOM     85  F   UNL A   1      39.129  36.382  40.374  1.00  0.00    -0.200 F 
ENDBRANCH  51  75
BRANCH  63  86
ATOM     86  C   UNL A   1      43.766  28.725  35.423  1.00  0.00     0.064 A 
ATOM     87  C   UNL A   1      45.081  29.191  35.274  1.00  0.00     0.173 A 
ATOM     88  C   UNL A   1      43.543  27.668  36.320  1.00  0.00     0.173 A 
ATOM     89  F   UNL A   1      45.351  30.189  34.419  1.00  0.00    -0.203 F 
ATOM     90  C   UNL A   1      46.133  28.602  35.972  1.00  0.00     0.198 A 
ATOM     91  C   UNL A   1      44.592  27.105  37.042  1.00  0.00     0.198 A 
ATOM     92  F   UNL A   1      42.304  27.189  36.507  1.00  0.00    -0.203 F 
ATOM     93  F   UNL A   1      47.388  29.029  35.772  1.00  0.00    -0.200 F 
ATOM     94  C   UNL A   1      45.887  27.567  36.861  1.00  0.00     0.200 A 
ATOM     95  F   UNL A   1      44.349  26.116  37.913  1.00  0.00    -0.200 F 
ATOM     96  F   UNL A   1      46.899  27.008  37.538  1.00  0.00    -0.200 F 
ENDBRANCH  63  86
ENDBRANCH  37  38
ENDBRANCH  29  32
ENDBRANCH  27  28
ENDBRANCH  26  27
ENDBRANCH  25  26
ENDBRANCH   1  25
TORSDOF 16
ENDMDL
MODEL 3
REMARK VINA RESULT:     -11.4      2.101      7.819
REMARK SMILES O=C(CC1CCN(C(=O)N2CCCC[C@@H]2CCO)CC1)NCCCCNC(=O)c1ccc(-c2c3nc(c(-c4c(F)c(F)c(F)c(F)c4F)c4ccc([nH]4)c(-c4c(F)c(F)c(F)c(F)c4F)c4nc(c(-c5c(F)c(F)c(F)c(F)c5F)c5ccc2[nH]5)C=C4)C=C3)cc1
REMARK SMILES IDX 22 1 21 2 1 3 2 4 3 6 4 7 5 8 20 9 6 10 19 11 7 12 8 13 9 14
REMARK SMILES IDX 10 15 11 16 15 17 12 18 14 19 13 20 16 21 17 22 18 23 23 25
REMARK SMILES IDX 24 26 25 27 26 28 27 29 28 31 29 32 30 33 91 34 31 35 90 36
REMARK SMILES IDX 32 37 33 38 34 39 84 40 35 41 89 42 83 43 85 44 36 45 88 46
REMARK SMILES IDX 82 47 81 48 37 50 69 51 49 52 68 53 50 54 53 55 67 56 86 57
REMARK SMILES IDX 51 58 52 59 66 61 87 62 54 63 38 64 39 65 47 66 40 67 41 68
REMARK SMILES IDX 45 69 48 70 42 71 43 72 46 73 44 74 70 75 71 76 79 77 72 78
REMARK SMILES IDX 73 79 77 80 80 81 74 82 75 83 78 84 76 85 55 86 56 87 64 88
REMARK SMILES IDX 57 89 58 90 62 91 65 92 59 93 60 94 63 95 61 96
REMARK H PARENT 21 5 18 24 26 30 85 49 53 60
REMARK Flexibility Score: inf
ROOT
ATOM      1  C   UNL A   1      31.161  30.272  24.977  1.00  0.00     0.116 C 
ENDROOT
BRANCH   1   2
ATOM      2  N   UNL A   1      31.863  29.140  24.406  1.00  0.00    -0.356 N 
ATOM      3  O   UNL A   1      30.030  28.262  23.341  1.00  0.00    -0.275 OA
ATOM      4  C   UNL A   1      31.231  28.236  23.587  1.00  0.00     0.220 C 
ATOM      5  H   UNL A   1      32.818  29.017  24.610  1.00  0.00     0.163 HD
BRANCH   4   6
ATOM      6  C   UNL A   1      32.137  27.178  22.998  1.00  0.00     0.103 C 
BRANCH   6   7
ATOM      7  C   UNL A   1      31.792  25.717  23.355  1.00  0.00     0.002 C 
ATOM      8  C   UNL A   1      31.423  25.448  24.827  1.00  0.00     0.026 C 
ATOM      9  C   UNL A   1      32.966  24.792  22.971  1.00  0.00     0.026 C 
ATOM     10  C   UNL A   1      32.623  25.607  25.754  1.00  0.00     0.121 C 
ATOM     11  C   UNL A   1      34.146  24.901  23.947  1.00  0.00     0.121 C 
ATOM     12  N   UNL A   1      33.699  24.722  25.327  1.00  0.00    -0.325 N 
ATOM     13  C   UNL A   1      34.051  23.667  26.145  1.00  0.00     0.320 C 
ATOM     14  O   UNL A   1      33.335  23.278  27.068  1.00  0.00    -0.248 OA
BRANCH  13  15
ATOM     15  N   UNL A   1      35.217  22.995  25.837  1.00  0.00    -0.322 N 
ATOM     16  C   UNL A   1      36.442  23.661  26.253  1.00  0.00     0.121 C 
ATOM     17  C   UNL A   1      35.287  21.576  25.406  1.00  0.00     0.089 C 
ATOM     18  C   UNL A   1      37.600  23.441  25.299  1.00  0.00     0.022 C 
ATOM     19  C   UNL A   1      36.482  21.380  24.444  1.00  0.00     0.025 C 
ATOM     20  C   UNL A   1      37.776  21.959  25.003  1.00  0.00     0.004 C 
BRANCH  17  21
ATOM     21  C   UNL A   1      33.992  21.065  24.730  1.00  0.00     0.053 C 
BRANCH  21  22
ATOM     22  C   UNL A   1      33.347  19.870  25.427  1.00  0.00     0.158 C 
BRANCH  22  23
ATOM     23  O   UNL A   1      33.259  20.092  26.829  1.00  0.00    -0.396 OA
ATOM     24  H   UNL A   1      34.141  20.009  27.225  1.00  0.00     0.210 HD
ENDBRANCH  22  23
ENDBRANCH  21  22
ENDBRANCH  17  21
ENDBRANCH  13  15
ENDBRANCH   6   7
ENDBRANCH   4   6
ENDBRANCH   1   2
BRANCH   1  25
ATOM     25  C   UNL A   1      31.659  30.606  26.378  1.00  0.00     0.023 C 
BRANCH  25  26
ATOM     26  C   UNL A   1      31.427  32.055  26.810  1.00  0.00     0.023 C 
BRANCH  26  27
ATOM     27  C   UNL A   1      32.684  32.831  27.190  1.00  0.00     0.116 C 
BRANCH  27  28
ATOM     28  N   UNL A   1      32.402  34.199  27.592  1.00  0.00    -0.352 N 
ATOM     29  C   UNL A   1      32.969  34.952  28.591  1.00  0.00     0.251 C 
ATOM     30  H   UNL A   1      31.701  34.654  27.071  1.00  0.00     0.163 HD
ATOM     31  O   UNL A   1      32.491  36.045  28.885  1.00  0.00    -0.269 OA
BRANCH  29  32
ATOM     32  C   UNL A   1      34.139  34.439  29.339  1.00  0.00     0.039 A 
ATOM     33  C   UNL A   1      33.928  33.821  30.575  1.00  0.00     0.014 A 
ATOM     34  C   UNL A   1      35.436  34.567  28.835  1.00  0.00     0.014 A 
ATOM     35  C   UNL A   1      35.007  33.267  31.268  1.00  0.00     0.010 A 
ATOM     36  C   UNL A   1      36.499  33.947  29.489  1.00  0.00     0.010 A 
ATOM     37  C   UNL A   1      36.297  33.289  30.711  1.00  0.00    -0.014 A 
BRANCH  37  38
ATOM     38  C   UNL A   1      37.438  32.619  31.389  1.00  0.00     0.031 A 
ATOM     39  C   UNL A   1      38.127  31.450  30.739  1.00  0.00     0.074 A 
ATOM     40  C   UNL A   1      37.814  33.023  32.618  1.00  0.00     0.049 A 
ATOM     41  N   UNL A   1      39.093  30.696  31.203  1.00  0.00    -0.248 NA
ATOM     42  C   UNL A   1      37.653  31.061  29.402  1.00  0.00     0.031 C 
ATOM     43  C   UNL A   1      37.199  34.115  33.375  1.00  0.00     0.029 A 
ATOM     44  N   UNL A   1      38.798  32.554  33.454  1.00  0.00    -0.354 N 
ATOM     45  C   UNL A   1      39.332  29.742  30.223  1.00  0.00     0.074 A 
ATOM     46  C   UNL A   1      38.374  29.976  29.164  1.00  0.00     0.031 C 
ATOM     47  C   UNL A   1      37.833  34.247  34.550  1.00  0.00     0.029 A 
ATOM     48  C   UNL A   1      38.868  33.224  34.652  1.00  0.00     0.049 A 
ATOM     49  H   UNL A   1      39.397  31.809  33.217  1.00  0.00     0.167 HD
ATOM     50  C   UNL A   1      40.280  28.774  30.197  1.00  0.00     0.037 A 
ATOM     51  C   UNL A   1      39.670  33.028  35.718  1.00  0.00     0.037 A 
ATOM     52  C   UNL A   1      41.244  28.555  31.244  1.00  0.00     0.049 A 
ATOM     53  C   UNL A   1      40.699  31.929  35.672  1.00  0.00     0.074 A 
ATOM     54  C   UNL A   1      42.277  27.635  31.285  1.00  0.00     0.029 A 
ATOM     55  N   UNL A   1      41.289  29.258  32.438  1.00  0.00    -0.354 N 
ATOM     56  N   UNL A   1      40.960  31.079  34.710  1.00  0.00    -0.248 NA
ATOM     57  C   UNL A   1      41.549  31.770  36.860  1.00  0.00     0.031 C 
ATOM     58  C   UNL A   1      42.911  27.743  32.527  1.00  0.00     0.029 A 
ATOM     59  C   UNL A   1      42.315  28.775  33.234  1.00  0.00     0.049 A 
ATOM     60  H   UNL A   1      40.682  29.994  32.684  1.00  0.00     0.167 HD
ATOM     61  C   UNL A   1      42.023  30.307  35.162  1.00  0.00     0.074 A 
ATOM     62  C   UNL A   1      42.368  30.801  36.477  1.00  0.00     0.031 C 
ATOM     63  C   UNL A   1      42.655  29.280  34.540  1.00  0.00     0.037 A 
BRANCH  50  64
ATOM     64  C   UNL A   1      40.322  27.873  28.995  1.00  0.00     0.064 A 
ATOM     65  C   UNL A   1      41.071  28.200  27.854  1.00  0.00     0.173 A 
ATOM     66  C   UNL A   1      39.642  26.645  29.001  1.00  0.00     0.173 A 
ATOM     67  F   UNL A   1      41.732  29.365  27.791  1.00  0.00    -0.203 F 
ATOM     68  C   UNL A   1      41.112  27.349  26.753  1.00  0.00     0.198 A 
ATOM     69  C   UNL A   1      39.714  25.779  27.912  1.00  0.00     0.198 A 
ATOM     70  F   UNL A   1      38.918  26.277  30.068  1.00  0.00    -0.203 F 
ATOM     71  F   UNL A   1      41.792  27.707  25.656  1.00  0.00    -0.200 F 
ATOM     72  C   UNL A   1      40.441  26.135  26.785  1.00  0.00     0.200 A 
ATOM     73  F   UNL A   1      39.077  24.600  27.953  1.00  0.00    -0.200 F 
ATOM     74  F   UNL A   1      40.490  25.311  25.730  1.00  0.00    -0.200 F 
ENDBRANCH  50  64
BRANCH  51  75
ATOM     75  C   UNL A   1      39.541  33.898  36.917  1.00  0.00     0.064 A 
ATOM     76  C   UNL A   1      38.739  33.517  38.002  1.00  0.00     0.173 A 
ATOM     77  C   UNL A   1      40.202  35.134  36.997  1.00  0.00     0.173 A 
ATOM     78  F   UNL A   1      38.070  32.356  37.964  1.00  0.00    -0.203 F 
ATOM     79  C   UNL A   1      38.582  34.350  39.109  1.00  0.00     0.198 A 
ATOM     80  C   UNL A   1      40.069  35.949  38.119  1.00  0.00     0.198 A 
ATOM     81  F   UNL A   1      40.986  35.544  35.989  1.00  0.00    -0.203 F 
ATOM     82  F   UNL A   1      37.765  33.986  40.107  1.00  0.00    -0.200 F 
ATOM     83  C   UNL A   1      39.251  35.562  39.169  1.00  0.00     0.200 A 
ATOM     84  F   UNL A   1      40.732  37.113  38.179  1.00  0.00    -0.200 F 
ATOM     85  F   UNL A   1      39.101  36.361  40.233  1.00  0.00    -0.200 F 
ENDBRANCH  51  75
BRANCH  63  86
ATOM     86  C   UNL A   1      43.814  28.648  35.257  1.00  0.00     0.064 A 
ATOM     87  C   UNL A   1      43.642  27.573  36.140  1.00  0.00     0.173 A 
ATOM     88  C   UNL A   1      45.123  29.101  35.025  1.00  0.00     0.173 A 
ATOM     89  F   UNL A   1      42.410  27.110  36.410  1.00  0.00    -0.203 F 
ATOM     90  C   UNL A   1      44.731  26.994  36.788  1.00  0.00     0.198 A 
ATOM     91  C   UNL A   1      46.213  28.498  35.646  1.00  0.00     0.198 A 
ATOM     92  F   UNL A   1      45.346  30.121  34.182  1.00  0.00    -0.203 F 
ATOM     93  F   UNL A   1      44.535  26.003  37.668  1.00  0.00    -0.200 F 
ATOM     94  C   UNL A   1      46.015  27.451  36.533  1.00  0.00     0.200 A 
ATOM     95  F   UNL A   1      47.455  28.930  35.386  1.00  0.00    -0.200 F 
ATOM     96  F   UNL A   1      47.063  26.887  37.150  1.00  0.00    -0.200 F 
ENDBRANCH  63  86
ENDBRANCH  37  38
ENDBRANCH  29  32
ENDBRANCH  27  28
ENDBRANCH  26  27
ENDBRANCH  25  26
ENDBRANCH   1  25
TORSDOF 16
ENDMDL
