MODEL 1
REMARK VINA RESULT:     -15.7      0.000      0.000
REMARK SMILES Cc1cccc(C(=O)Nc2ccc(C(=O)NNC(=O)c3ccccc3C(=O)NCCCCNC(=O)c3ccc(-c4c5nc(c(-c6c(F)c(F)c(F)c(F)c6F)c6ccc([nH]6)c(-c6c(F)c(F)c(F)c(F)c6F)c6nc(c(-c7c(F)c(F)c(F)c(F)c7F)c7ccc4[nH]7)C=C6)C=C5)cc3)cc2)c1
REMARK SMILES IDX 29 1 28 2 26 3 27 4 25 6 20 7 21 8 22 9 24 10 23 11 18 12
REMARK SMILES IDX 17 13 19 15 16 16 14 17 15 18 13 20 10 21 11 22 100 23 12 24
REMARK SMILES IDX 99 25 9 26 7 27 8 28 6 30 1 31 2 32 3 33 101 34 4 35 5 36
REMARK SMILES IDX 30 37 31 38 32 39 33 40 34 41 35 43 36 44 37 45 98 46 38 47
REMARK SMILES IDX 97 48 39 49 40 50 41 51 91 52 42 53 96 54 90 55 92 56 43 57
REMARK SMILES IDX 95 58 89 59 88 60 44 62 76 63 56 64 75 65 57 66 60 67 74 68
REMARK SMILES IDX 93 69 58 70 59 71 73 73 94 74 61 75 45 76 46 77 54 78 47 79
REMARK SMILES IDX 48 80 52 81 55 82 49 83 50 84 53 85 51 86 77 87 78 88 86 89
REMARK SMILES IDX 79 90 80 91 84 92 87 93 81 94 82 95 85 96 83 97 62 98 63 99
REMARK SMILES IDX 71 100 64 101 65 102 69 103 72 104 66 105 67 106 70 107
REMARK SMILES IDX 68 108
REMARK H PARENT 28 5 17 14 16 19 9 29 33 42 92 61 60 72
REMARK Flexibility Score: inf
ROOT
ATOM      1  C   UNL A   1      32.040  29.028  26.191  1.00  0.00     0.116 C 
ENDROOT
BRANCH   1   2
ATOM      2  N   UNL A   1      32.493  28.816  24.819  1.00  0.00    -0.352 N 
ATOM      3  C   UNL A   1      31.805  28.977  23.629  1.00  0.00     0.252 C 
ATOM      4  O   UNL A   1      32.388  28.878  22.554  1.00  0.00    -0.269 OA
ATOM      5  H   UNL A   1      33.425  28.513  24.726  1.00  0.00     0.163 HD
BRANCH   3   6
ATOM      6  C   UNL A   1      30.340  29.183  23.624  1.00  0.00     0.052 A 
ATOM      7  C   UNL A   1      29.426  28.148  23.401  1.00  0.00     0.054 A 
ATOM      8  C   UNL A   1      28.121  28.471  23.010  1.00  0.00     0.015 A 
ATOM      9  C   UNL A   1      27.701  29.807  23.019  1.00  0.00     0.001 A 
ATOM     10  C   UNL A   1      29.890  30.506  23.743  1.00  0.00     0.014 A 
ATOM     11  C   UNL A   1      28.564  30.815  23.450  1.00  0.00     0.001 A 
BRANCH   7  12
ATOM     12  C   UNL A   1      29.854  26.730  23.504  1.00  0.00     0.270 C 
ATOM     13  N   UNL A   1      29.185  25.978  24.456  1.00  0.00    -0.263 N 
ATOM     14  H   UNL A   1      28.236  26.145  24.656  1.00  0.00     0.191 HD
ATOM     15  O   UNL A   1      30.806  26.321  22.847  1.00  0.00    -0.267 OA
BRANCH  13  16
ATOM     16  N   UNL A   1      29.901  24.962  25.130  1.00  0.00    -0.263 N 
ATOM     17  C   UNL A   1      30.778  25.386  26.121  1.00  0.00     0.269 C 
ATOM     18  O   UNL A   1      30.517  26.298  26.899  1.00  0.00    -0.267 OA
ATOM     19  H   UNL A   1      29.785  24.010  24.910  1.00  0.00     0.191 HD
BRANCH  17  20
ATOM     20  C   UNL A   1      32.153  24.806  26.104  1.00  0.00     0.041 A 
ATOM     21  C   UNL A   1      34.494  23.250  25.766  1.00  0.00     0.041 A 
ATOM     22  C   UNL A   1      33.619  22.998  26.811  1.00  0.00     0.027 A 
ATOM     23  C   UNL A   1      34.247  24.363  24.952  1.00  0.00     0.027 A 
ATOM     24  C   UNL A   1      32.463  23.767  26.976  1.00  0.00     0.016 A 
ATOM     25  C   UNL A   1      33.067  25.120  25.098  1.00  0.00     0.016 A 
BRANCH  21  26
ATOM     26  N   UNL A   1      35.623  22.454  25.510  1.00  0.00    -0.322 N 
ATOM     27  C   UNL A   1      35.786  21.110  25.219  1.00  0.00     0.255 C 
ATOM     28  O   UNL A   1      36.909  20.621  25.366  1.00  0.00    -0.269 OA
ATOM     29  H   UNL A   1      36.470  22.953  25.545  1.00  0.00     0.170 HD
BRANCH  27  30
ATOM     30  C   UNL A   1      34.710  20.235  24.660  1.00  0.00     0.040 A 
ATOM     31  C   UNL A   1      33.951  16.580  23.883  1.00  0.00     0.044 C 
ATOM     32  C   UNL A   1      33.791  18.063  24.035  1.00  0.00    -0.050 A 
ATOM     33  C   UNL A   1      32.624  18.687  23.584  1.00  0.00     0.003 A 
ATOM     34  C   UNL A   1      34.801  18.838  24.626  1.00  0.00     0.017 A 
ATOM     35  C   UNL A   1      32.479  20.068  23.700  1.00  0.00     0.001 A 
ATOM     36  C   UNL A   1      33.521  20.839  24.222  1.00  0.00     0.014 A 
ENDBRANCH  27  30
ENDBRANCH  21  26
ENDBRANCH  17  20
ENDBRANCH  13  16
ENDBRANCH   7  12
ENDBRANCH   3   6
ENDBRANCH   1   2
BRANCH   1  37
ATOM     37  C   UNL A   1      31.770  30.477  26.593  1.00  0.00     0.023 C 
BRANCH  37  38
ATOM     38  C   UNL A   1      32.946  31.353  27.055  1.00  0.00     0.023 C 
BRANCH  38  39
ATOM     39  C   UNL A   1      34.139  30.623  27.695  1.00  0.00     0.116 C 
BRANCH  39  40
ATOM     40  N   UNL A   1      34.782  31.403  28.755  1.00  0.00    -0.352 N 
ATOM     41  C   UNL A   1      35.956  31.202  29.457  1.00  0.00     0.251 C 
ATOM     42  H   UNL A   1      34.291  32.216  29.012  1.00  0.00     0.163 HD
ATOM     43  O   UNL A   1      36.364  32.074  30.223  1.00  0.00    -0.269 OA
BRANCH  41  44
ATOM     44  C   UNL A   1      36.794  30.010  29.206  1.00  0.00     0.039 A 
ATOM     45  C   UNL A   1      37.029  29.116  30.257  1.00  0.00     0.014 A 
ATOM     46  C   UNL A   1      37.449  29.835  27.996  1.00  0.00     0.014 A 
ATOM     47  C   UNL A   1      38.113  28.242  30.186  1.00  0.00     0.010 A 
ATOM     48  C   UNL A   1      38.571  29.029  27.945  1.00  0.00     0.010 A 
ATOM     49  C   UNL A   1      38.952  28.302  29.074  1.00  0.00    -0.014 A 
BRANCH  49  50
ATOM     50  C   UNL A   1      40.297  27.740  29.061  1.00  0.00     0.031 A 
ATOM     51  C   UNL A   1      40.532  26.341  28.655  1.00  0.00     0.074 A 
ATOM     52  C   UNL A   1      41.341  28.539  29.378  1.00  0.00     0.049 A 
ATOM     53  N   UNL A   1      41.552  25.644  29.026  1.00  0.00    -0.248 NA
ATOM     54  C   UNL A   1      39.604  25.596  27.816  1.00  0.00     0.031 C 
ATOM     55  C   UNL A   1      42.762  28.252  29.199  1.00  0.00     0.029 A 
ATOM     56  N   UNL A   1      41.320  29.720  30.143  1.00  0.00    -0.354 N 
ATOM     57  C   UNL A   1      41.564  24.481  28.291  1.00  0.00     0.074 A 
ATOM     58  C   UNL A   1      40.293  24.469  27.601  1.00  0.00     0.031 C 
ATOM     59  C   UNL A   1      43.466  28.998  30.065  1.00  0.00     0.029 A 
ATOM     60  C   UNL A   1      42.508  29.683  30.912  1.00  0.00     0.049 A 
ATOM     61  H   UNL A   1      40.629  30.421  30.142  1.00  0.00     0.167 HD
ATOM     62  C   UNL A   1      42.706  23.732  28.258  1.00  0.00     0.037 A 
ATOM     63  C   UNL A   1      42.491  29.635  32.274  1.00  0.00     0.037 A 
ATOM     64  C   UNL A   1      43.733  24.305  29.123  1.00  0.00     0.049 A 
ATOM     65  C   UNL A   1      43.247  28.467  32.852  1.00  0.00     0.074 A 
ATOM     66  C   UNL A   1      44.811  25.138  28.868  1.00  0.00     0.029 A 
ATOM     67  N   UNL A   1      43.556  24.296  30.501  1.00  0.00    -0.354 N 
ATOM     68  N   UNL A   1      43.474  27.360  32.201  1.00  0.00    -0.248 NA
ATOM     69  C   UNL A   1      43.794  28.445  34.203  1.00  0.00     0.031 C 
ATOM     70  C   UNL A   1      45.276  25.646  30.103  1.00  0.00     0.029 A 
ATOM     71  C   UNL A   1      44.490  25.113  31.110  1.00  0.00     0.049 A 
ATOM     72  H   UNL A   1      42.865  23.782  30.977  1.00  0.00     0.167 HD
ATOM     73  C   UNL A   1      44.177  26.495  33.001  1.00  0.00     0.074 A 
ATOM     74  C   UNL A   1      44.362  27.227  34.240  1.00  0.00     0.031 C 
ATOM     75  C   UNL A   1      44.541  25.254  32.556  1.00  0.00     0.037 A 
BRANCH  62  76
ATOM     76  C   UNL A   1      43.007  22.649  27.241  1.00  0.00     0.064 A 
ATOM     77  C   UNL A   1      42.304  21.420  27.262  1.00  0.00     0.173 A 
ATOM     78  C   UNL A   1      44.000  22.734  26.249  1.00  0.00     0.173 A 
ATOM     79  F   UNL A   1      41.254  21.223  28.069  1.00  0.00    -0.203 F 
ATOM     80  C   UNL A   1      42.652  20.336  26.450  1.00  0.00     0.198 A 
ATOM     81  C   UNL A   1      44.382  21.634  25.470  1.00  0.00     0.198 A 
ATOM     82  F   UNL A   1      44.593  23.897  25.958  1.00  0.00    -0.203 F 
ATOM     83  F   UNL A   1      41.953  19.195  26.529  1.00  0.00    -0.200 F 
ATOM     84  C   UNL A   1      43.716  20.430  25.581  1.00  0.00     0.200 A 
ATOM     85  F   UNL A   1      45.399  21.754  24.606  1.00  0.00    -0.200 F 
ATOM     86  F   UNL A   1      44.079  19.381  24.832  1.00  0.00    -0.200 F 
ENDBRANCH  62  76
BRANCH  63  87
ATOM     87  C   UNL A   1      41.274  30.247  32.867  1.00  0.00     0.064 A 
ATOM     88  C   UNL A   1      41.115  31.642  32.762  1.00  0.00     0.173 A 
ATOM     89  C   UNL A   1      40.134  29.483  33.140  1.00  0.00     0.173 A 
ATOM     90  F   UNL A   1      42.181  32.420  32.510  1.00  0.00    -0.203 F 
ATOM     91  C   UNL A   1      39.853  32.229  32.784  1.00  0.00     0.198 A 
ATOM     92  C   UNL A   1      38.873  30.080  33.187  1.00  0.00     0.198 A 
ATOM     93  F   UNL A   1      40.219  28.148  33.240  1.00  0.00    -0.203 F 
ATOM     94  F   UNL A   1      39.722  33.543  32.549  1.00  0.00    -0.200 F 
ATOM     95  C   UNL A   1      38.729  31.443  32.967  1.00  0.00     0.200 A 
ATOM     96  F   UNL A   1      37.781  29.317  33.346  1.00  0.00    -0.200 F 
ATOM     97  F   UNL A   1      37.509  31.988  32.885  1.00  0.00    -0.200 F 
ENDBRANCH  63  87
BRANCH  75  98
ATOM     98  C   UNL A   1      45.082  24.098  33.376  1.00  0.00     0.064 A 
ATOM     99  C   UNL A   1      44.350  22.950  33.716  1.00  0.00     0.173 A 
ATOM    100  C   UNL A   1      46.456  24.058  33.737  1.00  0.00     0.173 A 
ATOM    101  F   UNL A   1      43.078  22.788  33.333  1.00  0.00    -0.203 F 
ATOM    102  C   UNL A   1      44.923  21.880  34.415  1.00  0.00     0.198 A 
ATOM    103  C   UNL A   1      47.038  22.963  34.376  1.00  0.00     0.198 A 
ATOM    104  F   UNL A   1      47.293  25.064  33.451  1.00  0.00    -0.203 F 
ATOM    105  F   UNL A   1      44.163  20.827  34.751  1.00  0.00    -0.200 F 
ATOM    106  C   UNL A   1      46.267  21.879  34.732  1.00  0.00     0.200 A 
ATOM    107  F   UNL A   1      48.356  22.959  34.623  1.00  0.00    -0.200 F 
ATOM    108  F   UNL A   1      46.820  20.831  35.355  1.00  0.00    -0.200 F 
ENDBRANCH  75  98
ENDBRANCH  49  50
ENDBRANCH  41  44
ENDBRANCH  39  40
ENDBRANCH  38  39
ENDBRANCH  37  38
ENDBRANCH   1  37
TORSDOF 16
ENDMDL
MODEL 2
REMARK VINA RESULT:     -15.2      2.047      3.264
REMARK SMILES Cc1cccc(C(=O)Nc2ccc(C(=O)NNC(=O)c3ccccc3C(=O)NCCCCNC(=O)c3ccc(-c4c5nc(c(-c6c(F)c(F)c(F)c(F)c6F)c6ccc([nH]6)c(-c6c(F)c(F)c(F)c(F)c6F)c6nc(c(-c7c(F)c(F)c(F)c(F)c7F)c7ccc4[nH]7)C=C6)C=C5)cc3)cc2)c1
REMARK SMILES IDX 29 1 28 2 26 3 27 4 25 6 20 7 21 8 22 9 24 10 23 11 18 12
REMARK SMILES IDX 17 13 19 15 16 16 14 17 15 18 13 20 10 21 11 22 100 23 12 24
REMARK SMILES IDX 99 25 9 26 7 27 8 28 6 30 1 31 2 32 3 33 101 34 4 35 5 36
REMARK SMILES IDX 30 37 31 38 32 39 33 40 34 41 35 43 36 44 37 45 98 46 38 47
REMARK SMILES IDX 97 48 39 49 40 50 41 51 91 52 42 53 96 54 90 55 92 56 43 57
REMARK SMILES IDX 95 58 89 59 88 60 44 62 76 63 56 64 75 65 57 66 60 67 74 68
REMARK SMILES IDX 93 69 58 70 59 71 73 73 94 74 61 75 45 76 46 77 54 78 47 79
REMARK SMILES IDX 48 80 52 81 55 82 49 83 50 84 53 85 51 86 77 87 78 88 86 89
REMARK SMILES IDX 79 90 80 91 84 92 87 93 81 94 82 95 85 96 83 97 62 98 63 99
REMARK SMILES IDX 71 100 64 101 65 102 69 103 72 104 66 105 67 106 70 107
REMARK SMILES IDX 68 108
REMARK H PARENT 28 5 17 14 16 19 9 29 33 42 92 61 60 72
REMARK Flexibility Score: inf
ROOT
ATOM      1  C   UNL A   1      31.774  29.015  26.291  1.00  0.00     0.116 C 
ENDROOT
BRANCH   1   2
ATOM      2  N   UNL A   1      32.304  28.835  24.942  1.00  0.00    -0.352 N 
ATOM      3  C   UNL A   1      31.688  29.042  23.720  1.00  0.00     0.252 C 
ATOM      4  O   UNL A   1      32.331  28.965  22.678  1.00  0.00    -0.269 OA
ATOM      5  H   UNL A   1      33.234  28.520  24.895  1.00  0.00     0.163 HD
BRANCH   3   6
ATOM      6  C   UNL A   1      30.229  29.273  23.637  1.00  0.00     0.052 A 
ATOM      7  C   UNL A   1      29.318  28.269  23.293  1.00  0.00     0.054 A 
ATOM      8  C   UNL A   1      28.045  28.637  22.842  1.00  0.00     0.015 A 
ATOM      9  C   UNL A   1      27.642  29.977  22.907  1.00  0.00     0.001 A 
ATOM     10  C   UNL A   1      29.791  30.593  23.809  1.00  0.00     0.014 A 
ATOM     11  C   UNL A   1      28.490  30.942  23.453  1.00  0.00     0.001 A 
BRANCH   7  12
ATOM     12  C   UNL A   1      29.720  26.840  23.336  1.00  0.00     0.270 C 
ATOM     13  N   UNL A   1      29.049  26.064  24.267  1.00  0.00    -0.263 N 
ATOM     14  H   UNL A   1      28.106  26.241  24.487  1.00  0.00     0.191 HD
ATOM     15  O   UNL A   1      30.655  26.439  22.650  1.00  0.00    -0.267 OA
BRANCH  13  16
ATOM     16  N   UNL A   1      29.755  25.010  24.892  1.00  0.00    -0.263 N 
ATOM     17  C   UNL A   1      30.569  25.367  25.960  1.00  0.00     0.269 C 
ATOM     18  O   UNL A   1      30.247  26.204  26.796  1.00  0.00    -0.267 OA
ATOM     19  H   UNL A   1      29.674  24.077  24.587  1.00  0.00     0.191 HD
BRANCH  17  20
ATOM     20  C   UNL A   1      31.957  24.818  25.967  1.00  0.00     0.041 A 
ATOM     21  C   UNL A   1      34.334  23.304  25.694  1.00  0.00     0.041 A 
ATOM     22  C   UNL A   1      33.463  23.073  26.746  1.00  0.00     0.027 A 
ATOM     23  C   UNL A   1      34.065  24.379  24.837  1.00  0.00     0.027 A 
ATOM     24  C   UNL A   1      32.289  23.821  26.879  1.00  0.00     0.016 A 
ATOM     25  C   UNL A   1      32.867  25.114  24.952  1.00  0.00     0.016 A 
BRANCH  21  26
ATOM     26  N   UNL A   1      35.482  22.525  25.471  1.00  0.00    -0.322 N 
ATOM     27  C   UNL A   1      35.675  21.178  25.214  1.00  0.00     0.255 C 
ATOM     28  O   UNL A   1      36.806  20.716  25.386  1.00  0.00    -0.269 OA
ATOM     29  H   UNL A   1      36.319  23.042  25.504  1.00  0.00     0.170 HD
BRANCH  27  30
ATOM     30  C   UNL A   1      34.624  20.269  24.662  1.00  0.00     0.040 A 
ATOM     31  C   UNL A   1      33.963  16.587  23.924  1.00  0.00     0.044 C 
ATOM     32  C   UNL A   1      33.764  18.067  24.060  1.00  0.00    -0.050 A 
ATOM     33  C   UNL A   1      32.582  18.655  23.600  1.00  0.00     0.003 A 
ATOM     34  C   UNL A   1      34.752  18.875  24.644  1.00  0.00     0.017 A 
ATOM     35  C   UNL A   1      32.400  20.033  23.699  1.00  0.00     0.001 A 
ATOM     36  C   UNL A   1      33.421  20.837  24.215  1.00  0.00     0.014 A 
ENDBRANCH  27  30
ENDBRANCH  21  26
ENDBRANCH  17  20
ENDBRANCH  13  16
ENDBRANCH   7  12
ENDBRANCH   3   6
ENDBRANCH   1   2
BRANCH   1  37
ATOM     37  C   UNL A   1      32.392  30.147  27.110  1.00  0.00     0.023 C 
BRANCH  37  38
ATOM     38  C   UNL A   1      33.892  30.090  27.446  1.00  0.00     0.023 C 
BRANCH  38  39
ATOM     39  C   UNL A   1      34.634  31.435  27.510  1.00  0.00     0.116 C 
BRANCH  39  40
ATOM     40  N   UNL A   1      33.935  32.433  28.323  1.00  0.00    -0.352 N 
ATOM     41  C   UNL A   1      34.373  33.248  29.351  1.00  0.00     0.251 C 
ATOM     42  H   UNL A   1      32.984  32.545  28.096  1.00  0.00     0.163 HD
ATOM     43  O   UNL A   1      33.623  34.113  29.803  1.00  0.00    -0.269 OA
BRANCH  41  44
ATOM     44  C   UNL A   1      35.770  33.180  29.828  1.00  0.00     0.039 A 
ATOM     45  C   UNL A   1      36.776  33.781  29.062  1.00  0.00     0.014 A 
ATOM     46  C   UNL A   1      36.113  32.427  30.942  1.00  0.00     0.014 A 
ATOM     47  C   UNL A   1      38.103  33.394  29.244  1.00  0.00     0.010 A 
ATOM     48  C   UNL A   1      37.413  31.978  31.081  1.00  0.00     0.010 A 
ATOM     49  C   UNL A   1      38.388  32.394  30.172  1.00  0.00    -0.014 A 
BRANCH  49  50
ATOM     50  C   UNL A   1      39.639  31.645  30.175  1.00  0.00     0.031 A 
ATOM     51  C   UNL A   1      39.733  30.319  29.535  1.00  0.00     0.074 A 
ATOM     52  C   UNL A   1      40.736  32.209  30.732  1.00  0.00     0.049 A 
ATOM     53  N   UNL A   1      40.600  29.421  29.860  1.00  0.00    -0.248 NA
ATOM     54  C   UNL A   1      38.819  29.881  28.490  1.00  0.00     0.031 C 
ATOM     55  C   UNL A   1      42.117  31.745  30.632  1.00  0.00     0.029 A 
ATOM     56  N   UNL A   1      40.782  33.228  31.700  1.00  0.00    -0.354 N 
ATOM     57  C   UNL A   1      40.545  28.415  28.922  1.00  0.00     0.074 A 
ATOM     58  C   UNL A   1      39.373  28.717  28.130  1.00  0.00     0.031 C 
ATOM     59  C   UNL A   1      42.807  32.214  31.683  1.00  0.00     0.029 A 
ATOM     60  C   UNL A   1      41.856  32.878  32.554  1.00  0.00     0.049 A 
ATOM     61  H   UNL A   1      40.194  34.015  31.769  1.00  0.00     0.167 HD
ATOM     62  C   UNL A   1      41.573  27.519  28.853  1.00  0.00     0.037 A 
ATOM     63  C   UNL A   1      41.673  32.597  33.875  1.00  0.00     0.037 A 
ATOM     64  C   UNL A   1      42.558  27.771  29.900  1.00  0.00     0.049 A 
ATOM     65  C   UNL A   1      42.195  31.245  34.288  1.00  0.00     0.074 A 
ATOM     66  C   UNL A   1      43.760  28.462  29.906  1.00  0.00     0.029 A 
ATOM     67  N   UNL A   1      42.222  27.549  31.230  1.00  0.00    -0.354 N 
ATOM     68  N   UNL A   1      42.347  30.248  33.463  1.00  0.00    -0.248 NA
ATOM     69  C   UNL A   1      42.571  30.906  35.655  1.00  0.00     0.031 C 
ATOM     70  C   UNL A   1      44.139  28.671  31.253  1.00  0.00     0.029 A 
ATOM     71  C   UNL A   1      43.177  28.096  32.064  1.00  0.00     0.049 A 
ATOM     72  H   UNL A   1      41.418  27.071  31.535  1.00  0.00     0.167 HD
ATOM     73  C   UNL A   1      42.831  29.160  34.146  1.00  0.00     0.074 A 
ATOM     74  C   UNL A   1      42.964  29.628  35.513  1.00  0.00     0.031 C 
ATOM     75  C   UNL A   1      43.076  27.974  33.510  1.00  0.00     0.037 A 
BRANCH  62  76
ATOM     76  C   UNL A   1      41.845  26.596  27.681  1.00  0.00     0.064 A 
ATOM     77  C   UNL A   1      41.153  25.368  27.551  1.00  0.00     0.173 A 
ATOM     78  C   UNL A   1      42.801  26.835  26.677  1.00  0.00     0.173 A 
ATOM     79  F   UNL A   1      40.135  25.044  28.358  1.00  0.00    -0.203 F 
ATOM     80  C   UNL A   1      41.480  24.416  26.580  1.00  0.00     0.198 A 
ATOM     81  C   UNL A   1      43.162  25.863  25.736  1.00  0.00     0.198 A 
ATOM     82  F   UNL A   1      43.373  28.036  26.535  1.00  0.00    -0.203 F 
ATOM     83  F   UNL A   1      40.793  23.266  26.519  1.00  0.00    -0.200 F 
ATOM     84  C   UNL A   1      42.510  24.648  25.696  1.00  0.00     0.200 A 
ATOM     85  F   UNL A   1      44.146  26.119  24.863  1.00  0.00    -0.200 F 
ATOM     86  F   UNL A   1      42.854  23.720  24.793  1.00  0.00    -0.200 F 
ENDBRANCH  62  76
BRANCH  63  87
ATOM     87  C   UNL A   1      40.487  33.274  34.459  1.00  0.00     0.064 A 
ATOM     88  C   UNL A   1      39.305  32.524  34.615  1.00  0.00     0.173 A 
ATOM     89  C   UNL A   1      40.615  34.447  35.212  1.00  0.00     0.173 A 
ATOM     90  F   UNL A   1      39.131  31.396  33.907  1.00  0.00    -0.203 F 
ATOM     91  C   UNL A   1      38.362  32.855  35.584  1.00  0.00     0.198 A 
ATOM     92  C   UNL A   1      39.653  34.789  36.166  1.00  0.00     0.198 A 
ATOM     93  F   UNL A   1      41.722  35.198  35.117  1.00  0.00    -0.203 F 
ATOM     94  F   UNL A   1      37.313  32.048  35.799  1.00  0.00    -0.200 F 
ATOM     95  C   UNL A   1      38.552  33.970  36.380  1.00  0.00     0.200 A 
ATOM     96  F   UNL A   1      39.845  35.859  36.951  1.00  0.00    -0.200 F 
ATOM     97  F   UNL A   1      37.702  34.233  37.381  1.00  0.00    -0.200 F 
ENDBRANCH  63  87
BRANCH  75  98
ATOM     98  C   UNL A   1      43.359  26.625  34.143  1.00  0.00     0.064 A 
ATOM     99  C   UNL A   1      42.397  25.824  34.777  1.00  0.00     0.173 A 
ATOM    100  C   UNL A   1      44.637  26.019  33.995  1.00  0.00     0.173 A 
ATOM    101  F   UNL A   1      41.119  26.207  34.877  1.00  0.00    -0.203 F 
ATOM    102  C   UNL A   1      42.700  24.553  35.281  1.00  0.00     0.198 A 
ATOM    103  C   UNL A   1      44.917  24.727  34.442  1.00  0.00     0.198 A 
ATOM    104  F   UNL A   1      45.651  26.644  33.382  1.00  0.00    -0.203 F 
ATOM    105  F   UNL A   1      41.750  23.850  35.916  1.00  0.00    -0.200 F 
ATOM    106  C   UNL A   1      43.952  23.999  35.102  1.00  0.00     0.200 A 
ATOM    107  F   UNL A   1      46.121  24.188  34.207  1.00  0.00    -0.200 F 
ATOM    108  F   UNL A   1      44.220  22.763  35.540  1.00  0.00    -0.200 F 
ENDBRANCH  75  98
ENDBRANCH  49  50
ENDBRANCH  41  44
ENDBRANCH  39  40
ENDBRANCH  38  39
ENDBRANCH  37  38
ENDBRANCH   1  37
TORSDOF 16
ENDMDL
MODEL 3
REMARK VINA RESULT:     -14.4      2.521      3.945
REMARK SMILES Cc1cccc(C(=O)Nc2ccc(C(=O)NNC(=O)c3ccccc3C(=O)NCCCCNC(=O)c3ccc(-c4c5nc(c(-c6c(F)c(F)c(F)c(F)c6F)c6ccc([nH]6)c(-c6c(F)c(F)c(F)c(F)c6F)c6nc(c(-c7c(F)c(F)c(F)c(F)c7F)c7ccc4[nH]7)C=C6)C=C5)cc3)cc2)c1
REMARK SMILES IDX 29 1 28 2 26 3 27 4 25 6 20 7 21 8 22 9 24 10 23 11 18 12
REMARK SMILES IDX 17 13 19 15 16 16 14 17 15 18 13 20 10 21 11 22 100 23 12 24
REMARK SMILES IDX 99 25 9 26 7 27 8 28 6 30 1 31 2 32 3 33 101 34 4 35 5 36
REMARK SMILES IDX 30 37 31 38 32 39 33 40 34 41 35 43 36 44 37 45 98 46 38 47
REMARK SMILES IDX 97 48 39 49 40 50 41 51 91 52 42 53 96 54 90 55 92 56 43 57
REMARK SMILES IDX 95 58 89 59 88 60 44 62 76 63 56 64 75 65 57 66 60 67 74 68
REMARK SMILES IDX 93 69 58 70 59 71 73 73 94 74 61 75 45 76 46 77 54 78 47 79
REMARK SMILES IDX 48 80 52 81 55 82 49 83 50 84 53 85 51 86 77 87 78 88 86 89
REMARK SMILES IDX 79 90 80 91 84 92 87 93 81 94 82 95 85 96 83 97 62 98 63 99
REMARK SMILES IDX 71 100 64 101 65 102 69 103 72 104 66 105 67 106 70 107
REMARK SMILES IDX 68 108
REMARK H PARENT 28 5 17 14 16 19 9 29 33 42 92 61 60 72
REMARK Flexibility Score: inf
ROOT
ATOM      1  C   UNL A   1      34.322  28.727  26.733  1.00  0.00     0.116 C 
ENDROOT
BRANCH   1   2
ATOM      2  N   UNL A   1      33.180  28.590  27.633  1.00  0.00    -0.352 N 
ATOM      3  C   UNL A   1      31.843  28.391  27.336  1.00  0.00     0.252 C 
ATOM      4  O   UNL A   1      31.034  28.166  28.230  1.00  0.00    -0.269 OA
ATOM      5  H   UNL A   1      33.392  28.649  28.592  1.00  0.00     0.163 HD
BRANCH   3   6
ATOM      6  C   UNL A   1      31.347  28.531  25.949  1.00  0.00     0.052 A 
ATOM      7  C   UNL A   1      31.011  27.436  25.147  1.00  0.00     0.054 A 
ATOM      8  C   UNL A   1      30.948  27.608  23.759  1.00  0.00     0.015 A 
ATOM      9  C   UNL A   1      31.045  28.894  23.211  1.00  0.00     0.001 A 
ATOM     10  C   UNL A   1      31.331  29.827  25.415  1.00  0.00     0.014 A 
ATOM     11  C   UNL A   1      31.169  30.008  24.043  1.00  0.00     0.001 A 
BRANCH   7  12
ATOM     12  C   UNL A   1      30.798  26.097  25.751  1.00  0.00     0.270 C 
ATOM     13  N   UNL A   1      31.727  25.727  26.711  1.00  0.00    -0.263 N 
ATOM     14  H   UNL A   1      32.131  26.397  27.308  1.00  0.00     0.191 HD
ATOM     15  O   UNL A   1      29.912  25.360  25.330  1.00  0.00    -0.267 OA
BRANCH  13  16
ATOM     16  N   UNL A   1      32.076  24.360  26.812  1.00  0.00    -0.263 N 
ATOM     17  C   UNL A   1      33.236  23.975  26.150  1.00  0.00     0.269 C 
ATOM     18  O   UNL A   1      34.251  24.663  26.124  1.00  0.00    -0.267 OA
ATOM     19  H   UNL A   1      31.529  23.720  27.321  1.00  0.00     0.191 HD
BRANCH  17  20
ATOM     20  C   UNL A   1      33.157  22.749  25.303  1.00  0.00     0.041 A 
ATOM     21  C   UNL A   1      32.423  20.587  23.629  1.00  0.00     0.041 A 
ATOM     22  C   UNL A   1      32.202  20.532  24.995  1.00  0.00     0.027 A 
ATOM     23  C   UNL A   1      33.120  21.688  23.115  1.00  0.00     0.027 A 
ATOM     24  C   UNL A   1      32.564  21.602  25.821  1.00  0.00     0.016 A 
ATOM     25  C   UNL A   1      33.458  22.780  23.941  1.00  0.00     0.016 A 
BRANCH  21  26
ATOM     26  N   UNL A   1      32.003  19.575  22.749  1.00  0.00    -0.322 N 
ATOM     27  C   UNL A   1      32.399  18.261  22.560  1.00  0.00     0.255 C 
ATOM     28  O   UNL A   1      32.083  17.712  21.501  1.00  0.00    -0.269 OA
ATOM     29  H   UNL A   1      31.280  19.857  22.144  1.00  0.00     0.170 HD
BRANCH  27  30
ATOM     30  C   UNL A   1      33.110  17.442  23.589  1.00  0.00     0.040 A 
ATOM     31  C   UNL A   1      32.485  14.685  26.148  1.00  0.00     0.044 C 
ATOM     32  C   UNL A   1      33.185  15.704  25.300  1.00  0.00    -0.050 A 
ATOM     33  C   UNL A   1      34.543  15.965  25.504  1.00  0.00     0.003 A 
ATOM     34  C   UNL A   1      32.492  16.405  24.300  1.00  0.00     0.017 A 
ATOM     35  C   UNL A   1      35.195  16.928  24.736  1.00  0.00     0.001 A 
ATOM     36  C   UNL A   1      34.479  17.672  23.794  1.00  0.00     0.014 A 
ENDBRANCH  27  30
ENDBRANCH  21  26
ENDBRANCH  17  20
ENDBRANCH  13  16
ENDBRANCH   7  12
ENDBRANCH   3   6
ENDBRANCH   1   2
BRANCH   1  37
ATOM     37  C   UNL A   1      35.539  29.457  27.297  1.00  0.00     0.023 C 
BRANCH  37  38
ATOM     38  C   UNL A   1      35.320  30.647  28.247  1.00  0.00     0.023 C 
BRANCH  38  39
ATOM     39  C   UNL A   1      34.749  31.931  27.621  1.00  0.00     0.116 C 
BRANCH  39  40
ATOM     40  N   UNL A   1      34.040  32.769  28.590  1.00  0.00    -0.352 N 
ATOM     41  C   UNL A   1      34.481  33.444  29.714  1.00  0.00     0.251 C 
ATOM     42  H   UNL A   1      33.079  32.872  28.409  1.00  0.00     0.163 HD
ATOM     43  O   UNL A   1      33.714  34.201  30.309  1.00  0.00    -0.269 OA
BRANCH  41  44
ATOM     44  C   UNL A   1      35.895  33.367  30.138  1.00  0.00     0.039 A 
ATOM     45  C   UNL A   1      36.879  33.923  29.312  1.00  0.00     0.014 A 
ATOM     46  C   UNL A   1      36.269  32.646  31.263  1.00  0.00     0.014 A 
ATOM     47  C   UNL A   1      38.205  33.518  29.454  1.00  0.00     0.010 A 
ATOM     48  C   UNL A   1      37.566  32.178  31.365  1.00  0.00     0.010 A 
ATOM     49  C   UNL A   1      38.511  32.545  30.405  1.00  0.00    -0.014 A 
BRANCH  49  50
ATOM     50  C   UNL A   1      39.748  31.774  30.385  1.00  0.00     0.031 A 
ATOM     51  C   UNL A   1      39.814  30.459  29.720  1.00  0.00     0.074 A 
ATOM     52  C   UNL A   1      40.859  32.308  30.943  1.00  0.00     0.049 A 
ATOM     53  N   UNL A   1      40.667  29.540  30.021  1.00  0.00    -0.248 NA
ATOM     54  C   UNL A   1      38.884  30.056  28.673  1.00  0.00     0.031 C 
ATOM     55  C   UNL A   1      42.231  31.822  30.824  1.00  0.00     0.029 A 
ATOM     56  N   UNL A   1      40.931  33.308  31.930  1.00  0.00    -0.354 N 
ATOM     57  C   UNL A   1      40.587  28.553  29.065  1.00  0.00     0.074 A 
ATOM     58  C   UNL A   1      39.415  28.890  28.287  1.00  0.00     0.031 C 
ATOM     59  C   UNL A   1      42.937  32.258  31.878  1.00  0.00     0.029 A 
ATOM     60  C   UNL A   1      42.004  32.923  32.769  1.00  0.00     0.049 A 
ATOM     61  H   UNL A   1      40.358  34.104  32.018  1.00  0.00     0.167 HD
ATOM     62  C   UNL A   1      41.598  27.640  28.971  1.00  0.00     0.037 A 
ATOM     63  C   UNL A   1      41.826  32.621  34.086  1.00  0.00     0.037 A 
ATOM     64  C   UNL A   1      42.595  27.854  30.016  1.00  0.00     0.049 A 
ATOM     65  C   UNL A   1      42.326  31.253  34.469  1.00  0.00     0.074 A 
ATOM     66  C   UNL A   1      43.809  28.524  30.025  1.00  0.00     0.029 A 
ATOM     67  N   UNL A   1      42.265  27.614  31.344  1.00  0.00    -0.354 N 
ATOM     68  N   UNL A   1      42.455  30.268  33.625  1.00  0.00    -0.248 NA
ATOM     69  C   UNL A   1      42.707  30.882  35.827  1.00  0.00     0.031 C 
ATOM     70  C   UNL A   1      44.202  28.701  31.372  1.00  0.00     0.029 A 
ATOM     71  C   UNL A   1      43.236  28.128  32.181  1.00  0.00     0.049 A 
ATOM     72  H   UNL A   1      41.454  27.145  31.646  1.00  0.00     0.167 HD
ATOM     73  C   UNL A   1      42.924  29.159  34.284  1.00  0.00     0.074 A 
ATOM     74  C   UNL A   1      43.076  29.600  35.658  1.00  0.00     0.031 C 
ATOM     75  C   UNL A   1      43.144  27.981  33.625  1.00  0.00     0.037 A 
BRANCH  62  76
ATOM     76  C   UNL A   1      41.845  26.734  27.781  1.00  0.00     0.064 A 
ATOM     77  C   UNL A   1      41.141  25.514  27.641  1.00  0.00     0.173 A 
ATOM     78  C   UNL A   1      42.787  26.982  26.767  1.00  0.00     0.173 A 
ATOM     79  F   UNL A   1      40.133  25.185  28.458  1.00  0.00    -0.203 F 
ATOM     80  C   UNL A   1      41.445  24.575  26.650  1.00  0.00     0.198 A 
ATOM     81  C   UNL A   1      43.126  26.023  25.804  1.00  0.00     0.198 A 
ATOM     82  F   UNL A   1      43.367  28.180  26.635  1.00  0.00    -0.203 F 
ATOM     83  F   UNL A   1      40.748  23.432  26.581  1.00  0.00    -0.200 F 
ATOM     84  C   UNL A   1      42.464  24.813  25.754  1.00  0.00     0.200 A 
ATOM     85  F   UNL A   1      44.099  26.285  24.920  1.00  0.00    -0.200 F 
ATOM     86  F   UNL A   1      42.786  23.898  24.831  1.00  0.00    -0.200 F 
ENDBRANCH  62  76
BRANCH  63  87
ATOM     87  C   UNL A   1      40.656  33.308  34.691  1.00  0.00     0.064 A 
ATOM     88  C   UNL A   1      39.473  32.567  34.873  1.00  0.00     0.173 A 
ATOM     89  C   UNL A   1      40.808  34.482  35.438  1.00  0.00     0.173 A 
ATOM     90  F   UNL A   1      39.276  31.439  34.172  1.00  0.00    -0.203 F 
ATOM     91  C   UNL A   1      38.552  32.907  35.859  1.00  0.00     0.198 A 
ATOM     92  C   UNL A   1      39.868  34.833  36.409  1.00  0.00     0.198 A 
ATOM     93  F   UNL A   1      41.918  35.225  35.319  1.00  0.00    -0.203 F 
ATOM     94  F   UNL A   1      37.501  32.108  36.098  1.00  0.00    -0.200 F 
ATOM     95  C   UNL A   1      38.766  34.023  36.648  1.00  0.00     0.200 A 
ATOM     96  F   UNL A   1      40.083  35.905  37.187  1.00  0.00    -0.200 F 
ATOM     97  F   UNL A   1      37.937  34.295  37.665  1.00  0.00    -0.200 F 
ENDBRANCH  63  87
BRANCH  75  98
ATOM     98  C   UNL A   1      43.407  26.616  34.230  1.00  0.00     0.064 A 
ATOM     99  C   UNL A   1      42.429  25.808  34.830  1.00  0.00     0.173 A 
ATOM    100  C   UNL A   1      44.682  26.004  34.088  1.00  0.00     0.173 A 
ATOM    101  F   UNL A   1      41.153  26.198  34.920  1.00  0.00    -0.203 F 
ATOM    102  C   UNL A   1      42.715  24.523  35.310  1.00  0.00     0.198 A 
ATOM    103  C   UNL A   1      44.945  24.700  34.508  1.00  0.00     0.198 A 
ATOM    104  F   UNL A   1      45.710  26.635  33.505  1.00  0.00    -0.203 F 
ATOM    105  F   UNL A   1      41.751  23.813  35.914  1.00  0.00    -0.200 F 
ATOM    106  C   UNL A   1      43.966  23.964  35.137  1.00  0.00     0.200 A 
ATOM    107  F   UNL A   1      46.150  24.157  34.279  1.00  0.00    -0.200 F 
ATOM    108  F   UNL A   1      44.218  22.716  35.551  1.00  0.00    -0.200 F 
ENDBRANCH  75  98
ENDBRANCH  49  50
ENDBRANCH  41  44
ENDBRANCH  39  40
ENDBRANCH  38  39
ENDBRANCH  37  38
ENDBRANCH   1  37
TORSDOF 16
ENDMDL
