MODEL 1
REMARK VINA RESULT:     -13.3      0.000      0.000
REMARK SMILES O=C(NCCCCNC(=O)c1ccc2nc(-n3cccc3)sc2c1)c1ccc(-c2c3nc(c(-c4c(F)c(F)c(F)c(F)c4F)c4ccc([nH]4)c(-c4c(F)c(F)c(F)c(F)c4F)c4nc(c(-c5c(F)c(F)c(F)c(F)c5F)c5ccc2[nH]5)C=C4)C=C3)cc1
REMARK SMILES IDX 5 1 4 2 3 3 1 4 2 5 25 7 26 8 87 9 27 10 86 11 28 12 29 13
REMARK SMILES IDX 30 14 80 15 31 16 85 17 79 18 81 19 32 20 84 21 78 22 77 23
REMARK SMILES IDX 33 25 65 26 45 27 64 28 46 29 49 30 63 31 82 32 47 33 48 34
REMARK SMILES IDX 62 36 83 37 50 38 34 39 35 40 43 41 36 42 37 43 41 44 44 45
REMARK SMILES IDX 38 46 39 47 42 48 40 49 66 50 67 51 75 52 68 53 69 54 73 55
REMARK SMILES IDX 76 56 70 57 71 58 74 59 72 60 51 61 52 62 60 63 53 64 54 65
REMARK SMILES IDX 58 66 61 67 55 68 56 69 59 70 57 71 6 72 7 73 8 74 9 75
REMARK SMILES IDX 10 77 11 78 12 79 24 80 13 81 23 82 14 83 22 84 15 85 16 86
REMARK SMILES IDX 17 87 18 88 21 89 19 90 20 91
REMARK H PARENT 3 6 81 24 49 35 8 76
REMARK Flexibility Score: inf
ROOT
ATOM      1  C   UNL A   1      33.395  27.881  26.450  1.00  0.00     0.023 C 
ENDROOT
BRANCH   1   2
ATOM      2  C   UNL A   1      34.819  28.442  26.480  1.00  0.00     0.116 C 
BRANCH   2   3
ATOM      3  N   UNL A   1      34.976  29.758  27.075  1.00  0.00    -0.352 N 
ATOM      4  O   UNL A   1      35.914  31.612  27.899  1.00  0.00    -0.269 OA
ATOM      5  C   UNL A   1      36.056  30.429  27.590  1.00  0.00     0.251 C 
ATOM      6  H   UNL A   1      34.139  30.273  27.114  1.00  0.00     0.163 HD
BRANCH   5   7
ATOM      7  C   UNL A   1      37.350  29.764  27.874  1.00  0.00     0.039 A 
ATOM      8  C   UNL A   1      38.439  29.803  27.004  1.00  0.00     0.014 A 
ATOM      9  C   UNL A   1      37.459  29.053  29.081  1.00  0.00     0.014 A 
ATOM     10  C   UNL A   1      39.556  29.021  27.247  1.00  0.00     0.010 A 
ATOM     11  C   UNL A   1      38.608  28.316  29.367  1.00  0.00     0.010 A 
ATOM     12  C   UNL A   1      39.645  28.284  28.431  1.00  0.00    -0.014 A 
BRANCH  12  13
ATOM     13  C   UNL A   1      40.958  27.672  28.721  1.00  0.00     0.031 A 
ATOM     14  C   UNL A   1      41.022  26.224  28.223  1.00  0.00     0.074 A 
ATOM     15  C   UNL A   1      41.844  28.412  29.448  1.00  0.00     0.049 A 
ATOM     16  N   UNL A   1      41.702  25.217  28.678  1.00  0.00    -0.248 NA
ATOM     17  C   UNL A   1      40.130  25.812  27.103  1.00  0.00     0.031 C 
ATOM     18  C   UNL A   1      41.616  29.809  29.860  1.00  0.00     0.029 A 
ATOM     19  N   UNL A   1      43.085  28.157  30.004  1.00  0.00    -0.354 N 
ATOM     20  C   UNL A   1      41.486  24.136  27.798  1.00  0.00     0.074 A 
ATOM     21  C   UNL A   1      40.409  24.518  26.938  1.00  0.00     0.031 C 
ATOM     22  C   UNL A   1      42.622  30.249  30.641  1.00  0.00     0.029 A 
ATOM     23  C   UNL A   1      43.612  29.203  30.810  1.00  0.00     0.049 A 
ATOM     24  H   UNL A   1      43.568  27.312  29.853  1.00  0.00     0.167 HD
ATOM     25  C   UNL A   1      42.312  23.053  27.731  1.00  0.00     0.037 A 
ATOM     26  C   UNL A   1      44.743  29.216  31.585  1.00  0.00     0.037 A 
ATOM     27  C   UNL A   1      43.344  23.159  28.706  1.00  0.00     0.049 A 
ATOM     28  C   UNL A   1      45.446  27.958  31.282  1.00  0.00     0.074 A 
ATOM     29  C   UNL A   1      43.357  23.011  30.066  1.00  0.00     0.029 A 
ATOM     30  N   UNL A   1      44.511  23.762  28.308  1.00  0.00    -0.354 N 
ATOM     31  N   UNL A   1      46.073  27.713  30.170  1.00  0.00    -0.248 NA
ATOM     32  C   UNL A   1      45.410  26.868  32.265  1.00  0.00     0.031 C 
ATOM     33  C   UNL A   1      44.360  23.905  30.495  1.00  0.00     0.029 A 
ATOM     34  C   UNL A   1      45.002  24.459  29.381  1.00  0.00     0.049 A 
ATOM     35  H   UNL A   1      44.921  23.704  27.415  1.00  0.00     0.167 HD
ATOM     36  C   UNL A   1      46.205  26.346  30.203  1.00  0.00     0.074 A 
ATOM     37  C   UNL A   1      46.098  25.951  31.588  1.00  0.00     0.031 C 
ATOM     38  C   UNL A   1      45.820  25.623  29.121  1.00  0.00     0.037 A 
BRANCH  25  39
ATOM     39  C   UNL A   1      42.471  21.976  26.693  1.00  0.00     0.064 A 
ATOM     40  C   UNL A   1      41.975  20.683  26.996  1.00  0.00     0.173 A 
ATOM     41  C   UNL A   1      43.380  22.056  25.631  1.00  0.00     0.173 A 
ATOM     42  F   UNL A   1      41.063  20.507  27.965  1.00  0.00    -0.203 F 
ATOM     43  C   UNL A   1      42.470  19.537  26.378  1.00  0.00     0.198 A 
ATOM     44  C   UNL A   1      43.834  20.906  24.976  1.00  0.00     0.198 A 
ATOM     45  F   UNL A   1      43.928  23.221  25.269  1.00  0.00    -0.203 F 
ATOM     46  F   UNL A   1      42.081  18.327  26.804  1.00  0.00    -0.200 F 
ATOM     47  C   UNL A   1      43.415  19.649  25.379  1.00  0.00     0.200 A 
ATOM     48  F   UNL A   1      44.746  21.018  24.001  1.00  0.00    -0.200 F 
ATOM     49  F   UNL A   1      43.951  18.549  24.833  1.00  0.00    -0.200 F 
ENDBRANCH  25  39
BRANCH  26  50
ATOM     50  C   UNL A   1      45.384  30.099  32.642  1.00  0.00     0.064 A 
ATOM     51  C   UNL A   1      44.955  30.250  33.967  1.00  0.00     0.173 A 
ATOM     52  C   UNL A   1      46.593  30.800  32.351  1.00  0.00     0.173 A 
ATOM     53  F   UNL A   1      43.783  29.763  34.381  1.00  0.00    -0.203 F 
ATOM     54  C   UNL A   1      45.720  30.934  34.933  1.00  0.00     0.198 A 
ATOM     55  C   UNL A   1      47.377  31.434  33.317  1.00  0.00     0.198 A 
ATOM     56  F   UNL A   1      47.071  30.896  31.104  1.00  0.00    -0.203 F 
ATOM     57  F   UNL A   1      45.261  31.036  36.188  1.00  0.00    -0.200 F 
ATOM     58  C   UNL A   1      46.947  31.487  34.619  1.00  0.00     0.200 A 
ATOM     59  F   UNL A   1      48.556  31.970  32.968  1.00  0.00    -0.200 F 
ATOM     60  F   UNL A   1      47.700  32.076  35.556  1.00  0.00    -0.200 F 
ENDBRANCH  26  50
BRANCH  38  61
ATOM     61  C   UNL A   1      45.906  26.397  27.817  1.00  0.00     0.064 A 
ATOM     62  C   UNL A   1      44.737  26.708  27.105  1.00  0.00     0.173 A 
ATOM     63  C   UNL A   1      47.113  26.722  27.180  1.00  0.00     0.173 A 
ATOM     64  F   UNL A   1      43.536  26.451  27.646  1.00  0.00    -0.203 F 
ATOM     65  C   UNL A   1      44.782  27.281  25.830  1.00  0.00     0.198 A 
ATOM     66  C   UNL A   1      47.166  27.299  25.910  1.00  0.00     0.198 A 
ATOM     67  F   UNL A   1      48.276  26.489  27.781  1.00  0.00    -0.203 F 
ATOM     68  F   UNL A   1      43.643  27.555  25.180  1.00  0.00    -0.200 F 
ATOM     69  C   UNL A   1      45.997  27.572  25.231  1.00  0.00     0.200 A 
ATOM     70  F   UNL A   1      48.352  27.591  25.356  1.00  0.00    -0.200 F 
ATOM     71  F   UNL A   1      46.041  28.127  24.012  1.00  0.00    -0.200 F 
ENDBRANCH  38  61
ENDBRANCH  12  13
ENDBRANCH   5   7
ENDBRANCH   2   3
ENDBRANCH   1   2
BRANCH   1  72
ATOM     72  C   UNL A   1      33.285  26.400  26.099  1.00  0.00     0.023 C 
BRANCH  72  73
ATOM     73  C   UNL A   1      32.225  26.067  25.058  1.00  0.00     0.116 C 
BRANCH  73  74
ATOM     74  N   UNL A   1      32.711  26.256  23.701  1.00  0.00    -0.352 N 
ATOM     75  C   UNL A   1      33.494  25.412  22.951  1.00  0.00     0.251 C 
ATOM     76  H   UNL A   1      32.443  27.096  23.262  1.00  0.00     0.163 HD
ATOM     77  O   UNL A   1      33.912  25.735  21.857  1.00  0.00    -0.269 OA
BRANCH  75  78
ATOM     78  C   UNL A   1      33.842  24.102  23.528  1.00  0.00     0.041 A 
ATOM     79  C   UNL A   1      35.087  23.912  24.125  1.00  0.00     0.016 A 
ATOM     80  C   UNL A   1      32.911  23.067  23.400  1.00  0.00     0.035 A 
ATOM     81  C   UNL A   1      35.436  22.651  24.616  1.00  0.00     0.031 A 
ATOM     82  C   UNL A   1      33.300  21.799  23.853  1.00  0.00     0.057 A 
ATOM     83  C   UNL A   1      34.529  21.578  24.487  1.00  0.00     0.084 A 
ATOM     84  S   UNL A   1      32.461  20.301  23.720  1.00  0.00    -0.096 S 
ATOM     85  N   UNL A   1      34.736  20.287  24.938  1.00  0.00    -0.219 NA
ATOM     86  C   UNL A   1      33.731  19.536  24.550  1.00  0.00     0.194 A 
BRANCH  86  87
ATOM     87  N   UNL A   1      33.656  18.165  24.825  1.00  0.00    -0.300 N 
ATOM     88  C   UNL A   1      32.626  17.460  25.429  1.00  0.00     0.093 A 
ATOM     89  C   UNL A   1      34.639  17.243  24.509  1.00  0.00     0.093 A 
ATOM     90  C   UNL A   1      32.966  16.128  25.500  1.00  0.00     0.020 A 
ATOM     91  C   UNL A   1      34.255  15.994  24.945  1.00  0.00     0.020 A 
ENDBRANCH  86  87
ENDBRANCH  75  78
ENDBRANCH  73  74
ENDBRANCH  72  73
ENDBRANCH   1  72
TORSDOF 12
ENDMDL
MODEL 2
REMARK VINA RESULT:     -13.2      1.472      2.590
REMARK SMILES O=C(NCCCCNC(=O)c1ccc2nc(-n3cccc3)sc2c1)c1ccc(-c2c3nc(c(-c4c(F)c(F)c(F)c(F)c4F)c4ccc([nH]4)c(-c4c(F)c(F)c(F)c(F)c4F)c4nc(c(-c5c(F)c(F)c(F)c(F)c5F)c5ccc2[nH]5)C=C4)C=C3)cc1
REMARK SMILES IDX 5 1 4 2 3 3 1 4 2 5 25 7 26 8 87 9 27 10 86 11 28 12 29 13
REMARK SMILES IDX 30 14 80 15 31 16 85 17 79 18 81 19 32 20 84 21 78 22 77 23
REMARK SMILES IDX 33 25 65 26 45 27 64 28 46 29 49 30 63 31 82 32 47 33 48 34
REMARK SMILES IDX 62 36 83 37 50 38 34 39 35 40 43 41 36 42 37 43 41 44 44 45
REMARK SMILES IDX 38 46 39 47 42 48 40 49 66 50 67 51 75 52 68 53 69 54 73 55
REMARK SMILES IDX 76 56 70 57 71 58 74 59 72 60 51 61 52 62 60 63 53 64 54 65
REMARK SMILES IDX 58 66 61 67 55 68 56 69 59 70 57 71 6 72 7 73 8 74 9 75
REMARK SMILES IDX 10 77 11 78 12 79 24 80 13 81 23 82 14 83 22 84 15 85 16 86
REMARK SMILES IDX 17 87 18 88 21 89 19 90 20 91
REMARK H PARENT 3 6 81 24 49 35 8 76
REMARK Flexibility Score: inf
ROOT
ATOM      1  C   UNL A   1      33.539  28.186  25.692  1.00  0.00     0.023 C 
ENDROOT
BRANCH   1   2
ATOM      2  C   UNL A   1      34.799  28.412  26.530  1.00  0.00     0.116 C 
BRANCH   2   3
ATOM      3  N   UNL A   1      34.976  29.749  27.072  1.00  0.00    -0.352 N 
ATOM      4  O   UNL A   1      35.941  31.616  27.833  1.00  0.00    -0.269 OA
ATOM      5  C   UNL A   1      36.062  30.418  27.577  1.00  0.00     0.251 C 
ATOM      6  H   UNL A   1      34.149  30.283  27.076  1.00  0.00     0.163 HD
BRANCH   5   7
ATOM      7  C   UNL A   1      37.336  29.738  27.909  1.00  0.00     0.039 A 
ATOM      8  C   UNL A   1      38.467  29.788  27.094  1.00  0.00     0.014 A 
ATOM      9  C   UNL A   1      37.382  29.001  29.105  1.00  0.00     0.014 A 
ATOM     10  C   UNL A   1      39.566  28.994  27.375  1.00  0.00     0.010 A 
ATOM     11  C   UNL A   1      38.511  28.251  29.431  1.00  0.00     0.010 A 
ATOM     12  C   UNL A   1      39.593  28.231  28.546  1.00  0.00    -0.014 A 
BRANCH  12  13
ATOM     13  C   UNL A   1      40.886  27.604  28.887  1.00  0.00     0.031 A 
ATOM     14  C   UNL A   1      40.989  26.187  28.313  1.00  0.00     0.074 A 
ATOM     15  C   UNL A   1      41.720  28.302  29.711  1.00  0.00     0.049 A 
ATOM     16  N   UNL A   1      41.641  25.155  28.755  1.00  0.00    -0.248 NA
ATOM     17  C   UNL A   1      40.174  25.838  27.116  1.00  0.00     0.031 C 
ATOM     18  C   UNL A   1      41.460  29.673  30.185  1.00  0.00     0.029 A 
ATOM     19  N   UNL A   1      42.923  28.016  30.332  1.00  0.00    -0.354 N 
ATOM     20  C   UNL A   1      41.488  24.125  27.803  1.00  0.00     0.074 A 
ATOM     21  C   UNL A   1      40.468  24.555  26.897  1.00  0.00     0.031 C 
ATOM     22  C   UNL A   1      42.411  30.069  31.054  1.00  0.00     0.029 A 
ATOM     23  C   UNL A   1      43.392  29.015  31.228  1.00  0.00     0.049 A 
ATOM     24  H   UNL A   1      43.418  27.182  30.166  1.00  0.00     0.167 HD
ATOM     25  C   UNL A   1      42.321  23.049  27.730  1.00  0.00     0.037 A 
ATOM     26  C   UNL A   1      44.469  28.985  32.076  1.00  0.00     0.037 A 
ATOM     27  C   UNL A   1      43.286  23.100  28.775  1.00  0.00     0.049 A 
ATOM     28  C   UNL A   1      45.196  27.746  31.749  1.00  0.00     0.074 A 
ATOM     29  C   UNL A   1      43.211  22.876  30.122  1.00  0.00     0.029 A 
ATOM     30  N   UNL A   1      44.474  23.724  28.489  1.00  0.00    -0.354 N 
ATOM     31  N   UNL A   1      45.895  27.565  30.669  1.00  0.00    -0.248 NA
ATOM     32  C   UNL A   1      45.100  26.603  32.664  1.00  0.00     0.031 C 
ATOM     33  C   UNL A   1      44.180  23.744  30.666  1.00  0.00     0.029 A 
ATOM     34  C   UNL A   1      44.891  24.361  29.630  1.00  0.00     0.049 A 
ATOM     35  H   UNL A   1      44.943  23.717  27.623  1.00  0.00     0.167 HD
ATOM     36  C   UNL A   1      46.030  26.198  30.633  1.00  0.00     0.074 A 
ATOM     37  C   UNL A   1      45.834  25.726  31.984  1.00  0.00     0.031 C 
ATOM     38  C   UNL A   1      45.720  25.537  29.489  1.00  0.00     0.037 A 
BRANCH  25  39
ATOM     39  C   UNL A   1      42.552  22.032  26.646  1.00  0.00     0.064 A 
ATOM     40  C   UNL A   1      42.065  20.717  26.853  1.00  0.00     0.173 A 
ATOM     41  C   UNL A   1      43.511  22.183  25.636  1.00  0.00     0.173 A 
ATOM     42  F   UNL A   1      41.110  20.474  27.765  1.00  0.00    -0.203 F 
ATOM     43  C   UNL A   1      42.612  19.613  26.201  1.00  0.00     0.198 A 
ATOM     44  C   UNL A   1      44.019  21.078  24.945  1.00  0.00     0.198 A 
ATOM     45  F   UNL A   1      44.055  23.376  25.366  1.00  0.00    -0.203 F 
ATOM     46  F   UNL A   1      42.226  18.376  26.543  1.00  0.00    -0.200 F 
ATOM     47  C   UNL A   1      43.604  19.794  25.260  1.00  0.00     0.200 A 
ATOM     48  F   UNL A   1      44.977  21.258  24.026  1.00  0.00    -0.200 F 
ATOM     49  F   UNL A   1      44.188  18.734  24.684  1.00  0.00    -0.200 F 
ENDBRANCH  25  39
BRANCH  26  50
ATOM     50  C   UNL A   1      45.036  29.807  33.221  1.00  0.00     0.064 A 
ATOM     51  C   UNL A   1      46.297  30.417  33.258  1.00  0.00     0.173 A 
ATOM     52  C   UNL A   1      44.228  30.099  34.361  1.00  0.00     0.173 A 
ATOM     53  F   UNL A   1      47.226  30.156  32.335  1.00  0.00    -0.203 F 
ATOM     54  C   UNL A   1      46.666  31.322  34.273  1.00  0.00     0.198 A 
ATOM     55  C   UNL A   1      44.571  31.034  35.339  1.00  0.00     0.198 A 
ATOM     56  F   UNL A   1      43.056  29.486  34.571  1.00  0.00    -0.203 F 
ATOM     57  F   UNL A   1      47.883  31.883  34.248  1.00  0.00    -0.200 F 
ATOM     58  C   UNL A   1      45.789  31.663  35.286  1.00  0.00     0.200 A 
ATOM     59  F   UNL A   1      43.697  31.327  36.313  1.00  0.00    -0.200 F 
ATOM     60  F   UNL A   1      46.120  32.574  36.209  1.00  0.00    -0.200 F 
ENDBRANCH  26  50
BRANCH  38  61
ATOM     61  C   UNL A   1      45.888  26.384  28.239  1.00  0.00     0.064 A 
ATOM     62  C   UNL A   1      47.168  26.788  27.829  1.00  0.00     0.173 A 
ATOM     63  C   UNL A   1      44.815  26.922  27.512  1.00  0.00     0.173 A 
ATOM     64  F   UNL A   1      48.253  26.307  28.454  1.00  0.00    -0.203 F 
ATOM     65  C   UNL A   1      47.353  27.691  26.777  1.00  0.00     0.198 A 
ATOM     66  C   UNL A   1      44.992  27.820  26.458  1.00  0.00     0.198 A 
ATOM     67  F   UNL A   1      43.564  26.584  27.807  1.00  0.00    -0.203 F 
ATOM     68  F   UNL A   1      48.591  28.058  26.421  1.00  0.00    -0.200 F 
ATOM     69  C   UNL A   1      46.264  28.210  26.095  1.00  0.00     0.200 A 
ATOM     70  F   UNL A   1      43.926  28.296  25.798  1.00  0.00    -0.200 F 
ATOM     71  F   UNL A   1      46.441  29.071  25.083  1.00  0.00    -0.200 F 
ENDBRANCH  38  61
ENDBRANCH  12  13
ENDBRANCH   5   7
ENDBRANCH   2   3
ENDBRANCH   1   2
BRANCH   1  72
ATOM     72  C   UNL A   1      33.177  29.323  24.740  1.00  0.00     0.023 C 
BRANCH  72  73
ATOM     73  C   UNL A   1      33.200  28.952  23.264  1.00  0.00     0.116 C 
BRANCH  73  74
ATOM     74  N   UNL A   1      31.965  29.313  22.586  1.00  0.00    -0.352 N 
ATOM     75  C   UNL A   1      30.844  28.543  22.393  1.00  0.00     0.251 C 
ATOM     76  H   UNL A   1      31.928  30.226  22.219  1.00  0.00     0.163 HD
ATOM     77  O   UNL A   1      29.911  28.935  21.722  1.00  0.00    -0.269 OA
BRANCH  75  78
ATOM     78  C   UNL A   1      30.815  27.203  23.005  1.00  0.00     0.041 A 
ATOM     79  C   UNL A   1      30.103  26.992  24.186  1.00  0.00     0.016 A 
ATOM     80  C   UNL A   1      31.563  26.193  22.395  1.00  0.00     0.035 A 
ATOM     81  C   UNL A   1      30.129  25.735  24.795  1.00  0.00     0.031 A 
ATOM     82  C   UNL A   1      31.616  24.955  23.049  1.00  0.00     0.057 A 
ATOM     83  C   UNL A   1      30.889  24.696  24.217  1.00  0.00     0.084 A 
ATOM     84  S   UNL A   1      32.545  23.561  22.648  1.00  0.00    -0.096 S 
ATOM     85  N   UNL A   1      30.993  23.405  24.702  1.00  0.00    -0.219 NA
ATOM     86  C   UNL A   1      31.866  22.748  23.975  1.00  0.00     0.194 A 
BRANCH  86  87
ATOM     87  N   UNL A   1      32.219  21.416  24.230  1.00  0.00    -0.300 N 
ATOM     88  C   UNL A   1      32.548  20.827  25.441  1.00  0.00     0.093 A 
ATOM     89  C   UNL A   1      32.286  20.421  23.270  1.00  0.00     0.093 A 
ATOM     90  C   UNL A   1      32.827  19.494  25.237  1.00  0.00     0.020 A 
ATOM     91  C   UNL A   1      32.691  19.243  23.857  1.00  0.00     0.020 A 
ENDBRANCH  86  87
ENDBRANCH  75  78
ENDBRANCH  73  74
ENDBRANCH  72  73
ENDBRANCH   1  72
TORSDOF 12
ENDMDL
MODEL 3
REMARK VINA RESULT:     -13.2      4.921     10.008
REMARK SMILES O=C(NCCCCNC(=O)c1ccc2nc(-n3cccc3)sc2c1)c1ccc(-c2c3nc(c(-c4c(F)c(F)c(F)c(F)c4F)c4ccc([nH]4)c(-c4c(F)c(F)c(F)c(F)c4F)c4nc(c(-c5c(F)c(F)c(F)c(F)c5F)c5ccc2[nH]5)C=C4)C=C3)cc1
REMARK SMILES IDX 5 1 4 2 3 3 1 4 2 5 25 7 26 8 87 9 27 10 86 11 28 12 29 13
REMARK SMILES IDX 30 14 80 15 31 16 85 17 79 18 81 19 32 20 84 21 78 22 77 23
REMARK SMILES IDX 33 25 65 26 45 27 64 28 46 29 49 30 63 31 82 32 47 33 48 34
REMARK SMILES IDX 62 36 83 37 50 38 34 39 35 40 43 41 36 42 37 43 41 44 44 45
REMARK SMILES IDX 38 46 39 47 42 48 40 49 66 50 67 51 75 52 68 53 69 54 73 55
REMARK SMILES IDX 76 56 70 57 71 58 74 59 72 60 51 61 52 62 60 63 53 64 54 65
REMARK SMILES IDX 58 66 61 67 55 68 56 69 59 70 57 71 6 72 7 73 8 74 9 75
REMARK SMILES IDX 10 77 11 78 12 79 24 80 13 81 23 82 14 83 22 84 15 85 16 86
REMARK SMILES IDX 17 87 18 88 21 89 19 90 20 91
REMARK H PARENT 3 6 81 24 49 35 8 76
REMARK Flexibility Score: inf
ROOT
ATOM      1  C   UNL A   1      35.907  23.581  25.584  1.00  0.00     0.023 C 
ENDROOT
BRANCH   1   2
ATOM      2  C   UNL A   1      36.892  24.252  26.545  1.00  0.00     0.116 C 
BRANCH   2   3
ATOM      3  N   UNL A   1      38.234  23.694  26.577  1.00  0.00    -0.352 N 
ATOM      4  O   UNL A   1      40.359  23.320  27.160  1.00  0.00    -0.269 OA
ATOM      5  C   UNL A   1      39.394  24.083  27.196  1.00  0.00     0.251 C 
ATOM      6  H   UNL A   1      38.328  22.868  26.049  1.00  0.00     0.163 HD
BRANCH   5   7
ATOM      7  C   UNL A   1      39.559  25.417  27.820  1.00  0.00     0.039 A 
ATOM      8  C   UNL A   1      39.239  25.685  29.151  1.00  0.00     0.014 A 
ATOM      9  C   UNL A   1      40.050  26.454  27.008  1.00  0.00     0.014 A 
ATOM     10  C   UNL A   1      39.253  26.987  29.625  1.00  0.00     0.010 A 
ATOM     11  C   UNL A   1      40.133  27.757  27.498  1.00  0.00     0.010 A 
ATOM     12  C   UNL A   1      39.706  28.022  28.802  1.00  0.00    -0.014 A 
BRANCH  12  13
ATOM     13  C   UNL A   1      39.913  29.331  29.455  1.00  0.00     0.031 A 
ATOM     14  C   UNL A   1      38.680  30.230  29.307  1.00  0.00     0.074 A 
ATOM     15  C   UNL A   1      41.149  29.579  29.979  1.00  0.00     0.049 A 
ATOM     16  N   UNL A   1      38.596  31.524  29.253  1.00  0.00    -0.248 NA
ATOM     17  C   UNL A   1      37.350  29.593  29.101  1.00  0.00     0.031 C 
ATOM     18  C   UNL A   1      42.240  28.590  30.031  1.00  0.00     0.029 A 
ATOM     19  N   UNL A   1      41.750  30.688  30.546  1.00  0.00    -0.354 N 
ATOM     20  C   UNL A   1      37.224  31.851  29.219  1.00  0.00     0.074 A 
ATOM     21  C   UNL A   1      36.518  30.630  28.985  1.00  0.00     0.031 C 
ATOM     22  C   UNL A   1      43.367  29.145  30.519  1.00  0.00     0.029 A 
ATOM     23  C   UNL A   1      43.131  30.537  30.849  1.00  0.00     0.049 A 
ATOM     24  H   UNL A   1      41.258  31.522  30.726  1.00  0.00     0.167 HD
ATOM     25  C   UNL A   1      36.745  33.087  29.540  1.00  0.00     0.037 A 
ATOM     26  C   UNL A   1      44.028  31.471  31.299  1.00  0.00     0.037 A 
ATOM     27  C   UNL A   1      37.821  33.972  29.834  1.00  0.00     0.049 A 
ATOM     28  C   UNL A   1      43.233  32.674  31.597  1.00  0.00     0.074 A 
ATOM     29  C   UNL A   1      38.749  34.601  29.049  1.00  0.00     0.029 A 
ATOM     30  N   UNL A   1      38.212  34.056  31.147  1.00  0.00    -0.354 N 
ATOM     31  N   UNL A   1      42.428  32.792  32.611  1.00  0.00    -0.248 NA
ATOM     32  C   UNL A   1      43.294  33.815  30.676  1.00  0.00     0.031 C 
ATOM     33  C   UNL A   1      39.887  34.691  29.876  1.00  0.00     0.029 A 
ATOM     34  C   UNL A   1      39.570  34.238  31.162  1.00  0.00     0.049 A 
ATOM     35  H   UNL A   1      37.623  33.997  31.934  1.00  0.00     0.167 HD
ATOM     36  C   UNL A   1      41.659  33.872  32.251  1.00  0.00     0.074 A 
ATOM     37  C   UNL A   1      42.423  34.620  31.279  1.00  0.00     0.031 C 
ATOM     38  C   UNL A   1      40.308  33.766  32.314  1.00  0.00     0.037 A 
BRANCH  25  39
ATOM     39  C   UNL A   1      35.362  33.568  29.882  1.00  0.00     0.064 A 
ATOM     40  C   UNL A   1      34.678  34.359  28.926  1.00  0.00     0.173 A 
ATOM     41  C   UNL A   1      34.858  33.605  31.189  1.00  0.00     0.173 A 
ATOM     42  F   UNL A   1      35.053  34.356  27.636  1.00  0.00    -0.203 F 
ATOM     43  C   UNL A   1      33.660  35.240  29.286  1.00  0.00     0.198 A 
ATOM     44  C   UNL A   1      33.799  34.451  31.535  1.00  0.00     0.198 A 
ATOM     45  F   UNL A   1      35.436  32.913  32.177  1.00  0.00    -0.203 F 
ATOM     46  F   UNL A   1      33.149  36.079  28.374  1.00  0.00    -0.200 F 
ATOM     47  C   UNL A   1      33.234  35.299  30.597  1.00  0.00     0.200 A 
ATOM     48  F   UNL A   1      33.383  34.499  32.807  1.00  0.00    -0.200 F 
ATOM     49  F   UNL A   1      32.310  36.196  30.965  1.00  0.00    -0.200 F 
ENDBRANCH  25  39
BRANCH  26  50
ATOM     50  C   UNL A   1      45.529  31.599  31.499  1.00  0.00     0.064 A 
ATOM     51  C   UNL A   1      46.186  31.826  32.715  1.00  0.00     0.173 A 
ATOM     52  C   UNL A   1      46.417  31.391  30.401  1.00  0.00     0.173 A 
ATOM     53  F   UNL A   1      45.514  32.158  33.820  1.00  0.00    -0.203 F 
ATOM     54  C   UNL A   1      47.587  31.735  32.843  1.00  0.00     0.198 A 
ATOM     55  C   UNL A   1      47.799  31.251  30.534  1.00  0.00     0.198 A 
ATOM     56  F   UNL A   1      45.974  31.311  29.140  1.00  0.00    -0.203 F 
ATOM     57  F   UNL A   1      48.157  31.952  34.036  1.00  0.00    -0.200 F 
ATOM     58  C   UNL A   1      48.387  31.406  31.764  1.00  0.00     0.200 A 
ATOM     59  F   UNL A   1      48.542  30.943  29.461  1.00  0.00    -0.200 F 
ATOM     60  F   UNL A   1      49.709  31.255  31.906  1.00  0.00    -0.200 F 
ENDBRANCH  26  50
BRANCH  38  61
ATOM     61  C   UNL A   1      39.829  32.761  33.347  1.00  0.00     0.064 A 
ATOM     62  C   UNL A   1      39.174  31.589  32.938  1.00  0.00     0.173 A 
ATOM     63  C   UNL A   1      39.874  32.985  34.731  1.00  0.00     0.173 A 
ATOM     64  F   UNL A   1      39.101  31.284  31.634  1.00  0.00    -0.203 F 
ATOM     65  C   UNL A   1      38.584  30.716  33.858  1.00  0.00     0.198 A 
ATOM     66  C   UNL A   1      39.291  32.116  35.655  1.00  0.00     0.198 A 
ATOM     67  F   UNL A   1      40.490  34.055  35.222  1.00  0.00    -0.203 F 
ATOM     68  F   UNL A   1      37.962  29.611  33.426  1.00  0.00    -0.200 F 
ATOM     69  C   UNL A   1      38.638  30.983  35.216  1.00  0.00     0.200 A 
ATOM     70  F   UNL A   1      39.371  32.382  36.968  1.00  0.00    -0.200 F 
ATOM     71  F   UNL A   1      38.078  30.144  36.099  1.00  0.00    -0.200 F 
ENDBRANCH  38  61
ENDBRANCH  12  13
ENDBRANCH   5   7
ENDBRANCH   2   3
ENDBRANCH   1   2
BRANCH   1  72
ATOM     72  C   UNL A   1      34.960  24.531  24.854  1.00  0.00     0.023 C 
BRANCH  72  73
ATOM     73  C   UNL A   1      33.624  23.919  24.455  1.00  0.00     0.116 C 
BRANCH  73  74
ATOM     74  N   UNL A   1      32.804  23.591  25.610  1.00  0.00    -0.352 N 
ATOM     75  C   UNL A   1      31.944  24.407  26.304  1.00  0.00     0.251 C 
ATOM     76  H   UNL A   1      32.874  22.664  25.937  1.00  0.00     0.163 HD
ATOM     77  O   UNL A   1      31.388  24.032  27.316  1.00  0.00    -0.269 OA
BRANCH  75  78
ATOM     78  C   UNL A   1      31.733  25.774  25.797  1.00  0.00     0.041 A 
ATOM     79  C   UNL A   1      32.432  26.841  26.361  1.00  0.00     0.016 A 
ATOM     80  C   UNL A   1      30.781  25.955  24.791  1.00  0.00     0.035 A 
ATOM     81  C   UNL A   1      32.183  28.143  25.919  1.00  0.00     0.031 A 
ATOM     82  C   UNL A   1      30.511  27.273  24.397  1.00  0.00     0.057 A 
ATOM     83  C   UNL A   1      31.215  28.366  24.917  1.00  0.00     0.084 A 
ATOM     84  S   UNL A   1      29.315  27.849  23.300  1.00  0.00    -0.096 S 
ATOM     85  N   UNL A   1      30.880  29.594  24.377  1.00  0.00    -0.219 NA
ATOM     86  C   UNL A   1      29.870  29.434  23.554  1.00  0.00     0.194 A 
BRANCH  86  87
ATOM     87  N   UNL A   1      29.273  30.498  22.866  1.00  0.00    -0.300 N 
ATOM     88  C   UNL A   1      28.839  31.716  23.367  1.00  0.00     0.093 A 
ATOM     89  C   UNL A   1      29.022  30.514  21.504  1.00  0.00     0.093 A 
ATOM     90  C   UNL A   1      28.316  32.470  22.341  1.00  0.00     0.020 A 
ATOM     91  C   UNL A   1      28.403  31.697  21.165  1.00  0.00     0.020 A 
ENDBRANCH  86  87
ENDBRANCH  75  78
ENDBRANCH  73  74
ENDBRANCH  72  73
ENDBRANCH   1  72
TORSDOF 12
ENDMDL
