MODEL 1
REMARK VINA RESULT:     -14.3      0.000      0.000
REMARK SMILES Cc1c(C(=O)NCCCCNC(=O)c2ccc(-c3c4nc(c(-c5c(F)c(F)c(F)c(F)c5F)c5ccc([nH]5)c(-c5c(F)c(F)c(F)c(F)c5F)c5nc(c(-c6c(F)c(F)c(F)c(F)c6F)c6ccc3[nH]6)C=C5)C=C4)cc2)cccc1N1[C@@H](C)C=C(/C=C(\C#N)C(=O)NCCc2c[nH]c3ccccc23)[C@@H]1C
REMARK SMILES IDX 4 1 5 2 6 3 3 5 1 6 2 7 80 8 77 9 79 10 78 11 81 12 82 13
REMARK SMILES IDX 104 14 84 15 83 16 85 17 105 18 86 19 87 20 88 21 89 22
REMARK SMILES IDX 90 23 91 24 92 25 93 27 94 28 95 29 96 30 103 31 97 32 98 33
REMARK SMILES IDX 102 34 99 36 101 37 100 38 7 39 8 40 9 41 10 42 11 43 12 44
REMARK SMILES IDX 13 46 14 47 15 48 76 49 16 50 75 51 17 52 18 53 19 54 69 55
REMARK SMILES IDX 20 56 74 57 68 58 70 59 21 60 73 61 67 62 66 63 22 65 54 66
REMARK SMILES IDX 34 67 53 68 35 69 38 70 52 71 71 72 36 73 37 74 51 76 72 77
REMARK SMILES IDX 39 78 23 79 24 80 32 81 25 82 26 83 30 84 33 85 27 86 28 87
REMARK SMILES IDX 31 88 29 89 55 90 56 91 64 92 57 93 58 94 62 95 65 96 59 97
REMARK SMILES IDX 60 98 63 99 61 100 40 101 41 102 49 103 42 104 43 105 47 106
REMARK SMILES IDX 50 107 44 108 45 109 48 110 46 111
REMARK H PARENT 6 4 92 26 97 35 11 45 70 64 38 75
REMARK Flexibility Score: inf
ROOT
ATOM      1  C   UNL A   1      40.241  21.726  26.360  1.00  0.00     0.251 C 
ATOM      2  O   UNL A   1      40.462  22.769  26.993  1.00  0.00    -0.269 OA
ATOM      3  N   UNL A   1      41.349  20.932  26.290  1.00  0.00    -0.352 N 
ATOM      4  H   UNL A   1      42.134  21.366  26.696  1.00  0.00     0.163 HD
ENDROOT
BRANCH   1   5
ATOM      5  C   UNL A   1      38.841  21.494  25.820  1.00  0.00     0.044 A 
ATOM      6  C   UNL A   1      37.678  23.771  26.121  1.00  0.00     0.047 C 
ATOM      7  C   UNL A   1      37.737  22.367  25.611  1.00  0.00    -0.015 A 
ATOM      8  C   UNL A   1      36.522  21.875  25.046  1.00  0.00     0.041 A 
ATOM      9  C   UNL A   1      38.615  20.118  25.571  1.00  0.00     0.014 A 
ATOM     10  C   UNL A   1      36.373  20.500  24.833  1.00  0.00     0.026 A 
ATOM     11  C   UNL A   1      37.400  19.619  25.116  1.00  0.00     0.003 A 
BRANCH   8  12
ATOM     12  N   UNL A   1      35.408  22.675  24.873  1.00  0.00    -0.358 N 
ATOM     13  C   UNL A   1      34.280  22.552  25.804  1.00  0.00     0.103 C 
ATOM     14  C   UNL A   1      35.354  23.906  24.064  1.00  0.00     0.110 C 
ATOM     15  C   UNL A   1      33.626  23.883  25.645  1.00  0.00     0.003 C 
ATOM     16  C   UNL A   1      34.684  22.407  27.277  1.00  0.00     0.035 C 
ATOM     17  C   UNL A   1      34.281  24.691  24.799  1.00  0.00    -0.026 C 
ATOM     18  C   UNL A   1      34.945  23.565  22.630  1.00  0.00     0.036 C 
BRANCH  17  19
ATOM     19  C   UNL A   1      34.065  26.110  24.587  1.00  0.00     0.031 C 
ATOM     20  C   UNL A   1      33.355  26.715  23.604  1.00  0.00     0.117 C 
BRANCH  20  21
ATOM     21  C   UNL A   1      32.688  26.013  22.574  1.00  0.00     0.105 C 
ATOM     22  N   UNL A   1      32.115  25.424  21.741  1.00  0.00    -0.192 NA
ENDBRANCH  20  21
BRANCH  20  23
ATOM     23  C   UNL A   1      33.506  28.195  23.493  1.00  0.00     0.261 C 
ATOM     24  O   UNL A   1      34.608  28.715  23.312  1.00  0.00    -0.268 OA
ATOM     25  N   UNL A   1      32.394  28.961  23.315  1.00  0.00    -0.351 N 
ATOM     26  H   UNL A   1      32.420  29.517  22.503  1.00  0.00     0.163 HD
BRANCH  25  27
ATOM     27  C   UNL A   1      31.160  29.117  24.107  1.00  0.00     0.121 C 
BRANCH  27  28
ATOM     28  C   UNL A   1      29.879  28.445  23.520  1.00  0.00     0.059 C 
BRANCH  28  29
ATOM     29  C   UNL A   1      28.608  29.301  23.583  1.00  0.00    -0.021 A 
ATOM     30  C   UNL A   1      27.367  28.824  23.160  1.00  0.00     0.087 A 
ATOM     31  C   UNL A   1      28.497  30.654  23.125  1.00  0.00     0.003 A 
ATOM     32  N   UNL A   1      27.439  29.233  21.821  1.00  0.00    -0.361 N 
ATOM     33  C   UNL A   1      28.005  30.494  21.829  1.00  0.00     0.046 A 
ATOM     34  C   UNL A   1      28.750  31.959  23.582  1.00  0.00     0.010 A 
ATOM     35  H   UNL A   1      27.144  28.724  21.032  1.00  0.00     0.166 HD
ATOM     36  C   UNL A   1      28.051  31.490  20.858  1.00  0.00     0.026 A 
ATOM     37  C   UNL A   1      28.581  33.020  22.675  1.00  0.00     0.001 A 
ATOM     38  C   UNL A   1      28.321  32.778  21.322  1.00  0.00     0.002 A 
ENDBRANCH  28  29
ENDBRANCH  27  28
ENDBRANCH  25  27
ENDBRANCH  20  23
ENDBRANCH  17  19
ENDBRANCH   8  12
ENDBRANCH   1   5
BRANCH   3  39
ATOM     39  C   UNL A   1      41.666  19.628  25.777  1.00  0.00     0.116 C 
BRANCH  39  40
ATOM     40  C   UNL A   1      43.051  19.151  26.259  1.00  0.00     0.023 C 
BRANCH  40  41
ATOM     41  C   UNL A   1      43.957  18.581  25.183  1.00  0.00     0.023 C 
BRANCH  41  42
ATOM     42  C   UNL A   1      45.069  19.535  24.825  1.00  0.00     0.116 C 
BRANCH  42  43
ATOM     43  N   UNL A   1      44.824  20.478  23.756  1.00  0.00    -0.352 N 
ATOM     44  C   UNL A   1      44.700  21.857  23.868  1.00  0.00     0.251 C 
ATOM     45  H   UNL A   1      44.735  20.101  22.850  1.00  0.00     0.163 HD
ATOM     46  O   UNL A   1      44.225  22.502  22.939  1.00  0.00    -0.269 OA
BRANCH  44  47
ATOM     47  C   UNL A   1      45.339  22.575  25.013  1.00  0.00     0.039 A 
ATOM     48  C   UNL A   1      44.880  22.233  26.292  1.00  0.00     0.014 A 
ATOM     49  C   UNL A   1      45.968  23.795  24.828  1.00  0.00     0.014 A 
ATOM     50  C   UNL A   1      44.727  23.229  27.245  1.00  0.00     0.010 A 
ATOM     51  C   UNL A   1      45.605  24.825  25.645  1.00  0.00     0.010 A 
ATOM     52  C   UNL A   1      44.945  24.535  26.834  1.00  0.00    -0.014 A 
BRANCH  52  53
ATOM     53  C   UNL A   1      44.758  25.715  27.638  1.00  0.00     0.031 A 
ATOM     54  C   UNL A   1      43.446  26.355  27.468  1.00  0.00     0.074 A 
ATOM     55  C   UNL A   1      45.650  25.926  28.630  1.00  0.00     0.049 A 
ATOM     56  N   UNL A   1      43.143  27.511  27.914  1.00  0.00    -0.248 NA
ATOM     57  C   UNL A   1      42.342  25.727  26.734  1.00  0.00     0.031 C 
ATOM     58  C   UNL A   1      45.576  26.798  29.795  1.00  0.00     0.029 A 
ATOM     59  N   UNL A   1      46.982  25.476  28.644  1.00  0.00    -0.354 N 
ATOM     60  C   UNL A   1      41.776  27.658  27.808  1.00  0.00     0.074 A 
ATOM     61  C   UNL A   1      41.340  26.578  26.965  1.00  0.00     0.031 C 
ATOM     62  C   UNL A   1      46.832  27.128  30.160  1.00  0.00     0.029 A 
ATOM     63  C   UNL A   1      47.729  26.565  29.161  1.00  0.00     0.049 A 
ATOM     64  H   UNL A   1      47.321  24.597  28.357  1.00  0.00     0.167 HD
ATOM     65  C   UNL A   1      41.199  28.623  28.577  1.00  0.00     0.037 A 
ATOM     66  C   UNL A   1      48.506  27.279  28.287  1.00  0.00     0.037 A 
ATOM     67  C   UNL A   1      42.261  29.371  29.257  1.00  0.00     0.049 A 
ATOM     68  C   UNL A   1      47.920  28.651  27.996  1.00  0.00     0.074 A 
ATOM     69  C   UNL A   1      42.893  29.243  30.482  1.00  0.00     0.029 A 
ATOM     70  N   UNL A   1      43.115  30.107  28.464  1.00  0.00    -0.354 N 
ATOM     71  N   UNL A   1      46.712  29.018  28.342  1.00  0.00    -0.248 NA
ATOM     72  C   UNL A   1      48.628  29.701  27.271  1.00  0.00     0.031 C 
ATOM     73  C   UNL A   1      44.187  29.852  30.365  1.00  0.00     0.029 A 
ATOM     74  C   UNL A   1      44.322  30.356  29.082  1.00  0.00     0.049 A 
ATOM     75  H   UNL A   1      42.889  30.420  27.559  1.00  0.00     0.167 HD
ATOM     76  C   UNL A   1      46.492  30.312  27.973  1.00  0.00     0.074 A 
ATOM     77  C   UNL A   1      47.699  30.673  27.240  1.00  0.00     0.031 C 
ATOM     78  C   UNL A   1      45.362  31.010  28.301  1.00  0.00     0.037 A 
BRANCH  65  79
ATOM     79  C   UNL A   1      39.734  28.822  28.879  1.00  0.00     0.064 A 
ATOM     80  C   UNL A   1      38.883  29.284  27.849  1.00  0.00     0.173 A 
ATOM     81  C   UNL A   1      39.095  28.622  30.118  1.00  0.00     0.173 A 
ATOM     82  F   UNL A   1      39.338  29.482  26.604  1.00  0.00    -0.203 F 
ATOM     83  C   UNL A   1      37.532  29.566  28.053  1.00  0.00     0.198 A 
ATOM     84  C   UNL A   1      37.741  28.913  30.324  1.00  0.00     0.198 A 
ATOM     85  F   UNL A   1      39.731  28.114  31.176  1.00  0.00    -0.203 F 
ATOM     86  F   UNL A   1      36.788  30.016  27.033  1.00  0.00    -0.200 F 
ATOM     87  C   UNL A   1      36.960  29.390  29.294  1.00  0.00     0.200 A 
ATOM     88  F   UNL A   1      37.198  28.721  31.537  1.00  0.00    -0.200 F 
ATOM     89  F   UNL A   1      35.665  29.665  29.492  1.00  0.00    -0.200 F 
ENDBRANCH  65  79
BRANCH  66  90
ATOM     90  C   UNL A   1      49.169  26.354  27.303  1.00  0.00     0.064 A 
ATOM     91  C   UNL A   1      48.831  26.543  25.939  1.00  0.00     0.173 A 
ATOM     92  C   UNL A   1      50.407  25.764  27.577  1.00  0.00     0.173 A 
ATOM     93  F   UNL A   1      47.639  27.069  25.610  1.00  0.00    -0.203 F 
ATOM     94  C   UNL A   1      49.791  26.419  24.937  1.00  0.00     0.198 A 
ATOM     95  C   UNL A   1      51.337  25.561  26.553  1.00  0.00     0.198 A 
ATOM     96  F   UNL A   1      50.782  25.523  28.842  1.00  0.00    -0.203 F 
ATOM     97  F   UNL A   1      49.524  26.865  23.700  1.00  0.00    -0.200 F 
ATOM     98  C   UNL A   1      51.058  25.967  25.254  1.00  0.00     0.200 A 
ATOM     99  F   UNL A   1      52.555  25.084  26.849  1.00  0.00    -0.200 F 
ATOM    100  F   UNL A   1      52.024  25.982  24.324  1.00  0.00    -0.200 F 
ENDBRANCH  66  90
BRANCH  78 101
ATOM    101  C   UNL A   1      45.158  32.428  27.856  1.00  0.00     0.064 A 
ATOM    102  C   UNL A   1      45.651  33.506  28.602  1.00  0.00     0.173 A 
ATOM    103  C   UNL A   1      44.415  32.759  26.702  1.00  0.00     0.173 A 
ATOM    104  F   UNL A   1      46.255  33.304  29.783  1.00  0.00    -0.203 F 
ATOM    105  C   UNL A   1      45.540  34.816  28.144  1.00  0.00     0.198 A 
ATOM    106  C   UNL A   1      44.229  34.074  26.295  1.00  0.00     0.198 A 
ATOM    107  F   UNL A   1      43.885  31.827  25.899  1.00  0.00    -0.203 F 
ATOM    108  F   UNL A   1      46.142  35.804  28.818  1.00  0.00    -0.200 F 
ATOM    109  C   UNL A   1      44.830  35.099  26.991  1.00  0.00     0.200 A 
ATOM    110  F   UNL A   1      43.490  34.330  25.205  1.00  0.00    -0.200 F 
ATOM    111  F   UNL A   1      44.732  36.358  26.546  1.00  0.00    -0.200 F 
ENDBRANCH  78 101
ENDBRANCH  52  53
ENDBRANCH  44  47
ENDBRANCH  42  43
ENDBRANCH  41  42
ENDBRANCH  40  41
ENDBRANCH  39  40
ENDBRANCH   3  39
TORSDOF 18
ENDMDL
MODEL 2
REMARK VINA RESULT:     -14.0      1.870      2.876
REMARK SMILES Cc1c(C(=O)NCCCCNC(=O)c2ccc(-c3c4nc(c(-c5c(F)c(F)c(F)c(F)c5F)c5ccc([nH]5)c(-c5c(F)c(F)c(F)c(F)c5F)c5nc(c(-c6c(F)c(F)c(F)c(F)c6F)c6ccc3[nH]6)C=C5)C=C4)cc2)cccc1N1[C@@H](C)C=C(/C=C(\C#N)C(=O)NCCc2c[nH]c3ccccc23)[C@@H]1C
REMARK SMILES IDX 4 1 5 2 6 3 3 5 1 6 2 7 80 8 77 9 79 10 78 11 81 12 82 13
REMARK SMILES IDX 104 14 84 15 83 16 85 17 105 18 86 19 87 20 88 21 89 22
REMARK SMILES IDX 90 23 91 24 92 25 93 27 94 28 95 29 96 30 103 31 97 32 98 33
REMARK SMILES IDX 102 34 99 36 101 37 100 38 7 39 8 40 9 41 10 42 11 43 12 44
REMARK SMILES IDX 13 46 14 47 15 48 76 49 16 50 75 51 17 52 18 53 19 54 69 55
REMARK SMILES IDX 20 56 74 57 68 58 70 59 21 60 73 61 67 62 66 63 22 65 54 66
REMARK SMILES IDX 34 67 53 68 35 69 38 70 52 71 71 72 36 73 37 74 51 76 72 77
REMARK SMILES IDX 39 78 23 79 24 80 32 81 25 82 26 83 30 84 33 85 27 86 28 87
REMARK SMILES IDX 31 88 29 89 55 90 56 91 64 92 57 93 58 94 62 95 65 96 59 97
REMARK SMILES IDX 60 98 63 99 61 100 40 101 41 102 49 103 42 104 43 105 47 106
REMARK SMILES IDX 50 107 44 108 45 109 48 110 46 111
REMARK H PARENT 6 4 92 26 97 35 11 45 70 64 38 75
REMARK Flexibility Score: inf
ROOT
ATOM      1  C   UNL A   1      41.521  21.186  26.712  1.00  0.00     0.251 C 
ATOM      2  O   UNL A   1      41.787  22.011  27.598  1.00  0.00    -0.269 OA
ATOM      3  N   UNL A   1      42.603  20.415  26.397  1.00  0.00    -0.352 N 
ATOM      4  H   UNL A   1      43.409  20.702  26.884  1.00  0.00     0.163 HD
ENDROOT
BRANCH   1   5
ATOM      5  C   UNL A   1      40.104  21.144  26.169  1.00  0.00     0.044 A 
ATOM      6  C   UNL A   1      39.168  23.482  26.703  1.00  0.00     0.047 C 
ATOM      7  C   UNL A   1      39.089  22.136  26.059  1.00  0.00    -0.015 A 
ATOM      8  C   UNL A   1      37.831  21.821  25.463  1.00  0.00     0.041 A 
ATOM      9  C   UNL A   1      39.744  19.827  25.790  1.00  0.00     0.014 A 
ATOM     10  C   UNL A   1      37.548  20.494  25.119  1.00  0.00     0.026 A 
ATOM     11  C   UNL A   1      38.485  19.495  25.304  1.00  0.00     0.003 A 
BRANCH   8  12
ATOM     12  N   UNL A   1      36.799  22.738  25.382  1.00  0.00    -0.358 N 
ATOM     13  C   UNL A   1      36.648  23.547  24.166  1.00  0.00     0.103 C 
ATOM     14  C   UNL A   1      35.600  22.757  26.239  1.00  0.00     0.110 C 
ATOM     15  C   UNL A   1      35.204  23.917  24.241  1.00  0.00     0.003 C 
ATOM     16  C   UNL A   1      36.860  22.774  22.858  1.00  0.00     0.035 C 
ATOM     17  C   UNL A   1      34.580  23.376  25.298  1.00  0.00    -0.026 C 
ATOM     18  C   UNL A   1      35.858  23.628  27.470  1.00  0.00     0.036 C 
BRANCH  17  19
ATOM     19  C   UNL A   1      33.153  23.334  25.553  1.00  0.00     0.031 C 
ATOM     20  C   UNL A   1      32.267  22.362  25.224  1.00  0.00     0.117 C 
BRANCH  20  21
ATOM     21  C   UNL A   1      32.623  21.180  24.535  1.00  0.00     0.105 C 
ATOM     22  N   UNL A   1      32.937  20.217  23.949  1.00  0.00    -0.192 NA
ENDBRANCH  20  21
BRANCH  20  23
ATOM     23  C   UNL A   1      30.824  22.695  25.395  1.00  0.00     0.261 C 
ATOM     24  O   UNL A   1      30.095  22.033  26.136  1.00  0.00    -0.268 OA
ATOM     25  N   UNL A   1      30.366  23.899  24.949  1.00  0.00    -0.351 N 
ATOM     26  H   UNL A   1      29.941  24.446  25.647  1.00  0.00     0.163 HD
BRANCH  25  27
ATOM     27  C   UNL A   1      30.386  24.536  23.620  1.00  0.00     0.121 C 
BRANCH  27  28
ATOM     28  C   UNL A   1      31.562  25.529  23.353  1.00  0.00     0.059 C 
BRANCH  28  29
ATOM     29  C   UNL A   1      31.333  26.959  23.857  1.00  0.00    -0.021 A 
ATOM     30  C   UNL A   1      31.624  28.078  23.077  1.00  0.00     0.087 A 
ATOM     31  C   UNL A   1      31.742  27.462  25.135  1.00  0.00     0.003 A 
ATOM     32  N   UNL A   1      32.951  28.270  23.485  1.00  0.00    -0.361 N 
ATOM     33  C   UNL A   1      32.977  28.045  24.849  1.00  0.00     0.046 A 
ATOM     34  C   UNL A   1      31.284  27.496  26.463  1.00  0.00     0.010 A 
ATOM     35  H   UNL A   1      33.714  28.516  22.913  1.00  0.00     0.166 HD
ATOM     36  C   UNL A   1      33.922  28.367  25.818  1.00  0.00     0.026 A 
ATOM     37  C   UNL A   1      32.139  28.033  27.442  1.00  0.00     0.001 A 
ATOM     38  C   UNL A   1      33.460  28.380  27.135  1.00  0.00     0.002 A 
ENDBRANCH  28  29
ENDBRANCH  27  28
ENDBRANCH  25  27
ENDBRANCH  20  23
ENDBRANCH  17  19
ENDBRANCH   8  12
ENDBRANCH   1   5
BRANCH   3  39
ATOM     39  C   UNL A   1      42.868  19.293  25.540  1.00  0.00     0.116 C 
BRANCH  39  40
ATOM     40  C   UNL A   1      44.138  18.535  25.976  1.00  0.00     0.023 C 
BRANCH  40  41
ATOM     41  C   UNL A   1      45.268  18.515  24.964  1.00  0.00     0.023 C 
BRANCH  41  42
ATOM     42  C   UNL A   1      45.886  19.880  24.789  1.00  0.00     0.116 C 
BRANCH  42  43
ATOM     43  N   UNL A   1      45.286  20.766  23.815  1.00  0.00    -0.352 N 
ATOM     44  C   UNL A   1      44.903  22.087  24.009  1.00  0.00     0.251 C 
ATOM     45  H   UNL A   1      45.132  20.392  22.917  1.00  0.00     0.163 HD
ATOM     46  O   UNL A   1      44.164  22.631  23.195  1.00  0.00    -0.269 OA
BRANCH  44  47
ATOM     47  C   UNL A   1      45.556  22.906  25.075  1.00  0.00     0.039 A 
ATOM     48  C   UNL A   1      45.242  22.565  26.397  1.00  0.00     0.014 A 
ATOM     49  C   UNL A   1      46.037  24.177  24.804  1.00  0.00     0.014 A 
ATOM     50  C   UNL A   1      45.065  23.575  27.333  1.00  0.00     0.010 A 
ATOM     51  C   UNL A   1      45.637  25.193  25.621  1.00  0.00     0.010 A 
ATOM     52  C   UNL A   1      45.111  24.881  26.869  1.00  0.00    -0.014 A 
BRANCH  52  53
ATOM     53  C   UNL A   1      44.869  26.063  27.654  1.00  0.00     0.031 A 
ATOM     54  C   UNL A   1      43.527  26.635  27.479  1.00  0.00     0.074 A 
ATOM     55  C   UNL A   1      45.753  26.335  28.638  1.00  0.00     0.049 A 
ATOM     56  N   UNL A   1      43.169  27.782  27.908  1.00  0.00    -0.248 NA
ATOM     57  C   UNL A   1      42.452  25.941  26.762  1.00  0.00     0.031 C 
ATOM     58  C   UNL A   1      45.641  27.222  29.789  1.00  0.00     0.029 A 
ATOM     59  N   UNL A   1      47.106  25.952  28.653  1.00  0.00    -0.354 N 
ATOM     60  C   UNL A   1      41.796  27.860  27.805  1.00  0.00     0.074 A 
ATOM     61  C   UNL A   1      41.410  26.745  26.983  1.00  0.00     0.031 C 
ATOM     62  C   UNL A   1      46.881  27.620  30.142  1.00  0.00     0.029 A 
ATOM     63  C   UNL A   1      47.800  27.085  29.148  1.00  0.00     0.049 A 
ATOM     64  H   UNL A   1      47.488  25.085  28.379  1.00  0.00     0.167 HD
ATOM     65  C   UNL A   1      41.175  28.808  28.561  1.00  0.00     0.037 A 
ATOM     66  C   UNL A   1      48.538  27.821  28.259  1.00  0.00     0.037 A 
ATOM     67  C   UNL A   1      42.201  29.619  29.223  1.00  0.00     0.049 A 
ATOM     68  C   UNL A   1      47.884  29.157  27.947  1.00  0.00     0.074 A 
ATOM     69  C   UNL A   1      42.844  29.543  30.447  1.00  0.00     0.029 A 
ATOM     70  N   UNL A   1      43.015  30.382  28.413  1.00  0.00    -0.354 N 
ATOM     71  N   UNL A   1      46.661  29.470  28.293  1.00  0.00    -0.248 NA
ATOM     72  C   UNL A   1      48.537  30.229  27.201  1.00  0.00     0.031 C 
ATOM     73  C   UNL A   1      44.105  30.213  30.314  1.00  0.00     0.029 A 
ATOM     74  C   UNL A   1      44.211  30.701  29.022  1.00  0.00     0.049 A 
ATOM     75  H   UNL A   1      42.770  30.668  27.504  1.00  0.00     0.167 HD
ATOM     76  C   UNL A   1      46.376  30.745  27.903  1.00  0.00     0.074 A 
ATOM     77  C   UNL A   1      47.560  31.153  27.158  1.00  0.00     0.031 C 
ATOM     78  C   UNL A   1      45.214  31.392  28.224  1.00  0.00     0.037 A 
BRANCH  65  79
ATOM     79  C   UNL A   1      39.703  28.940  28.867  1.00  0.00     0.064 A 
ATOM     80  C   UNL A   1      38.827  29.349  27.835  1.00  0.00     0.173 A 
ATOM     81  C   UNL A   1      39.079  28.723  30.111  1.00  0.00     0.173 A 
ATOM     82  F   UNL A   1      39.267  29.554  26.586  1.00  0.00    -0.203 F 
ATOM     83  C   UNL A   1      37.465  29.567  28.041  1.00  0.00     0.198 A 
ATOM     84  C   UNL A   1      37.713  28.951  30.319  1.00  0.00     0.198 A 
ATOM     85  F   UNL A   1      39.742  28.259  31.172  1.00  0.00    -0.203 F 
ATOM     86  F   UNL A   1      36.697  29.969  27.019  1.00  0.00    -0.200 F 
ATOM     87  C   UNL A   1      36.906  29.378  29.286  1.00  0.00     0.200 A 
ATOM     88  F   UNL A   1      37.184  28.748  31.536  1.00  0.00    -0.200 F 
ATOM     89  F   UNL A   1      35.600  29.593  29.486  1.00  0.00    -0.200 F 
ENDBRANCH  65  79
BRANCH  66  90
ATOM     90  C   UNL A   1      49.242  26.914  27.287  1.00  0.00     0.064 A 
ATOM     91  C   UNL A   1      48.865  27.037  25.926  1.00  0.00     0.173 A 
ATOM     92  C   UNL A   1      50.523  26.416  27.550  1.00  0.00     0.173 A 
ATOM     93  F   UNL A   1      47.633  27.472  25.609  1.00  0.00    -0.203 F 
ATOM     94  C   UNL A   1      49.810  26.948  24.907  1.00  0.00     0.198 A 
ATOM     95  C   UNL A   1      51.443  26.245  26.512  1.00  0.00     0.198 A 
ATOM     96  F   UNL A   1      50.938  26.240  28.814  1.00  0.00    -0.203 F 
ATOM     97  F   UNL A   1      49.489  27.337  23.664  1.00  0.00    -0.200 F 
ATOM     98  C   UNL A   1      51.111  26.591  25.208  1.00  0.00     0.200 A 
ATOM     99  F   UNL A   1      52.697  25.860  26.795  1.00  0.00    -0.200 F 
ATOM    100  F   UNL A   1      52.055  26.643  24.258  1.00  0.00    -0.200 F 
ENDBRANCH  66  90
BRANCH  78 101
ATOM    101  C   UNL A   1      44.938  32.791  27.757  1.00  0.00     0.064 A 
ATOM    102  C   UNL A   1      44.227  33.040  26.577  1.00  0.00     0.173 A 
ATOM    103  C   UNL A   1      45.422  33.926  28.443  1.00  0.00     0.173 A 
ATOM    104  F   UNL A   1      43.838  32.030  25.784  1.00  0.00    -0.203 F 
ATOM    105  C   UNL A   1      43.893  34.336  26.191  1.00  0.00     0.198 A 
ATOM    106  C   UNL A   1      45.164  35.219  28.006  1.00  0.00     0.198 A 
ATOM    107  F   UNL A   1      46.119  33.831  29.584  1.00  0.00    -0.203 F 
ATOM    108  F   UNL A   1      43.099  34.525  25.130  1.00  0.00    -0.200 F 
ATOM    109  C   UNL A   1      44.362  35.424  26.906  1.00  0.00     0.200 A 
ATOM    110  F   UNL A   1      45.673  36.259  28.682  1.00  0.00    -0.200 F 
ATOM    111  F   UNL A   1      44.032  36.669  26.540  1.00  0.00    -0.200 F 
ENDBRANCH  78 101
ENDBRANCH  52  53
ENDBRANCH  44  47
ENDBRANCH  42  43
ENDBRANCH  41  42
ENDBRANCH  40  41
ENDBRANCH  39  40
ENDBRANCH   3  39
TORSDOF 18
ENDMDL
MODEL 3
REMARK VINA RESULT:     -13.6      1.238      2.099
REMARK SMILES Cc1c(C(=O)NCCCCNC(=O)c2ccc(-c3c4nc(c(-c5c(F)c(F)c(F)c(F)c5F)c5ccc([nH]5)c(-c5c(F)c(F)c(F)c(F)c5F)c5nc(c(-c6c(F)c(F)c(F)c(F)c6F)c6ccc3[nH]6)C=C5)C=C4)cc2)cccc1N1[C@@H](C)C=C(/C=C(\C#N)C(=O)NCCc2c[nH]c3ccccc23)[C@@H]1C
REMARK SMILES IDX 4 1 5 2 6 3 3 5 1 6 2 7 80 8 77 9 79 10 78 11 81 12 82 13
REMARK SMILES IDX 104 14 84 15 83 16 85 17 105 18 86 19 87 20 88 21 89 22
REMARK SMILES IDX 90 23 91 24 92 25 93 27 94 28 95 29 96 30 103 31 97 32 98 33
REMARK SMILES IDX 102 34 99 36 101 37 100 38 7 39 8 40 9 41 10 42 11 43 12 44
REMARK SMILES IDX 13 46 14 47 15 48 76 49 16 50 75 51 17 52 18 53 19 54 69 55
REMARK SMILES IDX 20 56 74 57 68 58 70 59 21 60 73 61 67 62 66 63 22 65 54 66
REMARK SMILES IDX 34 67 53 68 35 69 38 70 52 71 71 72 36 73 37 74 51 76 72 77
REMARK SMILES IDX 39 78 23 79 24 80 32 81 25 82 26 83 30 84 33 85 27 86 28 87
REMARK SMILES IDX 31 88 29 89 55 90 56 91 64 92 57 93 58 94 62 95 65 96 59 97
REMARK SMILES IDX 60 98 63 99 61 100 40 101 41 102 49 103 42 104 43 105 47 106
REMARK SMILES IDX 50 107 44 108 45 109 48 110 46 111
REMARK H PARENT 6 4 92 26 97 35 11 45 70 64 38 75
REMARK Flexibility Score: inf
ROOT
ATOM      1  C   UNL A   1      40.997  20.469  27.325  1.00  0.00     0.251 C 
ATOM      2  O   UNL A   1      40.807  19.840  28.376  1.00  0.00    -0.269 OA
ATOM      3  N   UNL A   1      42.170  20.112  26.726  1.00  0.00    -0.352 N 
ATOM      4  H   UNL A   1      42.679  19.471  27.274  1.00  0.00     0.163 HD
ENDROOT
BRANCH   1   5
ATOM      5  C   UNL A   1      39.938  21.460  26.878  1.00  0.00     0.044 A 
ATOM      6  C   UNL A   1      38.393  20.070  25.358  1.00  0.00     0.047 C 
ATOM      7  C   UNL A   1      38.749  21.313  26.109  1.00  0.00    -0.015 A 
ATOM      8  C   UNL A   1      37.902  22.435  25.862  1.00  0.00     0.041 A 
ATOM      9  C   UNL A   1      40.290  22.781  27.249  1.00  0.00     0.014 A 
ATOM     10  C   UNL A   1      38.322  23.710  26.257  1.00  0.00     0.026 A 
ATOM     11  C   UNL A   1      39.520  23.892  26.924  1.00  0.00     0.003 A 
BRANCH   8  12
ATOM     12  N   UNL A   1      36.766  22.348  25.079  1.00  0.00    -0.358 N 
ATOM     13  C   UNL A   1      35.548  21.752  25.641  1.00  0.00     0.103 C 
ATOM     14  C   UNL A   1      36.516  23.112  23.843  1.00  0.00     0.110 C 
ATOM     15  C   UNL A   1      34.500  22.357  24.767  1.00  0.00     0.003 C 
ATOM     16  C   UNL A   1      35.244  22.170  27.085  1.00  0.00     0.035 C 
ATOM     17  C   UNL A   1      35.001  23.214  23.865  1.00  0.00    -0.026 C 
ATOM     18  C   UNL A   1      37.028  22.324  22.636  1.00  0.00     0.036 C 
BRANCH  17  19
ATOM     19  C   UNL A   1      34.266  24.140  23.025  1.00  0.00     0.031 C 
ATOM     20  C   UNL A   1      33.764  25.356  23.351  1.00  0.00     0.117 C 
BRANCH  20  21
ATOM     21  C   UNL A   1      33.880  25.931  24.636  1.00  0.00     0.105 C 
ATOM     22  N   UNL A   1      34.003  26.416  25.694  1.00  0.00    -0.192 NA
ENDBRANCH  20  21
BRANCH  20  23
ATOM     23  C   UNL A   1      32.843  25.980  22.357  1.00  0.00     0.261 C 
ATOM     24  O   UNL A   1      33.264  26.445  21.296  1.00  0.00    -0.268 OA
ATOM     25  N   UNL A   1      31.501  25.793  22.491  1.00  0.00    -0.351 N 
ATOM     26  H   UNL A   1      31.076  25.381  21.705  1.00  0.00     0.163 HD
BRANCH  25  27
ATOM     27  C   UNL A   1      30.563  26.089  23.590  1.00  0.00     0.121 C 
BRANCH  27  28
ATOM     28  C   UNL A   1      29.550  27.249  23.333  1.00  0.00     0.059 C 
BRANCH  28  29
ATOM     29  C   UNL A   1      30.163  28.536  22.766  1.00  0.00    -0.021 A 
ATOM     30  C   UNL A   1      31.297  29.128  23.323  1.00  0.00     0.087 A 
ATOM     31  C   UNL A   1      29.433  29.722  22.426  1.00  0.00     0.003 A 
ATOM     32  N   UNL A   1      30.655  29.973  24.238  1.00  0.00    -0.361 N 
ATOM     33  C   UNL A   1      29.552  30.491  23.585  1.00  0.00     0.046 A 
ATOM     34  C   UNL A   1      28.688  30.245  21.356  1.00  0.00     0.010 A 
ATOM     35  H   UNL A   1      30.935  30.162  25.163  1.00  0.00     0.166 HD
ATOM     36  C   UNL A   1      28.735  31.578  23.876  1.00  0.00     0.026 A 
ATOM     37  C   UNL A   1      28.030  31.472  21.549  1.00  0.00     0.001 A 
ATOM     38  C   UNL A   1      27.987  32.078  22.809  1.00  0.00     0.002 A 
ENDBRANCH  28  29
ENDBRANCH  27  28
ENDBRANCH  25  27
ENDBRANCH  20  23
ENDBRANCH  17  19
ENDBRANCH   8  12
ENDBRANCH   1   5
BRANCH   3  39
ATOM     39  C   UNL A   1      42.855  20.428  25.503  1.00  0.00     0.116 C 
BRANCH  39  40
ATOM     40  C   UNL A   1      43.578  19.196  24.924  1.00  0.00     0.023 C 
BRANCH  40  41
ATOM     41  C   UNL A   1      44.797  19.493  24.071  1.00  0.00     0.023 C 
BRANCH  41  42
ATOM     42  C   UNL A   1      45.950  19.999  24.901  1.00  0.00     0.116 C 
BRANCH  42  43
ATOM     43  N   UNL A   1      46.752  21.070  24.352  1.00  0.00    -0.352 N 
ATOM     44  C   UNL A   1      46.404  22.411  24.255  1.00  0.00     0.251 C 
ATOM     45  H   UNL A   1      47.641  20.821  24.008  1.00  0.00     0.163 HD
ATOM     46  O   UNL A   1      47.052  23.157  23.527  1.00  0.00    -0.269 OA
BRANCH  44  47
ATOM     47  C   UNL A   1      45.392  22.991  25.191  1.00  0.00     0.039 A 
ATOM     48  C   UNL A   1      44.454  23.864  24.626  1.00  0.00     0.014 A 
ATOM     49  C   UNL A   1      45.637  23.055  26.553  1.00  0.00     0.014 A 
ATOM     50  C   UNL A   1      44.066  24.991  25.334  1.00  0.00     0.010 A 
ATOM     51  C   UNL A   1      45.471  24.261  27.170  1.00  0.00     0.010 A 
ATOM     52  C   UNL A   1      44.718  25.241  26.532  1.00  0.00    -0.014 A 
BRANCH  52  53
ATOM     53  C   UNL A   1      44.527  26.393  27.373  1.00  0.00     0.031 A 
ATOM     54  C   UNL A   1      43.179  26.973  27.299  1.00  0.00     0.074 A 
ATOM     55  C   UNL A   1      45.469  26.627  28.313  1.00  0.00     0.049 A 
ATOM     56  N   UNL A   1      42.852  28.104  27.790  1.00  0.00    -0.248 NA
ATOM     57  C   UNL A   1      42.062  26.308  26.620  1.00  0.00     0.031 C 
ATOM     58  C   UNL A   1      45.428  27.471  29.500  1.00  0.00     0.029 A 
ATOM     59  N   UNL A   1      46.819  26.241  28.234  1.00  0.00    -0.354 N 
ATOM     60  C   UNL A   1      41.475  28.188  27.771  1.00  0.00     0.074 A 
ATOM     61  C   UNL A   1      41.038  27.106  26.932  1.00  0.00     0.031 C 
ATOM     62  C   UNL A   1      46.688  27.853  29.795  1.00  0.00     0.029 A 
ATOM     63  C   UNL A   1      47.545  27.354  28.729  1.00  0.00     0.049 A 
ATOM     64  H   UNL A   1      47.180  25.385  27.906  1.00  0.00     0.167 HD
ATOM     65  C   UNL A   1      40.903  29.108  28.597  1.00  0.00     0.037 A 
ATOM     66  C   UNL A   1      48.232  28.121  27.826  1.00  0.00     0.037 A 
ATOM     67  C   UNL A   1      41.970  29.892  29.227  1.00  0.00     0.049 A 
ATOM     68  C   UNL A   1      47.566  29.469  27.603  1.00  0.00     0.074 A 
ATOM     69  C   UNL A   1      42.683  29.770  30.407  1.00  0.00     0.029 A 
ATOM     70  N   UNL A   1      42.738  30.684  28.400  1.00  0.00    -0.354 N 
ATOM     71  N   UNL A   1      46.367  29.771  28.032  1.00  0.00    -0.248 NA
ATOM     72  C   UNL A   1      48.178  30.567  26.860  1.00  0.00     0.031 C 
ATOM     73  C   UNL A   1      43.937  30.442  30.225  1.00  0.00     0.029 A 
ATOM     74  C   UNL A   1      43.968  30.978  28.948  1.00  0.00     0.049 A 
ATOM     75  H   UNL A   1      42.441  31.004  27.518  1.00  0.00     0.167 HD
ATOM     76  C   UNL A   1      46.064  31.060  27.707  1.00  0.00     0.074 A 
ATOM     77  C   UNL A   1      47.205  31.493  26.909  1.00  0.00     0.031 C 
ATOM     78  C   UNL A   1      44.925  31.697  28.120  1.00  0.00     0.037 A 
BRANCH  65  79
ATOM     79  C   UNL A   1      39.453  29.231  28.993  1.00  0.00     0.064 A 
ATOM     80  C   UNL A   1      38.501  29.563  28.001  1.00  0.00     0.173 A 
ATOM     81  C   UNL A   1      38.917  29.077  30.287  1.00  0.00     0.173 A 
ATOM     82  F   UNL A   1      38.853  29.702  26.715  1.00  0.00    -0.203 F 
ATOM     83  C   UNL A   1      37.151  29.768  28.286  1.00  0.00     0.198 A 
ATOM     84  C   UNL A   1      37.563  29.292  30.573  1.00  0.00     0.198 A 
ATOM     85  F   UNL A   1      39.660  28.688  31.325  1.00  0.00    -0.203 F 
ATOM     86  F   UNL A   1      36.308  30.095  27.296  1.00  0.00    -0.200 F 
ATOM     87  C   UNL A   1      36.681  29.643  29.574  1.00  0.00     0.200 A 
ATOM     88  F   UNL A   1      37.121  29.151  31.833  1.00  0.00    -0.200 F 
ATOM     89  F   UNL A   1      35.386  29.845  29.850  1.00  0.00    -0.200 F 
ENDBRANCH  65  79
BRANCH  66  90
ATOM     90  C   UNL A   1      48.875  27.250  26.781  1.00  0.00     0.064 A 
ATOM     91  C   UNL A   1      48.264  27.249  25.502  1.00  0.00     0.173 A 
ATOM     92  C   UNL A   1      50.234  26.925  26.839  1.00  0.00     0.173 A 
ATOM     93  F   UNL A   1      46.951  27.514  25.386  1.00  0.00    -0.203 F 
ATOM     94  C   UNL A   1      49.030  27.214  24.340  1.00  0.00     0.198 A 
ATOM     95  C   UNL A   1      50.983  26.804  25.664  1.00  0.00     0.198 A 
ATOM     96  F   UNL A   1      50.873  26.872  28.017  1.00  0.00    -0.203 F 
ATOM     97  F   UNL A   1      48.459  27.490  23.157  1.00  0.00    -0.200 F 
ATOM     98  C   UNL A   1      50.397  27.033  24.426  1.00  0.00     0.200 A 
ATOM     99  F   UNL A   1      52.305  26.589  25.742  1.00  0.00    -0.200 F 
ATOM    100  F   UNL A   1      51.156  27.141  23.325  1.00  0.00    -0.200 F 
ENDBRANCH  66  90
BRANCH  78 101
ATOM    101  C   UNL A   1      44.628  33.112  27.722  1.00  0.00     0.064 A 
ATOM    102  C   UNL A   1      44.053  33.418  26.483  1.00  0.00     0.173 A 
ATOM    103  C   UNL A   1      44.958  34.213  28.542  1.00  0.00     0.173 A 
ATOM    104  F   UNL A   1      43.823  32.455  25.577  1.00  0.00    -0.203 F 
ATOM    105  C   UNL A   1      43.694  34.721  26.150  1.00  0.00     0.198 A 
ATOM    106  C   UNL A   1      44.681  35.522  28.169  1.00  0.00     0.198 A 
ATOM    107  F   UNL A   1      45.515  34.064  29.752  1.00  0.00    -0.203 F 
ATOM    108  F   UNL A   1      43.025  34.953  25.014  1.00  0.00    -0.200 F 
ATOM    109  C   UNL A   1      44.008  35.773  26.994  1.00  0.00     0.200 A 
ATOM    110  F   UNL A   1      45.043  36.530  28.976  1.00  0.00    -0.200 F 
ATOM    111  F   UNL A   1      43.654  37.025  26.678  1.00  0.00    -0.200 F 
ENDBRANCH  78 101
ENDBRANCH  52  53
ENDBRANCH  44  47
ENDBRANCH  42  43
ENDBRANCH  41  42
ENDBRANCH  40  41
ENDBRANCH  39  40
ENDBRANCH   3  39
TORSDOF 18
ENDMDL
