MODEL 1
REMARK VINA RESULT:     -13.3      0.000      0.000
REMARK SMILES Cc1ccccc1-c1nc(CC(=O)NCCCCNC(=O)c2ccc(-c3c4nc(c(-c5c(F)c(F)c(F)c(F)c5F)c5ccc([nH]5)c(-c5c(F)c(F)c(F)c(F)c5F)c5nc(c(-c6c(F)c(F)c(F)c(F)c6F)c6ccc3[nH]6)C=C5)C=C4)cc2)cs1
REMARK SMILES IDX 16 1 15 2 14 3 12 4 13 5 11 7 10 8 8 9 9 10 86 11 85 12 7 13
REMARK SMILES IDX 1 14 2 15 3 16 4 17 6 18 5 19 17 20 18 21 19 22 20 23 21 25
REMARK SMILES IDX 22 26 23 27 84 28 24 29 83 30 25 31 26 32 27 33 77 34 28 35
REMARK SMILES IDX 82 36 76 37 78 38 29 39 81 40 75 41 74 42 30 44 62 45 42 46
REMARK SMILES IDX 61 47 43 48 46 49 60 50 79 51 44 52 45 53 59 55 80 56 47 57
REMARK SMILES IDX 31 58 32 59 40 60 33 61 34 62 38 63 41 64 35 65 36 66 39 67
REMARK SMILES IDX 37 68 63 69 64 70 72 71 65 72 66 73 70 74 73 75 67 76 68 77
REMARK SMILES IDX 71 78 69 79 48 80 49 81 57 82 50 83 51 84 55 85 58 86 52 87
REMARK SMILES IDX 53 88 56 89 54 90
REMARK H PARENT 14 6 19 24 78 43 46 54
REMARK Flexibility Score: inf
ROOT
ATOM      1  C   UNL A   1      37.480  21.218  24.966  1.00  0.00     0.023 C 
ENDROOT
BRANCH   1   2
ATOM      2  C   UNL A   1      36.440  22.262  25.407  1.00  0.00     0.116 C 
BRANCH   2   3
ATOM      3  N   UNL A   1      35.550  21.780  26.451  1.00  0.00    -0.356 N 
ATOM      4  C   UNL A   1      34.201  21.561  26.416  1.00  0.00     0.226 C 
ATOM      5  O   UNL A   1      33.648  21.199  27.457  1.00  0.00    -0.275 OA
ATOM      6  H   UNL A   1      35.984  21.582  27.313  1.00  0.00     0.163 HD
BRANCH   4   7
ATOM      7  C   UNL A   1      33.419  21.716  25.127  1.00  0.00     0.157 C 
BRANCH   7   8
ATOM      8  C   UNL A   1      33.312  23.139  24.699  1.00  0.00     0.061 A 
ATOM      9  C   UNL A   1      33.065  25.298  25.155  1.00  0.00     0.123 A 
ATOM     10  N   UNL A   1      33.251  24.108  25.687  1.00  0.00    -0.241 NA
ATOM     11  S   UNL A   1      33.041  25.332  23.435  1.00  0.00    -0.122 S 
ATOM     12  C   UNL A   1      33.240  23.627  23.408  1.00  0.00     0.091 A 
BRANCH   9  13
ATOM     13  C   UNL A   1      32.865  26.523  25.934  1.00  0.00     0.013 A 
ATOM     14  C   UNL A   1      30.343  26.106  26.112  1.00  0.00     0.045 C 
ATOM     15  C   UNL A   1      31.585  26.916  26.373  1.00  0.00    -0.041 A 
ATOM     16  C   UNL A   1      31.440  28.139  27.052  1.00  0.00     0.004 A 
ATOM     17  C   UNL A   1      32.542  28.959  27.297  1.00  0.00     0.000 A 
ATOM     18  C   UNL A   1      33.966  27.364  26.185  1.00  0.00     0.011 A 
ATOM     19  C   UNL A   1      33.805  28.572  26.864  1.00  0.00     0.001 A 
ENDBRANCH   9  13
ENDBRANCH   7   8
ENDBRANCH   4   7
ENDBRANCH   2   3
ENDBRANCH   1   2
BRANCH   1  20
ATOM     20  C   UNL A   1      38.812  21.242  25.717  1.00  0.00     0.023 C 
BRANCH  20  21
ATOM     21  C   UNL A   1      39.200  22.611  26.250  1.00  0.00     0.116 C 
BRANCH  21  22
ATOM     22  N   UNL A   1      40.635  22.842  26.356  1.00  0.00    -0.352 N 
ATOM     23  C   UNL A   1      41.311  24.035  26.568  1.00  0.00     0.251 C 
ATOM     24  H   UNL A   1      41.203  22.042  26.266  1.00  0.00     0.163 HD
ATOM     25  O   UNL A   1      42.528  24.070  26.581  1.00  0.00    -0.269 OA
BRANCH  23  26
ATOM     26  C   UNL A   1      40.525  25.249  26.907  1.00  0.00     0.039 A 
ATOM     27  C   UNL A   1      40.816  26.433  26.221  1.00  0.00     0.014 A 
ATOM     28  C   UNL A   1      39.694  25.271  28.024  1.00  0.00     0.014 A 
ATOM     29  C   UNL A   1      40.490  27.655  26.806  1.00  0.00     0.010 A 
ATOM     30  C   UNL A   1      39.464  26.477  28.656  1.00  0.00     0.010 A 
ATOM     31  C   UNL A   1      39.930  27.666  28.084  1.00  0.00    -0.014 A 
BRANCH  31  32
ATOM     32  C   UNL A   1      39.932  28.843  28.947  1.00  0.00     0.031 A 
ATOM     33  C   UNL A   1      38.893  29.887  28.821  1.00  0.00     0.074 A 
ATOM     34  C   UNL A   1      40.839  28.924  29.947  1.00  0.00     0.049 A 
ATOM     35  N   UNL A   1      39.002  31.085  29.291  1.00  0.00    -0.248 NA
ATOM     36  C   UNL A   1      37.644  29.660  28.110  1.00  0.00     0.031 C 
ATOM     37  C   UNL A   1      40.842  29.851  31.077  1.00  0.00     0.029 A 
ATOM     38  N   UNL A   1      42.097  28.299  30.010  1.00  0.00    -0.354 N 
ATOM     39  C   UNL A   1      37.775  31.698  29.180  1.00  0.00     0.074 A 
ATOM     40  C   UNL A   1      36.978  30.783  28.393  1.00  0.00     0.031 C 
ATOM     41  C   UNL A   1      42.103  29.988  31.515  1.00  0.00     0.029 A 
ATOM     42  C   UNL A   1      42.958  29.261  30.594  1.00  0.00     0.049 A 
ATOM     43  H   UNL A   1      42.330  27.389  29.715  1.00  0.00     0.167 HD
ATOM     44  C   UNL A   1      37.544  32.859  29.864  1.00  0.00     0.037 A 
ATOM     45  C   UNL A   1      43.988  29.800  29.879  1.00  0.00     0.037 A 
ATOM     46  C   UNL A   1      38.757  33.348  30.519  1.00  0.00     0.049 A 
ATOM     47  C   UNL A   1      43.918  31.301  29.693  1.00  0.00     0.074 A 
ATOM     48  C   UNL A   1      39.253  33.300  31.812  1.00  0.00     0.029 A 
ATOM     49  N   UNL A   1      39.809  33.773  29.726  1.00  0.00    -0.354 N 
ATOM     50  N   UNL A   1      42.914  32.045  30.066  1.00  0.00    -0.248 NA
ATOM     51  C   UNL A   1      44.935  32.064  28.965  1.00  0.00     0.031 C 
ATOM     52  C   UNL A   1      40.624  33.684  31.779  1.00  0.00     0.029 A 
ATOM     53  C   UNL A   1      40.959  33.961  30.467  1.00  0.00     0.049 A 
ATOM     54  H   UNL A   1      39.746  33.921  28.754  1.00  0.00     0.167 HD
ATOM     55  C   UNL A   1      43.105  33.320  29.610  1.00  0.00     0.074 A 
ATOM     56  C   UNL A   1      44.382  33.287  28.926  1.00  0.00     0.031 C 
ATOM     57  C   UNL A   1      42.188  34.311  29.782  1.00  0.00     0.037 A 
BRANCH  44  58
ATOM     58  C   UNL A   1      36.169  33.435  30.131  1.00  0.00     0.064 A 
ATOM     59  C   UNL A   1      35.398  33.980  29.080  1.00  0.00     0.173 A 
ATOM     60  C   UNL A   1      35.572  33.533  31.401  1.00  0.00     0.173 A 
ATOM     61  F   UNL A   1      35.770  33.855  27.800  1.00  0.00    -0.203 F 
ATOM     62  C   UNL A   1      34.209  34.680  29.302  1.00  0.00     0.198 A 
ATOM     63  C   UNL A   1      34.415  34.286  31.633  1.00  0.00     0.198 A 
ATOM     64  F   UNL A   1      36.044  32.850  32.450  1.00  0.00    -0.203 F 
ATOM     65  F   UNL A   1      33.528  35.179  28.261  1.00  0.00    -0.200 F 
ATOM     66  C   UNL A   1      33.740  34.871  30.584  1.00  0.00     0.200 A 
ATOM     67  F   UNL A   1      33.957  34.431  32.885  1.00  0.00    -0.200 F 
ATOM     68  F   UNL A   1      32.629  35.586  30.803  1.00  0.00    -0.200 F 
ENDBRANCH  44  58
BRANCH  45  69
ATOM     69  C   UNL A   1      44.565  28.851  28.890  1.00  0.00     0.064 A 
ATOM     70  C   UNL A   1      45.411  27.824  29.353  1.00  0.00     0.173 A 
ATOM     71  C   UNL A   1      44.038  28.722  27.601  1.00  0.00     0.173 A 
ATOM     72  F   UNL A   1      45.942  27.898  30.586  1.00  0.00    -0.203 F 
ATOM     73  C   UNL A   1      45.619  26.666  28.610  1.00  0.00     0.198 A 
ATOM     74  C   UNL A   1      44.268  27.569  26.848  1.00  0.00     0.198 A 
ATOM     75  F   UNL A   1      43.206  29.650  27.109  1.00  0.00    -0.203 F 
ATOM     76  F   UNL A   1      46.328  25.655  29.131  1.00  0.00    -0.200 F 
ATOM     77  C   UNL A   1      45.026  26.529  27.367  1.00  0.00     0.200 A 
ATOM     78  F   UNL A   1      43.670  27.424  25.657  1.00  0.00    -0.200 F 
ATOM     79  F   UNL A   1      45.146  25.381  26.687  1.00  0.00    -0.200 F 
ENDBRANCH  45  69
BRANCH  57  80
ATOM     80  C   UNL A   1      42.406  35.711  29.305  1.00  0.00     0.064 A 
ATOM     81  C   UNL A   1      41.859  36.177  28.100  1.00  0.00     0.173 A 
ATOM     82  C   UNL A   1      43.271  36.588  29.988  1.00  0.00     0.173 A 
ATOM     83  F   UNL A   1      41.053  35.393  27.367  1.00  0.00    -0.203 F 
ATOM     84  C   UNL A   1      42.140  37.457  27.620  1.00  0.00     0.198 A 
ATOM     85  C   UNL A   1      43.587  37.847  29.482  1.00  0.00     0.198 A 
ATOM     86  F   UNL A   1      43.812  36.250  31.168  1.00  0.00    -0.203 F 
ATOM     87  F   UNL A   1      41.566  37.883  26.487  1.00  0.00    -0.200 F 
ATOM     88  C   UNL A   1      43.015  38.285  28.303  1.00  0.00     0.200 A 
ATOM     89  F   UNL A   1      44.445  38.634  30.147  1.00  0.00    -0.200 F 
ATOM     90  F   UNL A   1      43.302  39.504  27.829  1.00  0.00    -0.200 F 
ENDBRANCH  57  80
ENDBRANCH  31  32
ENDBRANCH  23  26
ENDBRANCH  21  22
ENDBRANCH  20  21
ENDBRANCH   1  20
TORSDOF 13
ENDMDL
MODEL 2
REMARK VINA RESULT:     -13.3      3.781     10.235
REMARK SMILES Cc1ccccc1-c1nc(CC(=O)NCCCCNC(=O)c2ccc(-c3c4nc(c(-c5c(F)c(F)c(F)c(F)c5F)c5ccc([nH]5)c(-c5c(F)c(F)c(F)c(F)c5F)c5nc(c(-c6c(F)c(F)c(F)c(F)c6F)c6ccc3[nH]6)C=C5)C=C4)cc2)cs1
REMARK SMILES IDX 16 1 15 2 14 3 12 4 13 5 11 7 10 8 8 9 9 10 86 11 85 12 7 13
REMARK SMILES IDX 1 14 2 15 3 16 4 17 6 18 5 19 17 20 18 21 19 22 20 23 21 25
REMARK SMILES IDX 22 26 23 27 84 28 24 29 83 30 25 31 26 32 27 33 77 34 28 35
REMARK SMILES IDX 82 36 76 37 78 38 29 39 81 40 75 41 74 42 30 44 62 45 42 46
REMARK SMILES IDX 61 47 43 48 46 49 60 50 79 51 44 52 45 53 59 55 80 56 47 57
REMARK SMILES IDX 31 58 32 59 40 60 33 61 34 62 38 63 41 64 35 65 36 66 39 67
REMARK SMILES IDX 37 68 63 69 64 70 72 71 65 72 66 73 70 74 73 75 67 76 68 77
REMARK SMILES IDX 71 78 69 79 48 80 49 81 57 82 50 83 51 84 55 85 58 86 52 87
REMARK SMILES IDX 53 88 56 89 54 90
REMARK H PARENT 14 6 19 24 78 43 46 54
REMARK Flexibility Score: inf
ROOT
ATOM      1  C   UNL A   1      31.899  29.905  26.819  1.00  0.00     0.023 C 
ENDROOT
BRANCH   1   2
ATOM      2  C   UNL A   1      32.541  28.806  25.957  1.00  0.00     0.116 C 
BRANCH   2   3
ATOM      3  N   UNL A   1      31.670  28.326  24.896  1.00  0.00    -0.356 N 
ATOM      4  C   UNL A   1      30.830  27.248  24.877  1.00  0.00     0.226 C 
ATOM      5  O   UNL A   1      30.226  27.005  23.829  1.00  0.00    -0.275 OA
ATOM      6  H   UNL A   1      31.688  28.857  24.067  1.00  0.00     0.163 HD
BRANCH   4   7
ATOM      7  C   UNL A   1      30.616  26.404  26.118  1.00  0.00     0.157 C 
BRANCH   7   8
ATOM      8  C   UNL A   1      31.363  25.117  26.062  1.00  0.00     0.061 A 
ATOM      9  C   UNL A   1      33.192  23.943  25.606  1.00  0.00     0.123 A 
ATOM     10  N   UNL A   1      32.700  25.160  25.699  1.00  0.00    -0.241 NA
ATOM     11  S   UNL A   1      32.103  22.682  26.034  1.00  0.00    -0.122 S 
ATOM     12  C   UNL A   1      30.875  23.848  26.311  1.00  0.00     0.091 A 
BRANCH   9  13
ATOM     13  C   UNL A   1      34.552  23.641  25.152  1.00  0.00     0.013 A 
ATOM     14  C   UNL A   1      33.765  23.285  22.739  1.00  0.00     0.045 C 
ATOM     15  C   UNL A   1      34.825  23.315  23.808  1.00  0.00    -0.041 A 
ATOM     16  C   UNL A   1      36.136  22.960  23.443  1.00  0.00     0.004 A 
ATOM     17  C   UNL A   1      37.161  22.931  24.389  1.00  0.00     0.000 A 
ATOM     18  C   UNL A   1      35.597  23.602  26.095  1.00  0.00     0.011 A 
ATOM     19  C   UNL A   1      36.893  23.251  25.715  1.00  0.00     0.001 A 
ENDBRANCH   9  13
ENDBRANCH   7   8
ENDBRANCH   4   7
ENDBRANCH   2   3
ENDBRANCH   1   2
BRANCH   1  20
ATOM     20  C   UNL A   1      32.828  31.037  27.262  1.00  0.00     0.023 C 
BRANCH  20  21
ATOM     21  C   UNL A   1      34.228  30.580  27.637  1.00  0.00     0.116 C 
BRANCH  21  22
ATOM     22  N   UNL A   1      34.911  31.431  28.602  1.00  0.00    -0.352 N 
ATOM     23  C   UNL A   1      36.045  31.158  29.355  1.00  0.00     0.251 C 
ATOM     24  H   UNL A   1      34.515  32.323  28.739  1.00  0.00     0.163 HD
ATOM     25  O   UNL A   1      36.467  31.963  30.165  1.00  0.00    -0.269 OA
BRANCH  23  26
ATOM     26  C   UNL A   1      36.811  29.918  29.065  1.00  0.00     0.039 A 
ATOM     27  C   UNL A   1      37.079  29.049  30.128  1.00  0.00     0.014 A 
ATOM     28  C   UNL A   1      37.438  29.739  27.836  1.00  0.00     0.014 A 
ATOM     29  C   UNL A   1      38.162  28.175  30.034  1.00  0.00     0.010 A 
ATOM     30  C   UNL A   1      38.572  28.953  27.778  1.00  0.00     0.010 A 
ATOM     31  C   UNL A   1      38.978  28.229  28.904  1.00  0.00    -0.014 A 
BRANCH  31  32
ATOM     32  C   UNL A   1      40.333  27.686  28.870  1.00  0.00     0.031 A 
ATOM     33  C   UNL A   1      40.583  26.275  28.507  1.00  0.00     0.074 A 
ATOM     34  C   UNL A   1      41.380  28.517  29.072  1.00  0.00     0.049 A 
ATOM     35  N   UNL A   1      41.674  25.636  28.770  1.00  0.00    -0.248 NA
ATOM     36  C   UNL A   1      39.585  25.455  27.836  1.00  0.00     0.031 C 
ATOM     37  C   UNL A   1      42.793  28.253  28.810  1.00  0.00     0.029 A 
ATOM     38  N   UNL A   1      41.382  29.728  29.787  1.00  0.00    -0.354 N 
ATOM     39  C   UNL A   1      41.637  24.435  28.100  1.00  0.00     0.074 A 
ATOM     40  C   UNL A   1      40.292  24.352  27.574  1.00  0.00     0.031 C 
ATOM     41  C   UNL A   1      43.532  29.046  29.602  1.00  0.00     0.029 A 
ATOM     42  C   UNL A   1      42.614  29.740  30.487  1.00  0.00     0.049 A 
ATOM     43  H   UNL A   1      40.681  30.419  29.798  1.00  0.00     0.167 HD
ATOM     44  C   UNL A   1      42.784  23.703  27.976  1.00  0.00     0.037 A 
ATOM     45  C   UNL A   1      42.642  29.690  31.851  1.00  0.00     0.037 A 
ATOM     46  C   UNL A   1      43.883  24.291  28.741  1.00  0.00     0.049 A 
ATOM     47  C   UNL A   1      43.360  28.489  32.430  1.00  0.00     0.074 A 
ATOM     48  C   UNL A   1      44.976  25.083  28.426  1.00  0.00     0.029 A 
ATOM     49  N   UNL A   1      43.790  24.308  30.122  1.00  0.00    -0.354 N 
ATOM     50  N   UNL A   1      43.828  27.499  31.723  1.00  0.00    -0.248 NA
ATOM     51  C   UNL A   1      43.506  28.264  33.870  1.00  0.00     0.031 C 
ATOM     52  C   UNL A   1      45.525  25.591  29.638  1.00  0.00     0.029 A 
ATOM     53  C   UNL A   1      44.762  25.109  30.686  1.00  0.00     0.049 A 
ATOM     54  H   UNL A   1      43.113  23.812  30.638  1.00  0.00     0.167 HD
ATOM     55  C   UNL A   1      44.273  26.516  32.566  1.00  0.00     0.074 A 
ATOM     56  C   UNL A   1      44.053  27.037  33.900  1.00  0.00     0.031 C 
ATOM     57  C   UNL A   1      44.753  25.323  32.120  1.00  0.00     0.037 A 
BRANCH  44  58
ATOM     58  C   UNL A   1      42.977  22.579  26.979  1.00  0.00     0.064 A 
ATOM     59  C   UNL A   1      42.284  21.357  27.126  1.00  0.00     0.173 A 
ATOM     60  C   UNL A   1      43.868  22.615  25.890  1.00  0.00     0.173 A 
ATOM     61  F   UNL A   1      41.314  21.206  28.036  1.00  0.00    -0.203 F 
ATOM     62  C   UNL A   1      42.561  20.234  26.341  1.00  0.00     0.198 A 
ATOM     63  C   UNL A   1      44.192  21.476  25.144  1.00  0.00     0.198 A 
ATOM     64  F   UNL A   1      44.403  23.765  25.464  1.00  0.00    -0.203 F 
ATOM     65  F   UNL A   1      41.873  19.101  26.536  1.00  0.00    -0.200 F 
ATOM     66  C   UNL A   1      43.547  20.281  25.379  1.00  0.00     0.200 A 
ATOM     67  F   UNL A   1      45.130  21.552  24.189  1.00  0.00    -0.200 F 
ATOM     68  F   UNL A   1      43.851  19.191  24.661  1.00  0.00    -0.200 F 
ENDBRANCH  44  58
BRANCH  45  69
ATOM     69  C   UNL A   1      41.471  30.359  32.479  1.00  0.00     0.064 A 
ATOM     70  C   UNL A   1      41.415  31.767  32.473  1.00  0.00     0.173 A 
ATOM     71  C   UNL A   1      40.288  29.666  32.753  1.00  0.00     0.173 A 
ATOM     72  F   UNL A   1      42.524  32.481  32.213  1.00  0.00    -0.203 F 
ATOM     73  C   UNL A   1      40.208  32.444  32.613  1.00  0.00     0.198 A 
ATOM     74  C   UNL A   1      39.082  30.350  32.916  1.00  0.00     0.198 A 
ATOM     75  F   UNL A   1      40.266  28.326  32.748  1.00  0.00    -0.203 F 
ATOM     76  F   UNL A   1      40.169  33.777  32.479  1.00  0.00    -0.200 F 
ATOM     77  C   UNL A   1      39.037  31.733  32.809  1.00  0.00     0.200 A 
ATOM     78  F   UNL A   1      37.944  29.659  33.076  1.00  0.00    -0.200 F 
ATOM     79  F   UNL A   1      37.860  32.372  32.851  1.00  0.00    -0.200 F 
ENDBRANCH  45  69
BRANCH  57  80
ATOM     80  C   UNL A   1      45.262  24.259  33.039  1.00  0.00     0.064 A 
ATOM     81  C   UNL A   1      44.468  23.166  33.419  1.00  0.00     0.173 A 
ATOM     82  C   UNL A   1      46.522  24.371  33.658  1.00  0.00     0.173 A 
ATOM     83  F   UNL A   1      43.238  23.004  32.906  1.00  0.00    -0.203 F 
ATOM     84  C   UNL A   1      44.920  22.225  34.345  1.00  0.00     0.198 A 
ATOM     85  C   UNL A   1      46.952  23.456  34.616  1.00  0.00     0.198 A 
ATOM     86  F   UNL A   1      47.370  25.357  33.331  1.00  0.00    -0.203 F 
ATOM     87  F   UNL A   1      44.151  21.172  34.653  1.00  0.00    -0.200 F 
ATOM     88  C   UNL A   1      46.155  22.379  34.954  1.00  0.00     0.200 A 
ATOM     89  F   UNL A   1      48.144  23.622  35.206  1.00  0.00    -0.200 F 
ATOM     90  F   UNL A   1      46.578  21.487  35.859  1.00  0.00    -0.200 F 
ENDBRANCH  57  80
ENDBRANCH  31  32
ENDBRANCH  23  26
ENDBRANCH  21  22
ENDBRANCH  20  21
ENDBRANCH   1  20
TORSDOF 13
ENDMDL
MODEL 3
REMARK VINA RESULT:     -12.4      4.258     10.224
REMARK SMILES Cc1ccccc1-c1nc(CC(=O)NCCCCNC(=O)c2ccc(-c3c4nc(c(-c5c(F)c(F)c(F)c(F)c5F)c5ccc([nH]5)c(-c5c(F)c(F)c(F)c(F)c5F)c5nc(c(-c6c(F)c(F)c(F)c(F)c6F)c6ccc3[nH]6)C=C5)C=C4)cc2)cs1
REMARK SMILES IDX 16 1 15 2 14 3 12 4 13 5 11 7 10 8 8 9 9 10 86 11 85 12 7 13
REMARK SMILES IDX 1 14 2 15 3 16 4 17 6 18 5 19 17 20 18 21 19 22 20 23 21 25
REMARK SMILES IDX 22 26 23 27 84 28 24 29 83 30 25 31 26 32 27 33 77 34 28 35
REMARK SMILES IDX 82 36 76 37 78 38 29 39 81 40 75 41 74 42 30 44 62 45 42 46
REMARK SMILES IDX 61 47 43 48 46 49 60 50 79 51 44 52 45 53 59 55 80 56 47 57
REMARK SMILES IDX 31 58 32 59 40 60 33 61 34 62 38 63 41 64 35 65 36 66 39 67
REMARK SMILES IDX 37 68 63 69 64 70 72 71 65 72 66 73 70 74 73 75 67 76 68 77
REMARK SMILES IDX 71 78 69 79 48 80 49 81 57 82 50 83 51 84 55 85 58 86 52 87
REMARK SMILES IDX 53 88 56 89 54 90
REMARK H PARENT 14 6 19 24 78 43 46 54
REMARK Flexibility Score: inf
ROOT
ATOM      1  C   UNL A   1      33.380  30.921  27.788  1.00  0.00     0.023 C 
ENDROOT
BRANCH   1   2
ATOM      2  C   UNL A   1      33.823  29.587  27.165  1.00  0.00     0.116 C 
BRANCH   2   3
ATOM      3  N   UNL A   1      32.943  28.477  27.498  1.00  0.00    -0.356 N 
ATOM      4  C   UNL A   1      32.752  27.290  26.849  1.00  0.00     0.226 C 
ATOM      5  O   UNL A   1      31.900  26.518  27.296  1.00  0.00    -0.275 OA
ATOM      6  H   UNL A   1      32.404  28.600  28.313  1.00  0.00     0.163 HD
BRANCH   4   7
ATOM      7  C   UNL A   1      33.592  26.916  25.644  1.00  0.00     0.157 C 
BRANCH   7   8
ATOM      8  C   UNL A   1      32.822  26.994  24.372  1.00  0.00     0.061 A 
ATOM      9  C   UNL A   1      31.175  27.829  23.138  1.00  0.00     0.123 A 
ATOM     10  N   UNL A   1      31.821  27.947  24.279  1.00  0.00    -0.241 NA
ATOM     11  S   UNL A   1      31.790  26.626  22.074  1.00  0.00    -0.122 S 
ATOM     12  C   UNL A   1      32.967  26.201  23.249  1.00  0.00     0.091 A 
BRANCH   9  13
ATOM     13  C   UNL A   1      30.002  28.627  22.773  1.00  0.00     0.013 A 
ATOM     14  C   UNL A   1      28.404  26.929  23.837  1.00  0.00     0.045 C 
ATOM     15  C   UNL A   1      28.695  28.200  23.085  1.00  0.00    -0.041 A 
ATOM     16  C   UNL A   1      27.602  28.967  22.645  1.00  0.00     0.004 A 
ATOM     17  C   UNL A   1      27.795  30.139  21.912  1.00  0.00     0.000 A 
ATOM     18  C   UNL A   1      30.179  29.808  22.028  1.00  0.00     0.011 A 
ATOM     19  C   UNL A   1      29.084  30.559  21.603  1.00  0.00     0.001 A 
ENDBRANCH   9  13
ENDBRANCH   7   8
ENDBRANCH   4   7
ENDBRANCH   2   3
ENDBRANCH   1   2
BRANCH   1  20
ATOM     20  C   UNL A   1      34.219  32.145  27.416  1.00  0.00     0.023 C 
BRANCH  20  21
ATOM     21  C   UNL A   1      35.576  32.198  28.098  1.00  0.00     0.116 C 
BRANCH  21  22
ATOM     22  N   UNL A   1      35.530  32.171  29.555  1.00  0.00    -0.352 N 
ATOM     23  C   UNL A   1      36.039  31.215  30.423  1.00  0.00     0.251 C 
ATOM     24  H   UNL A   1      35.077  32.935  29.981  1.00  0.00     0.163 HD
ATOM     25  O   UNL A   1      35.872  31.312  31.626  1.00  0.00    -0.269 OA
BRANCH  23  26
ATOM     26  C   UNL A   1      36.901  30.139  29.873  1.00  0.00     0.039 A 
ATOM     27  C   UNL A   1      37.124  29.007  30.664  1.00  0.00     0.014 A 
ATOM     28  C   UNL A   1      37.648  30.345  28.716  1.00  0.00     0.014 A 
ATOM     29  C   UNL A   1      38.261  28.233  30.438  1.00  0.00     0.010 A 
ATOM     30  C   UNL A   1      38.828  29.646  28.555  1.00  0.00     0.010 A 
ATOM     31  C   UNL A   1      39.173  28.639  29.463  1.00  0.00    -0.014 A 
BRANCH  31  32
ATOM     32  C   UNL A   1      40.555  28.171  29.417  1.00  0.00     0.031 A 
ATOM     33  C   UNL A   1      40.898  26.850  28.850  1.00  0.00     0.074 A 
ATOM     34  C   UNL A   1      41.545  29.008  29.804  1.00  0.00     0.049 A 
ATOM     35  N   UNL A   1      42.009  26.229  29.068  1.00  0.00    -0.248 NA
ATOM     36  C   UNL A   1      39.979  26.103  28.006  1.00  0.00     0.031 C 
ATOM     37  C   UNL A   1      42.981  28.854  29.580  1.00  0.00     0.029 A 
ATOM     38  N   UNL A   1      41.448  30.087  30.700  1.00  0.00    -0.354 N 
ATOM     39  C   UNL A   1      42.068  25.150  28.217  1.00  0.00     0.074 A 
ATOM     40  C   UNL A   1      40.756  25.090  27.612  1.00  0.00     0.031 C 
ATOM     41  C   UNL A   1      43.638  29.545  30.526  1.00  0.00     0.029 A 
ATOM     42  C   UNL A   1      42.644  30.044  31.459  1.00  0.00     0.049 A 
ATOM     43  H   UNL A   1      40.710  30.734  30.782  1.00  0.00     0.167 HD
ATOM     44  C   UNL A   1      43.259  24.502  28.041  1.00  0.00     0.037 A 
ATOM     45  C   UNL A   1      42.612  29.777  32.797  1.00  0.00     0.037 A 
ATOM     46  C   UNL A   1      44.287  25.010  28.948  1.00  0.00     0.049 A 
ATOM     47  C   UNL A   1      43.367  28.535  33.218  1.00  0.00     0.074 A 
ATOM     48  C   UNL A   1      45.349  25.892  28.821  1.00  0.00     0.029 A 
ATOM     49  N   UNL A   1      44.130  24.801  30.306  1.00  0.00    -0.354 N 
ATOM     50  N   UNL A   1      43.920  27.693  32.390  1.00  0.00    -0.248 NA
ATOM     51  C   UNL A   1      43.459  28.089  34.610  1.00  0.00     0.031 C 
ATOM     52  C   UNL A   1      45.812  26.224  30.126  1.00  0.00     0.029 A 
ATOM     53  C   UNL A   1      45.030  25.546  31.042  1.00  0.00     0.049 A 
ATOM     54  H   UNL A   1      43.458  24.198  30.700  1.00  0.00     0.167 HD
ATOM     55  C   UNL A   1      44.379  26.610  33.090  1.00  0.00     0.074 A 
ATOM     56  C   UNL A   1      44.069  26.900  34.476  1.00  0.00     0.031 C 
ATOM     57  C   UNL A   1      44.943  25.527  32.489  1.00  0.00     0.037 A 
BRANCH  44  58
ATOM     58  C   UNL A   1      43.559  23.562  26.891  1.00  0.00     0.064 A 
ATOM     59  C   UNL A   1      43.071  22.236  26.897  1.00  0.00     0.173 A 
ATOM     60  C   UNL A   1      44.363  23.881  25.782  1.00  0.00     0.173 A 
ATOM     61  F   UNL A   1      42.194  21.816  27.817  1.00  0.00    -0.203 F 
ATOM     62  C   UNL A   1      43.466  21.283  25.954  1.00  0.00     0.198 A 
ATOM     63  C   UNL A   1      44.810  22.914  24.873  1.00  0.00     0.198 A 
ATOM     64  F   UNL A   1      44.689  25.146  25.496  1.00  0.00    -0.203 F 
ATOM     65  F   UNL A   1      42.973  20.039  26.019  1.00  0.00    -0.200 F 
ATOM     66  C   UNL A   1      44.372  21.611  24.967  1.00  0.00     0.200 A 
ATOM     67  F   UNL A   1      45.664  23.263  23.900  1.00  0.00    -0.200 F 
ATOM     68  F   UNL A   1      44.793  20.687  24.094  1.00  0.00    -0.200 F 
ENDBRANCH  44  58
BRANCH  45  69
ATOM     69  C   UNL A   1      41.379  30.282  33.458  1.00  0.00     0.064 A 
ATOM     70  C   UNL A   1      41.286  31.657  33.756  1.00  0.00     0.173 A 
ATOM     71  C   UNL A   1      40.196  29.536  33.477  1.00  0.00     0.173 A 
ATOM     72  F   UNL A   1      42.392  32.420  33.750  1.00  0.00    -0.203 F 
ATOM     73  C   UNL A   1      40.054  32.276  33.941  1.00  0.00     0.198 A 
ATOM     74  C   UNL A   1      38.964  30.157  33.686  1.00  0.00     0.198 A 
ATOM     75  F   UNL A   1      40.210  28.230  33.178  1.00  0.00    -0.203 F 
ATOM     76  F   UNL A   1      39.991  33.606  34.099  1.00  0.00    -0.200 F 
ATOM     77  C   UNL A   1      38.891  31.530  33.881  1.00  0.00     0.200 A 
ATOM     78  F   UNL A   1      37.835  29.439  33.598  1.00  0.00    -0.200 F 
ATOM     79  F   UNL A   1      37.698  32.134  33.965  1.00  0.00    -0.200 F 
ENDBRANCH  45  69
BRANCH  57  80
ATOM     80  C   UNL A   1      45.466  24.355  33.255  1.00  0.00     0.064 A 
ATOM     81  C   UNL A   1      44.655  23.255  33.573  1.00  0.00     0.173 A 
ATOM     82  C   UNL A   1      46.767  24.357  33.793  1.00  0.00     0.173 A 
ATOM     83  F   UNL A   1      43.389  23.191  33.132  1.00  0.00    -0.203 F 
ATOM     84  C   UNL A   1      45.127  22.206  34.363  1.00  0.00     0.198 A 
ATOM     85  C   UNL A   1      47.221  23.331  34.620  1.00  0.00     0.198 A 
ATOM     86  F   UNL A   1      47.632  25.343  33.513  1.00  0.00    -0.203 F 
ATOM     87  F   UNL A   1      44.337  21.153  34.611  1.00  0.00    -0.200 F 
ATOM     88  C   UNL A   1      46.404  22.252  34.898  1.00  0.00     0.200 A 
ATOM     89  F   UNL A   1      48.454  23.393  35.141  1.00  0.00    -0.200 F 
ATOM     90  F   UNL A   1      46.848  21.255  35.674  1.00  0.00    -0.200 F 
ENDBRANCH  57  80
ENDBRANCH  31  32
ENDBRANCH  23  26
ENDBRANCH  21  22
ENDBRANCH  20  21
ENDBRANCH   1  20
TORSDOF 13
ENDMDL
