MODEL 1
REMARK VINA RESULT:     -12.7      0.000      0.000
REMARK SMILES O=C(Cn1cccc1C(=O)NCCCCNC(=O)c1ccc(-c2c3nc(c(-c4c(F)c(F)c(F)c(F)c4F)c4ccc([nH]4)c(-c4c(F)c(F)c(F)c(F)c4F)c4nc(c(-c5c(F)c(F)c(F)c(F)c5F)c5ccc2[nH]5)C=C4)C=C3)cc1)Nc1cccc(Br)c1
REMARK SMILES IDX 13 1 12 2 11 3 9 4 10 5 8 7 4 8 5 9 6 10 7 11 3 12 2 13 1 14
REMARK SMILES IDX 82 15 83 17 84 18 89 19 85 20 87 21 86 22 88 23 14 24 15 25
REMARK SMILES IDX 16 26 17 27 18 29 19 30 20 31 81 32 21 33 80 34 22 35 23 36
REMARK SMILES IDX 24 37 74 38 25 39 79 40 73 41 75 42 26 43 78 44 72 45 71 46
REMARK SMILES IDX 27 48 59 49 39 50 58 51 40 52 43 53 57 54 76 55 41 56 42 57
REMARK SMILES IDX 56 59 77 60 44 61 28 62 29 63 37 64 30 65 31 66 35 67 38 68
REMARK SMILES IDX 32 69 33 70 36 71 34 72 60 73 61 74 69 75 62 76 63 77 67 78
REMARK SMILES IDX 70 79 64 80 65 81 68 82 66 83 45 84 46 85 54 86 47 87 48 88
REMARK SMILES IDX 52 89 55 90 49 91 50 92 53 93 51 94
REMARK H PARENT 11 6 82 16 16 28 75 47 43 58
REMARK Flexibility Score: inf
ROOT
ATOM      1  C   UNL A   1      32.832  29.791  25.367  1.00  0.00     0.023 C 
ENDROOT
BRANCH   1   2
ATOM      2  C   UNL A   1      33.266  29.323  23.971  1.00  0.00     0.116 C 
BRANCH   2   3
ATOM      3  N   UNL A   1      32.176  29.393  23.023  1.00  0.00    -0.351 N 
ATOM      4  C   UNL A   1      31.095  28.643  22.649  1.00  0.00     0.267 C 
ATOM      5  O   UNL A   1      30.387  29.249  21.833  1.00  0.00    -0.268 OA
ATOM      6  H   UNL A   1      32.226  30.220  22.492  1.00  0.00     0.163 HD
BRANCH   4   7
ATOM      7  C   UNL A   1      30.698  27.300  23.093  1.00  0.00     0.107 A 
ATOM      8  N   UNL A   1      31.267  26.023  23.056  1.00  0.00    -0.334 N 
ATOM      9  C   UNL A   1      30.361  25.093  23.515  1.00  0.00     0.087 A 
ATOM     10  C   UNL A   1      29.217  25.735  23.904  1.00  0.00     0.020 A 
ATOM     11  C   UNL A   1      29.424  27.097  23.642  1.00  0.00     0.033 A 
BRANCH   8  12
ATOM     12  C   UNL A   1      32.629  25.700  22.668  1.00  0.00     0.222 C 
BRANCH  12  13
ATOM     13  C   UNL A   1      33.138  24.285  22.766  1.00  0.00     0.244 C 
ATOM     14  O   UNL A   1      33.406  23.658  21.740  1.00  0.00    -0.273 OA
ATOM     15  N   UNL A   1      33.370  23.817  24.046  1.00  0.00    -0.325 N 
ATOM     16  H   UNL A   1      33.052  24.355  24.806  1.00  0.00     0.169 HD
BRANCH  15  17
ATOM     17  C   UNL A   1      34.038  22.608  24.317  1.00  0.00     0.042 A 
ATOM     18  C   UNL A   1      35.433  22.621  24.374  1.00  0.00     0.026 A 
ATOM     19  C   UNL A   1      33.344  21.410  24.516  1.00  0.00     0.041 A 
ATOM     20  C   UNL A   1      36.128  21.457  24.704  1.00  0.00     0.003 A 
ATOM     21  C   UNL A   1      34.049  20.241  24.794  1.00  0.00     0.020 A 
ATOM     22  C   UNL A   1      35.437  20.264  24.911  1.00  0.00     0.016 A 
ATOM     23  Br  UNL A   1      33.116  18.610  25.003  1.00  0.00    -0.051 Br
ENDBRANCH  15  17
ENDBRANCH  12  13
ENDBRANCH   8  12
ENDBRANCH   4   7
ENDBRANCH   2   3
ENDBRANCH   1   2
BRANCH   1  24
ATOM     24  C   UNL A   1      33.195  28.841  26.512  1.00  0.00     0.023 C 
BRANCH  24  25
ATOM     25  C   UNL A   1      34.665  28.903  26.930  1.00  0.00     0.116 C 
BRANCH  25  26
ATOM     26  N   UNL A   1      35.075  30.263  27.237  1.00  0.00    -0.352 N 
ATOM     27  C   UNL A   1      36.118  30.711  28.007  1.00  0.00     0.251 C 
ATOM     28  H   UNL A   1      34.523  30.968  26.829  1.00  0.00     0.163 HD
ATOM     29  O   UNL A   1      36.066  31.833  28.496  1.00  0.00    -0.269 OA
BRANCH  27  30
ATOM     30  C   UNL A   1      37.308  29.872  28.262  1.00  0.00     0.039 A 
ATOM     31  C   UNL A   1      38.296  29.823  27.270  1.00  0.00     0.014 A 
ATOM     32  C   UNL A   1      37.406  29.061  29.398  1.00  0.00     0.014 A 
ATOM     33  C   UNL A   1      39.413  29.015  27.446  1.00  0.00     0.010 A 
ATOM     34  C   UNL A   1      38.531  28.258  29.584  1.00  0.00     0.010 A 
ATOM     35  C   UNL A   1      39.545  28.258  28.619  1.00  0.00    -0.014 A 
BRANCH  35  36
ATOM     36  C   UNL A   1      40.873  27.668  28.919  1.00  0.00     0.031 A 
ATOM     37  C   UNL A   1      40.963  26.211  28.358  1.00  0.00     0.074 A 
ATOM     38  C   UNL A   1      41.742  28.452  29.635  1.00  0.00     0.049 A 
ATOM     39  N   UNL A   1      41.716  25.208  28.701  1.00  0.00    -0.248 NA
ATOM     40  C   UNL A   1      40.029  25.804  27.264  1.00  0.00     0.031 C 
ATOM     41  C   UNL A   1      41.508  29.869  30.007  1.00  0.00     0.029 A 
ATOM     42  N   UNL A   1      42.982  28.237  30.204  1.00  0.00    -0.354 N 
ATOM     43  C   UNL A   1      41.487  24.151  27.777  1.00  0.00     0.074 A 
ATOM     44  C   UNL A   1      40.374  24.548  26.975  1.00  0.00     0.031 C 
ATOM     45  C   UNL A   1      42.503  30.344  30.791  1.00  0.00     0.029 A 
ATOM     46  C   UNL A   1      43.482  29.299  31.018  1.00  0.00     0.049 A 
ATOM     47  H   UNL A   1      43.490  27.407  30.058  1.00  0.00     0.167 HD
ATOM     48  C   UNL A   1      42.313  23.066  27.659  1.00  0.00     0.037 A 
ATOM     49  C   UNL A   1      44.568  29.303  31.860  1.00  0.00     0.037 A 
ATOM     50  C   UNL A   1      43.317  23.128  28.658  1.00  0.00     0.049 A 
ATOM     51  C   UNL A   1      45.190  27.998  31.629  1.00  0.00     0.074 A 
ATOM     52  C   UNL A   1      43.345  22.768  29.975  1.00  0.00     0.029 A 
ATOM     53  N   UNL A   1      44.427  23.873  28.367  1.00  0.00    -0.354 N 
ATOM     54  N   UNL A   1      45.904  27.699  30.588  1.00  0.00    -0.248 NA
ATOM     55  C   UNL A   1      44.890  26.911  32.566  1.00  0.00     0.031 C 
ATOM     56  C   UNL A   1      44.283  23.650  30.547  1.00  0.00     0.029 A 
ATOM     57  C   UNL A   1      44.877  24.419  29.541  1.00  0.00     0.049 A 
ATOM     58  H   UNL A   1      44.829  23.995  27.477  1.00  0.00     0.167 HD
ATOM     59  C   UNL A   1      45.866  26.326  30.597  1.00  0.00     0.074 A 
ATOM     60  C   UNL A   1      45.536  25.930  31.947  1.00  0.00     0.031 C 
ATOM     61  C   UNL A   1      45.626  25.646  29.450  1.00  0.00     0.037 A 
BRANCH  48  62
ATOM     62  C   UNL A   1      42.508  22.001  26.602  1.00  0.00     0.064 A 
ATOM     63  C   UNL A   1      42.015  20.695  26.876  1.00  0.00     0.173 A 
ATOM     64  C   UNL A   1      43.472  22.087  25.591  1.00  0.00     0.173 A 
ATOM     65  F   UNL A   1      41.017  20.505  27.755  1.00  0.00    -0.203 F 
ATOM     66  C   UNL A   1      42.596  19.550  26.334  1.00  0.00     0.198 A 
ATOM     67  C   UNL A   1      44.009  20.934  25.002  1.00  0.00     0.198 A 
ATOM     68  F   UNL A   1      43.984  23.268  25.224  1.00  0.00    -0.203 F 
ATOM     69  F   UNL A   1      42.217  18.339  26.767  1.00  0.00    -0.200 F 
ATOM     70  C   UNL A   1      43.615  19.671  25.415  1.00  0.00     0.200 A 
ATOM     71  F   UNL A   1      44.979  21.051  24.083  1.00  0.00    -0.200 F 
ATOM     72  F   UNL A   1      44.235  18.577  24.949  1.00  0.00    -0.200 F 
ENDBRANCH  48  62
BRANCH  49  73
ATOM     73  C   UNL A   1      45.203  30.158  32.945  1.00  0.00     0.064 A 
ATOM     74  C   UNL A   1      44.729  30.329  34.251  1.00  0.00     0.173 A 
ATOM     75  C   UNL A   1      46.422  30.859  32.682  1.00  0.00     0.173 A 
ATOM     76  F   UNL A   1      43.534  29.850  34.613  1.00  0.00    -0.203 F 
ATOM     77  C   UNL A   1      45.470  31.032  35.230  1.00  0.00     0.198 A 
ATOM     78  C   UNL A   1      47.178  31.510  33.658  1.00  0.00     0.198 A 
ATOM     79  F   UNL A   1      46.936  30.949  31.450  1.00  0.00    -0.203 F 
ATOM     80  F   UNL A   1      44.976  31.169  36.469  1.00  0.00    -0.200 F 
ATOM     81  C   UNL A   1      46.710  31.583  34.944  1.00  0.00     0.200 A 
ATOM     82  F   UNL A   1      48.362  32.048  33.331  1.00  0.00    -0.200 F 
ATOM     83  F   UNL A   1      47.438  32.191  35.890  1.00  0.00    -0.200 F 
ENDBRANCH  49  73
BRANCH  61  84
ATOM     84  C   UNL A   1      45.849  26.470  28.193  1.00  0.00     0.064 A 
ATOM     85  C   UNL A   1      47.151  26.829  27.822  1.00  0.00     0.173 A 
ATOM     86  C   UNL A   1      44.812  27.024  27.418  1.00  0.00     0.173 A 
ATOM     87  F   UNL A   1      48.196  26.336  28.502  1.00  0.00    -0.203 F 
ATOM     88  C   UNL A   1      47.398  27.695  26.752  1.00  0.00     0.198 A 
ATOM     89  C   UNL A   1      45.054  27.885  26.345  1.00  0.00     0.198 A 
ATOM     90  F   UNL A   1      43.539  26.735  27.679  1.00  0.00    -0.203 F 
ATOM     91  F   UNL A   1      48.659  28.013  26.431  1.00  0.00    -0.200 F 
ATOM     92  C   UNL A   1      46.351  28.225  26.015  1.00  0.00     0.200 A 
ATOM     93  F   UNL A   1      44.028  28.374  25.630  1.00  0.00    -0.200 F 
ATOM     94  F   UNL A   1      46.590  29.046  24.984  1.00  0.00    -0.200 F 
ENDBRANCH  61  84
ENDBRANCH  35  36
ENDBRANCH  27  30
ENDBRANCH  25  26
ENDBRANCH  24  25
ENDBRANCH   1  24
TORSDOF 14
ENDMDL
MODEL 2
REMARK VINA RESULT:     -12.7      0.819      1.478
REMARK SMILES O=C(Cn1cccc1C(=O)NCCCCNC(=O)c1ccc(-c2c3nc(c(-c4c(F)c(F)c(F)c(F)c4F)c4ccc([nH]4)c(-c4c(F)c(F)c(F)c(F)c4F)c4nc(c(-c5c(F)c(F)c(F)c(F)c5F)c5ccc2[nH]5)C=C4)C=C3)cc1)Nc1cccc(Br)c1
REMARK SMILES IDX 13 1 12 2 11 3 9 4 10 5 8 7 4 8 5 9 6 10 7 11 3 12 2 13 1 14
REMARK SMILES IDX 82 15 83 17 84 18 89 19 85 20 87 21 86 22 88 23 14 24 15 25
REMARK SMILES IDX 16 26 17 27 18 29 19 30 20 31 81 32 21 33 80 34 22 35 23 36
REMARK SMILES IDX 24 37 74 38 25 39 79 40 73 41 75 42 26 43 78 44 72 45 71 46
REMARK SMILES IDX 27 48 59 49 39 50 58 51 40 52 43 53 57 54 76 55 41 56 42 57
REMARK SMILES IDX 56 59 77 60 44 61 28 62 29 63 37 64 30 65 31 66 35 67 38 68
REMARK SMILES IDX 32 69 33 70 36 71 34 72 60 73 61 74 69 75 62 76 63 77 67 78
REMARK SMILES IDX 70 79 64 80 65 81 68 82 66 83 45 84 46 85 54 86 47 87 48 88
REMARK SMILES IDX 52 89 55 90 49 91 50 92 53 93 51 94
REMARK H PARENT 11 6 82 16 16 28 75 47 43 58
REMARK Flexibility Score: inf
ROOT
ATOM      1  C   UNL A   1      32.901  29.713  25.319  1.00  0.00     0.023 C 
ENDROOT
BRANCH   1   2
ATOM      2  C   UNL A   1      33.314  29.227  23.923  1.00  0.00     0.116 C 
BRANCH   2   3
ATOM      3  N   UNL A   1      32.215  29.307  22.986  1.00  0.00    -0.351 N 
ATOM      4  C   UNL A   1      31.115  28.574  22.633  1.00  0.00     0.267 C 
ATOM      5  O   UNL A   1      30.410  29.184  21.816  1.00  0.00    -0.268 OA
ATOM      6  H   UNL A   1      32.276  30.126  22.443  1.00  0.00     0.163 HD
BRANCH   4   7
ATOM      7  C   UNL A   1      30.695  27.246  23.099  1.00  0.00     0.107 A 
ATOM      8  N   UNL A   1      31.237  25.957  23.074  1.00  0.00    -0.334 N 
ATOM      9  C   UNL A   1      30.317  25.052  23.554  1.00  0.00     0.087 A 
ATOM     10  C   UNL A   1      29.192  25.723  23.946  1.00  0.00     0.020 A 
ATOM     11  C   UNL A   1      29.424  27.077  23.664  1.00  0.00     0.033 A 
BRANCH   8  12
ATOM     12  C   UNL A   1      32.589  25.601  22.676  1.00  0.00     0.222 C 
BRANCH  12  13
ATOM     13  C   UNL A   1      33.117  24.210  22.918  1.00  0.00     0.244 C 
ATOM     14  O   UNL A   1      33.119  23.388  22.000  1.00  0.00    -0.273 OA
ATOM     15  N   UNL A   1      33.670  23.986  24.164  1.00  0.00    -0.325 N 
ATOM     16  H   UNL A   1      33.551  24.672  24.859  1.00  0.00     0.169 HD
BRANCH  15  17
ATOM     17  C   UNL A   1      34.394  22.824  24.490  1.00  0.00     0.042 A 
ATOM     18  C   UNL A   1      33.712  21.605  24.517  1.00  0.00     0.026 A 
ATOM     19  C   UNL A   1      35.758  22.866  24.795  1.00  0.00     0.041 A 
ATOM     20  C   UNL A   1      34.408  20.423  24.773  1.00  0.00     0.003 A 
ATOM     21  C   UNL A   1      36.435  21.686  25.100  1.00  0.00     0.020 A 
ATOM     22  C   UNL A   1      35.770  20.462  25.068  1.00  0.00     0.016 A 
ATOM     23  Br  UNL A   1      38.265  21.749  25.571  1.00  0.00    -0.051 Br
ENDBRANCH  15  17
ENDBRANCH  12  13
ENDBRANCH   8  12
ENDBRANCH   4   7
ENDBRANCH   2   3
ENDBRANCH   1   2
BRANCH   1  24
ATOM     24  C   UNL A   1      33.279  28.776  26.470  1.00  0.00     0.023 C 
BRANCH  24  25
ATOM     25  C   UNL A   1      34.753  28.848  26.874  1.00  0.00     0.116 C 
BRANCH  25  26
ATOM     26  N   UNL A   1      35.151  30.209  27.194  1.00  0.00    -0.352 N 
ATOM     27  C   UNL A   1      36.206  30.659  27.946  1.00  0.00     0.251 C 
ATOM     28  H   UNL A   1      34.579  30.913  26.812  1.00  0.00     0.163 HD
ATOM     29  O   UNL A   1      36.150  31.772  28.455  1.00  0.00    -0.269 OA
BRANCH  27  30
ATOM     30  C   UNL A   1      37.413  29.833  28.158  1.00  0.00     0.039 A 
ATOM     31  C   UNL A   1      38.365  29.794  27.131  1.00  0.00     0.014 A 
ATOM     32  C   UNL A   1      37.561  29.024  29.290  1.00  0.00     0.014 A 
ATOM     33  C   UNL A   1      39.497  28.998  27.266  1.00  0.00     0.010 A 
ATOM     34  C   UNL A   1      38.701  28.234  29.436  1.00  0.00     0.010 A 
ATOM     35  C   UNL A   1      39.679  28.243  28.435  1.00  0.00    -0.014 A 
BRANCH  35  36
ATOM     36  C   UNL A   1      41.024  27.668  28.686  1.00  0.00     0.031 A 
ATOM     37  C   UNL A   1      41.086  26.186  28.190  1.00  0.00     0.074 A 
ATOM     38  C   UNL A   1      41.930  28.485  29.313  1.00  0.00     0.049 A 
ATOM     39  N   UNL A   1      41.859  25.200  28.537  1.00  0.00    -0.248 NA
ATOM     40  C   UNL A   1      40.092  25.728  27.172  1.00  0.00     0.031 C 
ATOM     41  C   UNL A   1      41.714  29.918  29.630  1.00  0.00     0.029 A 
ATOM     42  N   UNL A   1      43.201  28.297  29.820  1.00  0.00    -0.354 N 
ATOM     43  C   UNL A   1      41.580  24.101  27.679  1.00  0.00     0.074 A 
ATOM     44  C   UNL A   1      40.423  24.460  26.924  1.00  0.00     0.031 C 
ATOM     45  C   UNL A   1      42.751  30.430  30.333  1.00  0.00     0.029 A 
ATOM     46  C   UNL A   1      43.743  29.397  30.553  1.00  0.00     0.049 A 
ATOM     47  H   UNL A   1      43.701  27.461  29.686  1.00  0.00     0.167 HD
ATOM     48  C   UNL A   1      42.400  23.011  27.565  1.00  0.00     0.037 A 
ATOM     49  C   UNL A   1      44.876  29.441  31.331  1.00  0.00     0.037 A 
ATOM     50  C   UNL A   1      43.460  23.120  28.502  1.00  0.00     0.049 A 
ATOM     51  C   UNL A   1      45.487  28.126  31.127  1.00  0.00     0.074 A 
ATOM     52  C   UNL A   1      43.563  22.824  29.830  1.00  0.00     0.029 A 
ATOM     53  N   UNL A   1      44.550  23.851  28.113  1.00  0.00    -0.354 N 
ATOM     54  N   UNL A   1      46.142  27.777  30.062  1.00  0.00    -0.248 NA
ATOM     55  C   UNL A   1      45.244  27.084  32.130  1.00  0.00     0.031 C 
ATOM     56  C   UNL A   1      44.531  23.731  30.306  1.00  0.00     0.029 A 
ATOM     57  C   UNL A   1      45.064  24.451  29.232  1.00  0.00     0.049 A 
ATOM     58  H   UNL A   1      44.901  23.930  27.197  1.00  0.00     0.167 HD
ATOM     59  C   UNL A   1      46.108  26.407  30.139  1.00  0.00     0.074 A 
ATOM     60  C   UNL A   1      45.855  26.075  31.522  1.00  0.00     0.031 C 
ATOM     61  C   UNL A   1      45.804  25.673  29.041  1.00  0.00     0.037 A 
BRANCH  48  62
ATOM     62  C   UNL A   1      42.538  21.897  26.551  1.00  0.00     0.064 A 
ATOM     63  C   UNL A   1      42.063  20.607  26.913  1.00  0.00     0.173 A 
ATOM     64  C   UNL A   1      43.444  21.933  25.485  1.00  0.00     0.173 A 
ATOM     65  F   UNL A   1      41.115  20.459  27.854  1.00  0.00    -0.203 F 
ATOM     66  C   UNL A   1      42.614  19.436  26.395  1.00  0.00     0.198 A 
ATOM     67  C   UNL A   1      43.950  20.753  24.922  1.00  0.00     0.198 A 
ATOM     68  F   UNL A   1      43.934  23.095  25.035  1.00  0.00    -0.203 F 
ATOM     69  F   UNL A   1      42.261  18.247  26.905  1.00  0.00    -0.200 F 
ATOM     70  C   UNL A   1      43.580  19.512  25.416  1.00  0.00     0.200 A 
ATOM     71  F   UNL A   1      44.867  20.825  23.947  1.00  0.00    -0.200 F 
ATOM     72  F   UNL A   1      44.174  18.396  24.969  1.00  0.00    -0.200 F 
ENDBRANCH  48  62
BRANCH  49  73
ATOM     73  C   UNL A   1      45.569  30.345  32.336  1.00  0.00     0.064 A 
ATOM     74  C   UNL A   1      45.187  30.556  33.666  1.00  0.00     0.173 A 
ATOM     75  C   UNL A   1      46.752  31.058  31.962  1.00  0.00     0.173 A 
ATOM     76  F   UNL A   1      44.030  30.069  34.130  1.00  0.00    -0.203 F 
ATOM     77  C   UNL A   1      45.981  31.308  34.564  1.00  0.00     0.198 A 
ATOM     78  C   UNL A   1      47.562  31.758  32.857  1.00  0.00     0.198 A 
ATOM     79  F   UNL A   1      47.175  31.112  30.693  1.00  0.00    -0.203 F 
ATOM     80  F   UNL A   1      45.575  31.482  35.829  1.00  0.00    -0.200 F 
ATOM     81  C   UNL A   1      47.186  31.870  34.169  1.00  0.00     0.200 A 
ATOM     82  F   UNL A   1      48.709  32.304  32.426  1.00  0.00    -0.200 F 
ATOM     83  F   UNL A   1      47.967  32.525  35.039  1.00  0.00    -0.200 F 
ENDBRANCH  49  73
BRANCH  61  84
ATOM     84  C   UNL A   1      45.953  26.436  27.735  1.00  0.00     0.064 A 
ATOM     85  C   UNL A   1      44.811  26.781  27.001  1.00  0.00     0.173 A 
ATOM     86  C   UNL A   1      47.188  26.723  27.125  1.00  0.00     0.173 A 
ATOM     87  F   UNL A   1      43.594  26.550  27.515  1.00  0.00    -0.203 F 
ATOM     88  C   UNL A   1      44.901  27.364  25.733  1.00  0.00     0.198 A 
ATOM     89  C   UNL A   1      47.284  27.311  25.862  1.00  0.00     0.198 A 
ATOM     90  F   UNL A   1      48.334  26.448  27.746  1.00  0.00    -0.203 F 
ATOM     91  F   UNL A   1      43.784  27.677  25.063  1.00  0.00    -0.200 F 
ATOM     92  C   UNL A   1      46.136  27.627  25.162  1.00  0.00     0.200 A 
ATOM     93  F   UNL A   1      48.488  27.577  25.332  1.00  0.00    -0.200 F 
ATOM     94  F   UNL A   1      46.220  28.195  23.951  1.00  0.00    -0.200 F 
ENDBRANCH  61  84
ENDBRANCH  35  36
ENDBRANCH  27  30
ENDBRANCH  25  26
ENDBRANCH  24  25
ENDBRANCH   1  24
TORSDOF 14
ENDMDL
MODEL 3
REMARK VINA RESULT:     -12.6      1.405      2.326
REMARK SMILES O=C(Cn1cccc1C(=O)NCCCCNC(=O)c1ccc(-c2c3nc(c(-c4c(F)c(F)c(F)c(F)c4F)c4ccc([nH]4)c(-c4c(F)c(F)c(F)c(F)c4F)c4nc(c(-c5c(F)c(F)c(F)c(F)c5F)c5ccc2[nH]5)C=C4)C=C3)cc1)Nc1cccc(Br)c1
REMARK SMILES IDX 13 1 12 2 11 3 9 4 10 5 8 7 4 8 5 9 6 10 7 11 3 12 2 13 1 14
REMARK SMILES IDX 82 15 83 17 84 18 89 19 85 20 87 21 86 22 88 23 14 24 15 25
REMARK SMILES IDX 16 26 17 27 18 29 19 30 20 31 81 32 21 33 80 34 22 35 23 36
REMARK SMILES IDX 24 37 74 38 25 39 79 40 73 41 75 42 26 43 78 44 72 45 71 46
REMARK SMILES IDX 27 48 59 49 39 50 58 51 40 52 43 53 57 54 76 55 41 56 42 57
REMARK SMILES IDX 56 59 77 60 44 61 28 62 29 63 37 64 30 65 31 66 35 67 38 68
REMARK SMILES IDX 32 69 33 70 36 71 34 72 60 73 61 74 69 75 62 76 63 77 67 78
REMARK SMILES IDX 70 79 64 80 65 81 68 82 66 83 45 84 46 85 54 86 47 87 48 88
REMARK SMILES IDX 52 89 55 90 49 91 50 92 53 93 51 94
REMARK H PARENT 11 6 82 16 16 28 75 47 43 58
REMARK Flexibility Score: inf
ROOT
ATOM      1  C   UNL A   1      32.089  29.079  26.511  1.00  0.00     0.023 C 
ENDROOT
BRANCH   1   2
ATOM      2  C   UNL A   1      32.055  27.957  27.557  1.00  0.00     0.116 C 
BRANCH   2   3
ATOM      3  N   UNL A   1      31.155  26.893  27.167  1.00  0.00    -0.351 N 
ATOM      4  C   UNL A   1      30.708  26.301  26.018  1.00  0.00     0.267 C 
ATOM      5  O   UNL A   1      30.004  25.311  26.266  1.00  0.00    -0.268 OA
ATOM      6  H   UNL A   1      30.744  26.474  27.957  1.00  0.00     0.163 HD
BRANCH   4   7
ATOM      7  C   UNL A   1      30.969  26.669  24.621  1.00  0.00     0.107 A 
ATOM      8  N   UNL A   1      32.093  26.716  23.790  1.00  0.00    -0.334 N 
ATOM      9  C   UNL A   1      31.758  27.280  22.579  1.00  0.00     0.087 A 
ATOM     10  C   UNL A   1      30.419  27.562  22.571  1.00  0.00     0.020 A 
ATOM     11  C   UNL A   1      29.932  27.187  23.832  1.00  0.00     0.033 A 
BRANCH   8  12
ATOM     12  C   UNL A   1      33.413  26.192  24.098  1.00  0.00     0.222 C 
BRANCH  12  13
ATOM     13  C   UNL A   1      33.747  24.749  23.823  1.00  0.00     0.244 C 
ATOM     14  O   UNL A   1      34.269  24.435  22.751  1.00  0.00    -0.273 OA
ATOM     15  N   UNL A   1      33.529  23.871  24.867  1.00  0.00    -0.325 N 
ATOM     16  H   UNL A   1      33.035  24.195  25.655  1.00  0.00     0.169 HD
BRANCH  15  17
ATOM     17  C   UNL A   1      33.977  22.537  24.862  1.00  0.00     0.042 A 
ATOM     18  C   UNL A   1      35.306  22.284  25.207  1.00  0.00     0.026 A 
ATOM     19  C   UNL A   1      33.134  21.477  24.512  1.00  0.00     0.041 A 
ATOM     20  C   UNL A   1      35.770  20.970  25.275  1.00  0.00     0.003 A 
ATOM     21  C   UNL A   1      33.620  20.171  24.534  1.00  0.00     0.020 A 
ATOM     22  C   UNL A   1      34.928  19.911  24.936  1.00  0.00     0.016 A 
ATOM     23  Br  UNL A   1      32.499  18.744  24.002  1.00  0.00    -0.051 Br
ENDBRANCH  15  17
ENDBRANCH  12  13
ENDBRANCH   8  12
ENDBRANCH   4   7
ENDBRANCH   2   3
ENDBRANCH   1   2
BRANCH   1  24
ATOM     24  C   UNL A   1      33.455  29.322  25.863  1.00  0.00     0.023 C 
BRANCH  24  25
ATOM     25  C   UNL A   1      34.631  29.239  26.837  1.00  0.00     0.116 C 
BRANCH  25  26
ATOM     26  N   UNL A   1      34.998  30.551  27.342  1.00  0.00    -0.352 N 
ATOM     27  C   UNL A   1      35.946  30.900  28.270  1.00  0.00     0.251 C 
ATOM     28  H   UNL A   1      34.491  31.303  26.959  1.00  0.00     0.163 HD
ATOM     29  O   UNL A   1      35.835  31.958  28.875  1.00  0.00    -0.269 OA
BRANCH  27  30
ATOM     30  C   UNL A   1      37.104  30.027  28.557  1.00  0.00     0.039 A 
ATOM     31  C   UNL A   1      38.167  30.031  27.645  1.00  0.00     0.014 A 
ATOM     32  C   UNL A   1      37.104  29.137  29.638  1.00  0.00     0.014 A 
ATOM     33  C   UNL A   1      39.259  29.196  27.850  1.00  0.00     0.010 A 
ATOM     34  C   UNL A   1      38.203  28.307  29.855  1.00  0.00     0.010 A 
ATOM     35  C   UNL A   1      39.290  28.358  28.975  1.00  0.00    -0.014 A 
BRANCH  35  36
ATOM     36  C   UNL A   1      40.585  27.729  29.335  1.00  0.00     0.031 A 
ATOM     37  C   UNL A   1      40.819  26.436  28.487  1.00  0.00     0.074 A 
ATOM     38  C   UNL A   1      41.305  28.340  30.330  1.00  0.00     0.049 A 
ATOM     39  N   UNL A   1      41.556  25.389  28.710  1.00  0.00    -0.248 NA
ATOM     40  C   UNL A   1      40.073  26.276  27.201  1.00  0.00     0.031 C 
ATOM     41  C   UNL A   1      40.958  29.635  30.966  1.00  0.00     0.029 A 
ATOM     42  N   UNL A   1      42.457  28.015  31.019  1.00  0.00    -0.354 N 
ATOM     43  C   UNL A   1      41.511  24.564  27.553  1.00  0.00     0.074 A 
ATOM     44  C   UNL A   1      40.511  25.121  26.699  1.00  0.00     0.031 C 
ATOM     45  C   UNL A   1      41.806  29.932  31.977  1.00  0.00     0.029 A 
ATOM     46  C   UNL A   1      42.786  28.872  32.114  1.00  0.00     0.049 A 
ATOM     47  H   UNL A   1      43.016  27.244  30.773  1.00  0.00     0.167 HD
ATOM     48  C   UNL A   1      42.391  23.542  27.325  1.00  0.00     0.037 A 
ATOM     49  C   UNL A   1      43.736  28.697  33.091  1.00  0.00     0.037 A 
ATOM     50  C   UNL A   1      43.235  23.387  28.454  1.00  0.00     0.049 A 
ATOM     51  C   UNL A   1      44.442  27.484  32.675  1.00  0.00     0.074 A 
ATOM     52  C   UNL A   1      43.086  22.741  29.647  1.00  0.00     0.029 A 
ATOM     53  N   UNL A   1      44.343  24.189  28.507  1.00  0.00    -0.354 N 
ATOM     54  N   UNL A   1      45.312  27.433  31.715  1.00  0.00    -0.248 NA
ATOM     55  C   UNL A   1      44.056  26.211  33.292  1.00  0.00     0.031 C 
ATOM     56  C   UNL A   1      43.892  23.481  30.536  1.00  0.00     0.029 A 
ATOM     57  C   UNL A   1      44.592  24.462  29.826  1.00  0.00     0.049 A 
ATOM     58  H   UNL A   1      44.865  24.512  27.737  1.00  0.00     0.167 HD
ATOM     59  C   UNL A   1      45.333  26.093  31.415  1.00  0.00     0.074 A 
ATOM     60  C   UNL A   1      44.827  25.400  32.578  1.00  0.00     0.031 C 
ATOM     61  C   UNL A   1      45.292  25.685  30.123  1.00  0.00     0.037 A 
BRANCH  48  62
ATOM     62  C   UNL A   1      42.785  22.744  26.101  1.00  0.00     0.064 A 
ATOM     63  C   UNL A   1      42.726  21.325  26.187  1.00  0.00     0.173 A 
ATOM     64  C   UNL A   1      43.577  23.257  25.068  1.00  0.00     0.173 A 
ATOM     65  F   UNL A   1      41.919  20.720  27.074  1.00  0.00    -0.203 F 
ATOM     66  C   UNL A   1      43.561  20.497  25.438  1.00  0.00     0.198 A 
ATOM     67  C   UNL A   1      44.368  22.415  24.274  1.00  0.00     0.198 A 
ATOM     68  F   UNL A   1      43.682  24.577  24.870  1.00  0.00    -0.203 F 
ATOM     69  F   UNL A   1      43.597  19.180  25.689  1.00  0.00    -0.200 F 
ATOM     70  C   UNL A   1      44.404  21.048  24.498  1.00  0.00     0.200 A 
ATOM     71  F   UNL A   1      45.166  22.948  23.337  1.00  0.00    -0.200 F 
ATOM     72  F   UNL A   1      45.267  20.270  23.830  1.00  0.00    -0.200 F 
ENDBRANCH  48  62
BRANCH  49  73
ATOM     73  C   UNL A   1      44.168  29.292  34.422  1.00  0.00     0.064 A 
ATOM     74  C   UNL A   1      45.479  29.590  34.812  1.00  0.00     0.173 A 
ATOM     75  C   UNL A   1      43.187  29.632  35.406  1.00  0.00     0.173 A 
ATOM     76  F   UNL A   1      46.519  29.209  34.061  1.00  0.00    -0.203 F 
ATOM     77  C   UNL A   1      45.765  30.274  36.017  1.00  0.00     0.198 A 
ATOM     78  C   UNL A   1      43.462  30.351  36.571  1.00  0.00     0.198 A 
ATOM     79  F   UNL A   1      41.905  29.272  35.283  1.00  0.00    -0.203 F 
ATOM     80  F   UNL A   1      47.037  30.539  36.348  1.00  0.00    -0.200 F 
ATOM     81  C   UNL A   1      44.755  30.690  36.871  1.00  0.00     0.200 A 
ATOM     82  F   UNL A   1      42.455  30.714  37.379  1.00  0.00    -0.200 F 
ATOM     83  F   UNL A   1      45.025  31.395  37.978  1.00  0.00    -0.200 F 
ENDBRANCH  49  73
BRANCH  61  84
ATOM     84  C   UNL A   1      45.660  26.773  29.128  1.00  0.00     0.064 A 
ATOM     85  C   UNL A   1      44.661  27.354  28.336  1.00  0.00     0.173 A 
ATOM     86  C   UNL A   1      46.981  27.166  28.840  1.00  0.00     0.173 A 
ATOM     87  F   UNL A   1      43.375  27.041  28.552  1.00  0.00    -0.203 F 
ATOM     88  C   UNL A   1      44.966  28.260  27.316  1.00  0.00     0.198 A 
ATOM     89  C   UNL A   1      47.290  28.075  27.826  1.00  0.00     0.198 A 
ATOM     90  F   UNL A   1      48.003  26.683  29.544  1.00  0.00    -0.203 F 
ATOM     91  F   UNL A   1      43.980  28.792  26.581  1.00  0.00    -0.200 F 
ATOM     92  C   UNL A   1      46.280  28.619  27.059  1.00  0.00     0.200 A 
ATOM     93  F   UNL A   1      48.566  28.427  27.604  1.00  0.00    -0.200 F 
ATOM     94  F   UNL A   1      46.568  29.497  26.088  1.00  0.00    -0.200 F 
ENDBRANCH  61  84
ENDBRANCH  35  36
ENDBRANCH  27  30
ENDBRANCH  25  26
ENDBRANCH  24  25
ENDBRANCH   1  24
TORSDOF 14
ENDMDL
