MODEL 1
REMARK VINA RESULT:     -13.6      0.000      0.000
REMARK SMILES Cc1ccc2[nH]c3c(=O)n(CC(=O)NCCCCNC(=O)c4ccc(-c5c6nc(c(-c7c(F)c(F)c(F)c(F)c7F)c7ccc([nH]7)c(-c7c(F)c(F)c(F)c(F)c7F)c7nc(c(-c8c(F)c(F)c(F)c(F)c8F)c8ccc5[nH]8)C=C7)C=C6)cc4)cnc3c2c1
REMARK SMILES IDX 17 1 16 2 15 3 14 4 12 5 13 6 11 8 10 9 1 10 2 11 3 12 89 13
REMARK SMILES IDX 4 14 88 15 5 16 87 17 6 18 7 19 86 20 8 22 85 23 9 24 18 25
REMARK SMILES IDX 19 26 20 27 21 29 22 30 23 31 84 32 24 33 83 34 25 35 26 36
REMARK SMILES IDX 27 37 77 38 28 39 82 40 76 41 78 42 29 43 81 44 75 45 74 46
REMARK SMILES IDX 30 48 62 49 42 50 61 51 43 52 46 53 60 54 79 55 44 56 45 57
REMARK SMILES IDX 59 59 80 60 47 61 31 62 32 63 40 64 33 65 34 66 38 67 41 68
REMARK SMILES IDX 35 69 36 70 39 71 37 72 63 73 64 74 72 75 65 76 66 77 70 78
REMARK SMILES IDX 73 79 67 80 68 81 71 82 69 83 48 84 49 85 57 86 50 87 51 88
REMARK SMILES IDX 55 89 58 90 52 91 53 92 56 93 54 94
REMARK H PARENT 14 7 6 21 19 28 78 47 46 58
REMARK Flexibility Score: inf
ROOT
ATOM      1  C   UNL A   1      37.416  22.259  25.128  1.00  0.00     0.023 C 
ENDROOT
BRANCH   1   2
ATOM      2  C   UNL A   1      36.274  21.450  25.762  1.00  0.00     0.023 C 
BRANCH   2   3
ATOM      3  C   UNL A   1      35.463  20.626  24.767  1.00  0.00     0.116 C 
BRANCH   3   4
ATOM      4  N   UNL A   1      34.199  20.189  25.316  1.00  0.00    -0.355 N 
ATOM      5  C   UNL A   1      32.929  20.521  24.949  1.00  0.00     0.240 C 
ATOM      6  O   UNL A   1      32.016  19.804  25.367  1.00  0.00    -0.273 OA
ATOM      7  H   UNL A   1      34.266  19.556  26.067  1.00  0.00     0.163 HD
BRANCH   5   8
ATOM      8  C   UNL A   1      32.659  21.628  23.923  1.00  0.00     0.226 C 
BRANCH   8   9
ATOM      9  N   UNL A   1      32.792  22.968  24.473  1.00  0.00    -0.288 N 
ATOM     10  C   UNL A   1      34.454  30.122  27.103  1.00  0.00     0.044 C 
ATOM     11  C   UNL A   1      33.554  28.926  26.992  1.00  0.00    -0.050 A 
ATOM     12  C   UNL A   1      32.281  28.952  27.574  1.00  0.00     0.005 A 
ATOM     13  C   UNL A   1      33.960  27.801  26.252  1.00  0.00     0.016 A 
ATOM     14  C   UNL A   1      31.403  27.870  27.467  1.00  0.00     0.027 A 
ATOM     15  C   UNL A   1      33.091  26.701  26.123  1.00  0.00     0.026 A 
ATOM     16  C   UNL A   1      31.834  26.758  26.739  1.00  0.00     0.048 A 
ATOM     17  C   UNL A   1      33.146  25.451  25.470  1.00  0.00     0.103 A 
ATOM     18  N   UNL A   1      31.184  25.569  26.469  1.00  0.00    -0.349 N 
ATOM     19  C   UNL A   1      31.984  24.776  25.697  1.00  0.00     0.132 A 
ATOM     20  N   UNL A   1      34.175  24.932  24.681  1.00  0.00    -0.236 NA
ATOM     21  H   UNL A   1      30.282  25.330  26.784  1.00  0.00     0.167 HD
ATOM     22  C   UNL A   1      31.709  23.475  25.188  1.00  0.00     0.278 A 
ATOM     23  C   UNL A   1      33.917  23.742  24.227  1.00  0.00     0.203 A 
ATOM     24  O   UNL A   1      30.657  22.889  25.366  1.00  0.00    -0.267 OA
ENDBRANCH   8   9
ENDBRANCH   5   8
ENDBRANCH   3   4
ENDBRANCH   2   3
ENDBRANCH   1   2
BRANCH   1  25
ATOM     25  C   UNL A   1      38.377  22.894  26.136  1.00  0.00     0.116 C 
BRANCH  25  26
ATOM     26  N   UNL A   1      39.744  22.433  26.012  1.00  0.00    -0.352 N 
ATOM     27  C   UNL A   1      40.958  22.913  26.416  1.00  0.00     0.251 C 
ATOM     28  H   UNL A   1      39.815  21.580  25.526  1.00  0.00     0.163 HD
ATOM     29  O   UNL A   1      41.917  22.146  26.296  1.00  0.00    -0.269 OA
BRANCH  27  30
ATOM     30  C   UNL A   1      41.207  24.302  26.872  1.00  0.00     0.039 A 
ATOM     31  C   UNL A   1      42.004  24.664  27.958  1.00  0.00     0.014 A 
ATOM     32  C   UNL A   1      40.469  25.301  26.209  1.00  0.00     0.014 A 
ATOM     33  C   UNL A   1      41.920  25.940  28.486  1.00  0.00     0.010 A 
ATOM     34  C   UNL A   1      40.405  26.589  26.713  1.00  0.00     0.010 A 
ATOM     35  C   UNL A   1      41.066  26.874  27.900  1.00  0.00    -0.014 A 
BRANCH  35  36
ATOM     36  C   UNL A   1      40.976  28.185  28.524  1.00  0.00     0.031 A 
ATOM     37  C   UNL A   1      42.073  29.108  28.123  1.00  0.00     0.074 A 
ATOM     38  C   UNL A   1      39.947  28.530  29.326  1.00  0.00     0.049 A 
ATOM     39  N   UNL A   1      42.966  29.663  28.876  1.00  0.00    -0.248 NA
ATOM     40  C   UNL A   1      42.298  29.310  26.681  1.00  0.00     0.031 C 
ATOM     41  C   UNL A   1      38.716  27.785  29.601  1.00  0.00     0.029 A 
ATOM     42  N   UNL A   1      39.754  29.687  30.016  1.00  0.00    -0.354 N 
ATOM     43  C   UNL A   1      43.756  30.433  28.023  1.00  0.00     0.074 A 
ATOM     44  C   UNL A   1      43.401  30.057  26.681  1.00  0.00     0.031 C 
ATOM     45  C   UNL A   1      37.817  28.603  30.196  1.00  0.00     0.029 A 
ATOM     46  C   UNL A   1      38.452  29.877  30.472  1.00  0.00     0.049 A 
ATOM     47  H   UNL A   1      40.476  30.336  30.180  1.00  0.00     0.167 HD
ATOM     48  C   UNL A   1      44.472  31.492  28.489  1.00  0.00     0.037 A 
ATOM     49  C   UNL A   1      37.947  31.039  30.964  1.00  0.00     0.037 A 
ATOM     50  C   UNL A   1      44.719  31.379  29.901  1.00  0.00     0.049 A 
ATOM     51  C   UNL A   1      39.107  31.872  31.376  1.00  0.00     0.074 A 
ATOM     52  C   UNL A   1      45.417  30.490  30.695  1.00  0.00     0.029 A 
ATOM     53  N   UNL A   1      43.904  32.076  30.756  1.00  0.00    -0.354 N 
ATOM     54  N   UNL A   1      39.890  31.578  32.376  1.00  0.00    -0.248 NA
ATOM     55  C   UNL A   1      39.665  32.774  30.379  1.00  0.00     0.031 C 
ATOM     56  C   UNL A   1      44.633  30.358  31.878  1.00  0.00     0.029 A 
ATOM     57  C   UNL A   1      43.544  31.222  31.766  1.00  0.00     0.049 A 
ATOM     58  H   UNL A   1      43.629  33.017  30.661  1.00  0.00     0.167 HD
ATOM     59  C   UNL A   1      41.161  31.904  31.931  1.00  0.00     0.074 A 
ATOM     60  C   UNL A   1      40.955  32.686  30.713  1.00  0.00     0.031 C 
ATOM     61  C   UNL A   1      42.262  31.267  32.424  1.00  0.00     0.037 A 
BRANCH  48  62
ATOM     62  C   UNL A   1      44.606  32.795  27.738  1.00  0.00     0.064 A 
ATOM     63  C   UNL A   1      45.771  33.044  26.986  1.00  0.00     0.173 A 
ATOM     64  C   UNL A   1      43.783  33.920  27.972  1.00  0.00     0.173 A 
ATOM     65  F   UNL A   1      46.642  32.056  26.728  1.00  0.00    -0.203 F 
ATOM     66  C   UNL A   1      46.115  34.331  26.564  1.00  0.00     0.198 A 
ATOM     67  C   UNL A   1      44.103  35.191  27.503  1.00  0.00     0.198 A 
ATOM     68  F   UNL A   1      42.701  33.864  28.756  1.00  0.00    -0.203 F 
ATOM     69  F   UNL A   1      47.293  34.539  25.959  1.00  0.00    -0.200 F 
ATOM     70  C   UNL A   1      45.284  35.404  26.826  1.00  0.00     0.200 A 
ATOM     71  F   UNL A   1      43.295  36.221  27.790  1.00  0.00    -0.200 F 
ATOM     72  F   UNL A   1      45.640  36.646  26.474  1.00  0.00    -0.200 F 
ENDBRANCH  48  62
BRANCH  49  73
ATOM     73  C   UNL A   1      36.618  31.655  30.705  1.00  0.00     0.064 A 
ATOM     74  C   UNL A   1      35.787  32.022  31.781  1.00  0.00     0.173 A 
ATOM     75  C   UNL A   1      36.283  32.196  29.449  1.00  0.00     0.173 A 
ATOM     76  F   UNL A   1      36.051  31.577  33.018  1.00  0.00    -0.203 F 
ATOM     77  C   UNL A   1      34.730  32.926  31.622  1.00  0.00     0.198 A 
ATOM     78  C   UNL A   1      35.224  33.092  29.291  1.00  0.00     0.198 A 
ATOM     79  F   UNL A   1      37.038  31.952  28.369  1.00  0.00    -0.203 F 
ATOM     80  F   UNL A   1      34.018  33.317  32.688  1.00  0.00    -0.200 F 
ATOM     81  C   UNL A   1      34.462  33.474  30.380  1.00  0.00     0.200 A 
ATOM     82  F   UNL A   1      34.994  33.642  28.089  1.00  0.00    -0.200 F 
ATOM     83  F   UNL A   1      33.504  34.401  30.240  1.00  0.00    -0.200 F 
ENDBRANCH  49  73
BRANCH  61  84
ATOM     84  C   UNL A   1      42.075  30.367  33.613  1.00  0.00     0.064 A 
ATOM     85  C   UNL A   1      41.719  29.008  33.523  1.00  0.00     0.173 A 
ATOM     86  C   UNL A   1      42.420  30.860  34.878  1.00  0.00     0.173 A 
ATOM     87  F   UNL A   1      41.464  28.440  32.338  1.00  0.00    -0.203 F 
ATOM     88  C   UNL A   1      41.682  28.195  34.655  1.00  0.00     0.198 A 
ATOM     89  C   UNL A   1      42.418  30.036  35.999  1.00  0.00     0.198 A 
ATOM     90  F   UNL A   1      42.817  32.135  35.014  1.00  0.00    -0.203 F 
ATOM     91  F   UNL A   1      41.337  26.902  34.546  1.00  0.00    -0.200 F 
ATOM     92  C   UNL A   1      42.041  28.708  35.890  1.00  0.00     0.200 A 
ATOM     93  F   UNL A   1      42.813  30.526  37.182  1.00  0.00    -0.200 F 
ATOM     94  F   UNL A   1      42.055  27.915  36.972  1.00  0.00    -0.200 F 
ENDBRANCH  61  84
ENDBRANCH  35  36
ENDBRANCH  27  30
ENDBRANCH  25  26
ENDBRANCH   1  25
TORSDOF 12
ENDMDL
MODEL 2
REMARK VINA RESULT:     -13.6      3.231      9.109
REMARK SMILES Cc1ccc2[nH]c3c(=O)n(CC(=O)NCCCCNC(=O)c4ccc(-c5c6nc(c(-c7c(F)c(F)c(F)c(F)c7F)c7ccc([nH]7)c(-c7c(F)c(F)c(F)c(F)c7F)c7nc(c(-c8c(F)c(F)c(F)c(F)c8F)c8ccc5[nH]8)C=C7)C=C6)cc4)cnc3c2c1
REMARK SMILES IDX 17 1 16 2 15 3 14 4 12 5 13 6 11 8 10 9 1 10 2 11 3 12 89 13
REMARK SMILES IDX 4 14 88 15 5 16 87 17 6 18 7 19 86 20 8 22 85 23 9 24 18 25
REMARK SMILES IDX 19 26 20 27 21 29 22 30 23 31 84 32 24 33 83 34 25 35 26 36
REMARK SMILES IDX 27 37 77 38 28 39 82 40 76 41 78 42 29 43 81 44 75 45 74 46
REMARK SMILES IDX 30 48 62 49 42 50 61 51 43 52 46 53 60 54 79 55 44 56 45 57
REMARK SMILES IDX 59 59 80 60 47 61 31 62 32 63 40 64 33 65 34 66 38 67 41 68
REMARK SMILES IDX 35 69 36 70 39 71 37 72 63 73 64 74 72 75 65 76 66 77 70 78
REMARK SMILES IDX 73 79 67 80 68 81 71 82 69 83 48 84 49 85 57 86 50 87 51 88
REMARK SMILES IDX 55 89 58 90 52 91 53 92 56 93 54 94
REMARK H PARENT 14 7 6 21 19 28 78 47 46 58
REMARK Flexibility Score: inf
ROOT
ATOM      1  C   UNL A   1      32.097  29.987  26.793  1.00  0.00     0.023 C 
ENDROOT
BRANCH   1   2
ATOM      2  C   UNL A   1      31.865  28.539  27.254  1.00  0.00     0.023 C 
BRANCH   2   3
ATOM      3  C   UNL A   1      31.483  27.579  26.131  1.00  0.00     0.116 C 
BRANCH   3   4
ATOM      4  N   UNL A   1      30.985  26.317  26.632  1.00  0.00    -0.355 N 
ATOM      5  C   UNL A   1      31.500  25.062  26.497  1.00  0.00     0.240 C 
ATOM      6  O   UNL A   1      31.063  24.189  27.251  1.00  0.00    -0.273 OA
ATOM      7  H   UNL A   1      30.150  26.373  27.150  1.00  0.00     0.163 HD
BRANCH   5   8
ATOM      8  C   UNL A   1      32.690  24.784  25.571  1.00  0.00     0.226 C 
BRANCH   8   9
ATOM      9  N   UNL A   1      32.922  23.367  25.339  1.00  0.00    -0.288 N 
ATOM     10  C   UNL A   1      34.857  15.828  24.813  1.00  0.00     0.044 C 
ATOM     11  C   UNL A   1      34.137  17.049  24.321  1.00  0.00    -0.050 A 
ATOM     12  C   UNL A   1      33.279  16.959  23.219  1.00  0.00     0.005 A 
ATOM     13  C   UNL A   1      34.271  18.272  25.002  1.00  0.00     0.016 A 
ATOM     14  C   UNL A   1      32.567  18.067  22.750  1.00  0.00     0.027 A 
ATOM     15  C   UNL A   1      33.559  19.401  24.554  1.00  0.00     0.026 A 
ATOM     16  C   UNL A   1      32.727  19.274  23.434  1.00  0.00     0.048 A 
ATOM     17  C   UNL A   1      33.437  20.742  24.978  1.00  0.00     0.103 A 
ATOM     18  N   UNL A   1      32.153  20.509  23.201  1.00  0.00    -0.349 N 
ATOM     19  C   UNL A   1      32.585  21.399  24.140  1.00  0.00     0.132 A 
ATOM     20  N   UNL A   1      34.034  21.360  26.078  1.00  0.00    -0.236 NA
ATOM     21  H   UNL A   1      31.527  20.714  22.468  1.00  0.00     0.167 HD
ATOM     22  C   UNL A   1      32.243  22.775  24.276  1.00  0.00     0.278 A 
ATOM     23  C   UNL A   1      33.721  22.616  26.189  1.00  0.00     0.203 A 
ATOM     24  O   UNL A   1      31.458  23.350  23.544  1.00  0.00    -0.267 OA
ENDBRANCH   8   9
ENDBRANCH   5   8
ENDBRANCH   3   4
ENDBRANCH   2   3
ENDBRANCH   1   2
BRANCH   1  25
ATOM     25  C   UNL A   1      33.544  30.468  26.926  1.00  0.00     0.116 C 
BRANCH  25  26
ATOM     26  N   UNL A   1      33.802  31.219  28.137  1.00  0.00    -0.352 N 
ATOM     27  C   UNL A   1      34.926  31.543  28.842  1.00  0.00     0.251 C 
ATOM     28  H   UNL A   1      32.981  31.577  28.545  1.00  0.00     0.163 HD
ATOM     29  O   UNL A   1      34.785  32.372  29.746  1.00  0.00    -0.269 OA
BRANCH  27  30
ATOM     30  C   UNL A   1      36.249  30.893  28.669  1.00  0.00     0.039 A 
ATOM     31  C   UNL A   1      36.451  29.566  28.292  1.00  0.00     0.014 A 
ATOM     32  C   UNL A   1      37.362  31.671  29.041  1.00  0.00     0.014 A 
ATOM     33  C   UNL A   1      37.692  28.978  28.463  1.00  0.00     0.010 A 
ATOM     34  C   UNL A   1      38.613  31.097  29.184  1.00  0.00     0.010 A 
ATOM     35  C   UNL A   1      38.748  29.731  28.976  1.00  0.00    -0.014 A 
BRANCH  35  36
ATOM     36  C   UNL A   1      40.017  29.052  29.185  1.00  0.00     0.031 A 
ATOM     37  C   UNL A   1      40.356  28.860  30.622  1.00  0.00     0.074 A 
ATOM     38  C   UNL A   1      40.759  28.584  28.160  1.00  0.00     0.049 A 
ATOM     39  N   UNL A   1      41.375  29.320  31.272  1.00  0.00    -0.248 NA
ATOM     40  C   UNL A   1      39.348  28.206  31.477  1.00  0.00     0.031 C 
ATOM     41  C   UNL A   1      40.413  28.521  26.738  1.00  0.00     0.029 A 
ATOM     42  N   UNL A   1      41.980  27.982  28.196  1.00  0.00    -0.354 N 
ATOM     43  C   UNL A   1      41.232  28.858  32.579  1.00  0.00     0.074 A 
ATOM     44  C   UNL A   1      39.903  28.318  32.683  1.00  0.00     0.031 C 
ATOM     45  C   UNL A   1      41.284  27.708  26.097  1.00  0.00     0.029 A 
ATOM     46  C   UNL A   1      42.327  27.313  27.025  1.00  0.00     0.049 A 
ATOM     47  H   UNL A   1      42.568  28.018  28.983  1.00  0.00     0.167 HD
ATOM     48  C   UNL A   1      42.305  28.741  33.408  1.00  0.00     0.037 A 
ATOM     49  C   UNL A   1      43.361  26.441  26.889  1.00  0.00     0.037 A 
ATOM     50  C   UNL A   1      43.388  29.588  32.987  1.00  0.00     0.049 A 
ATOM     51  C   UNL A   1      44.300  26.710  28.008  1.00  0.00     0.074 A 
ATOM     52  C   UNL A   1      43.561  30.954  32.869  1.00  0.00     0.029 A 
ATOM     53  N   UNL A   1      44.403  29.024  32.260  1.00  0.00    -0.354 N 
ATOM     54  N   UNL A   1      45.000  27.803  28.119  1.00  0.00    -0.248 NA
ATOM     55  C   UNL A   1      44.098  25.960  29.240  1.00  0.00     0.031 C 
ATOM     56  C   UNL A   1      44.347  31.126  31.693  1.00  0.00     0.029 A 
ATOM     57  C   UNL A   1      44.665  29.859  31.204  1.00  0.00     0.049 A 
ATOM     58  H   UNL A   1      44.861  28.175  32.459  1.00  0.00     0.167 HD
ATOM     59  C   UNL A   1      44.965  28.104  29.471  1.00  0.00     0.074 A 
ATOM     60  C   UNL A   1      44.439  26.904  30.120  1.00  0.00     0.031 C 
ATOM     61  C   UNL A   1      45.089  29.390  29.908  1.00  0.00     0.037 A 
BRANCH  48  62
ATOM     62  C   UNL A   1      42.496  27.583  34.357  1.00  0.00     0.064 A 
ATOM     63  C   UNL A   1      43.025  26.370  33.871  1.00  0.00     0.173 A 
ATOM     64  C   UNL A   1      41.904  27.517  35.638  1.00  0.00     0.173 A 
ATOM     65  F   UNL A   1      43.584  26.308  32.654  1.00  0.00    -0.203 F 
ATOM     66  C   UNL A   1      42.905  25.175  34.586  1.00  0.00     0.198 A 
ATOM     67  C   UNL A   1      41.835  26.334  36.370  1.00  0.00     0.198 A 
ATOM     68  F   UNL A   1      41.267  28.557  36.187  1.00  0.00    -0.203 F 
ATOM     69  F   UNL A   1      43.312  24.025  34.031  1.00  0.00    -0.200 F 
ATOM     70  C   UNL A   1      42.307  25.157  35.832  1.00  0.00     0.200 A 
ATOM     71  F   UNL A   1      41.229  26.335  37.566  1.00  0.00    -0.200 F 
ATOM     72  F   UNL A   1      42.139  24.004  36.492  1.00  0.00    -0.200 F 
ENDBRANCH  48  62
BRANCH  49  73
ATOM     73  C   UNL A   1      43.390  25.143  26.162  1.00  0.00     0.064 A 
ATOM     74  C   UNL A   1      44.434  24.860  25.263  1.00  0.00     0.173 A 
ATOM     75  C   UNL A   1      42.608  24.047  26.571  1.00  0.00     0.173 A 
ATOM     76  F   UNL A   1      45.248  25.840  24.843  1.00  0.00    -0.203 F 
ATOM     77  C   UNL A   1      44.721  23.552  24.853  1.00  0.00     0.198 A 
ATOM     78  C   UNL A   1      42.890  22.744  26.157  1.00  0.00     0.198 A 
ATOM     79  F   UNL A   1      41.621  24.198  27.466  1.00  0.00    -0.203 F 
ATOM     80  F   UNL A   1      45.779  23.314  24.065  1.00  0.00    -0.200 F 
ATOM     81  C   UNL A   1      43.959  22.494  25.315  1.00  0.00     0.200 A 
ATOM     82  F   UNL A   1      42.166  21.722  26.637  1.00  0.00    -0.200 F 
ATOM     83  F   UNL A   1      44.280  21.233  24.990  1.00  0.00    -0.200 F 
ENDBRANCH  49  73
BRANCH  61  84
ATOM     84  C   UNL A   1      45.482  30.435  28.901  1.00  0.00     0.064 A 
ATOM     85  C   UNL A   1      46.813  30.727  28.549  1.00  0.00     0.173 A 
ATOM     86  C   UNL A   1      44.470  31.052  28.156  1.00  0.00     0.173 A 
ATOM     87  F   UNL A   1      47.837  30.110  29.152  1.00  0.00    -0.203 F 
ATOM     88  C   UNL A   1      47.109  31.620  27.520  1.00  0.00     0.198 A 
ATOM     89  C   UNL A   1      44.768  31.913  27.106  1.00  0.00     0.198 A 
ATOM     90  F   UNL A   1      43.183  30.770  28.415  1.00  0.00    -0.203 F 
ATOM     91  F   UNL A   1      48.386  31.885  27.203  1.00  0.00    -0.200 F 
ATOM     92  C   UNL A   1      46.086  32.204  26.793  1.00  0.00     0.200 A 
ATOM     93  F   UNL A   1      43.775  32.437  26.375  1.00  0.00    -0.200 F 
ATOM     94  F   UNL A   1      46.368  33.024  25.769  1.00  0.00    -0.200 F 
ENDBRANCH  61  84
ENDBRANCH  35  36
ENDBRANCH  27  30
ENDBRANCH  25  26
ENDBRANCH   1  25
TORSDOF 12
ENDMDL
MODEL 3
REMARK VINA RESULT:     -13.6      3.398      8.884
REMARK SMILES Cc1ccc2[nH]c3c(=O)n(CC(=O)NCCCCNC(=O)c4ccc(-c5c6nc(c(-c7c(F)c(F)c(F)c(F)c7F)c7ccc([nH]7)c(-c7c(F)c(F)c(F)c(F)c7F)c7nc(c(-c8c(F)c(F)c(F)c(F)c8F)c8ccc5[nH]8)C=C7)C=C6)cc4)cnc3c2c1
REMARK SMILES IDX 17 1 16 2 15 3 14 4 12 5 13 6 11 8 10 9 1 10 2 11 3 12 89 13
REMARK SMILES IDX 4 14 88 15 5 16 87 17 6 18 7 19 86 20 8 22 85 23 9 24 18 25
REMARK SMILES IDX 19 26 20 27 21 29 22 30 23 31 84 32 24 33 83 34 25 35 26 36
REMARK SMILES IDX 27 37 77 38 28 39 82 40 76 41 78 42 29 43 81 44 75 45 74 46
REMARK SMILES IDX 30 48 62 49 42 50 61 51 43 52 46 53 60 54 79 55 44 56 45 57
REMARK SMILES IDX 59 59 80 60 47 61 31 62 32 63 40 64 33 65 34 66 38 67 41 68
REMARK SMILES IDX 35 69 36 70 39 71 37 72 63 73 64 74 72 75 65 76 66 77 70 78
REMARK SMILES IDX 73 79 67 80 68 81 71 82 69 83 48 84 49 85 57 86 50 87 51 88
REMARK SMILES IDX 55 89 58 90 52 91 53 92 56 93 54 94
REMARK H PARENT 14 7 6 21 19 28 78 47 46 58
REMARK Flexibility Score: inf
ROOT
ATOM      1  C   UNL A   1      33.303  29.848  27.106  1.00  0.00     0.023 C 
ENDROOT
BRANCH   1   2
ATOM      2  C   UNL A   1      32.904  30.078  25.640  1.00  0.00     0.023 C 
BRANCH   2   3
ATOM      3  C   UNL A   1      31.403  29.990  25.379  1.00  0.00     0.116 C 
BRANCH   3   4
ATOM      4  N   UNL A   1      31.103  29.704  23.993  1.00  0.00    -0.355 N 
ATOM      5  C   UNL A   1      30.573  28.580  23.431  1.00  0.00     0.240 C 
ATOM      6  O   UNL A   1      30.140  28.677  22.280  1.00  0.00    -0.273 OA
ATOM      7  H   UNL A   1      31.312  30.429  23.361  1.00  0.00     0.163 HD
BRANCH   5   8
ATOM      8  C   UNL A   1      30.364  27.301  24.250  1.00  0.00     0.226 C 
BRANCH   8   9
ATOM      9  N   UNL A   1      31.581  26.522  24.422  1.00  0.00    -0.288 N 
ATOM     10  C   UNL A   1      38.239  22.862  26.188  1.00  0.00     0.044 C 
ATOM     11  C   UNL A   1      37.110  23.182  25.253  1.00  0.00    -0.050 A 
ATOM     12  C   UNL A   1      37.028  22.541  24.011  1.00  0.00     0.005 A 
ATOM     13  C   UNL A   1      36.100  24.078  25.645  1.00  0.00     0.016 A 
ATOM     14  C   UNL A   1      35.975  22.790  23.126  1.00  0.00     0.027 A 
ATOM     15  C   UNL A   1      35.025  24.340  24.774  1.00  0.00     0.026 A 
ATOM     16  C   UNL A   1      34.991  23.694  23.531  1.00  0.00     0.048 A 
ATOM     17  C   UNL A   1      33.862  25.139  24.828  1.00  0.00     0.103 A 
ATOM     18  N   UNL A   1      33.852  24.119  22.873  1.00  0.00    -0.349 N 
ATOM     19  C   UNL A   1      33.168  24.997  23.664  1.00  0.00     0.132 A 
ATOM     20  N   UNL A   1      33.415  25.946  25.876  1.00  0.00    -0.236 NA
ATOM     21  H   UNL A   1      33.577  23.832  21.972  1.00  0.00     0.167 HD
ATOM     22  C   UNL A   1      31.946  25.671  23.381  1.00  0.00     0.278 A 
ATOM     23  C   UNL A   1      32.304  26.561  25.605  1.00  0.00     0.203 A 
ATOM     24  O   UNL A   1      31.313  25.517  22.353  1.00  0.00    -0.267 OA
ENDBRANCH   8   9
ENDBRANCH   5   8
ENDBRANCH   3   4
ENDBRANCH   2   3
ENDBRANCH   1   2
BRANCH   1  25
ATOM     25  C   UNL A   1      34.564  30.596  27.543  1.00  0.00     0.116 C 
BRANCH  25  26
ATOM     26  N   UNL A   1      34.389  31.387  28.745  1.00  0.00    -0.352 N 
ATOM     27  C   UNL A   1      35.205  31.757  29.776  1.00  0.00     0.251 C 
ATOM     28  H   UNL A   1      33.474  31.737  28.839  1.00  0.00     0.163 HD
ATOM     29  O   UNL A   1      34.756  32.607  30.549  1.00  0.00    -0.269 OA
BRANCH  27  30
ATOM     30  C   UNL A   1      36.515  31.133  30.081  1.00  0.00     0.039 A 
ATOM     31  C   UNL A   1      37.754  31.764  29.973  1.00  0.00     0.014 A 
ATOM     32  C   UNL A   1      36.478  29.758  30.383  1.00  0.00     0.014 A 
ATOM     33  C   UNL A   1      38.918  31.015  29.976  1.00  0.00     0.010 A 
ATOM     34  C   UNL A   1      37.641  29.007  30.419  1.00  0.00     0.010 A 
ATOM     35  C   UNL A   1      38.847  29.631  30.128  1.00  0.00    -0.014 A 
BRANCH  35  36
ATOM     36  C   UNL A   1      40.094  28.885  30.071  1.00  0.00     0.031 A 
ATOM     37  C   UNL A   1      40.753  28.732  31.398  1.00  0.00     0.074 A 
ATOM     38  C   UNL A   1      40.549  28.332  28.928  1.00  0.00     0.049 A 
ATOM     39  N   UNL A   1      41.918  29.155  31.766  1.00  0.00    -0.248 NA
ATOM     40  C   UNL A   1      39.944  28.175  32.498  1.00  0.00     0.031 C 
ATOM     41  C   UNL A   1      39.875  28.232  27.632  1.00  0.00     0.029 A 
ATOM     42  N   UNL A   1      41.713  27.659  28.711  1.00  0.00    -0.354 N 
ATOM     43  C   UNL A   1      42.065  28.757  33.094  1.00  0.00     0.074 A 
ATOM     44  C   UNL A   1      40.773  28.303  33.533  1.00  0.00     0.031 C 
ATOM     45  C   UNL A   1      40.529  27.343  26.850  1.00  0.00     0.029 A 
ATOM     46  C   UNL A   1      41.740  26.923  27.529  1.00  0.00     0.049 A 
ATOM     47  H   UNL A   1      42.471  27.691  29.336  1.00  0.00     0.167 HD
ATOM     48  C   UNL A   1      43.296  28.609  33.654  1.00  0.00     0.037 A 
ATOM     49  C   UNL A   1      42.668  25.985  27.202  1.00  0.00     0.037 A 
ATOM     50  C   UNL A   1      44.289  29.370  32.947  1.00  0.00     0.049 A 
ATOM     51  C   UNL A   1      43.857  26.241  28.055  1.00  0.00     0.074 A 
ATOM     52  C   UNL A   1      44.497  30.717  32.718  1.00  0.00     0.029 A 
ATOM     53  N   UNL A   1      45.076  28.716  32.034  1.00  0.00    -0.354 N 
ATOM     54  N   UNL A   1      44.617  27.294  27.941  1.00  0.00    -0.248 NA
ATOM     55  C   UNL A   1      43.915  25.556  29.339  1.00  0.00     0.031 C 
ATOM     56  C   UNL A   1      44.991  30.793  31.384  1.00  0.00     0.029 A 
ATOM     57  C   UNL A   1      45.121  29.490  30.903  1.00  0.00     0.049 A 
ATOM     58  H   UNL A   1      45.524  27.850  32.167  1.00  0.00     0.167 HD
ATOM     59  C   UNL A   1      44.917  27.651  29.246  1.00  0.00     0.074 A 
ATOM     60  C   UNL A   1      44.501  26.513  30.063  1.00  0.00     0.031 C 
ATOM     61  C   UNL A   1      45.204  28.944  29.571  1.00  0.00     0.037 A 
BRANCH  48  62
ATOM     62  C   UNL A   1      43.648  27.481  34.593  1.00  0.00     0.064 A 
ATOM     63  C   UNL A   1      43.606  26.152  34.126  1.00  0.00     0.173 A 
ATOM     64  C   UNL A   1      43.726  27.627  35.997  1.00  0.00     0.173 A 
ATOM     65  F   UNL A   1      43.501  25.893  32.813  1.00  0.00    -0.203 F 
ATOM     66  C   UNL A   1      43.574  25.063  35.001  1.00  0.00     0.198 A 
ATOM     67  C   UNL A   1      43.749  26.537  36.863  1.00  0.00     0.198 A 
ATOM     68  F   UNL A   1      43.667  28.822  36.595  1.00  0.00    -0.203 F 
ATOM     69  F   UNL A   1      43.409  23.825  34.515  1.00  0.00    -0.200 F 
ATOM     70  C   UNL A   1      43.641  25.256  36.368  1.00  0.00     0.200 A 
ATOM     71  F   UNL A   1      43.790  26.749  38.186  1.00  0.00    -0.200 F 
ATOM     72  F   UNL A   1      43.552  24.219  37.210  1.00  0.00    -0.200 F 
ENDBRANCH  48  62
BRANCH  49  73
ATOM     73  C   UNL A   1      42.460  24.659  26.559  1.00  0.00     0.064 A 
ATOM     74  C   UNL A   1      43.204  24.301  25.420  1.00  0.00     0.173 A 
ATOM     75  C   UNL A   1      41.797  23.610  27.223  1.00  0.00     0.173 A 
ATOM     76  F   UNL A   1      43.892  25.234  24.744  1.00  0.00    -0.203 F 
ATOM     77  C   UNL A   1      43.332  22.969  25.010  1.00  0.00     0.198 A 
ATOM     78  C   UNL A   1      41.920  22.281  26.810  1.00  0.00     0.198 A 
ATOM     79  F   UNL A   1      41.104  23.833  28.348  1.00  0.00    -0.203 F 
ATOM     80  F   UNL A   1      44.122  22.660  23.972  1.00  0.00    -0.200 F 
ATOM     81  C   UNL A   1      42.705  21.959  25.717  1.00  0.00     0.200 A 
ATOM     82  F   UNL A   1      41.334  21.307  27.522  1.00  0.00    -0.200 F 
ATOM     83  F   UNL A   1      42.891  20.676  25.377  1.00  0.00    -0.200 F 
ENDBRANCH  49  73
BRANCH  61  84
ATOM     84  C   UNL A   1      45.400  29.921  28.446  1.00  0.00     0.064 A 
ATOM     85  C   UNL A   1      44.353  30.632  27.830  1.00  0.00     0.173 A 
ATOM     86  C   UNL A   1      46.709  30.265  28.087  1.00  0.00     0.173 A 
ATOM     87  F   UNL A   1      43.079  30.427  28.184  1.00  0.00    -0.203 F 
ATOM     88  C   UNL A   1      44.611  31.616  26.876  1.00  0.00     0.198 A 
ATOM     89  C   UNL A   1      46.964  31.272  27.163  1.00  0.00     0.198 A 
ATOM     90  F   UNL A   1      47.747  29.656  28.681  1.00  0.00    -0.203 F 
ATOM     91  F   UNL A   1      43.597  32.279  26.299  1.00  0.00    -0.200 F 
ATOM     92  C   UNL A   1      45.917  31.942  26.551  1.00  0.00     0.200 A 
ATOM     93  F   UNL A   1      48.230  31.616  26.889  1.00  0.00    -0.200 F 
ATOM     94  F   UNL A   1      46.169  32.923  25.671  1.00  0.00    -0.200 F 
ENDBRANCH  61  84
ENDBRANCH  35  36
ENDBRANCH  27  30
ENDBRANCH  25  26
ENDBRANCH   1  25
TORSDOF 12
ENDMDL
