MODEL 1
REMARK VINA RESULT:     -10.0      0.000      0.000
REMARK SMILES C=C1c2ccccc2C(=O)N1[C@](C)(CC)C(=O)NCCCCNC(=O)c1ccc(-c2c3nc(c(-c4c(F)c(F)c(F)c(F)c4F)c4ccc([nH]4)c(-c4c(F)c(F)c(F)c(F)c4F)c4nc(c(-c5c(F)c(F)c(F)c(F)c5F)c5ccc2[nH]5)C=C4)C=C3)cc1
REMARK SMILES IDX 21 1 20 2 19 3 18 4 16 5 17 6 12 8 13 9 11 10 1 11 2 12 3 13
REMARK SMILES IDX 4 14 8 15 9 16 5 17 7 18 10 19 6 20 14 21 15 22 22 23 23 24
REMARK SMILES IDX 24 25 25 27 26 28 27 29 88 30 28 31 87 32 29 33 30 34 31 35
REMARK SMILES IDX 81 36 32 37 86 38 80 39 82 40 33 41 85 42 79 43 78 44 34 46
REMARK SMILES IDX 66 47 46 48 65 49 47 50 50 51 64 52 83 53 48 54 49 55 63 57
REMARK SMILES IDX 84 58 51 59 35 60 36 61 44 62 37 63 38 64 42 65 45 66 39 67
REMARK SMILES IDX 40 68 43 69 41 70 67 71 68 72 76 73 69 74 70 75 74 76 77 77
REMARK SMILES IDX 71 78 72 79 75 80 73 81 52 82 53 83 61 84 54 85 55 86 59 87
REMARK SMILES IDX 62 88 56 89 57 90 60 91 58 92
REMARK H PARENT 18 7 23 26 82 45 50 56
REMARK Flexibility Score: inf
ROOT
ATOM      1  C   UNL A   1      35.561  33.346  28.273  1.00  0.00     0.023 C 
ENDROOT
BRANCH   1   2
ATOM      2  C   UNL A   1      36.841  33.793  28.979  1.00  0.00     0.023 C 
BRANCH   2   3
ATOM      3  C   UNL A   1      37.011  33.205  30.375  1.00  0.00     0.116 C 
BRANCH   3   4
ATOM      4  N   UNL A   1      37.269  34.248  31.349  1.00  0.00    -0.354 N 
ATOM      5  C   UNL A   1      37.203  34.215  32.715  1.00  0.00     0.246 C 
ATOM      6  O   UNL A   1      37.485  35.266  33.299  1.00  0.00    -0.272 OA
ATOM      7  H   UNL A   1      37.535  35.116  30.967  1.00  0.00     0.163 HD
BRANCH   5   8
ATOM      8  C   UNL A   1      36.718  32.942  33.476  1.00  0.00     0.123 C 
ATOM      9  C   UNL A   1      36.532  33.275  34.972  1.00  0.00     0.046 C 
BRANCH   8  10
ATOM     10  N   UNL A   1      37.695  31.809  33.378  1.00  0.00    -0.293 N 
ATOM     11  C   UNL A   1      39.682  32.641  34.615  1.00  0.00     0.038 C 
ATOM     12  C   UNL A   1      39.004  31.756  33.877  1.00  0.00     0.046 C 
ATOM     13  C   UNL A   1      39.557  30.448  33.515  1.00  0.00     0.010 A 
ATOM     14  C   UNL A   1      40.826  29.899  33.625  1.00  0.00     0.011 A 
ATOM     15  C   UNL A   1      38.525  29.700  32.964  1.00  0.00     0.049 A 
ATOM     16  C   UNL A   1      37.327  30.544  32.896  1.00  0.00     0.259 C 
ATOM     17  C   UNL A   1      41.019  28.577  33.203  1.00  0.00     0.001 A 
ATOM     18  C   UNL A   1      38.684  28.387  32.554  1.00  0.00     0.014 A 
ATOM     19  O   UNL A   1      36.257  30.145  32.482  1.00  0.00    -0.269 OA
ATOM     20  C   UNL A   1      39.953  27.823  32.683  1.00  0.00     0.001 A 
ENDBRANCH   8  10
BRANCH   8  21
ATOM     21  C   UNL A   1      35.307  32.579  32.881  1.00  0.00     0.035 C 
ATOM     22  C   UNL A   1      34.174  33.551  33.212  1.00  0.00     0.007 C 
ENDBRANCH   8  21
ENDBRANCH   5   8
ENDBRANCH   3   4
ENDBRANCH   2   3
ENDBRANCH   1   2
BRANCH   1  23
ATOM     23  C   UNL A   1      34.629  32.494  29.127  1.00  0.00     0.116 C 
BRANCH  23  24
ATOM     24  N   UNL A   1      33.888  31.517  28.342  1.00  0.00    -0.352 N 
ATOM     25  C   UNL A   1      34.348  30.376  27.733  1.00  0.00     0.251 C 
ATOM     26  H   UNL A   1      32.927  31.700  28.233  1.00  0.00     0.163 HD
ATOM     27  O   UNL A   1      33.630  29.746  26.964  1.00  0.00    -0.269 OA
BRANCH  25  28
ATOM     28  C   UNL A   1      35.731  29.928  27.993  1.00  0.00     0.039 A 
ATOM     29  C   UNL A   1      36.700  30.120  27.007  1.00  0.00     0.014 A 
ATOM     30  C   UNL A   1      36.071  29.353  29.221  1.00  0.00     0.014 A 
ATOM     31  C   UNL A   1      38.029  29.794  27.280  1.00  0.00     0.010 A 
ATOM     32  C   UNL A   1      37.407  29.111  29.521  1.00  0.00     0.010 A 
ATOM     33  C   UNL A   1      38.400  29.325  28.552  1.00  0.00    -0.014 A 
BRANCH  33  34
ATOM     34  C   UNL A   1      39.820  29.054  28.886  1.00  0.00     0.031 A 
ATOM     35  C   UNL A   1      40.632  30.082  29.623  1.00  0.00     0.074 A 
ATOM     36  C   UNL A   1      40.395  27.906  28.474  1.00  0.00     0.049 A 
ATOM     37  N   UNL A   1      41.898  30.054  29.956  1.00  0.00    -0.248 NA
ATOM     38  C   UNL A   1      39.937  31.318  30.013  1.00  0.00     0.031 C 
ATOM     39  C   UNL A   1      39.725  26.852  27.712  1.00  0.00     0.029 A 
ATOM     40  N   UNL A   1      41.675  27.438  28.633  1.00  0.00    -0.354 N 
ATOM     41  C   UNL A   1      42.150  31.267  30.584  1.00  0.00     0.074 A 
ATOM     42  C   UNL A   1      40.924  32.034  30.529  1.00  0.00     0.031 C 
ATOM     43  C   UNL A   1      40.590  25.849  27.493  1.00  0.00     0.029 A 
ATOM     44  C   UNL A   1      41.887  26.209  28.060  1.00  0.00     0.049 A 
ATOM     45  H   UNL A   1      42.375  27.936  29.114  1.00  0.00     0.167 HD
ATOM     46  C   UNL A   1      43.291  31.692  31.177  1.00  0.00     0.037 A 
ATOM     47  C   UNL A   1      43.004  25.459  27.989  1.00  0.00     0.037 A 
ATOM     48  C   UNL A   1      44.504  30.918  31.240  1.00  0.00     0.049 A 
ATOM     49  C   UNL A   1      44.268  25.967  28.631  1.00  0.00     0.074 A 
ATOM     50  C   UNL A   1      45.696  31.235  31.864  1.00  0.00     0.029 A 
ATOM     51  N   UNL A   1      44.679  29.675  30.649  1.00  0.00    -0.354 N 
ATOM     52  N   UNL A   1      44.473  27.084  29.288  1.00  0.00    -0.248 NA
ATOM     53  C   UNL A   1      45.454  25.108  28.526  1.00  0.00     0.031 C 
ATOM     54  C   UNL A   1      46.614  30.215  31.597  1.00  0.00     0.029 A 
ATOM     55  C   UNL A   1      45.973  29.227  30.867  1.00  0.00     0.049 A 
ATOM     56  H   UNL A   1      43.988  29.184  30.148  1.00  0.00     0.167 HD
ATOM     57  C   UNL A   1      45.799  27.045  29.701  1.00  0.00     0.074 A 
ATOM     58  C   UNL A   1      46.344  25.787  29.235  1.00  0.00     0.031 C 
ATOM     59  C   UNL A   1      46.502  27.969  30.402  1.00  0.00     0.037 A 
BRANCH  46  60
ATOM     60  C   UNL A   1      43.285  33.059  31.800  1.00  0.00     0.064 A 
ATOM     61  C   UNL A   1      43.459  34.222  31.032  1.00  0.00     0.173 A 
ATOM     62  C   UNL A   1      43.069  33.213  33.178  1.00  0.00     0.173 A 
ATOM     63  F   UNL A   1      43.680  34.134  29.712  1.00  0.00    -0.203 F 
ATOM     64  C   UNL A   1      43.450  35.482  31.625  1.00  0.00     0.198 A 
ATOM     65  C   UNL A   1      43.024  34.476  33.762  1.00  0.00     0.198 A 
ATOM     66  F   UNL A   1      42.892  32.137  33.959  1.00  0.00    -0.203 F 
ATOM     67  F   UNL A   1      43.676  36.573  30.880  1.00  0.00    -0.200 F 
ATOM     68  C   UNL A   1      43.225  35.608  32.987  1.00  0.00     0.200 A 
ATOM     69  F   UNL A   1      42.791  34.597  35.075  1.00  0.00    -0.200 F 
ATOM     70  F   UNL A   1      43.208  36.822  33.556  1.00  0.00    -0.200 F 
ENDBRANCH  46  60
BRANCH  47  71
ATOM     71  C   UNL A   1      42.976  24.143  27.296  1.00  0.00     0.064 A 
ATOM     72  C   UNL A   1      42.579  22.980  27.972  1.00  0.00     0.173 A 
ATOM     73  C   UNL A   1      43.357  24.016  25.953  1.00  0.00     0.173 A 
ATOM     74  F   UNL A   1      42.224  23.046  29.264  1.00  0.00    -0.203 F 
ATOM     75  C   UNL A   1      42.590  21.739  27.340  1.00  0.00     0.198 A 
ATOM     76  C   UNL A   1      43.335  22.779  25.311  1.00  0.00     0.198 A 
ATOM     77  F   UNL A   1      43.742  25.097  25.257  1.00  0.00    -0.203 F 
ATOM     78  F   UNL A   1      42.257  20.637  28.026  1.00  0.00    -0.200 F 
ATOM     79  C   UNL A   1      42.962  21.640  26.008  1.00  0.00     0.200 A 
ATOM     80  F   UNL A   1      43.679  22.691  24.019  1.00  0.00    -0.200 F 
ATOM     81  F   UNL A   1      42.969  20.447  25.399  1.00  0.00    -0.200 F 
ENDBRANCH  47  71
BRANCH  59  82
ATOM     82  C   UNL A   1      47.928  27.639  30.744  1.00  0.00     0.064 A 
ATOM     83  C   UNL A   1      48.994  28.019  29.917  1.00  0.00     0.173 A 
ATOM     84  C   UNL A   1      48.231  26.966  31.937  1.00  0.00     0.173 A 
ATOM     85  F   UNL A   1      48.759  28.653  28.757  1.00  0.00    -0.203 F 
ATOM     86  C   UNL A   1      50.309  27.709  30.256  1.00  0.00     0.198 A 
ATOM     87  C   UNL A   1      49.549  26.690  32.292  1.00  0.00     0.198 A 
ATOM     88  F   UNL A   1      47.250  26.587  32.770  1.00  0.00    -0.203 F 
ATOM     89  F   UNL A   1      51.308  28.032  29.423  1.00  0.00    -0.200 F 
ATOM     90  C   UNL A   1      50.586  27.054  31.446  1.00  0.00     0.200 A 
ATOM     91  F   UNL A   1      49.815  26.074  33.452  1.00  0.00    -0.200 F 
ATOM     92  F   UNL A   1      51.853  26.766  31.776  1.00  0.00    -0.200 F 
ENDBRANCH  59  82
ENDBRANCH  33  34
ENDBRANCH  25  28
ENDBRANCH  23  24
ENDBRANCH   1  23
TORSDOF 13
ENDMDL
MODEL 2
REMARK VINA RESULT:      -9.7      4.150     10.519
REMARK SMILES C=C1c2ccccc2C(=O)N1[C@](C)(CC)C(=O)NCCCCNC(=O)c1ccc(-c2c3nc(c(-c4c(F)c(F)c(F)c(F)c4F)c4ccc([nH]4)c(-c4c(F)c(F)c(F)c(F)c4F)c4nc(c(-c5c(F)c(F)c(F)c(F)c5F)c5ccc2[nH]5)C=C4)C=C3)cc1
REMARK SMILES IDX 21 1 20 2 19 3 18 4 16 5 17 6 12 8 13 9 11 10 1 11 2 12 3 13
REMARK SMILES IDX 4 14 8 15 9 16 5 17 7 18 10 19 6 20 14 21 15 22 22 23 23 24
REMARK SMILES IDX 24 25 25 27 26 28 27 29 88 30 28 31 87 32 29 33 30 34 31 35
REMARK SMILES IDX 81 36 32 37 86 38 80 39 82 40 33 41 85 42 79 43 78 44 34 46
REMARK SMILES IDX 66 47 46 48 65 49 47 50 50 51 64 52 83 53 48 54 49 55 63 57
REMARK SMILES IDX 84 58 51 59 35 60 36 61 44 62 37 63 38 64 42 65 45 66 39 67
REMARK SMILES IDX 40 68 43 69 41 70 67 71 68 72 76 73 69 74 70 75 74 76 77 77
REMARK SMILES IDX 71 78 72 79 75 80 73 81 52 82 53 83 61 84 54 85 55 86 59 87
REMARK SMILES IDX 62 88 56 89 57 90 60 91 58 92
REMARK H PARENT 18 7 23 26 82 45 50 56
REMARK Flexibility Score: inf
ROOT
ATOM      1  C   UNL A   1      31.635  31.893  26.662  1.00  0.00     0.023 C 
ENDROOT
BRANCH   1   2
ATOM      2  C   UNL A   1      31.779  30.373  26.717  1.00  0.00     0.023 C 
BRANCH   2   3
ATOM      3  C   UNL A   1      32.852  29.822  25.786  1.00  0.00     0.116 C 
BRANCH   3   4
ATOM      4  N   UNL A   1      33.254  28.487  26.190  1.00  0.00    -0.354 N 
ATOM      5  C   UNL A   1      33.429  27.356  25.442  1.00  0.00     0.246 C 
ATOM      6  O   UNL A   1      33.785  26.346  26.059  1.00  0.00    -0.272 OA
ATOM      7  H   UNL A   1      33.428  28.380  27.153  1.00  0.00     0.163 HD
BRANCH   5   8
ATOM      8  C   UNL A   1      33.114  27.332  23.914  1.00  0.00     0.123 C 
ATOM      9  C   UNL A   1      34.067  28.296  23.176  1.00  0.00     0.046 C 
BRANCH   8  10
ATOM     10  N   UNL A   1      31.708  27.757  23.612  1.00  0.00    -0.293 N 
ATOM     11  C   UNL A   1      30.337  26.395  25.171  1.00  0.00     0.038 C 
ATOM     12  C   UNL A   1      30.523  27.276  24.184  1.00  0.00     0.046 C 
ATOM     13  C   UNL A   1      29.411  27.989  23.549  1.00  0.00     0.010 A 
ATOM     14  C   UNL A   1      28.034  27.839  23.617  1.00  0.00     0.011 A 
ATOM     15  C   UNL A   1      29.959  28.982  22.748  1.00  0.00     0.049 A 
ATOM     16  C   UNL A   1      31.421  28.863  22.800  1.00  0.00     0.259 C 
ATOM     17  C   UNL A   1      27.229  28.728  22.893  1.00  0.00     0.001 A 
ATOM     18  C   UNL A   1      29.188  29.885  22.035  1.00  0.00     0.014 A 
ATOM     19  O   UNL A   1      32.169  29.622  22.215  1.00  0.00    -0.269 OA
ATOM     20  C   UNL A   1      27.802  29.751  22.117  1.00  0.00     0.001 A 
ENDBRANCH   8  10
BRANCH   8  21
ATOM     21  C   UNL A   1      33.425  25.870  23.420  1.00  0.00     0.035 C 
ATOM     22  C   UNL A   1      33.067  25.568  21.965  1.00  0.00     0.007 C 
ENDBRANCH   8  21
ENDBRANCH   5   8
ENDBRANCH   3   4
ENDBRANCH   2   3
ENDBRANCH   1   2
BRANCH   1  23
ATOM     23  C   UNL A   1      32.817  32.664  27.239  1.00  0.00     0.116 C 
BRANCH  23  24
ATOM     24  N   UNL A   1      32.479  34.041  27.572  1.00  0.00    -0.352 N 
ATOM     25  C   UNL A   1      32.999  34.838  28.561  1.00  0.00     0.251 C 
ATOM     26  H   UNL A   1      31.783  34.455  27.013  1.00  0.00     0.163 HD
ATOM     27  O   UNL A   1      32.487  35.921  28.823  1.00  0.00    -0.269 OA
BRANCH  25  28
ATOM     28  C   UNL A   1      34.168  34.365  29.328  1.00  0.00     0.039 A 
ATOM     29  C   UNL A   1      33.961  33.721  30.549  1.00  0.00     0.014 A 
ATOM     30  C   UNL A   1      35.462  34.527  28.822  1.00  0.00     0.014 A 
ATOM     31  C   UNL A   1      35.050  33.180  31.233  1.00  0.00     0.010 A 
ATOM     32  C   UNL A   1      36.532  33.913  29.461  1.00  0.00     0.010 A 
ATOM     33  C   UNL A   1      36.339  33.236  30.675  1.00  0.00    -0.014 A 
BRANCH  33  34
ATOM     34  C   UNL A   1      37.495  32.592  31.347  1.00  0.00     0.031 A 
ATOM     35  C   UNL A   1      38.216  31.453  30.683  1.00  0.00     0.074 A 
ATOM     36  C   UNL A   1      37.857  32.995  32.581  1.00  0.00     0.049 A 
ATOM     37  N   UNL A   1      39.210  30.727  31.132  1.00  0.00    -0.248 NA
ATOM     38  C   UNL A   1      37.741  31.058  29.348  1.00  0.00     0.031 C 
ATOM     39  C   UNL A   1      37.206  34.057  33.349  1.00  0.00     0.029 A 
ATOM     40  N   UNL A   1      38.858  32.552  33.410  1.00  0.00    -0.354 N 
ATOM     41  C   UNL A   1      39.469  29.789  30.142  1.00  0.00     0.074 A 
ATOM     42  C   UNL A   1      38.489  29.995  29.097  1.00  0.00     0.031 C 
ATOM     43  C   UNL A   1      37.840  34.204  34.523  1.00  0.00     0.029 A 
ATOM     44  C   UNL A   1      38.912  33.217  34.611  1.00  0.00     0.049 A 
ATOM     45  H   UNL A   1      39.478  31.828  33.167  1.00  0.00     0.167 HD
ATOM     46  C   UNL A   1      40.452  28.858  30.096  1.00  0.00     0.037 A 
ATOM     47  C   UNL A   1      39.728  33.043  35.668  1.00  0.00     0.037 A 
ATOM     48  C   UNL A   1      41.433  28.668  31.133  1.00  0.00     0.049 A 
ATOM     49  C   UNL A   1      40.794  31.982  35.603  1.00  0.00     0.074 A 
ATOM     50  C   UNL A   1      42.501  27.790  31.157  1.00  0.00     0.029 A 
ATOM     51  N   UNL A   1      41.457  29.362  32.334  1.00  0.00    -0.354 N 
ATOM     52  N   UNL A   1      41.078  31.150  34.630  1.00  0.00    -0.248 NA
ATOM     53  C   UNL A   1      41.658  31.839  36.783  1.00  0.00     0.031 C 
ATOM     54  C   UNL A   1      43.134  27.907  32.398  1.00  0.00     0.029 A 
ATOM     55  C   UNL A   1      42.504  28.907  33.121  1.00  0.00     0.049 A 
ATOM     56  H   UNL A   1      40.824  30.071  32.590  1.00  0.00     0.167 HD
ATOM     57  C   UNL A   1      42.170  30.410  35.066  1.00  0.00     0.074 A 
ATOM     58  C   UNL A   1      42.507  30.903  36.385  1.00  0.00     0.031 C 
ATOM     59  C   UNL A   1      42.832  29.411  34.431  1.00  0.00     0.037 A 
BRANCH  46  60
ATOM     60  C   UNL A   1      40.513  27.970  28.886  1.00  0.00     0.064 A 
ATOM     61  C   UNL A   1      39.789  26.769  28.813  1.00  0.00     0.173 A 
ATOM     62  C   UNL A   1      41.279  28.338  27.769  1.00  0.00     0.173 A 
ATOM     63  F   UNL A   1      39.049  26.361  29.855  1.00  0.00    -0.203 F 
ATOM     64  C   UNL A   1      39.857  25.957  27.684  1.00  0.00     0.198 A 
ATOM     65  C   UNL A   1      41.315  27.543  26.627  1.00  0.00     0.198 A 
ATOM     66  F   UNL A   1      41.987  29.478  27.780  1.00  0.00    -0.203 F 
ATOM     67  F   UNL A   1      39.202  24.787  27.662  1.00  0.00    -0.200 F 
ATOM     68  C   UNL A   1      40.612  26.348  26.589  1.00  0.00     0.200 A 
ATOM     69  F   UNL A   1      42.033  27.930  25.565  1.00  0.00    -0.200 F 
ATOM     70  F   UNL A   1      40.669  25.570  25.500  1.00  0.00    -0.200 F 
ENDBRANCH  46  60
BRANCH  47  71
ATOM     71  C   UNL A   1      39.580  33.902  36.874  1.00  0.00     0.064 A 
ATOM     72  C   UNL A   1      38.803  33.486  37.965  1.00  0.00     0.173 A 
ATOM     73  C   UNL A   1      40.196  35.158  36.956  1.00  0.00     0.173 A 
ATOM     74  F   UNL A   1      38.177  32.301  37.927  1.00  0.00    -0.203 F 
ATOM     75  C   UNL A   1      38.629  34.304  39.079  1.00  0.00     0.198 A 
ATOM     76  C   UNL A   1      40.050  35.962  38.085  1.00  0.00     0.198 A 
ATOM     77  F   UNL A   1      40.954  35.603  35.942  1.00  0.00    -0.203 F 
ATOM     78  F   UNL A   1      37.838  33.904  40.084  1.00  0.00    -0.200 F 
ATOM     79  C   UNL A   1      39.257  35.538  39.141  1.00  0.00     0.200 A 
ATOM     80  F   UNL A   1      40.672  37.146  38.147  1.00  0.00    -0.200 F 
ATOM     81  F   UNL A   1      39.092  36.324  40.214  1.00  0.00    -0.200 F 
ENDBRANCH  47  71
BRANCH  59  82
ATOM     82  C   UNL A   1      44.015  28.809  35.137  1.00  0.00     0.064 A 
ATOM     83  C   UNL A   1      45.314  29.307  34.963  1.00  0.00     0.173 A 
ATOM     84  C   UNL A   1      43.836  27.742  36.031  1.00  0.00     0.173 A 
ATOM     85  F   UNL A   1      45.543  30.318  34.110  1.00  0.00    -0.203 F 
ATOM     86  C   UNL A   1      46.395  28.739  35.632  1.00  0.00     0.198 A 
ATOM     87  C   UNL A   1      44.913  27.200  36.727  1.00  0.00     0.198 A 
ATOM     88  F   UNL A   1      42.614  27.233  36.242  1.00  0.00    -0.203 F 
ATOM     89  F   UNL A   1      47.635  29.194  35.407  1.00  0.00    -0.200 F 
ATOM     90  C   UNL A   1      46.192  27.693  36.520  1.00  0.00     0.200 A 
ATOM     91  F   UNL A   1      44.712  26.202  37.599  1.00  0.00    -0.200 F 
ATOM     92  F   UNL A   1      47.233  27.154  37.172  1.00  0.00    -0.200 F 
ENDBRANCH  59  82
ENDBRANCH  33  34
ENDBRANCH  25  28
ENDBRANCH  23  24
ENDBRANCH   1  23
TORSDOF 13
ENDMDL
MODEL 3
REMARK VINA RESULT:      -9.7      4.092     10.169
REMARK SMILES C=C1c2ccccc2C(=O)N1[C@](C)(CC)C(=O)NCCCCNC(=O)c1ccc(-c2c3nc(c(-c4c(F)c(F)c(F)c(F)c4F)c4ccc([nH]4)c(-c4c(F)c(F)c(F)c(F)c4F)c4nc(c(-c5c(F)c(F)c(F)c(F)c5F)c5ccc2[nH]5)C=C4)C=C3)cc1
REMARK SMILES IDX 21 1 20 2 19 3 18 4 16 5 17 6 12 8 13 9 11 10 1 11 2 12 3 13
REMARK SMILES IDX 4 14 8 15 9 16 5 17 7 18 10 19 6 20 14 21 15 22 22 23 23 24
REMARK SMILES IDX 24 25 25 27 26 28 27 29 88 30 28 31 87 32 29 33 30 34 31 35
REMARK SMILES IDX 81 36 32 37 86 38 80 39 82 40 33 41 85 42 79 43 78 44 34 46
REMARK SMILES IDX 66 47 46 48 65 49 47 50 50 51 64 52 83 53 48 54 49 55 63 57
REMARK SMILES IDX 84 58 51 59 35 60 36 61 44 62 37 63 38 64 42 65 45 66 39 67
REMARK SMILES IDX 40 68 43 69 41 70 67 71 68 72 76 73 69 74 70 75 74 76 77 77
REMARK SMILES IDX 71 78 72 79 75 80 73 81 52 82 53 83 61 84 54 85 55 86 59 87
REMARK SMILES IDX 62 88 56 89 57 90 60 91 58 92
REMARK H PARENT 18 7 23 26 82 45 50 56
REMARK Flexibility Score: inf
ROOT
ATOM      1  C   UNL A   1      31.634  32.075  26.866  1.00  0.00     0.023 C 
ENDROOT
BRANCH   1   2
ATOM      2  C   UNL A   1      31.898  30.573  26.765  1.00  0.00     0.023 C 
BRANCH   2   3
ATOM      3  C   UNL A   1      31.387  29.943  25.475  1.00  0.00     0.116 C 
BRANCH   3   4
ATOM      4  N   UNL A   1      32.453  29.824  24.498  1.00  0.00    -0.354 N 
ATOM      5  C   UNL A   1      32.794  28.775  23.689  1.00  0.00     0.246 C 
ATOM      6  O   UNL A   1      33.760  28.958  22.941  1.00  0.00    -0.272 OA
ATOM      7  H   UNL A   1      33.019  30.624  24.402  1.00  0.00     0.163 HD
BRANCH   5   8
ATOM      8  C   UNL A   1      32.052  27.406  23.775  1.00  0.00     0.123 C 
ATOM      9  C   UNL A   1      31.137  27.391  25.018  1.00  0.00     0.046 C 
BRANCH   8  10
ATOM     10  N   UNL A   1      32.999  26.248  23.890  1.00  0.00    -0.293 N 
ATOM     11  C   UNL A   1      32.929  25.209  21.635  1.00  0.00     0.038 C 
ATOM     12  C   UNL A   1      33.314  25.295  22.912  1.00  0.00     0.046 C 
ATOM     13  C   UNL A   1      34.272  24.359  23.507  1.00  0.00     0.010 A 
ATOM     14  C   UNL A   1      34.821  23.165  23.065  1.00  0.00     0.011 A 
ATOM     15  C   UNL A   1      34.628  24.865  24.751  1.00  0.00     0.049 A 
ATOM     16  C   UNL A   1      33.845  26.082  24.996  1.00  0.00     0.259 C 
ATOM     17  C   UNL A   1      35.756  22.518  23.884  1.00  0.00     0.001 A 
ATOM     18  C   UNL A   1      35.561  24.255  25.572  1.00  0.00     0.014 A 
ATOM     19  O   UNL A   1      33.967  26.758  25.998  1.00  0.00    -0.269 OA
ATOM     20  C   UNL A   1      36.132  23.065  25.122  1.00  0.00     0.001 A 
ENDBRANCH   8  10
BRANCH   8  21
ATOM     21  C   UNL A   1      31.137  27.316  22.498  1.00  0.00     0.035 C 
ATOM     22  C   UNL A   1      30.072  28.405  22.362  1.00  0.00     0.007 C 
ENDBRANCH   8  21
ENDBRANCH   5   8
ENDBRANCH   3   4
ENDBRANCH   2   3
ENDBRANCH   1   2
BRANCH   1  23
ATOM     23  C   UNL A   1      32.852  32.909  27.245  1.00  0.00     0.116 C 
BRANCH  23  24
ATOM     24  N   UNL A   1      32.502  34.268  27.631  1.00  0.00    -0.352 N 
ATOM     25  C   UNL A   1      33.004  35.027  28.659  1.00  0.00     0.251 C 
ATOM     26  H   UNL A   1      31.810  34.702  27.081  1.00  0.00     0.163 HD
ATOM     27  O   UNL A   1      32.483  36.095  28.959  1.00  0.00    -0.269 OA
BRANCH  25  28
ATOM     28  C   UNL A   1      34.167  34.529  29.421  1.00  0.00     0.039 A 
ATOM     29  C   UNL A   1      33.952  33.896  30.646  1.00  0.00     0.014 A 
ATOM     30  C   UNL A   1      35.461  34.657  28.905  1.00  0.00     0.014 A 
ATOM     31  C   UNL A   1      35.033  33.331  31.325  1.00  0.00     0.010 A 
ATOM     32  C   UNL A   1      36.520  34.020  29.539  1.00  0.00     0.010 A 
ATOM     33  C   UNL A   1      36.319  33.353  30.758  1.00  0.00    -0.014 A 
BRANCH  33  34
ATOM     34  C   UNL A   1      37.463  32.684  31.425  1.00  0.00     0.031 A 
ATOM     35  C   UNL A   1      38.154  31.527  30.760  1.00  0.00     0.074 A 
ATOM     36  C   UNL A   1      37.841  33.081  32.657  1.00  0.00     0.049 A 
ATOM     37  N   UNL A   1      39.133  30.780  31.205  1.00  0.00    -0.248 NA
ATOM     38  C   UNL A   1      37.663  31.140  29.428  1.00  0.00     0.031 C 
ATOM     39  C   UNL A   1      37.220  34.159  33.425  1.00  0.00     0.029 A 
ATOM     40  N   UNL A   1      38.837  32.617  33.481  1.00  0.00    -0.354 N 
ATOM     41  C   UNL A   1      39.366  29.833  30.216  1.00  0.00     0.074 A 
ATOM     42  C   UNL A   1      38.385  30.059  29.176  1.00  0.00     0.031 C 
ATOM     43  C   UNL A   1      37.863  34.294  34.596  1.00  0.00     0.029 A 
ATOM     44  C   UNL A   1      38.913  33.283  34.680  1.00  0.00     0.049 A 
ATOM     45  H   UNL A   1      39.439  31.878  33.236  1.00  0.00     0.167 HD
ATOM     46  C   UNL A   1      40.326  28.880  30.167  1.00  0.00     0.037 A 
ATOM     47  C   UNL A   1      39.730  33.093  35.733  1.00  0.00     0.037 A 
ATOM     48  C   UNL A   1      41.308  28.669  31.199  1.00  0.00     0.049 A 
ATOM     49  C   UNL A   1      40.771  32.007  35.665  1.00  0.00     0.074 A 
ATOM     50  C   UNL A   1      42.356  27.767  31.219  1.00  0.00     0.029 A 
ATOM     51  N   UNL A   1      41.355  29.365  32.398  1.00  0.00    -0.354 N 
ATOM     52  N   UNL A   1      41.030  31.167  34.692  1.00  0.00    -0.248 NA
ATOM     53  C   UNL A   1      41.637  31.847  36.840  1.00  0.00     0.031 C 
ATOM     54  C   UNL A   1      42.998  27.872  32.457  1.00  0.00     0.029 A 
ATOM     55  C   UNL A   1      42.395  28.888  33.180  1.00  0.00     0.049 A 
ATOM     56  H   UNL A   1      40.739  30.089  32.656  1.00  0.00     0.167 HD
ATOM     57  C   UNL A   1      42.107  30.402  35.123  1.00  0.00     0.074 A 
ATOM     58  C   UNL A   1      42.463  30.891  36.439  1.00  0.00     0.031 C 
ATOM     59  C   UNL A   1      42.743  29.387  34.487  1.00  0.00     0.037 A 
BRANCH  46  60
ATOM     60  C   UNL A   1      40.360  27.988  28.958  1.00  0.00     0.064 A 
ATOM     61  C   UNL A   1      41.122  28.309  27.824  1.00  0.00     0.173 A 
ATOM     62  C   UNL A   1      39.647  26.779  28.945  1.00  0.00     0.173 A 
ATOM     63  F   UNL A   1      41.814  29.457  27.777  1.00  0.00    -0.203 F 
ATOM     64  C   UNL A   1      41.142  27.470  26.712  1.00  0.00     0.198 A 
ATOM     65  C   UNL A   1      39.699  25.926  27.846  1.00  0.00     0.198 A 
ATOM     66  F   UNL A   1      38.906  26.419  30.004  1.00  0.00    -0.203 F 
ATOM     67  F   UNL A   1      41.831  27.827  25.618  1.00  0.00    -0.200 F 
ATOM     68  C   UNL A   1      40.438  26.277  26.727  1.00  0.00     0.200 A 
ATOM     69  F   UNL A   1      39.030  24.765  27.869  1.00  0.00    -0.200 F 
ATOM     70  F   UNL A   1      40.465  25.467  25.659  1.00  0.00    -0.200 F 
ENDBRANCH  46  60
BRANCH  47  71
ATOM     71  C   UNL A   1      39.608  33.958  36.937  1.00  0.00     0.064 A 
ATOM     72  C   UNL A   1      38.828  33.563  38.034  1.00  0.00     0.173 A 
ATOM     73  C   UNL A   1      40.255  35.199  37.013  1.00  0.00     0.173 A 
ATOM     74  F   UNL A   1      38.174  32.393  38.002  1.00  0.00    -0.203 F 
ATOM     75  C   UNL A   1      38.679  34.387  39.147  1.00  0.00     0.198 A 
ATOM     76  C   UNL A   1      40.133  36.008  38.141  1.00  0.00     0.198 A 
ATOM     77  F   UNL A   1      41.017  35.624  35.994  1.00  0.00    -0.203 F 
ATOM     78  F   UNL A   1      37.884  34.008  40.157  1.00  0.00    -0.200 F 
ATOM     79  C   UNL A   1      39.336  35.606  39.202  1.00  0.00     0.200 A 
ATOM     80  F   UNL A   1      40.784  37.178  38.198  1.00  0.00    -0.200 F 
ATOM     81  F   UNL A   1      39.196  36.398  40.274  1.00  0.00    -0.200 F 
ENDBRANCH  47  71
BRANCH  59  82
ATOM     82  C   UNL A   1      43.915  28.760  35.188  1.00  0.00     0.064 A 
ATOM     83  C   UNL A   1      45.226  29.217  34.994  1.00  0.00     0.173 A 
ATOM     84  C   UNL A   1      43.715  27.710  36.098  1.00  0.00     0.173 A 
ATOM     85  F   UNL A   1      45.475  30.209  34.125  1.00  0.00    -0.203 F 
ATOM     86  C   UNL A   1      46.297  28.625  35.659  1.00  0.00     0.198 A 
ATOM     87  C   UNL A   1      44.783  27.145  36.790  1.00  0.00     0.198 A 
ATOM     88  F   UNL A   1      42.480  27.239  36.329  1.00  0.00    -0.203 F 
ATOM     89  F   UNL A   1      47.547  29.041  35.414  1.00  0.00    -0.200 F 
ATOM     90  C   UNL A   1      46.074  27.597  36.562  1.00  0.00     0.200 A 
ATOM     91  F   UNL A   1      44.563  26.164  37.676  1.00  0.00    -0.200 F 
ATOM     92  F   UNL A   1      47.105  27.036  37.210  1.00  0.00    -0.200 F 
ENDBRANCH  59  82
ENDBRANCH  33  34
ENDBRANCH  25  28
ENDBRANCH  23  24
ENDBRANCH   1  23
TORSDOF 13
ENDMDL
