MODEL 1
REMARK VINA RESULT:     -13.1      0.000      0.000
REMARK SMILES CC(=O)c1c[nH]c(C(=O)N[C@H]2C=C[C@H](C(=O)NCCCCNC(=O)c3ccc(-c4c5nc(c(-c6c(F)c(F)c(F)c(F)c6F)c6ccc([nH]6)c(-c6c(F)c(F)c(F)c(F)c6F)c6nc(c(-c7c(F)c(F)c(F)c(F)c7F)c7ccc4[nH]7)C=C6)C=C5)cc3)C2)c1
REMARK SMILES IDX 19 1 18 2 17 3 15 4 16 5 14 7 11 8 12 9 88 10 13 11 10 12
REMARK SMILES IDX 8 13 9 14 7 16 4 17 5 18 89 19 6 20 2 22 1 23 3 24 20 25
REMARK SMILES IDX 21 26 22 27 23 28 24 30 25 31 26 32 87 33 27 34 86 35 28 36
REMARK SMILES IDX 29 37 30 38 80 39 31 40 85 41 79 42 81 43 32 44 84 45 78 46
REMARK SMILES IDX 77 47 33 49 65 50 45 51 64 52 46 53 49 54 63 55 82 56 47 57
REMARK SMILES IDX 48 58 62 60 83 61 50 62 34 63 35 64 43 65 36 66 37 67 41 68
REMARK SMILES IDX 44 69 38 70 39 71 42 72 40 73 66 74 67 75 75 76 68 77 69 78
REMARK SMILES IDX 73 79 76 80 70 81 71 82 74 83 72 84 51 85 52 86 60 87 53 88
REMARK SMILES IDX 54 89 58 90 61 91 55 92 56 93 59 94 57 95
REMARK H PARENT 17 6 10 15 6 21 22 29 81 48 49 59
REMARK Flexibility Score: inf
ROOT
ATOM      1  C   UNL A   1      33.326  29.296  24.677  1.00  0.00     0.023 C 
ENDROOT
BRANCH   1   2
ATOM      2  C   UNL A   1      32.396  28.317  23.964  1.00  0.00     0.116 C 
BRANCH   2   3
ATOM      3  N   UNL A   1      33.025  27.687  22.814  1.00  0.00    -0.356 N 
ATOM      4  C   UNL A   1      33.269  26.365  22.560  1.00  0.00     0.227 C 
ATOM      5  O   UNL A   1      33.805  26.071  21.489  1.00  0.00    -0.274 OA
ATOM      6  H   UNL A   1      33.321  28.309  22.110  1.00  0.00     0.163 HD
BRANCH   4   7
ATOM      7  C   UNL A   1      32.903  25.322  23.612  1.00  0.00     0.103 C 
ATOM      8  C   UNL A   1      31.886  25.604  25.832  1.00  0.00     0.106 C 
ATOM      9  C   UNL A   1      33.339  25.302  25.929  1.00  0.00    -0.006 C 
ATOM     10  C   UNL A   1      31.583  25.663  24.330  1.00  0.00     0.047 C 
ATOM     11  C   UNL A   1      33.908  25.215  24.722  1.00  0.00    -0.016 C 
BRANCH   8  12
ATOM     12  N   UNL A   1      31.099  24.728  26.681  1.00  0.00    -0.345 N 
ATOM     13  C   UNL A   1      30.937  23.381  26.854  1.00  0.00     0.268 C 
ATOM     14  O   UNL A   1      30.026  23.024  27.596  1.00  0.00    -0.268 OA
ATOM     15  H   UNL A   1      30.529  25.241  27.299  1.00  0.00     0.164 HD
BRANCH  13  16
ATOM     16  C   UNL A   1      31.711  22.415  26.116  1.00  0.00     0.105 A 
ATOM     17  C   UNL A   1      32.487  20.805  24.711  1.00  0.00     0.035 A 
ATOM     18  C   UNL A   1      33.202  20.740  25.891  1.00  0.00     0.094 A 
ATOM     19  C   UNL A   1      31.684  21.980  24.807  1.00  0.00     0.045 A 
ATOM     20  N   UNL A   1      32.786  21.771  26.694  1.00  0.00    -0.356 N 
ATOM     21  H   UNL A   1      33.194  22.015  27.556  1.00  0.00     0.166 HD
BRANCH  17  22
ATOM     22  C   UNL A   1      32.504  19.846  23.608  1.00  0.00     0.161 C 
ATOM     23  C   UNL A   1      32.990  18.447  23.889  1.00  0.00     0.093 C 
ATOM     24  O   UNL A   1      32.029  20.130  22.508  1.00  0.00    -0.294 OA
ENDBRANCH  17  22
ENDBRANCH  13  16
ENDBRANCH   8  12
ENDBRANCH   4   7
ENDBRANCH   2   3
ENDBRANCH   1   2
BRANCH   1  25
ATOM     25  C   UNL A   1      34.137  28.703  25.836  1.00  0.00     0.023 C 
BRANCH  25  26
ATOM     26  C   UNL A   1      33.917  29.390  27.188  1.00  0.00     0.116 C 
BRANCH  26  27
ATOM     27  N   UNL A   1      34.496  30.723  27.197  1.00  0.00    -0.352 N 
ATOM     28  C   UNL A   1      35.636  31.187  27.799  1.00  0.00     0.251 C 
ATOM     29  H   UNL A   1      33.990  31.399  26.691  1.00  0.00     0.163 HD
ATOM     30  O   UNL A   1      35.736  32.392  28.019  1.00  0.00    -0.269 OA
BRANCH  28  31
ATOM     31  C   UNL A   1      36.748  30.294  28.197  1.00  0.00     0.039 A 
ATOM     32  C   UNL A   1      37.815  30.141  27.296  1.00  0.00     0.014 A 
ATOM     33  C   UNL A   1      36.709  29.525  29.364  1.00  0.00     0.014 A 
ATOM     34  C   UNL A   1      38.866  29.276  27.589  1.00  0.00     0.010 A 
ATOM     35  C   UNL A   1      37.762  28.660  29.666  1.00  0.00     0.010 A 
ATOM     36  C   UNL A   1      38.855  28.562  28.793  1.00  0.00    -0.014 A 
BRANCH  36  37
ATOM     37  C   UNL A   1      40.120  27.943  29.266  1.00  0.00     0.031 A 
ATOM     38  C   UNL A   1      40.357  26.563  28.557  1.00  0.00     0.074 A 
ATOM     39  C   UNL A   1      40.843  28.655  30.188  1.00  0.00     0.049 A 
ATOM     40  N   UNL A   1      41.157  25.573  28.837  1.00  0.00    -0.248 NA
ATOM     41  C   UNL A   1      39.534  26.236  27.350  1.00  0.00     0.031 C 
ATOM     42  C   UNL A   1      40.465  29.975  30.747  1.00  0.00     0.029 A 
ATOM     43  N   UNL A   1      42.030  28.430  30.852  1.00  0.00    -0.354 N 
ATOM     44  C   UNL A   1      41.079  24.640  27.767  1.00  0.00     0.074 A 
ATOM     45  C   UNL A   1      39.997  25.057  26.935  1.00  0.00     0.031 C 
ATOM     46  C   UNL A   1      41.334  30.374  31.706  1.00  0.00     0.029 A 
ATOM     47  C   UNL A   1      42.377  29.382  31.860  1.00  0.00     0.049 A 
ATOM     48  H   UNL A   1      42.606  27.659  30.643  1.00  0.00     0.167 HD
ATOM     49  C   UNL A   1      42.015  23.671  27.536  1.00  0.00     0.037 A 
ATOM     50  C   UNL A   1      43.392  29.318  32.789  1.00  0.00     0.037 A 
ATOM     51  C   UNL A   1      42.996  23.674  28.560  1.00  0.00     0.049 A 
ATOM     52  C   UNL A   1      44.122  28.106  32.411  1.00  0.00     0.074 A 
ATOM     53  C   UNL A   1      43.218  23.012  29.737  1.00  0.00     0.029 A 
ATOM     54  N   UNL A   1      43.993  24.591  28.383  1.00  0.00    -0.354 N 
ATOM     55  N   UNL A   1      44.882  27.989  31.369  1.00  0.00    -0.248 NA
ATOM     56  C   UNL A   1      43.735  26.884  33.104  1.00  0.00     0.031 C 
ATOM     57  C   UNL A   1      44.325  23.664  30.334  1.00  0.00     0.029 A 
ATOM     58  C   UNL A   1      44.550  24.828  29.604  1.00  0.00     0.049 A 
ATOM     59  H   UNL A   1      44.259  25.005  27.530  1.00  0.00     0.167 HD
ATOM     60  C   UNL A   1      44.849  26.641  31.104  1.00  0.00     0.074 A 
ATOM     61  C   UNL A   1      44.204  25.997  32.239  1.00  0.00     0.031 C 
ATOM     62  C   UNL A   1      45.018  26.158  29.851  1.00  0.00     0.037 A 
BRANCH  49  63
ATOM     63  C   UNL A   1      42.410  22.886  26.288  1.00  0.00     0.064 A 
ATOM     64  C   UNL A   1      42.434  21.466  26.396  1.00  0.00     0.173 A 
ATOM     65  C   UNL A   1      43.186  23.424  25.253  1.00  0.00     0.173 A 
ATOM     66  F   UNL A   1      41.651  20.830  27.280  1.00  0.00    -0.203 F 
ATOM     67  C   UNL A   1      43.340  20.679  25.685  1.00  0.00     0.198 A 
ATOM     68  C   UNL A   1      44.041  22.617  24.486  1.00  0.00     0.198 A 
ATOM     69  F   UNL A   1      43.220  24.742  25.024  1.00  0.00    -0.203 F 
ATOM     70  F   UNL A   1      43.465  19.375  25.974  1.00  0.00    -0.200 F 
ATOM     71  C   UNL A   1      44.163  21.260  24.745  1.00  0.00     0.200 A 
ATOM     72  F   UNL A   1      44.815  23.177  23.547  1.00  0.00    -0.200 F 
ATOM     73  F   UNL A   1      45.089  20.527  24.113  1.00  0.00    -0.200 F 
ENDBRANCH  49  63
BRANCH  50  74
ATOM     74  C   UNL A   1      43.813  29.972  34.091  1.00  0.00     0.064 A 
ATOM     75  C   UNL A   1      45.011  30.654  34.322  1.00  0.00     0.173 A 
ATOM     76  C   UNL A   1      42.895  30.027  35.186  1.00  0.00     0.173 A 
ATOM     77  F   UNL A   1      46.021  30.579  33.450  1.00  0.00    -0.203 F 
ATOM     78  C   UNL A   1      45.212  31.438  35.478  1.00  0.00     0.198 A 
ATOM     79  C   UNL A   1      43.069  30.844  36.305  1.00  0.00     0.198 A 
ATOM     80  F   UNL A   1      41.771  29.295  35.198  1.00  0.00    -0.203 F 
ATOM     81  F   UNL A   1      46.371  32.091  35.646  1.00  0.00    -0.200 F 
ATOM     82  C   UNL A   1      44.224  31.572  36.441  1.00  0.00     0.200 A 
ATOM     83  F   UNL A   1      42.096  30.937  37.223  1.00  0.00    -0.200 F 
ATOM     84  F   UNL A   1      44.387  32.387  37.493  1.00  0.00    -0.200 F 
ENDBRANCH  50  74
BRANCH  62  85
ATOM     85  C   UNL A   1      45.254  27.220  28.793  1.00  0.00     0.064 A 
ATOM     86  C   UNL A   1      46.529  27.743  28.571  1.00  0.00     0.173 A 
ATOM     87  C   UNL A   1      44.203  27.808  28.057  1.00  0.00     0.173 A 
ATOM     88  F   UNL A   1      47.581  27.240  29.230  1.00  0.00    -0.203 F 
ATOM     89  C   UNL A   1      46.737  28.787  27.660  1.00  0.00     0.198 A 
ATOM     90  C   UNL A   1      44.407  28.843  27.145  1.00  0.00     0.198 A 
ATOM     91  F   UNL A   1      42.954  27.360  28.185  1.00  0.00    -0.203 F 
ATOM     92  F   UNL A   1      47.976  29.258  27.461  1.00  0.00    -0.200 F 
ATOM     93  C   UNL A   1      45.679  29.335  26.948  1.00  0.00     0.200 A 
ATOM     94  F   UNL A   1      43.372  29.343  26.452  1.00  0.00    -0.200 F 
ATOM     95  F   UNL A   1      45.889  30.320  26.064  1.00  0.00    -0.200 F 
ENDBRANCH  62  85
ENDBRANCH  36  37
ENDBRANCH  28  31
ENDBRANCH  26  27
ENDBRANCH  25  26
ENDBRANCH   1  25
TORSDOF 14
ENDMDL
MODEL 2
REMARK VINA RESULT:     -13.0      3.883      9.076
REMARK SMILES CC(=O)c1c[nH]c(C(=O)N[C@H]2C=C[C@H](C(=O)NCCCCNC(=O)c3ccc(-c4c5nc(c(-c6c(F)c(F)c(F)c(F)c6F)c6ccc([nH]6)c(-c6c(F)c(F)c(F)c(F)c6F)c6nc(c(-c7c(F)c(F)c(F)c(F)c7F)c7ccc4[nH]7)C=C6)C=C5)cc3)C2)c1
REMARK SMILES IDX 19 1 18 2 17 3 15 4 16 5 14 7 11 8 12 9 88 10 13 11 10 12
REMARK SMILES IDX 8 13 9 14 7 16 4 17 5 18 89 19 6 20 2 22 1 23 3 24 20 25
REMARK SMILES IDX 21 26 22 27 23 28 24 30 25 31 26 32 87 33 27 34 86 35 28 36
REMARK SMILES IDX 29 37 30 38 80 39 31 40 85 41 79 42 81 43 32 44 84 45 78 46
REMARK SMILES IDX 77 47 33 49 65 50 45 51 64 52 46 53 49 54 63 55 82 56 47 57
REMARK SMILES IDX 48 58 62 60 83 61 50 62 34 63 35 64 43 65 36 66 37 67 41 68
REMARK SMILES IDX 44 69 38 70 39 71 42 72 40 73 66 74 67 75 75 76 68 77 69 78
REMARK SMILES IDX 73 79 76 80 70 81 71 82 74 83 72 84 51 85 52 86 60 87 53 88
REMARK SMILES IDX 54 89 58 90 61 91 55 92 56 93 59 94 57 95
REMARK H PARENT 17 6 10 15 6 21 22 29 81 48 49 59
REMARK Flexibility Score: inf
ROOT
ATOM      1  C   UNL A   1      35.963  22.215  24.357  1.00  0.00     0.023 C 
ENDROOT
BRANCH   1   2
ATOM      2  C   UNL A   1      35.655  21.027  25.267  1.00  0.00     0.116 C 
BRANCH   2   3
ATOM      3  N   UNL A   1      35.188  21.438  26.582  1.00  0.00    -0.356 N 
ATOM      4  C   UNL A   1      34.057  22.118  26.940  1.00  0.00     0.227 C 
ATOM      5  O   UNL A   1      33.867  22.335  28.138  1.00  0.00    -0.274 OA
ATOM      6  H   UNL A   1      35.778  21.187  27.329  1.00  0.00     0.163 HD
BRANCH   4   7
ATOM      7  C   UNL A   1      33.102  22.606  25.853  1.00  0.00     0.103 C 
ATOM      8  C   UNL A   1      31.069  23.976  26.033  1.00  0.00     0.106 C 
ATOM      9  C   UNL A   1      30.747  22.547  25.781  1.00  0.00    -0.006 C 
ATOM     10  C   UNL A   1      32.599  24.036  26.126  1.00  0.00     0.047 C 
ATOM     11  C   UNL A   1      31.847  21.789  25.749  1.00  0.00    -0.016 C 
BRANCH   8  12
ATOM     12  N   UNL A   1      30.379  24.854  25.104  1.00  0.00    -0.345 N 
ATOM     13  C   UNL A   1      30.254  26.201  24.903  1.00  0.00     0.268 C 
ATOM     14  O   UNL A   1      29.423  26.561  24.075  1.00  0.00    -0.268 OA
ATOM     15  H   UNL A   1      29.862  24.341  24.441  1.00  0.00     0.164 HD
BRANCH  13  16
ATOM     16  C   UNL A   1      30.969  27.164  25.701  1.00  0.00     0.105 A 
ATOM     17  C   UNL A   1      32.443  28.656  26.580  1.00  0.00     0.035 A 
ATOM     18  C   UNL A   1      31.801  28.009  27.618  1.00  0.00     0.094 A 
ATOM     19  C   UNL A   1      31.774  28.241  25.390  1.00  0.00     0.045 A 
ATOM     20  N   UNL A   1      30.854  27.179  27.076  1.00  0.00    -0.356 N 
ATOM     21  H   UNL A   1      30.189  26.667  27.592  1.00  0.00     0.166 HD
BRANCH  17  22
ATOM     22  C   UNL A   1      33.600  29.543  26.666  1.00  0.00     0.161 C 
ATOM     23  C   UNL A   1      33.413  30.898  27.301  1.00  0.00     0.093 C 
ATOM     24  O   UNL A   1      34.724  29.160  26.340  1.00  0.00    -0.294 OA
ENDBRANCH  17  22
ENDBRANCH  13  16
ENDBRANCH   8  12
ENDBRANCH   4   7
ENDBRANCH   2   3
ENDBRANCH   1   2
BRANCH   1  25
ATOM     25  C   UNL A   1      37.383  22.783  24.480  1.00  0.00     0.023 C 
BRANCH  25  26
ATOM     26  C   UNL A   1      37.642  23.583  25.761  1.00  0.00     0.116 C 
BRANCH  26  27
ATOM     27  N   UNL A   1      38.691  22.968  26.558  1.00  0.00    -0.352 N 
ATOM     28  C   UNL A   1      39.780  23.530  27.171  1.00  0.00     0.251 C 
ATOM     29  H   UNL A   1      38.606  21.994  26.674  1.00  0.00     0.163 HD
ATOM     30  O   UNL A   1      40.736  22.809  27.446  1.00  0.00    -0.269 OA
BRANCH  28  31
ATOM     31  C   UNL A   1      39.848  24.969  27.512  1.00  0.00     0.039 A 
ATOM     32  C   UNL A   1      39.323  25.371  28.751  1.00  0.00     0.014 A 
ATOM     33  C   UNL A   1      40.303  25.931  26.604  1.00  0.00     0.014 A 
ATOM     34  C   UNL A   1      39.312  26.717  29.108  1.00  0.00     0.010 A 
ATOM     35  C   UNL A   1      40.298  27.281  26.958  1.00  0.00     0.010 A 
ATOM     36  C   UNL A   1      39.833  27.669  28.224  1.00  0.00    -0.014 A 
BRANCH  36  37
ATOM     37  C   UNL A   1      40.157  29.022  28.743  1.00  0.00     0.031 A 
ATOM     38  C   UNL A   1      38.857  29.896  28.851  1.00  0.00     0.074 A 
ATOM     39  C   UNL A   1      41.472  29.265  29.042  1.00  0.00     0.049 A 
ATOM     40  N   UNL A   1      38.688  31.181  28.991  1.00  0.00    -0.248 NA
ATOM     41  C   UNL A   1      37.531  29.209  28.755  1.00  0.00     0.031 C 
ATOM     42  C   UNL A   1      42.585  28.298  28.886  1.00  0.00     0.029 A 
ATOM     43  N   UNL A   1      42.156  30.359  29.529  1.00  0.00    -0.354 N 
ATOM     44  C   UNL A   1      37.301  31.413  29.198  1.00  0.00     0.074 A 
ATOM     45  C   UNL A   1      36.634  30.176  28.946  1.00  0.00     0.031 C 
ATOM     46  C   UNL A   1      43.779  28.866  29.174  1.00  0.00     0.029 A 
ATOM     47  C   UNL A   1      43.580  30.244  29.570  1.00  0.00     0.049 A 
ATOM     48  H   UNL A   1      41.689  31.172  29.832  1.00  0.00     0.167 HD
ATOM     49  C   UNL A   1      36.796  32.568  29.726  1.00  0.00     0.037 A 
ATOM     50  C   UNL A   1      44.513  31.222  29.835  1.00  0.00     0.037 A 
ATOM     51  C   UNL A   1      37.832  33.513  29.934  1.00  0.00     0.049 A 
ATOM     52  C   UNL A   1      43.696  32.381  30.201  1.00  0.00     0.074 A 
ATOM     53  C   UNL A   1      38.382  34.565  29.252  1.00  0.00     0.029 A 
ATOM     54  N   UNL A   1      38.516  33.351  31.106  1.00  0.00    -0.354 N 
ATOM     55  N   UNL A   1      43.044  32.510  31.313  1.00  0.00    -0.248 NA
ATOM     56  C   UNL A   1      43.382  33.309  29.123  1.00  0.00     0.031 C 
ATOM     57  C   UNL A   1      39.519  34.949  30.004  1.00  0.00     0.029 A 
ATOM     58  C   UNL A   1      39.727  33.957  30.958  1.00  0.00     0.049 A 
ATOM     59  H   UNL A   1      38.192  32.882  31.909  1.00  0.00     0.167 HD
ATOM     60  C   UNL A   1      42.026  33.372  30.983  1.00  0.00     0.074 A 
ATOM     61  C   UNL A   1      42.323  33.898  29.658  1.00  0.00     0.031 C 
ATOM     62  C   UNL A   1      40.837  33.350  31.629  1.00  0.00     0.037 A 
BRANCH  49  63
ATOM     63  C   UNL A   1      35.490  32.897  30.442  1.00  0.00     0.064 A 
ATOM     64  C   UNL A   1      34.713  33.968  29.917  1.00  0.00     0.173 A 
ATOM     65  C   UNL A   1      35.248  32.582  31.787  1.00  0.00     0.173 A 
ATOM     66  F   UNL A   1      34.779  34.293  28.617  1.00  0.00    -0.203 F 
ATOM     67  C   UNL A   1      33.943  34.800  30.729  1.00  0.00     0.198 A 
ATOM     68  C   UNL A   1      34.411  33.377  32.584  1.00  0.00     0.198 A 
ATOM     69  F   UNL A   1      35.888  31.573  32.389  1.00  0.00    -0.203 F 
ATOM     70  F   UNL A   1      33.398  35.916  30.220  1.00  0.00    -0.200 F 
ATOM     71  C   UNL A   1      33.812  34.518  32.072  1.00  0.00     0.200 A 
ATOM     72  F   UNL A   1      34.255  33.082  33.882  1.00  0.00    -0.200 F 
ATOM     73  F   UNL A   1      33.138  35.353  32.874  1.00  0.00    -0.200 F 
ENDBRANCH  49  63
BRANCH  50  74
ATOM     74  C   UNL A   1      46.000  31.477  29.676  1.00  0.00     0.064 A 
ATOM     75  C   UNL A   1      46.925  31.630  30.712  1.00  0.00     0.173 A 
ATOM     76  C   UNL A   1      46.587  31.457  28.372  1.00  0.00     0.173 A 
ATOM     77  F   UNL A   1      46.519  31.804  31.974  1.00  0.00    -0.203 F 
ATOM     78  C   UNL A   1      48.317  31.617  30.477  1.00  0.00     0.198 A 
ATOM     79  C   UNL A   1      47.962  31.390  28.142  1.00  0.00     0.198 A 
ATOM     80  F   UNL A   1      45.835  31.481  27.263  1.00  0.00    -0.203 F 
ATOM     81  F   UNL A   1      49.167  31.747  31.506  1.00  0.00    -0.200 F 
ATOM     82  C   UNL A   1      48.833  31.446  29.201  1.00  0.00     0.200 A 
ATOM     83  F   UNL A   1      48.425  31.239  26.892  1.00  0.00    -0.200 F 
ATOM     84  F   UNL A   1      50.153  31.348  28.995  1.00  0.00    -0.200 F 
ENDBRANCH  50  74
BRANCH  62  85
ATOM     85  C   UNL A   1      40.739  32.315  32.733  1.00  0.00     0.064 A 
ATOM     86  C   UNL A   1      41.253  32.570  34.006  1.00  0.00     0.173 A 
ATOM     87  C   UNL A   1      40.230  31.016  32.517  1.00  0.00     0.173 A 
ATOM     88  F   UNL A   1      41.755  33.779  34.292  1.00  0.00    -0.203 F 
ATOM     89  C   UNL A   1      41.247  31.587  35.003  1.00  0.00     0.198 A 
ATOM     90  C   UNL A   1      40.218  30.036  33.509  1.00  0.00     0.198 A 
ATOM     91  F   UNL A   1      39.698  30.685  31.340  1.00  0.00    -0.203 F 
ATOM     92  F   UNL A   1      41.736  31.869  36.218  1.00  0.00    -0.200 F 
ATOM     93  C   UNL A   1      40.730  30.322  34.756  1.00  0.00     0.200 A 
ATOM     94  F   UNL A   1      39.692  28.827  33.253  1.00  0.00    -0.200 F 
ATOM     95  F   UNL A   1      40.710  29.392  35.720  1.00  0.00    -0.200 F 
ENDBRANCH  62  85
ENDBRANCH  36  37
ENDBRANCH  28  31
ENDBRANCH  26  27
ENDBRANCH  25  26
ENDBRANCH   1  25
TORSDOF 14
ENDMDL
MODEL 3
REMARK VINA RESULT:     -12.9      1.322      2.218
REMARK SMILES CC(=O)c1c[nH]c(C(=O)N[C@H]2C=C[C@H](C(=O)NCCCCNC(=O)c3ccc(-c4c5nc(c(-c6c(F)c(F)c(F)c(F)c6F)c6ccc([nH]6)c(-c6c(F)c(F)c(F)c(F)c6F)c6nc(c(-c7c(F)c(F)c(F)c(F)c7F)c7ccc4[nH]7)C=C6)C=C5)cc3)C2)c1
REMARK SMILES IDX 19 1 18 2 17 3 15 4 16 5 14 7 11 8 12 9 88 10 13 11 10 12
REMARK SMILES IDX 8 13 9 14 7 16 4 17 5 18 89 19 6 20 2 22 1 23 3 24 20 25
REMARK SMILES IDX 21 26 22 27 23 28 24 30 25 31 26 32 87 33 27 34 86 35 28 36
REMARK SMILES IDX 29 37 30 38 80 39 31 40 85 41 79 42 81 43 32 44 84 45 78 46
REMARK SMILES IDX 77 47 33 49 65 50 45 51 64 52 46 53 49 54 63 55 82 56 47 57
REMARK SMILES IDX 48 58 62 60 83 61 50 62 34 63 35 64 43 65 36 66 37 67 41 68
REMARK SMILES IDX 44 69 38 70 39 71 42 72 40 73 66 74 67 75 75 76 68 77 69 78
REMARK SMILES IDX 73 79 76 80 70 81 71 82 74 83 72 84 51 85 52 86 60 87 53 88
REMARK SMILES IDX 54 89 58 90 61 91 55 92 56 93 59 94 57 95
REMARK H PARENT 17 6 10 15 6 21 22 29 81 48 49 59
REMARK Flexibility Score: inf
ROOT
ATOM      1  C   UNL A   1      33.872  27.603  25.149  1.00  0.00     0.023 C 
ENDROOT
BRANCH   1   2
ATOM      2  C   UNL A   1      33.052  27.265  23.905  1.00  0.00     0.116 C 
BRANCH   2   3
ATOM      3  N   UNL A   1      31.638  27.095  24.198  1.00  0.00    -0.356 N 
ATOM      4  C   UNL A   1      30.956  25.991  24.630  1.00  0.00     0.227 C 
ATOM      5  O   UNL A   1      29.745  26.100  24.831  1.00  0.00    -0.274 OA
ATOM      6  H   UNL A   1      31.086  27.899  24.064  1.00  0.00     0.163 HD
BRANCH   4   7
ATOM      7  C   UNL A   1      31.706  24.673  24.814  1.00  0.00     0.103 C 
ATOM      8  C   UNL A   1      30.984  22.578  25.878  1.00  0.00     0.106 C 
ATOM      9  C   UNL A   1      31.939  23.328  26.735  1.00  0.00    -0.006 C 
ATOM     10  C   UNL A   1      30.782  23.454  24.634  1.00  0.00     0.047 C 
ATOM     11  C   UNL A   1      32.281  24.499  26.189  1.00  0.00    -0.016 C 
BRANCH   8  12
ATOM     12  N   UNL A   1      31.386  21.193  25.713  1.00  0.00    -0.345 N 
ATOM     13  C   UNL A   1      32.514  20.514  25.342  1.00  0.00     0.268 C 
ATOM     14  O   UNL A   1      32.400  19.303  25.171  1.00  0.00    -0.268 OA
ATOM     15  H   UNL A   1      30.648  20.576  25.925  1.00  0.00     0.164 HD
BRANCH  13  16
ATOM     16  C   UNL A   1      33.753  21.189  25.048  1.00  0.00     0.105 A 
ATOM     17  C   UNL A   1      35.739  22.294  25.095  1.00  0.00     0.035 A 
ATOM     18  C   UNL A   1      35.067  22.647  23.941  1.00  0.00     0.094 A 
ATOM     19  C   UNL A   1      34.977  21.241  25.682  1.00  0.00     0.045 A 
ATOM     20  N   UNL A   1      33.914  21.907  23.880  1.00  0.00    -0.356 N 
ATOM     21  H   UNL A   1      33.291  21.891  23.118  1.00  0.00     0.166 HD
BRANCH  17  22
ATOM     22  C   UNL A   1      36.951  22.903  25.638  1.00  0.00     0.161 C 
ATOM     23  C   UNL A   1      38.226  22.098  25.609  1.00  0.00     0.093 C 
ATOM     24  O   UNL A   1      36.966  24.079  26.003  1.00  0.00    -0.294 OA
ENDBRANCH  17  22
ENDBRANCH  13  16
ENDBRANCH   8  12
ENDBRANCH   4   7
ENDBRANCH   2   3
ENDBRANCH   1   2
BRANCH   1  25
ATOM     25  C   UNL A   1      33.853  29.080  25.563  1.00  0.00     0.023 C 
BRANCH  25  26
ATOM     26  C   UNL A   1      34.195  29.335  27.035  1.00  0.00     0.116 C 
BRANCH  26  27
ATOM     27  N   UNL A   1      34.717  30.678  27.225  1.00  0.00    -0.352 N 
ATOM     28  C   UNL A   1      35.800  31.113  27.943  1.00  0.00     0.251 C 
ATOM     29  H   UNL A   1      34.213  31.388  26.766  1.00  0.00     0.163 HD
ATOM     30  O   UNL A   1      35.837  32.288  28.299  1.00  0.00    -0.269 OA
BRANCH  28  31
ATOM     31  C   UNL A   1      36.924  30.220  28.309  1.00  0.00     0.039 A 
ATOM     32  C   UNL A   1      37.982  30.097  27.394  1.00  0.00     0.014 A 
ATOM     33  C   UNL A   1      36.903  29.425  29.460  1.00  0.00     0.014 A 
ATOM     34  C   UNL A   1      39.044  29.235  27.657  1.00  0.00     0.010 A 
ATOM     35  C   UNL A   1      37.966  28.563  29.730  1.00  0.00     0.010 A 
ATOM     36  C   UNL A   1      39.052  28.494  28.844  1.00  0.00    -0.014 A 
BRANCH  36  37
ATOM     37  C   UNL A   1      40.326  27.875  29.290  1.00  0.00     0.031 A 
ATOM     38  C   UNL A   1      40.541  26.489  28.588  1.00  0.00     0.074 A 
ATOM     39  C   UNL A   1      41.075  28.594  30.186  1.00  0.00     0.049 A 
ATOM     40  N   UNL A   1      41.345  25.498  28.856  1.00  0.00    -0.248 NA
ATOM     41  C   UNL A   1      39.686  26.153  27.406  1.00  0.00     0.031 C 
ATOM     42  C   UNL A   1      40.715  29.919  30.744  1.00  0.00     0.029 A 
ATOM     43  N   UNL A   1      42.278  28.371  30.822  1.00  0.00    -0.354 N 
ATOM     44  C   UNL A   1      41.238  24.556  27.797  1.00  0.00     0.074 A 
ATOM     45  C   UNL A   1      40.135  24.969  26.989  1.00  0.00     0.031 C 
ATOM     46  C   UNL A   1      41.609  30.324  31.676  1.00  0.00     0.029 A 
ATOM     47  C   UNL A   1      42.653  29.331  31.812  1.00  0.00     0.049 A 
ATOM     48  H   UNL A   1      42.846  27.596  30.605  1.00  0.00     0.167 HD
ATOM     49  C   UNL A   1      42.165  23.583  27.550  1.00  0.00     0.037 A 
ATOM     50  C   UNL A   1      43.692  29.273  32.715  1.00  0.00     0.037 A 
ATOM     51  C   UNL A   1      43.172  23.592  28.549  1.00  0.00     0.049 A 
ATOM     52  C   UNL A   1      44.409  28.054  32.329  1.00  0.00     0.074 A 
ATOM     53  C   UNL A   1      43.422  22.939  29.726  1.00  0.00     0.029 A 
ATOM     54  N   UNL A   1      44.166  24.505  28.338  1.00  0.00    -0.354 N 
ATOM     55  N   UNL A   1      45.141  27.927  31.269  1.00  0.00    -0.248 NA
ATOM     56  C   UNL A   1      44.036  26.840  33.044  1.00  0.00     0.031 C 
ATOM     57  C   UNL A   1      44.546  23.594  30.288  1.00  0.00     0.029 A 
ATOM     58  C   UNL A   1      44.755  24.751  29.542  1.00  0.00     0.049 A 
ATOM     59  H   UNL A   1      44.411  24.909  27.475  1.00  0.00     0.167 HD
ATOM     60  C   UNL A   1      45.098  26.576  31.017  1.00  0.00     0.074 A 
ATOM     61  C   UNL A   1      44.481  25.944  32.175  1.00  0.00     0.031 C 
ATOM     62  C   UNL A   1      45.233  26.081  29.765  1.00  0.00     0.037 A 
BRANCH  49  63
ATOM     63  C   UNL A   1      42.525  22.785  26.300  1.00  0.00     0.064 A 
ATOM     64  C   UNL A   1      42.546  21.367  26.420  1.00  0.00     0.173 A 
ATOM     65  C   UNL A   1      43.277  23.311  25.241  1.00  0.00     0.173 A 
ATOM     66  F   UNL A   1      41.783  20.741  27.329  1.00  0.00    -0.203 F 
ATOM     67  C   UNL A   1      43.430  20.570  25.694  1.00  0.00     0.198 A 
ATOM     68  C   UNL A   1      44.109  22.494  24.460  1.00  0.00     0.198 A 
ATOM     69  F   UNL A   1      43.311  24.627  25.000  1.00  0.00    -0.203 F 
ATOM     70  F   UNL A   1      43.557  19.267  25.991  1.00  0.00    -0.200 F 
ATOM     71  C   UNL A   1      44.233  21.139  24.728  1.00  0.00     0.200 A 
ATOM     72  F   UNL A   1      44.862  23.043  23.498  1.00  0.00    -0.200 F 
ATOM     73  F   UNL A   1      45.139  20.397  24.080  1.00  0.00    -0.200 F 
ENDBRANCH  49  63
BRANCH  50  74
ATOM     74  C   UNL A   1      44.148  29.937  34.000  1.00  0.00     0.064 A 
ATOM     75  C   UNL A   1      43.443  29.970  35.206  1.00  0.00     0.173 A 
ATOM     76  C   UNL A   1      45.461  30.499  34.080  1.00  0.00     0.173 A 
ATOM     77  F   UNL A   1      42.157  29.609  35.259  1.00  0.00    -0.203 F 
ATOM     78  C   UNL A   1      44.046  30.392  36.411  1.00  0.00     0.198 A 
ATOM     79  C   UNL A   1      46.076  30.865  35.278  1.00  0.00     0.198 A 
ATOM     80  F   UNL A   1      46.209  30.694  32.984  1.00  0.00    -0.203 F 
ATOM     81  F   UNL A   1      43.336  30.387  37.548  1.00  0.00    -0.200 F 
ATOM     82  C   UNL A   1      45.373  30.789  36.455  1.00  0.00     0.200 A 
ATOM     83  F   UNL A   1      47.359  31.258  35.279  1.00  0.00    -0.200 F 
ATOM     84  F   UNL A   1      45.965  31.105  37.615  1.00  0.00    -0.200 F 
ENDBRANCH  50  74
BRANCH  62  85
ATOM     85  C   UNL A   1      45.444  27.133  28.692  1.00  0.00     0.064 A 
ATOM     86  C   UNL A   1      46.716  27.642  28.424  1.00  0.00     0.173 A 
ATOM     87  C   UNL A   1      44.376  27.726  27.986  1.00  0.00     0.173 A 
ATOM     88  F   UNL A   1      47.785  27.133  29.053  1.00  0.00    -0.203 F 
ATOM     89  C   UNL A   1      46.905  28.677  27.499  1.00  0.00     0.198 A 
ATOM     90  C   UNL A   1      44.560  28.752  27.060  1.00  0.00     0.198 A 
ATOM     91  F   UNL A   1      43.127  27.291  28.158  1.00  0.00    -0.203 F 
ATOM     92  F   UNL A   1      48.141  29.134  27.256  1.00  0.00    -0.200 F 
ATOM     93  C   UNL A   1      45.830  29.230  26.817  1.00  0.00     0.200 A 
ATOM     94  F   UNL A   1      43.507  29.257  26.396  1.00  0.00    -0.200 F 
ATOM     95  F   UNL A   1      46.020  30.207  25.920  1.00  0.00    -0.200 F 
ENDBRANCH  62  85
ENDBRANCH  36  37
ENDBRANCH  28  31
ENDBRANCH  26  27
ENDBRANCH  25  26
ENDBRANCH   1  25
TORSDOF 14
ENDMDL
