MODEL 1
REMARK VINA RESULT:     -12.9      0.000      0.000
REMARK SMILES CC1(C)CCSC[C@@]1(Nc1ccccc1Br)C(=O)NCCCCNC(=O)c1ccc(-c2c3nc(c(-c4c(F)c(F)c(F)c(F)c4F)c4ccc([nH]4)c(-c4c(F)c(F)c(F)c(F)c4F)c4nc(c(-c5c(F)c(F)c(F)c(F)c5F)c5ccc2[nH]5)C=C4)C=C3)cc1
REMARK SMILES IDX 21 1 20 2 19 3 17 4 18 5 8 7 1 8 2 9 3 10 4 11 5 12 7 13
REMARK SMILES IDX 6 14 9 15 10 17 11 18 15 19 12 20 14 21 16 22 13 23 22 24
REMARK SMILES IDX 23 25 24 26 25 27 26 29 27 30 28 31 89 32 29 33 88 34 30 35
REMARK SMILES IDX 31 36 32 37 82 38 33 39 87 40 81 41 83 42 34 43 86 44 80 45
REMARK SMILES IDX 79 46 35 48 67 49 47 50 66 51 48 52 51 53 65 54 84 55 49 56
REMARK SMILES IDX 50 57 64 59 85 60 52 61 36 62 37 63 45 64 38 65 39 66 43 67
REMARK SMILES IDX 46 68 40 69 41 70 44 71 42 72 68 73 69 74 77 75 70 76 71 77
REMARK SMILES IDX 75 78 78 79 72 80 73 81 76 82 74 83 53 84 54 85 62 86 55 87
REMARK SMILES IDX 56 88 60 89 63 90 57 91 58 92 61 93 59 94
REMARK H PARENT 19 6 9 16 24 28 83 47 51 58
REMARK Flexibility Score: inf
ROOT
ATOM      1  C   UNL A   1      31.792  28.464  27.504  1.00  0.00     0.023 C 
ENDROOT
BRANCH   1   2
ATOM      2  C   UNL A   1      32.197  27.160  26.830  1.00  0.00     0.116 C 
BRANCH   2   3
ATOM      3  N   UNL A   1      31.229  26.090  26.946  1.00  0.00    -0.354 N 
ATOM      4  C   UNL A   1      31.226  24.823  26.421  1.00  0.00     0.247 C 
ATOM      5  O   UNL A   1      30.478  24.044  27.025  1.00  0.00    -0.272 OA
ATOM      6  H   UNL A   1      30.442  26.309  27.495  1.00  0.00     0.163 HD
BRANCH   4   7
ATOM      7  C   UNL A   1      32.008  24.399  25.108  1.00  0.00     0.131 C 
ATOM      8  C   UNL A   1      33.889  23.260  26.610  1.00  0.00     0.014 C 
ATOM      9  C   UNL A   1      33.597  24.185  25.396  1.00  0.00    -0.002 C 
ATOM     10  C   UNL A   1      34.312  25.534  25.677  1.00  0.00     0.014 C 
ATOM     11  C   UNL A   1      34.341  23.562  24.163  1.00  0.00     0.020 C 
ATOM     12  C   UNL A   1      33.826  22.210  23.688  1.00  0.00     0.070 C 
ATOM     13  C   UNL A   1      31.398  23.035  24.656  1.00  0.00     0.108 C 
ATOM     14  S   UNL A   1      32.113  22.325  23.136  1.00  0.00    -0.159 SA
BRANCH   7  15
ATOM     15  N   UNL A   1      31.948  25.393  23.974  1.00  0.00    -0.369 N 
ATOM     16  H   UNL A   1      32.699  25.346  23.339  1.00  0.00     0.161 HD
BRANCH  15  17
ATOM     17  C   UNL A   1      31.001  26.360  23.688  1.00  0.00     0.049 A 
ATOM     18  C   UNL A   1      29.644  25.992  23.811  1.00  0.00     0.027 A 
ATOM     19  C   UNL A   1      31.274  27.692  23.330  1.00  0.00     0.041 A 
ATOM     20  C   UNL A   1      28.611  26.918  23.656  1.00  0.00     0.002 A 
ATOM     21  C   UNL A   1      30.234  28.623  23.169  1.00  0.00     0.018 A 
ATOM     22  Br  UNL A   1      33.029  28.317  22.967  1.00  0.00    -0.049 Br
ATOM     23  C   UNL A   1      28.907  28.240  23.348  1.00  0.00     0.001 A 
ENDBRANCH  15  17
ENDBRANCH   7  15
ENDBRANCH   4   7
ENDBRANCH   2   3
ENDBRANCH   1   2
BRANCH   1  24
ATOM     24  C   UNL A   1      31.524  29.634  26.552  1.00  0.00     0.023 C 
BRANCH  24  25
ATOM     25  C   UNL A   1      32.674  30.610  26.302  1.00  0.00     0.116 C 
BRANCH  25  26
ATOM     26  N   UNL A   1      32.522  31.931  26.891  1.00  0.00    -0.352 N 
ATOM     27  C   UNL A   1      33.442  32.631  27.647  1.00  0.00     0.251 C 
ATOM     28  H   UNL A   1      31.659  32.380  26.733  1.00  0.00     0.163 HD
ATOM     29  O   UNL A   1      33.188  33.747  28.075  1.00  0.00    -0.269 OA
BRANCH  27  30
ATOM     30  C   UNL A   1      34.730  31.981  27.987  1.00  0.00     0.039 A 
ATOM     31  C   UNL A   1      35.882  32.769  28.043  1.00  0.00     0.014 A 
ATOM     32  C   UNL A   1      34.779  30.631  28.346  1.00  0.00     0.014 A 
ATOM     33  C   UNL A   1      37.055  32.232  28.575  1.00  0.00     0.010 A 
ATOM     34  C   UNL A   1      35.927  30.119  28.944  1.00  0.00     0.010 A 
ATOM     35  C   UNL A   1      37.067  30.924  29.091  1.00  0.00    -0.014 A 
BRANCH  35  36
ATOM     36  C   UNL A   1      38.238  30.429  29.862  1.00  0.00     0.031 A 
ATOM     37  C   UNL A   1      38.459  30.848  31.285  1.00  0.00     0.074 A 
ATOM     38  C   UNL A   1      39.137  29.641  29.240  1.00  0.00     0.049 A 
ATOM     39  N   UNL A   1      39.404  30.482  32.115  1.00  0.00    -0.248 NA
ATOM     40  C   UNL A   1      37.515  31.827  31.842  1.00  0.00     0.031 C 
ATOM     41  C   UNL A   1      39.082  29.245  27.830  1.00  0.00     0.029 A 
ATOM     42  N   UNL A   1      40.271  29.026  29.711  1.00  0.00    -0.354 N 
ATOM     43  C   UNL A   1      39.171  31.188  33.287  1.00  0.00     0.074 A 
ATOM     44  C   UNL A   1      38.031  32.047  33.042  1.00  0.00     0.031 C 
ATOM     45  C   UNL A   1      40.107  28.421  27.562  1.00  0.00     0.029 A 
ATOM     46  C   UNL A   1      40.902  28.243  28.773  1.00  0.00     0.049 A 
ATOM     47  H   UNL A   1      40.601  29.135  30.632  1.00  0.00     0.167 HD
ATOM     48  C   UNL A   1      39.831  31.106  34.467  1.00  0.00     0.037 A 
ATOM     49  C   UNL A   1      41.987  27.453  28.886  1.00  0.00     0.037 A 
ATOM     50  C   UNL A   1      40.953  30.237  34.708  1.00  0.00     0.049 A 
ATOM     51  C   UNL A   1      42.666  27.335  30.222  1.00  0.00     0.074 A 
ATOM     52  C   UNL A   1      41.659  30.039  35.881  1.00  0.00     0.029 A 
ATOM     53  N   UNL A   1      41.535  29.421  33.748  1.00  0.00    -0.354 N 
ATOM     54  N   UNL A   1      42.375  27.932  31.352  1.00  0.00    -0.248 NA
ATOM     55  C   UNL A   1      43.810  26.417  30.304  1.00  0.00     0.031 C 
ATOM     56  C   UNL A   1      42.688  29.125  35.624  1.00  0.00     0.029 A 
ATOM     57  C   UNL A   1      42.598  28.724  34.300  1.00  0.00     0.049 A 
ATOM     58  H   UNL A   1      41.236  29.347  32.813  1.00  0.00     0.167 HD
ATOM     59  C   UNL A   1      43.284  27.449  32.283  1.00  0.00     0.074 A 
ATOM     60  C   UNL A   1      44.121  26.492  31.590  1.00  0.00     0.031 C 
ATOM     61  C   UNL A   1      43.415  27.772  33.593  1.00  0.00     0.037 A 
BRANCH  48  62
ATOM     62  C   UNL A   1      39.340  31.972  35.591  1.00  0.00     0.064 A 
ATOM     63  C   UNL A   1      39.756  33.307  35.721  1.00  0.00     0.173 A 
ATOM     64  C   UNL A   1      38.436  31.473  36.540  1.00  0.00     0.173 A 
ATOM     65  F   UNL A   1      40.628  33.830  34.846  1.00  0.00    -0.203 F 
ATOM     66  C   UNL A   1      39.312  34.098  36.777  1.00  0.00     0.198 A 
ATOM     67  C   UNL A   1      37.972  32.276  37.579  1.00  0.00     0.198 A 
ATOM     68  F   UNL A   1      38.001  30.206  36.460  1.00  0.00    -0.203 F 
ATOM     69  F   UNL A   1      39.766  35.352  36.910  1.00  0.00    -0.200 F 
ATOM     70  C   UNL A   1      38.417  33.584  37.702  1.00  0.00     0.200 A 
ATOM     71  F   UNL A   1      37.098  31.781  38.468  1.00  0.00    -0.200 F 
ATOM     72  F   UNL A   1      37.991  34.345  38.720  1.00  0.00    -0.200 F 
ENDBRANCH  48  62
BRANCH  49  73
ATOM     73  C   UNL A   1      42.453  26.662  27.717  1.00  0.00     0.064 A 
ATOM     74  C   UNL A   1      41.933  25.385  27.464  1.00  0.00     0.173 A 
ATOM     75  C   UNL A   1      43.413  27.163  26.828  1.00  0.00     0.173 A 
ATOM     76  F   UNL A   1      41.023  24.856  28.295  1.00  0.00    -0.203 F 
ATOM     77  C   UNL A   1      42.370  24.631  26.377  1.00  0.00     0.198 A 
ATOM     78  C   UNL A   1      43.832  26.418  25.726  1.00  0.00     0.198 A 
ATOM     79  F   UNL A   1      43.936  28.383  27.021  1.00  0.00    -0.203 F 
ATOM     80  F   UNL A   1      41.885  23.397  26.182  1.00  0.00    -0.200 F 
ATOM     81  C   UNL A   1      43.315  25.149  25.505  1.00  0.00     0.200 A 
ATOM     82  F   UNL A   1      44.735  26.929  24.878  1.00  0.00    -0.200 F 
ATOM     83  F   UNL A   1      43.732  24.427  24.457  1.00  0.00    -0.200 F 
ENDBRANCH  49  73
BRANCH  61  84
ATOM     84  C   UNL A   1      44.493  27.067  34.362  1.00  0.00     0.064 A 
ATOM     85  C   UNL A   1      45.782  27.606  34.479  1.00  0.00     0.173 A 
ATOM     86  C   UNL A   1      44.224  25.854  35.011  1.00  0.00     0.173 A 
ATOM     87  F   UNL A   1      46.091  28.758  33.863  1.00  0.00    -0.203 F 
ATOM     88  C   UNL A   1      46.772  26.941  35.197  1.00  0.00     0.198 A 
ATOM     89  C   UNL A   1      45.209  25.204  35.749  1.00  0.00     0.198 A 
ATOM     90  F   UNL A   1      43.005  25.299  34.931  1.00  0.00    -0.203 F 
ATOM     91  F   UNL A   1      48.010  27.450  35.256  1.00  0.00    -0.200 F 
ATOM     92  C   UNL A   1      46.483  25.745  35.836  1.00  0.00     0.200 A 
ATOM     93  F   UNL A   1      44.926  24.052  36.373  1.00  0.00    -0.200 F 
ATOM     94  F   UNL A   1      47.437  25.106  36.527  1.00  0.00    -0.200 F 
ENDBRANCH  61  84
ENDBRANCH  35  36
ENDBRANCH  27  30
ENDBRANCH  25  26
ENDBRANCH  24  25
ENDBRANCH   1  24
TORSDOF 13
ENDMDL
MODEL 2
REMARK VINA RESULT:     -12.8      0.147      1.599
REMARK SMILES CC1(C)CCSC[C@@]1(Nc1ccccc1Br)C(=O)NCCCCNC(=O)c1ccc(-c2c3nc(c(-c4c(F)c(F)c(F)c(F)c4F)c4ccc([nH]4)c(-c4c(F)c(F)c(F)c(F)c4F)c4nc(c(-c5c(F)c(F)c(F)c(F)c5F)c5ccc2[nH]5)C=C4)C=C3)cc1
REMARK SMILES IDX 21 1 20 2 19 3 17 4 18 5 8 7 1 8 2 9 3 10 4 11 5 12 7 13
REMARK SMILES IDX 6 14 9 15 10 17 11 18 15 19 12 20 14 21 16 22 13 23 22 24
REMARK SMILES IDX 23 25 24 26 25 27 26 29 27 30 28 31 89 32 29 33 88 34 30 35
REMARK SMILES IDX 31 36 32 37 82 38 33 39 87 40 81 41 83 42 34 43 86 44 80 45
REMARK SMILES IDX 79 46 35 48 67 49 47 50 66 51 48 52 51 53 65 54 84 55 49 56
REMARK SMILES IDX 50 57 64 59 85 60 52 61 36 62 37 63 45 64 38 65 39 66 43 67
REMARK SMILES IDX 46 68 40 69 41 70 44 71 42 72 68 73 69 74 77 75 70 76 71 77
REMARK SMILES IDX 75 78 78 79 72 80 73 81 76 82 74 83 53 84 54 85 62 86 55 87
REMARK SMILES IDX 56 88 60 89 63 90 57 91 58 92 61 93 59 94
REMARK H PARENT 19 6 9 16 24 28 83 47 51 58
REMARK Flexibility Score: inf
ROOT
ATOM      1  C   UNL A   1      32.059  28.411  27.507  1.00  0.00     0.023 C 
ENDROOT
BRANCH   1   2
ATOM      2  C   UNL A   1      32.377  27.089  26.819  1.00  0.00     0.116 C 
BRANCH   2   3
ATOM      3  N   UNL A   1      31.340  26.085  26.924  1.00  0.00    -0.354 N 
ATOM      4  C   UNL A   1      31.264  24.817  26.405  1.00  0.00     0.247 C 
ATOM      5  O   UNL A   1      30.457  24.093  27.000  1.00  0.00    -0.272 OA
ATOM      6  H   UNL A   1      30.559  26.358  27.457  1.00  0.00     0.163 HD
BRANCH   4   7
ATOM      7  C   UNL A   1      32.039  24.335  25.108  1.00  0.00     0.131 C 
ATOM      8  C   UNL A   1      33.915  23.243  26.650  1.00  0.00     0.014 C 
ATOM      9  C   UNL A   1      33.627  24.122  25.401  1.00  0.00    -0.002 C 
ATOM     10  C   UNL A   1      34.353  25.475  25.626  1.00  0.00     0.014 C 
ATOM     11  C   UNL A   1      34.363  23.445  24.192  1.00  0.00     0.020 C 
ATOM     12  C   UNL A   1      33.837  22.079  23.772  1.00  0.00     0.070 C 
ATOM     13  C   UNL A   1      31.418  22.960  24.713  1.00  0.00     0.108 C 
ATOM     14  S   UNL A   1      32.124  22.184  23.221  1.00  0.00    -0.159 SA
BRANCH   7  15
ATOM     15  N   UNL A   1      31.984  25.284  23.935  1.00  0.00    -0.369 N 
ATOM     16  H   UNL A   1      32.687  25.152  23.260  1.00  0.00     0.161 HD
BRANCH  15  17
ATOM     17  C   UNL A   1      31.097  26.310  23.663  1.00  0.00     0.049 A 
ATOM     18  C   UNL A   1      29.720  26.013  23.746  1.00  0.00     0.027 A 
ATOM     19  C   UNL A   1      31.449  27.636  23.356  1.00  0.00     0.041 A 
ATOM     20  C   UNL A   1      28.742  27.000  23.602  1.00  0.00     0.002 A 
ATOM     21  C   UNL A   1      30.466  28.628  23.206  1.00  0.00     0.018 A 
ATOM     22  Br  UNL A   1      33.244  28.175  23.050  1.00  0.00    -0.049 Br
ATOM     23  C   UNL A   1      29.116  28.312  23.345  1.00  0.00     0.001 A 
ENDBRANCH  15  17
ENDBRANCH   7  15
ENDBRANCH   4   7
ENDBRANCH   2   3
ENDBRANCH   1   2
BRANCH   1  24
ATOM     24  C   UNL A   1      31.679  29.559  26.568  1.00  0.00     0.023 C 
BRANCH  24  25
ATOM     25  C   UNL A   1      32.761  30.590  26.248  1.00  0.00     0.116 C 
BRANCH  25  26
ATOM     26  N   UNL A   1      32.591  31.897  26.861  1.00  0.00    -0.352 N 
ATOM     27  C   UNL A   1      33.500  32.596  27.631  1.00  0.00     0.251 C 
ATOM     28  H   UNL A   1      31.723  32.338  26.709  1.00  0.00     0.163 HD
ATOM     29  O   UNL A   1      33.231  33.700  28.079  1.00  0.00    -0.269 OA
BRANCH  27  30
ATOM     30  C   UNL A   1      34.797  31.956  27.960  1.00  0.00     0.039 A 
ATOM     31  C   UNL A   1      35.933  32.762  28.059  1.00  0.00     0.014 A 
ATOM     32  C   UNL A   1      34.867  30.595  28.270  1.00  0.00     0.014 A 
ATOM     33  C   UNL A   1      37.111  32.226  28.584  1.00  0.00     0.010 A 
ATOM     34  C   UNL A   1      36.018  30.081  28.861  1.00  0.00     0.010 A 
ATOM     35  C   UNL A   1      37.141  30.901  29.051  1.00  0.00    -0.014 A 
BRANCH  35  36
ATOM     36  C   UNL A   1      38.312  30.398  29.815  1.00  0.00     0.031 A 
ATOM     37  C   UNL A   1      38.549  30.823  31.235  1.00  0.00     0.074 A 
ATOM     38  C   UNL A   1      39.199  29.597  29.192  1.00  0.00     0.049 A 
ATOM     39  N   UNL A   1      39.496  30.452  32.059  1.00  0.00    -0.248 NA
ATOM     40  C   UNL A   1      37.619  31.814  31.793  1.00  0.00     0.031 C 
ATOM     41  C   UNL A   1      39.130  29.194  27.785  1.00  0.00     0.029 A 
ATOM     42  N   UNL A   1      40.330  28.974  29.658  1.00  0.00    -0.354 N 
ATOM     43  C   UNL A   1      39.279  31.167  33.230  1.00  0.00     0.074 A 
ATOM     44  C   UNL A   1      38.146  32.036  32.988  1.00  0.00     0.031 C 
ATOM     45  C   UNL A   1      40.144  28.359  27.514  1.00  0.00     0.029 A 
ATOM     46  C   UNL A   1      40.946  28.180  28.720  1.00  0.00     0.049 A 
ATOM     47  H   UNL A   1      40.669  29.085  30.575  1.00  0.00     0.167 HD
ATOM     48  C   UNL A   1      39.947  31.085  34.405  1.00  0.00     0.037 A 
ATOM     49  C   UNL A   1      42.024  27.380  28.829  1.00  0.00     0.037 A 
ATOM     50  C   UNL A   1      41.062  30.207  34.642  1.00  0.00     0.049 A 
ATOM     51  C   UNL A   1      42.712  27.262  30.160  1.00  0.00     0.074 A 
ATOM     52  C   UNL A   1      41.775  30.008  35.811  1.00  0.00     0.029 A 
ATOM     53  N   UNL A   1      41.629  29.379  33.683  1.00  0.00    -0.354 N 
ATOM     54  N   UNL A   1      42.436  27.868  31.290  1.00  0.00    -0.248 NA
ATOM     55  C   UNL A   1      43.847  26.333  30.239  1.00  0.00     0.031 C 
ATOM     56  C   UNL A   1      42.793  29.082  35.551  1.00  0.00     0.029 A 
ATOM     57  C   UNL A   1      42.689  28.675  34.231  1.00  0.00     0.049 A 
ATOM     58  H   UNL A   1      41.322  29.303  32.751  1.00  0.00     0.167 HD
ATOM     59  C   UNL A   1      43.347  27.381  32.216  1.00  0.00     0.074 A 
ATOM     60  C   UNL A   1      44.169  26.412  31.522  1.00  0.00     0.031 C 
ATOM     61  C   UNL A   1      43.491  27.711  33.523  1.00  0.00     0.037 A 
BRANCH  48  62
ATOM     62  C   UNL A   1      39.473  31.963  35.528  1.00  0.00     0.064 A 
ATOM     63  C   UNL A   1      38.521  31.513  36.455  1.00  0.00     0.173 A 
ATOM     64  C   UNL A   1      39.984  33.259  35.689  1.00  0.00     0.173 A 
ATOM     65  F   UNL A   1      37.991  30.286  36.339  1.00  0.00    -0.203 F 
ATOM     66  C   UNL A   1      38.071  32.341  37.481  1.00  0.00     0.198 A 
ATOM     67  C   UNL A   1      39.553  34.073  36.734  1.00  0.00     0.198 A 
ATOM     68  F   UNL A   1      40.902  33.737  34.836  1.00  0.00    -0.203 F 
ATOM     69  F   UNL A   1      37.121  31.908  38.321  1.00  0.00    -0.200 F 
ATOM     70  C   UNL A   1      38.591  33.617  37.623  1.00  0.00     0.200 A 
ATOM     71  F   UNL A   1      40.065  35.304  36.876  1.00  0.00    -0.200 F 
ATOM     72  F   UNL A   1      38.158  34.414  38.610  1.00  0.00    -0.200 F 
ENDBRANCH  48  62
BRANCH  49  73
ATOM     73  C   UNL A   1      42.473  26.577  27.661  1.00  0.00     0.064 A 
ATOM     74  C   UNL A   1      41.905  25.323  27.393  1.00  0.00     0.173 A 
ATOM     75  C   UNL A   1      43.465  27.044  26.788  1.00  0.00     0.173 A 
ATOM     76  F   UNL A   1      40.963  24.827  28.208  1.00  0.00    -0.203 F 
ATOM     77  C   UNL A   1      42.326  24.559  26.307  1.00  0.00     0.198 A 
ATOM     78  C   UNL A   1      43.868  26.289  25.687  1.00  0.00     0.198 A 
ATOM     79  F   UNL A   1      44.034  28.241  26.996  1.00  0.00    -0.203 F 
ATOM     80  F   UNL A   1      41.793  23.347  26.097  1.00  0.00    -0.200 F 
ATOM     81  C   UNL A   1      43.303  25.044  25.451  1.00  0.00     0.200 A 
ATOM     82  F   UNL A   1      44.803  26.768  24.855  1.00  0.00    -0.200 F 
ATOM     83  F   UNL A   1      43.704  24.311  24.404  1.00  0.00    -0.200 F 
ENDBRANCH  49  73
BRANCH  61  84
ATOM     84  C   UNL A   1      44.567  26.999  34.288  1.00  0.00     0.064 A 
ATOM     85  C   UNL A   1      44.327  25.766  34.913  1.00  0.00     0.173 A 
ATOM     86  C   UNL A   1      45.856  27.541  34.374  1.00  0.00     0.173 A 
ATOM     87  F   UNL A   1      43.105  25.214  34.872  1.00  0.00    -0.203 F 
ATOM     88  C   UNL A   1      45.335  25.115  35.620  1.00  0.00     0.198 A 
ATOM     89  C   UNL A   1      46.869  26.877  35.059  1.00  0.00     0.198 A 
ATOM     90  F   UNL A   1      46.136  28.717  33.790  1.00  0.00    -0.203 F 
ATOM     91  F   UNL A   1      45.072  23.963  36.250  1.00  0.00    -0.200 F 
ATOM     92  C   UNL A   1      46.605  25.668  35.687  1.00  0.00     0.200 A 
ATOM     93  F   UNL A   1      48.098  27.407  35.117  1.00  0.00    -0.200 F 
ATOM     94  F   UNL A   1      47.574  25.040  36.367  1.00  0.00    -0.200 F 
ENDBRANCH  61  84
ENDBRANCH  35  36
ENDBRANCH  27  30
ENDBRANCH  25  26
ENDBRANCH  24  25
ENDBRANCH   1  24
TORSDOF 13
ENDMDL
MODEL 3
REMARK VINA RESULT:     -12.5      4.222      9.580
REMARK SMILES CC1(C)CCSC[C@@]1(Nc1ccccc1Br)C(=O)NCCCCNC(=O)c1ccc(-c2c3nc(c(-c4c(F)c(F)c(F)c(F)c4F)c4ccc([nH]4)c(-c4c(F)c(F)c(F)c(F)c4F)c4nc(c(-c5c(F)c(F)c(F)c(F)c5F)c5ccc2[nH]5)C=C4)C=C3)cc1
REMARK SMILES IDX 21 1 20 2 19 3 17 4 18 5 8 7 1 8 2 9 3 10 4 11 5 12 7 13
REMARK SMILES IDX 6 14 9 15 10 17 11 18 15 19 12 20 14 21 16 22 13 23 22 24
REMARK SMILES IDX 23 25 24 26 25 27 26 29 27 30 28 31 89 32 29 33 88 34 30 35
REMARK SMILES IDX 31 36 32 37 82 38 33 39 87 40 81 41 83 42 34 43 86 44 80 45
REMARK SMILES IDX 79 46 35 48 67 49 47 50 66 51 48 52 51 53 65 54 84 55 49 56
REMARK SMILES IDX 50 57 64 59 85 60 52 61 36 62 37 63 45 64 38 65 39 66 43 67
REMARK SMILES IDX 46 68 40 69 41 70 44 71 42 72 68 73 69 74 77 75 70 76 71 77
REMARK SMILES IDX 75 78 78 79 72 80 73 81 76 82 74 83 53 84 54 85 62 86 55 87
REMARK SMILES IDX 56 88 60 89 63 90 57 91 58 92 61 93 59 94
REMARK H PARENT 19 6 9 16 24 28 83 47 51 58
REMARK Flexibility Score: inf
ROOT
ATOM      1  C   UNL A   1      35.079  22.293  26.886  1.00  0.00     0.023 C 
ENDROOT
BRANCH   1   2
ATOM      2  C   UNL A   1      34.352  23.563  26.465  1.00  0.00     0.116 C 
BRANCH   2   3
ATOM      3  N   UNL A   1      32.913  23.436  26.369  1.00  0.00    -0.354 N 
ATOM      4  C   UNL A   1      32.047  23.794  25.368  1.00  0.00     0.247 C 
ATOM      5  O   UNL A   1      30.965  23.196  25.419  1.00  0.00    -0.272 OA
ATOM      6  H   UNL A   1      32.486  23.022  27.153  1.00  0.00     0.163 HD
BRANCH   4   7
ATOM      7  C   UNL A   1      32.333  24.937  24.305  1.00  0.00     0.131 C 
ATOM      8  C   UNL A   1      32.506  23.094  22.390  1.00  0.00     0.014 C 
ATOM      9  C   UNL A   1      33.146  24.366  23.013  1.00  0.00    -0.002 C 
ATOM     10  C   UNL A   1      34.610  24.001  23.376  1.00  0.00     0.014 C 
ATOM     11  C   UNL A   1      33.248  25.429  21.865  1.00  0.00     0.020 C 
ATOM     12  C   UNL A   1      31.925  25.950  21.319  1.00  0.00     0.070 C 
ATOM     13  C   UNL A   1      30.940  25.450  23.827  1.00  0.00     0.108 C 
ATOM     14  S   UNL A   1      30.983  26.799  22.600  1.00  0.00    -0.159 SA
BRANCH   7  15
ATOM     15  N   UNL A   1      33.165  26.091  24.809  1.00  0.00    -0.369 N 
ATOM     16  H   UNL A   1      34.132  26.010  24.643  1.00  0.00     0.161 HD
BRANCH  15  17
ATOM     17  C   UNL A   1      32.779  27.245  25.466  1.00  0.00     0.049 A 
ATOM     18  C   UNL A   1      32.081  27.093  26.683  1.00  0.00     0.027 A 
ATOM     19  C   UNL A   1      33.062  28.557  25.049  1.00  0.00     0.041 A 
ATOM     20  C   UNL A   1      31.744  28.188  27.482  1.00  0.00     0.002 A 
ATOM     21  C   UNL A   1      32.719  29.659  25.850  1.00  0.00     0.018 A 
ATOM     22  Br  UNL A   1      33.850  28.951  23.367  1.00  0.00    -0.049 Br
ATOM     23  C   UNL A   1      32.075  29.472  27.072  1.00  0.00     0.001 A 
ENDBRANCH  15  17
ENDBRANCH   7  15
ENDBRANCH   4   7
ENDBRANCH   2   3
ENDBRANCH   1   2
BRANCH   1  24
ATOM     24  C   UNL A   1      35.692  21.483  25.741  1.00  0.00     0.023 C 
BRANCH  24  25
ATOM     25  C   UNL A   1      37.065  21.919  25.230  1.00  0.00     0.116 C 
BRANCH  25  26
ATOM     26  N   UNL A   1      38.131  20.939  25.363  1.00  0.00    -0.352 N 
ATOM     27  C   UNL A   1      39.325  21.073  26.046  1.00  0.00     0.251 C 
ATOM     28  H   UNL A   1      37.985  20.075  24.912  1.00  0.00     0.163 HD
ATOM     29  O   UNL A   1      40.133  20.160  26.088  1.00  0.00    -0.269 OA
BRANCH  27  30
ATOM     30  C   UNL A   1      39.640  22.375  26.682  1.00  0.00     0.039 A 
ATOM     31  C   UNL A   1      40.616  22.411  27.680  1.00  0.00     0.014 A 
ATOM     32  C   UNL A   1      39.053  23.557  26.225  1.00  0.00     0.014 A 
ATOM     33  C   UNL A   1      41.089  23.644  28.133  1.00  0.00     0.010 A 
ATOM     34  C   UNL A   1      39.576  24.785  26.623  1.00  0.00     0.010 A 
ATOM     35  C   UNL A   1      40.620  24.839  27.559  1.00  0.00    -0.014 A 
BRANCH  35  36
ATOM     36  C   UNL A   1      41.279  26.134  27.870  1.00  0.00     0.031 A 
ATOM     37  C   UNL A   1      42.678  26.419  27.411  1.00  0.00     0.074 A 
ATOM     38  C   UNL A   1      40.620  27.032  28.629  1.00  0.00     0.049 A 
ATOM     39  N   UNL A   1      43.390  27.508  27.561  1.00  0.00    -0.248 NA
ATOM     40  C   UNL A   1      43.383  25.331  26.718  1.00  0.00     0.031 C 
ATOM     41  C   UNL A   1      39.293  26.829  29.216  1.00  0.00     0.029 A 
ATOM     42  N   UNL A   1      40.969  28.296  29.034  1.00  0.00    -0.354 N 
ATOM     43  C   UNL A   1      44.624  27.235  26.987  1.00  0.00     0.074 A 
ATOM     44  C   UNL A   1      44.585  25.859  26.538  1.00  0.00     0.031 C 
ATOM     45  C   UNL A   1      38.923  27.942  29.868  1.00  0.00     0.029 A 
ATOM     46  C   UNL A   1      39.990  28.932  29.760  1.00  0.00     0.049 A 
ATOM     47  H   UNL A   1      41.838  28.709  28.825  1.00  0.00     0.167 HD
ATOM     48  C   UNL A   1      45.682  28.065  26.825  1.00  0.00     0.037 A 
ATOM     49  C   UNL A   1      39.950  30.180  30.262  1.00  0.00     0.037 A 
ATOM     50  C   UNL A   1      45.708  29.437  27.259  1.00  0.00     0.049 A 
ATOM     51  C   UNL A   1      41.113  31.101  30.018  1.00  0.00     0.074 A 
ATOM     52  C   UNL A   1      46.708  30.379  27.097  1.00  0.00     0.029 A 
ATOM     53  N   UNL A   1      44.678  30.063  27.948  1.00  0.00    -0.354 N 
ATOM     54  N   UNL A   1      42.237  30.863  29.385  1.00  0.00    -0.248 NA
ATOM     55  C   UNL A   1      40.995  32.470  30.538  1.00  0.00     0.031 C 
ATOM     56  C   UNL A   1      46.296  31.566  27.715  1.00  0.00     0.029 A 
ATOM     57  C   UNL A   1      45.023  31.375  28.227  1.00  0.00     0.049 A 
ATOM     58  H   UNL A   1      43.827  29.637  28.201  1.00  0.00     0.167 HD
ATOM     59  C   UNL A   1      42.950  32.053  29.413  1.00  0.00     0.074 A 
ATOM     60  C   UNL A   1      42.121  33.019  30.105  1.00  0.00     0.031 C 
ATOM     61  C   UNL A   1      44.181  32.321  28.913  1.00  0.00     0.037 A 
BRANCH  48  62
ATOM     62  C   UNL A   1      46.893  27.508  26.134  1.00  0.00     0.064 A 
ATOM     63  C   UNL A   1      47.906  26.852  26.850  1.00  0.00     0.173 A 
ATOM     64  C   UNL A   1      47.040  27.617  24.744  1.00  0.00     0.173 A 
ATOM     65  F   UNL A   1      47.821  26.731  28.184  1.00  0.00    -0.203 F 
ATOM     66  C   UNL A   1      49.037  26.356  26.205  1.00  0.00     0.198 A 
ATOM     67  C   UNL A   1      48.158  27.095  24.098  1.00  0.00     0.198 A 
ATOM     68  F   UNL A   1      46.099  28.229  24.009  1.00  0.00    -0.203 F 
ATOM     69  F   UNL A   1      50.016  25.782  26.918  1.00  0.00    -0.200 F 
ATOM     70  C   UNL A   1      49.159  26.474  24.830  1.00  0.00     0.200 A 
ATOM     71  F   UNL A   1      48.271  27.200  22.766  1.00  0.00    -0.200 F 
ATOM     72  F   UNL A   1      50.248  25.998  24.209  1.00  0.00    -0.200 F 
ENDBRANCH  48  62
BRANCH  49  73
ATOM     73  C   UNL A   1      38.739  30.652  30.984  1.00  0.00     0.064 A 
ATOM     74  C   UNL A   1      37.638  31.161  30.279  1.00  0.00     0.173 A 
ATOM     75  C   UNL A   1      38.650  30.596  32.381  1.00  0.00     0.173 A 
ATOM     76  F   UNL A   1      37.682  31.248  28.942  1.00  0.00    -0.203 F 
ATOM     77  C   UNL A   1      36.503  31.614  30.947  1.00  0.00     0.198 A 
ATOM     78  C   UNL A   1      37.503  31.027  33.047  1.00  0.00     0.198 A 
ATOM     79  F   UNL A   1      39.672  30.109  33.101  1.00  0.00    -0.203 F 
ATOM     80  F   UNL A   1      35.482  32.132  30.251  1.00  0.00    -0.200 F 
ATOM     81  C   UNL A   1      36.433  31.542  32.330  1.00  0.00     0.200 A 
ATOM     82  F   UNL A   1      37.434  30.942  34.382  1.00  0.00    -0.200 F 
ATOM     83  F   UNL A   1      35.339  31.973  32.971  1.00  0.00    -0.200 F 
ENDBRANCH  49  73
BRANCH  61  84
ATOM     84  C   UNL A   1      44.693  33.721  29.082  1.00  0.00     0.064 A 
ATOM     85  C   UNL A   1      45.459  34.091  30.197  1.00  0.00     0.173 A 
ATOM     86  C   UNL A   1      44.438  34.693  28.105  1.00  0.00     0.173 A 
ATOM     87  F   UNL A   1      45.716  33.199  31.166  1.00  0.00    -0.203 F 
ATOM     88  C   UNL A   1      45.929  35.393  30.340  1.00  0.00     0.198 A 
ATOM     89  C   UNL A   1      44.930  35.988  28.238  1.00  0.00     0.198 A 
ATOM     90  F   UNL A   1      43.713  34.386  27.018  1.00  0.00    -0.203 F 
ATOM     91  F   UNL A   1      46.617  35.738  31.437  1.00  0.00    -0.200 F 
ATOM     92  C   UNL A   1      45.669  36.338  29.359  1.00  0.00     0.200 A 
ATOM     93  F   UNL A   1      44.687  36.898  27.285  1.00  0.00    -0.200 F 
ATOM     94  F   UNL A   1      46.123  37.591  29.498  1.00  0.00    -0.200 F 
ENDBRANCH  61  84
ENDBRANCH  35  36
ENDBRANCH  27  30
ENDBRANCH  25  26
ENDBRANCH  24  25
ENDBRANCH   1  24
TORSDOF 13
ENDMDL
