MODEL 1
REMARK VINA RESULT:     -12.5      0.000      0.000
REMARK SMILES O=C(Cc1csc(SC[C@@H]2Cc3ccccc3S2)n1)NCCCCNC(=O)c1ccc(-c2c3nc(c(-c4c(F)c(F)c(F)c(F)c4F)c4ccc([nH]4)c(-c4c(F)c(F)c(F)c(F)c4F)c4nc(c(-c5c(F)c(F)c(F)c(F)c5F)c5ccc2[nH]5)C=C4)C=C3)cc1
REMARK SMILES IDX 21 1 20 2 1 3 2 4 3 6 4 7 5 8 19 9 6 10 7 11 8 12 9 13 10 14
REMARK SMILES IDX 11 15 18 16 12 17 17 18 13 19 16 20 14 21 15 22 22 23 23 24
REMARK SMILES IDX 24 25 25 26 26 27 27 29 28 30 29 31 90 32 30 33 89 34 31 35
REMARK SMILES IDX 32 36 33 37 83 38 34 39 88 40 82 41 84 42 35 43 87 44 81 45
REMARK SMILES IDX 80 46 36 48 68 49 48 50 67 51 49 52 52 53 66 54 85 55 50 56
REMARK SMILES IDX 51 57 65 59 86 60 53 61 37 62 38 63 46 64 39 65 40 66 44 67
REMARK SMILES IDX 47 68 41 69 42 70 45 71 43 72 69 73 70 74 78 75 71 76 72 77
REMARK SMILES IDX 76 78 79 79 73 80 74 81 77 82 75 83 54 84 55 85 63 86 56 87
REMARK SMILES IDX 57 88 61 89 64 90 58 91 59 92 62 93 60 94
REMARK H PARENT 20 5 25 28 84 47 52 58
REMARK Flexibility Score: inf
ROOT
ATOM      1  C   UNL A   1      31.618  29.868  25.064  1.00  0.00     0.116 C 
ENDROOT
BRANCH   1   2
ATOM      2  N   UNL A   1      32.147  28.541  24.847  1.00  0.00    -0.356 N 
ATOM      3  O   UNL A   1      33.655  29.147  23.240  1.00  0.00    -0.275 OA
ATOM      4  C   UNL A   1      33.176  28.280  23.972  1.00  0.00     0.226 C 
ATOM      5  H   UNL A   1      31.755  27.790  25.349  1.00  0.00     0.163 HD
BRANCH   4   6
ATOM      6  C   UNL A   1      33.590  26.822  23.841  1.00  0.00     0.157 C 
BRANCH   6   7
ATOM      7  C   UNL A   1      32.508  25.786  23.935  1.00  0.00     0.062 A 
ATOM      8  C   UNL A   1      31.668  25.428  22.895  1.00  0.00     0.092 A 
ATOM      9  N   UNL A   1      32.258  25.104  25.123  1.00  0.00    -0.234 NA
ATOM     10  S   UNL A   1      30.640  24.144  23.372  1.00  0.00    -0.116 S 
ATOM     11  C   UNL A   1      31.383  24.146  24.916  1.00  0.00     0.150 A 
BRANCH  11  12
ATOM     12  S   UNL A   1      30.968  22.975  26.143  1.00  0.00    -0.094 SA
BRANCH  12  13
ATOM     13  C   UNL A   1      32.448  21.901  26.206  1.00  0.00     0.092 C 
BRANCH  13  14
ATOM     14  C   UNL A   1      33.162  21.729  24.850  1.00  0.00     0.066 C 
ATOM     15  C   UNL A   1      32.377  20.811  23.880  1.00  0.00     0.052 C 
ATOM     16  S   UNL A   1      34.809  20.943  25.047  1.00  0.00    -0.121 SA
ATOM     17  C   UNL A   1      32.973  19.435  23.918  1.00  0.00    -0.033 A 
ATOM     18  C   UNL A   1      34.233  19.365  24.508  1.00  0.00     0.011 A 
ATOM     19  C   UNL A   1      32.409  18.303  23.337  1.00  0.00     0.005 A 
ATOM     20  C   UNL A   1      34.924  18.164  24.585  1.00  0.00     0.015 A 
ATOM     21  C   UNL A   1      33.104  17.093  23.391  1.00  0.00     0.000 A 
ATOM     22  C   UNL A   1      34.350  17.020  24.025  1.00  0.00     0.001 A 
ENDBRANCH  13  14
ENDBRANCH  12  13
ENDBRANCH  11  12
ENDBRANCH   6   7
ENDBRANCH   4   6
ENDBRANCH   1   2
BRANCH   1  23
ATOM     23  C   UNL A   1      31.851  30.380  26.486  1.00  0.00     0.023 C 
BRANCH  23  24
ATOM     24  C   UNL A   1      31.594  31.873  26.694  1.00  0.00     0.023 C 
BRANCH  24  25
ATOM     25  C   UNL A   1      32.729  32.661  27.335  1.00  0.00     0.116 C 
BRANCH  25  26
ATOM     26  N   UNL A   1      32.369  34.028  27.684  1.00  0.00    -0.352 N 
ATOM     27  C   UNL A   1      32.959  34.884  28.587  1.00  0.00     0.251 C 
ATOM     28  H   UNL A   1      31.591  34.394  27.205  1.00  0.00     0.163 HD
ATOM     29  O   UNL A   1      32.457  35.980  28.820  1.00  0.00    -0.269 OA
BRANCH  27  30
ATOM     30  C   UNL A   1      34.176  34.465  29.322  1.00  0.00     0.039 A 
ATOM     31  C   UNL A   1      35.447  34.671  28.784  1.00  0.00     0.014 A 
ATOM     32  C   UNL A   1      34.036  33.820  30.555  1.00  0.00     0.014 A 
ATOM     33  C   UNL A   1      36.553  34.071  29.381  1.00  0.00     0.010 A 
ATOM     34  C   UNL A   1      35.160  33.288  31.196  1.00  0.00     0.010 A 
ATOM     35  C   UNL A   1      36.420  33.355  30.582  1.00  0.00    -0.014 A 
BRANCH  35  36
ATOM     36  C   UNL A   1      37.602  32.652  31.152  1.00  0.00     0.031 A 
ATOM     37  C   UNL A   1      38.083  32.969  32.545  1.00  0.00     0.074 A 
ATOM     38  C   UNL A   1      38.195  31.669  30.447  1.00  0.00     0.049 A 
ATOM     39  N   UNL A   1      39.077  32.440  33.216  1.00  0.00    -0.248 NA
ATOM     40  C   UNL A   1      37.357  34.013  33.284  1.00  0.00     0.031 C 
ATOM     41  C   UNL A   1      37.809  31.248  29.100  1.00  0.00     0.029 A 
ATOM     42  N   UNL A   1      39.226  30.824  30.777  1.00  0.00    -0.354 N 
ATOM     43  C   UNL A   1      39.099  33.091  34.444  1.00  0.00     0.074 A 
ATOM     44  C   UNL A   1      38.042  34.077  34.418  1.00  0.00     0.031 C 
ATOM     45  C   UNL A   1      38.552  30.189  28.741  1.00  0.00     0.029 A 
ATOM     46  C   UNL A   1      39.505  29.892  29.806  1.00  0.00     0.049 A 
ATOM     47  H   UNL A   1      39.718  30.879  31.628  1.00  0.00     0.167 HD
ATOM     48  C   UNL A   1      39.915  32.874  35.502  1.00  0.00     0.037 A 
ATOM     49  C   UNL A   1      40.430  28.914  29.773  1.00  0.00     0.037 A 
ATOM     50  C   UNL A   1      40.952  31.876  35.543  1.00  0.00     0.049 A 
ATOM     51  C   UNL A   1      41.357  28.735  30.942  1.00  0.00     0.074 A 
ATOM     52  C   UNL A   1      41.828  31.586  36.576  1.00  0.00     0.029 A 
ATOM     53  N   UNL A   1      41.244  30.997  34.513  1.00  0.00    -0.354 N 
ATOM     54  N   UNL A   1      41.372  29.367  32.089  1.00  0.00    -0.248 NA
ATOM     55  C   UNL A   1      42.403  27.712  30.806  1.00  0.00     0.031 C 
ATOM     56  C   UNL A   1      42.670  30.551  36.159  1.00  0.00     0.029 A 
ATOM     57  C   UNL A   1      42.295  30.172  34.882  1.00  0.00     0.049 A 
ATOM     58  H   UNL A   1      40.775  30.963  33.648  1.00  0.00     0.167 HD
ATOM     59  C   UNL A   1      42.416  28.811  32.816  1.00  0.00     0.074 A 
ATOM     60  C   UNL A   1      42.999  27.776  31.989  1.00  0.00     0.031 C 
ATOM     61  C   UNL A   1      42.857  29.139  34.054  1.00  0.00     0.037 A 
BRANCH  48  62
ATOM     62  C   UNL A   1      39.726  33.723  36.725  1.00  0.00     0.064 A 
ATOM     63  C   UNL A   1      40.309  34.993  36.826  1.00  0.00     0.173 A 
ATOM     64  C   UNL A   1      38.874  33.305  37.758  1.00  0.00     0.173 A 
ATOM     65  F   UNL A   1      41.139  35.433  35.868  1.00  0.00    -0.203 F 
ATOM     66  C   UNL A   1      40.047  35.815  37.919  1.00  0.00     0.198 A 
ATOM     67  C   UNL A   1      38.597  34.138  38.839  1.00  0.00     0.198 A 
ATOM     68  F   UNL A   1      38.285  32.100  37.703  1.00  0.00    -0.203 F 
ATOM     69  F   UNL A   1      40.627  37.020  38.003  1.00  0.00    -0.200 F 
ATOM     70  C   UNL A   1      39.183  35.392  38.918  1.00  0.00     0.200 A 
ATOM     71  F   UNL A   1      37.750  33.733  39.796  1.00  0.00    -0.200 F 
ATOM     72  F   UNL A   1      38.914  36.194  39.957  1.00  0.00    -0.200 F 
ENDBRANCH  48  62
BRANCH  49  73
ATOM     73  C   UNL A   1      40.522  28.022  28.589  1.00  0.00     0.064 A 
ATOM     74  C   UNL A   1      39.854  26.790  28.564  1.00  0.00     0.173 A 
ATOM     75  C   UNL A   1      41.282  28.377  27.465  1.00  0.00     0.173 A 
ATOM     76  F   UNL A   1      39.135  26.396  29.624  1.00  0.00    -0.203 F 
ATOM     77  C   UNL A   1      39.952  25.942  27.463  1.00  0.00     0.198 A 
ATOM     78  C   UNL A   1      41.357  27.541  26.354  1.00  0.00     0.198 A 
ATOM     79  F   UNL A   1      41.942  29.544  27.442  1.00  0.00    -0.203 F 
ATOM     80  F   UNL A   1      39.336  24.753  27.479  1.00  0.00    -0.200 F 
ATOM     81  C   UNL A   1      40.698  26.321  26.356  1.00  0.00     0.200 A 
ATOM     82  F   UNL A   1      42.069  27.916  25.282  1.00  0.00    -0.200 F 
ATOM     83  F   UNL A   1      40.787  25.508  25.295  1.00  0.00    -0.200 F 
ENDBRANCH  49  73
BRANCH  61  84
ATOM     84  C   UNL A   1      44.013  28.360  34.604  1.00  0.00     0.064 A 
ATOM     85  C   UNL A   1      43.818  27.155  35.293  1.00  0.00     0.173 A 
ATOM     86  C   UNL A   1      45.331  28.790  34.386  1.00  0.00     0.173 A 
ATOM     87  F   UNL A   1      42.575  26.710  35.537  1.00  0.00    -0.203 F 
ATOM     88  C   UNL A   1      44.901  26.413  35.756  1.00  0.00     0.198 A 
ATOM     89  C   UNL A   1      46.411  28.034  34.830  1.00  0.00     0.198 A 
ATOM     90  F   UNL A   1      45.568  29.934  33.728  1.00  0.00    -0.203 F 
ATOM     91  F   UNL A   1      44.692  25.279  36.439  1.00  0.00    -0.200 F 
ATOM     92  C   UNL A   1      46.196  26.848  35.517  1.00  0.00     0.200 A 
ATOM     93  F   UNL A   1      47.662  28.451  34.589  1.00  0.00    -0.200 F 
ATOM     94  F   UNL A   1      47.238  26.127  35.954  1.00  0.00    -0.200 F 
ENDBRANCH  61  84
ENDBRANCH  35  36
ENDBRANCH  27  30
ENDBRANCH  25  26
ENDBRANCH  24  25
ENDBRANCH  23  24
ENDBRANCH   1  23
TORSDOF 15
ENDMDL
MODEL 2
REMARK VINA RESULT:     -12.4      5.758     11.498
REMARK SMILES O=C(Cc1csc(SC[C@@H]2Cc3ccccc3S2)n1)NCCCCNC(=O)c1ccc(-c2c3nc(c(-c4c(F)c(F)c(F)c(F)c4F)c4ccc([nH]4)c(-c4c(F)c(F)c(F)c(F)c4F)c4nc(c(-c5c(F)c(F)c(F)c(F)c5F)c5ccc2[nH]5)C=C4)C=C3)cc1
REMARK SMILES IDX 21 1 20 2 1 3 2 4 3 6 4 7 5 8 19 9 6 10 7 11 8 12 9 13 10 14
REMARK SMILES IDX 11 15 18 16 12 17 17 18 13 19 16 20 14 21 15 22 22 23 23 24
REMARK SMILES IDX 24 25 25 26 26 27 27 29 28 30 29 31 90 32 30 33 89 34 31 35
REMARK SMILES IDX 32 36 33 37 83 38 34 39 88 40 82 41 84 42 35 43 87 44 81 45
REMARK SMILES IDX 80 46 36 48 68 49 48 50 67 51 49 52 52 53 66 54 85 55 50 56
REMARK SMILES IDX 51 57 65 59 86 60 53 61 37 62 38 63 46 64 39 65 40 66 44 67
REMARK SMILES IDX 47 68 41 69 42 70 45 71 43 72 69 73 70 74 78 75 71 76 72 77
REMARK SMILES IDX 76 78 79 79 73 80 74 81 77 82 75 83 54 84 55 85 63 86 56 87
REMARK SMILES IDX 57 88 61 89 64 90 58 91 59 92 62 93 60 94
REMARK H PARENT 20 5 25 28 84 47 52 58
REMARK Flexibility Score: inf
ROOT
ATOM      1  C   UNL A   1      36.192  21.349  25.749  1.00  0.00     0.116 C 
ENDROOT
BRANCH   1   2
ATOM      2  N   UNL A   1      34.909  21.717  25.196  1.00  0.00    -0.356 N 
ATOM      3  O   UNL A   1      34.228  19.584  24.738  1.00  0.00    -0.275 OA
ATOM      4  C   UNL A   1      33.986  20.792  24.767  1.00  0.00     0.226 C 
ATOM      5  H   UNL A   1      34.685  22.673  25.123  1.00  0.00     0.163 HD
BRANCH   4   6
ATOM      6  C   UNL A   1      32.698  21.351  24.182  1.00  0.00     0.157 C 
BRANCH   6   7
ATOM      7  C   UNL A   1      32.192  22.648  24.745  1.00  0.00     0.062 A 
ATOM      8  C   UNL A   1      30.957  22.816  25.346  1.00  0.00     0.092 A 
ATOM      9  N   UNL A   1      32.954  23.812  24.681  1.00  0.00    -0.234 NA
ATOM     10  S   UNL A   1      30.798  24.413  25.944  1.00  0.00    -0.116 S 
ATOM     11  C   UNL A   1      32.375  24.766  25.374  1.00  0.00     0.150 A 
BRANCH  11  12
ATOM     12  S   UNL A   1      33.138  26.310  25.662  1.00  0.00    -0.094 SA
BRANCH  12  13
ATOM     13  C   UNL A   1      31.770  27.499  25.410  1.00  0.00     0.092 C 
BRANCH  13  14
ATOM     14  C   UNL A   1      31.741  28.141  24.006  1.00  0.00     0.066 C 
ATOM     15  C   UNL A   1      31.402  29.652  24.053  1.00  0.00     0.052 C 
ATOM     16  S   UNL A   1      30.455  27.380  22.941  1.00  0.00    -0.121 SA
ATOM     17  C   UNL A   1      29.949  29.837  23.733  1.00  0.00    -0.033 A 
ATOM     18  C   UNL A   1      29.335  28.726  23.158  1.00  0.00     0.011 A 
ATOM     19  C   UNL A   1      29.244  31.028  23.878  1.00  0.00     0.005 A 
ATOM     20  C   UNL A   1      28.001  28.760  22.777  1.00  0.00     0.015 A 
ATOM     21  C   UNL A   1      27.907  31.079  23.479  1.00  0.00     0.000 A 
ATOM     22  C   UNL A   1      27.284  29.947  22.944  1.00  0.00     0.001 A 
ENDBRANCH  13  14
ENDBRANCH  12  13
ENDBRANCH  11  12
ENDBRANCH   6   7
ENDBRANCH   4   6
ENDBRANCH   1   2
BRANCH   1  23
ATOM     23  C   UNL A   1      37.251  21.081  24.679  1.00  0.00     0.023 C 
BRANCH  23  24
ATOM     24  C   UNL A   1      38.139  19.861  24.928  1.00  0.00     0.023 C 
BRANCH  24  25
ATOM     25  C   UNL A   1      39.325  20.080  25.859  1.00  0.00     0.116 C 
BRANCH  25  26
ATOM     26  N   UNL A   1      40.294  18.994  25.838  1.00  0.00    -0.352 N 
ATOM     27  C   UNL A   1      41.657  19.034  26.026  1.00  0.00     0.251 C 
ATOM     28  H   UNL A   1      39.920  18.099  25.665  1.00  0.00     0.163 HD
ATOM     29  O   UNL A   1      42.333  18.019  25.880  1.00  0.00    -0.269 OA
BRANCH  27  30
ATOM     30  C   UNL A   1      42.324  20.315  26.358  1.00  0.00     0.039 A 
ATOM     31  C   UNL A   1      42.403  20.766  27.676  1.00  0.00     0.014 A 
ATOM     32  C   UNL A   1      42.844  21.097  25.321  1.00  0.00     0.014 A 
ATOM     33  C   UNL A   1      42.827  22.066  27.936  1.00  0.00     0.010 A 
ATOM     34  C   UNL A   1      43.346  22.374  25.594  1.00  0.00     0.010 A 
ATOM     35  C   UNL A   1      43.284  22.893  26.896  1.00  0.00    -0.014 A 
BRANCH  35  36
ATOM     36  C   UNL A   1      43.649  24.306  27.189  1.00  0.00     0.031 A 
ATOM     37  C   UNL A   1      45.030  24.821  26.873  1.00  0.00     0.074 A 
ATOM     38  C   UNL A   1      42.714  25.151  27.665  1.00  0.00     0.049 A 
ATOM     39  N   UNL A   1      45.520  26.027  27.034  1.00  0.00    -0.248 NA
ATOM     40  C   UNL A   1      45.989  23.862  26.302  1.00  0.00     0.031 C 
ATOM     41  C   UNL A   1      41.334  24.784  27.987  1.00  0.00     0.029 A 
ATOM     42  N   UNL A   1      42.770  26.497  27.930  1.00  0.00    -0.354 N 
ATOM     43  C   UNL A   1      46.837  25.967  26.595  1.00  0.00     0.074 A 
ATOM     44  C   UNL A   1      47.085  24.601  26.190  1.00  0.00     0.031 C 
ATOM     45  C   UNL A   1      40.660  25.886  28.350  1.00  0.00     0.029 A 
ATOM     46  C   UNL A   1      41.571  27.026  28.344  1.00  0.00     0.049 A 
ATOM     47  H   UNL A   1      43.591  27.032  27.833  1.00  0.00     0.167 HD
ATOM     48  C   UNL A   1      47.750  26.963  26.520  1.00  0.00     0.037 A 
ATOM     49  C   UNL A   1      41.244  28.287  28.687  1.00  0.00     0.037 A 
ATOM     50  C   UNL A   1      47.500  28.330  26.896  1.00  0.00     0.049 A 
ATOM     51  C   UNL A   1      42.296  29.360  28.645  1.00  0.00     0.074 A 
ATOM     52  C   UNL A   1      48.369  29.408  26.853  1.00  0.00     0.029 A 
ATOM     53  N   UNL A   1      46.291  28.810  27.373  1.00  0.00    -0.354 N 
ATOM     54  N   UNL A   1      43.539  29.283  28.240  1.00  0.00    -0.248 NA
ATOM     55  C   UNL A   1      41.900  30.693  29.119  1.00  0.00     0.031 C 
ATOM     56  C   UNL A   1      47.694  30.535  27.331  1.00  0.00     0.029 A 
ATOM     57  C   UNL A   1      46.394  30.167  27.637  1.00  0.00     0.049 A 
ATOM     58  H   UNL A   1      45.479  28.269  27.502  1.00  0.00     0.167 HD
ATOM     59  C   UNL A   1      44.070  30.556  28.396  1.00  0.00     0.074 A 
ATOM     60  C   UNL A   1      43.007  31.393  28.914  1.00  0.00     0.031 C 
ATOM     61  C   UNL A   1      45.327  30.988  28.142  1.00  0.00     0.037 A 
BRANCH  48  62
ATOM     62  C   UNL A   1      49.117  26.630  26.000  1.00  0.00     0.064 A 
ATOM     63  C   UNL A   1      49.485  26.921  24.680  1.00  0.00     0.173 A 
ATOM     64  C   UNL A   1      50.098  26.109  26.858  1.00  0.00     0.173 A 
ATOM     65  F   UNL A   1      48.580  27.411  23.820  1.00  0.00    -0.203 F 
ATOM     66  C   UNL A   1      50.786  26.701  24.235  1.00  0.00     0.198 A 
ATOM     67  C   UNL A   1      51.403  25.910  26.416  1.00  0.00     0.198 A 
ATOM     68  F   UNL A   1      49.797  25.822  28.134  1.00  0.00    -0.203 F 
ATOM     69  F   UNL A   1      51.113  26.972  22.964  1.00  0.00    -0.200 F 
ATOM     70  C   UNL A   1      51.747  26.207  25.106  1.00  0.00     0.200 A 
ATOM     71  F   UNL A   1      52.333  25.446  27.263  1.00  0.00    -0.200 F 
ATOM     72  F   UNL A   1      53.003  26.018  24.681  1.00  0.00    -0.200 F 
ENDBRANCH  48  62
BRANCH  49  73
ATOM     73  C   UNL A   1      39.853  28.606  29.097  1.00  0.00     0.064 A 
ATOM     74  C   UNL A   1      39.432  28.415  30.420  1.00  0.00     0.173 A 
ATOM     75  C   UNL A   1      38.917  29.101  28.178  1.00  0.00     0.173 A 
ATOM     76  F   UNL A   1      40.285  27.922  31.330  1.00  0.00    -0.203 F 
ATOM     77  C   UNL A   1      38.124  28.697  30.806  1.00  0.00     0.198 A 
ATOM     78  C   UNL A   1      37.616  29.408  28.571  1.00  0.00     0.198 A 
ATOM     79  F   UNL A   1      39.270  29.298  26.899  1.00  0.00    -0.203 F 
ATOM     80  F   UNL A   1      37.736  28.470  32.067  1.00  0.00    -0.200 F 
ATOM     81  C   UNL A   1      37.219  29.200  29.883  1.00  0.00     0.200 A 
ATOM     82  F   UNL A   1      36.749  29.905  27.678  1.00  0.00    -0.200 F 
ATOM     83  F   UNL A   1      35.962  29.476  30.255  1.00  0.00    -0.200 F 
ENDBRANCH  49  73
BRANCH  61  84
ATOM     84  C   UNL A   1      45.626  32.435  28.399  1.00  0.00     0.064 A 
ATOM     85  C   UNL A   1      45.337  33.419  27.444  1.00  0.00     0.173 A 
ATOM     86  C   UNL A   1      46.148  32.846  29.635  1.00  0.00     0.173 A 
ATOM     87  F   UNL A   1      44.849  33.073  26.243  1.00  0.00    -0.203 F 
ATOM     88  C   UNL A   1      45.571  34.765  27.713  1.00  0.00     0.198 A 
ATOM     89  C   UNL A   1      46.359  34.194  29.908  1.00  0.00     0.198 A 
ATOM     90  F   UNL A   1      46.436  31.941  30.582  1.00  0.00    -0.203 F 
ATOM     91  F   UNL A   1      45.316  35.688  26.775  1.00  0.00    -0.200 F 
ATOM     92  C   UNL A   1      46.074  35.152  28.946  1.00  0.00     0.200 A 
ATOM     93  F   UNL A   1      46.835  34.567  31.104  1.00  0.00    -0.200 F 
ATOM     94  F   UNL A   1      46.288  36.449  29.207  1.00  0.00    -0.200 F 
ENDBRANCH  61  84
ENDBRANCH  35  36
ENDBRANCH  27  30
ENDBRANCH  25  26
ENDBRANCH  24  25
ENDBRANCH  23  24
ENDBRANCH   1  23
TORSDOF 15
ENDMDL
MODEL 3
REMARK VINA RESULT:     -12.3      1.026      2.234
REMARK SMILES O=C(Cc1csc(SC[C@@H]2Cc3ccccc3S2)n1)NCCCCNC(=O)c1ccc(-c2c3nc(c(-c4c(F)c(F)c(F)c(F)c4F)c4ccc([nH]4)c(-c4c(F)c(F)c(F)c(F)c4F)c4nc(c(-c5c(F)c(F)c(F)c(F)c5F)c5ccc2[nH]5)C=C4)C=C3)cc1
REMARK SMILES IDX 21 1 20 2 1 3 2 4 3 6 4 7 5 8 19 9 6 10 7 11 8 12 9 13 10 14
REMARK SMILES IDX 11 15 18 16 12 17 17 18 13 19 16 20 14 21 15 22 22 23 23 24
REMARK SMILES IDX 24 25 25 26 26 27 27 29 28 30 29 31 90 32 30 33 89 34 31 35
REMARK SMILES IDX 32 36 33 37 83 38 34 39 88 40 82 41 84 42 35 43 87 44 81 45
REMARK SMILES IDX 80 46 36 48 68 49 48 50 67 51 49 52 52 53 66 54 85 55 50 56
REMARK SMILES IDX 51 57 65 59 86 60 53 61 37 62 38 63 46 64 39 65 40 66 44 67
REMARK SMILES IDX 47 68 41 69 42 70 45 71 43 72 69 73 70 74 78 75 71 76 72 77
REMARK SMILES IDX 76 78 79 79 73 80 74 81 77 82 75 83 54 84 55 85 63 86 56 87
REMARK SMILES IDX 57 88 61 89 64 90 58 91 59 92 62 93 60 94
REMARK H PARENT 20 5 25 28 84 47 52 58
REMARK Flexibility Score: inf
ROOT
ATOM      1  C   UNL A   1      31.408  29.825  25.141  1.00  0.00     0.116 C 
ENDROOT
BRANCH   1   2
ATOM      2  N   UNL A   1      31.996  28.542  24.833  1.00  0.00    -0.356 N 
ATOM      3  O   UNL A   1      33.607  29.350  23.429  1.00  0.00    -0.275 OA
ATOM      4  C   UNL A   1      33.099  28.399  24.024  1.00  0.00     0.226 C 
ATOM      5  H   UNL A   1      31.589  27.733  25.220  1.00  0.00     0.163 HD
BRANCH   4   6
ATOM      6  C   UNL A   1      33.570  26.974  23.779  1.00  0.00     0.157 C 
BRANCH   6   7
ATOM      7  C   UNL A   1      32.555  25.878  23.922  1.00  0.00     0.062 A 
ATOM      8  C   UNL A   1      31.707  25.453  22.914  1.00  0.00     0.092 A 
ATOM      9  N   UNL A   1      32.382  25.203  25.128  1.00  0.00    -0.234 NA
ATOM     10  S   UNL A   1      30.773  24.119  23.443  1.00  0.00    -0.116 S 
ATOM     11  C   UNL A   1      31.560  24.191  24.963  1.00  0.00     0.150 A 
BRANCH  11  12
ATOM     12  S   UNL A   1      31.252  23.020  26.220  1.00  0.00    -0.094 SA
BRANCH  12  13
ATOM     13  C   UNL A   1      31.795  21.446  25.459  1.00  0.00     0.092 C 
BRANCH  13  14
ATOM     14  C   UNL A   1      33.097  20.872  26.055  1.00  0.00     0.066 C 
ATOM     15  C   UNL A   1      33.889  21.924  26.871  1.00  0.00     0.052 C 
ATOM     16  S   UNL A   1      34.246  20.300  24.743  1.00  0.00    -0.121 SA
ATOM     17  C   UNL A   1      34.991  22.476  26.017  1.00  0.00    -0.033 A 
ATOM     18  C   UNL A   1      35.271  21.730  24.874  1.00  0.00     0.011 A 
ATOM     19  C   UNL A   1      35.776  23.580  26.341  1.00  0.00     0.005 A 
ATOM     20  C   UNL A   1      36.288  22.100  24.006  1.00  0.00     0.015 A 
ATOM     21  C   UNL A   1      36.815  23.950  25.483  1.00  0.00     0.000 A 
ATOM     22  C   UNL A   1      37.061  23.221  24.314  1.00  0.00     0.001 A 
ENDBRANCH  13  14
ENDBRANCH  12  13
ENDBRANCH  11  12
ENDBRANCH   6   7
ENDBRANCH   4   6
ENDBRANCH   1   2
BRANCH   1  23
ATOM     23  C   UNL A   1      31.869  30.388  26.486  1.00  0.00     0.023 C 
BRANCH  23  24
ATOM     24  C   UNL A   1      31.559  31.867  26.717  1.00  0.00     0.023 C 
BRANCH  24  25
ATOM     25  C   UNL A   1      32.711  32.714  27.243  1.00  0.00     0.116 C 
BRANCH  25  26
ATOM     26  N   UNL A   1      32.325  34.072  27.598  1.00  0.00    -0.352 N 
ATOM     27  C   UNL A   1      32.892  34.932  28.512  1.00  0.00     0.251 C 
ATOM     28  H   UNL A   1      31.544  34.428  27.114  1.00  0.00     0.163 HD
ATOM     29  O   UNL A   1      32.370  36.018  28.747  1.00  0.00    -0.269 OA
BRANCH  27  30
ATOM     30  C   UNL A   1      34.110  34.530  29.253  1.00  0.00     0.039 A 
ATOM     31  C   UNL A   1      35.375  34.634  28.671  1.00  0.00     0.014 A 
ATOM     32  C   UNL A   1      33.977  34.002  30.541  1.00  0.00     0.014 A 
ATOM     33  C   UNL A   1      36.470  34.044  29.294  1.00  0.00     0.010 A 
ATOM     34  C   UNL A   1      35.095  33.482  31.202  1.00  0.00     0.010 A 
ATOM     35  C   UNL A   1      36.341  33.443  30.557  1.00  0.00    -0.014 A 
BRANCH  35  36
ATOM     36  C   UNL A   1      37.508  32.743  31.161  1.00  0.00     0.031 A 
ATOM     37  C   UNL A   1      37.985  33.106  32.544  1.00  0.00     0.074 A 
ATOM     38  C   UNL A   1      38.090  31.725  30.498  1.00  0.00     0.049 A 
ATOM     39  N   UNL A   1      38.967  32.588  33.242  1.00  0.00    -0.248 NA
ATOM     40  C   UNL A   1      37.271  34.188  33.239  1.00  0.00     0.031 C 
ATOM     41  C   UNL A   1      37.706  31.260  29.165  1.00  0.00     0.029 A 
ATOM     42  N   UNL A   1      39.106  30.878  30.866  1.00  0.00    -0.354 N 
ATOM     43  C   UNL A   1      38.992  33.284  34.444  1.00  0.00     0.074 A 
ATOM     44  C   UNL A   1      37.950  34.284  34.374  1.00  0.00     0.031 C 
ATOM     45  C   UNL A   1      38.435  30.177  28.851  1.00  0.00     0.029 A 
ATOM     46  C   UNL A   1      39.377  29.907  29.933  1.00  0.00     0.049 A 
ATOM     47  H   UNL A   1      39.594  30.958  31.717  1.00  0.00     0.167 HD
ATOM     48  C   UNL A   1      39.798  33.095  35.515  1.00  0.00     0.037 A 
ATOM     49  C   UNL A   1      40.287  28.914  29.942  1.00  0.00     0.037 A 
ATOM     50  C   UNL A   1      40.819  32.084  35.601  1.00  0.00     0.049 A 
ATOM     51  C   UNL A   1      41.204  28.765  31.124  1.00  0.00     0.074 A 
ATOM     52  C   UNL A   1      41.684  31.820  36.649  1.00  0.00     0.029 A 
ATOM     53  N   UNL A   1      41.104  31.163  34.606  1.00  0.00    -0.354 N 
ATOM     54  N   UNL A   1      41.222  29.440  32.247  1.00  0.00    -0.248 NA
ATOM     55  C   UNL A   1      42.235  27.722  31.034  1.00  0.00     0.031 C 
ATOM     56  C   UNL A   1      42.513  30.757  36.278  1.00  0.00     0.029 A 
ATOM     57  C   UNL A   1      42.140  30.336  35.013  1.00  0.00     0.049 A 
ATOM     58  H   UNL A   1      40.639  31.103  33.740  1.00  0.00     0.167 HD
ATOM     59  C   UNL A   1      42.253  28.897  33.001  1.00  0.00     0.074 A 
ATOM     60  C   UNL A   1      42.825  27.821  32.217  1.00  0.00     0.031 C 
ATOM     61  C   UNL A   1      42.691  29.264  34.228  1.00  0.00     0.037 A 
BRANCH  48  62
ATOM     62  C   UNL A   1      39.614  33.992  36.703  1.00  0.00     0.064 A 
ATOM     63  C   UNL A   1      38.834  33.599  37.799  1.00  0.00     0.173 A 
ATOM     64  C   UNL A   1      40.306  35.210  36.790  1.00  0.00     0.173 A 
ATOM     65  F   UNL A   1      38.147  32.448  37.759  1.00  0.00    -0.203 F 
ATOM     66  C   UNL A   1      38.751  34.393  38.939  1.00  0.00     0.198 A 
ATOM     67  C   UNL A   1      40.237  35.992  37.940  1.00  0.00     0.198 A 
ATOM     68  F   UNL A   1      41.073  35.626  35.770  1.00  0.00    -0.203 F 
ATOM     69  F   UNL A   1      37.986  34.005  39.969  1.00  0.00    -0.200 F 
ATOM     70  C   UNL A   1      39.461  35.583  39.014  1.00  0.00     0.200 A 
ATOM     71  F   UNL A   1      40.935  37.134  38.016  1.00  0.00    -0.200 F 
ATOM     72  F   UNL A   1      39.397  36.334  40.121  1.00  0.00    -0.200 F 
ENDBRANCH  48  62
BRANCH  49  73
ATOM     73  C   UNL A   1      40.373  27.976  28.794  1.00  0.00     0.064 A 
ATOM     74  C   UNL A   1      41.132  28.296  27.660  1.00  0.00     0.173 A 
ATOM     75  C   UNL A   1      39.697  26.747  28.804  1.00  0.00     0.173 A 
ATOM     76  F   UNL A   1      41.776  29.470  27.595  1.00  0.00    -0.203 F 
ATOM     77  C   UNL A   1      41.202  27.427  26.574  1.00  0.00     0.198 A 
ATOM     78  C   UNL A   1      39.791  25.867  27.728  1.00  0.00     0.198 A 
ATOM     79  F   UNL A   1      38.957  26.396  29.865  1.00  0.00    -0.203 F 
ATOM     80  F   UNL A   1      41.902  27.774  25.486  1.00  0.00    -0.200 F 
ATOM     81  C   UNL A   1      40.537  26.210  26.612  1.00  0.00     0.200 A 
ATOM     82  F   UNL A   1      39.156  24.687  27.774  1.00  0.00    -0.200 F 
ATOM     83  F   UNL A   1      40.609  25.372  25.569  1.00  0.00    -0.200 F 
ENDBRANCH  49  73
BRANCH  61  84
ATOM     84  C   UNL A   1      43.831  28.489  34.816  1.00  0.00     0.064 A 
ATOM     85  C   UNL A   1      43.613  27.315  35.549  1.00  0.00     0.173 A 
ATOM     86  C   UNL A   1      45.157  28.890  34.589  1.00  0.00     0.173 A 
ATOM     87  F   UNL A   1      42.363  26.900  35.803  1.00  0.00    -0.203 F 
ATOM     88  C   UNL A   1      44.683  26.575  36.047  1.00  0.00     0.198 A 
ATOM     89  C   UNL A   1      46.223  28.135  35.068  1.00  0.00     0.198 A 
ATOM     90  F   UNL A   1      45.416  30.003  33.887  1.00  0.00    -0.203 F 
ATOM     91  F   UNL A   1      44.451  25.472  36.773  1.00  0.00    -0.200 F 
ATOM     92  C   UNL A   1      45.985  26.980  35.799  1.00  0.00     0.200 A 
ATOM     93  F   UNL A   1      47.482  28.522  34.818  1.00  0.00    -0.200 F 
ATOM     94  F   UNL A   1      47.014  26.260  36.270  1.00  0.00    -0.200 F 
ENDBRANCH  61  84
ENDBRANCH  35  36
ENDBRANCH  27  30
ENDBRANCH  25  26
ENDBRANCH  24  25
ENDBRANCH  23  24
ENDBRANCH   1  23
TORSDOF 15
ENDMDL
