MODEL 1
REMARK VINA RESULT:     -12.5      0.000      0.000
REMARK SMILES O=C(C[C@@H](NC(=O)c1cc(-c2ccc(F)cc2)on1)c1cccc(Br)c1)NCCCCNC(=O)c1ccc(-c2c3nc(c(-c4c(F)c(F)c(F)c(F)c4F)c4ccc([nH]4)c(-c4c(F)c(F)c(F)c(F)c4F)c4nc(c(-c5c(F)c(F)c(F)c(F)c5F)c5ccc2[nH]5)C=C4)C=C3)cc1
REMARK SMILES IDX 28 1 27 2 1 3 2 4 3 6 4 7 5 8 6 9 7 11 8 12 9 13 19 14 10 15
REMARK SMILES IDX 18 16 11 17 12 18 17 19 13 20 16 21 14 22 15 23 20 24 21 25
REMARK SMILES IDX 26 26 22 27 24 28 23 29 25 30 29 31 30 32 31 33 32 34 33 35
REMARK SMILES IDX 34 37 35 38 36 39 97 40 37 41 96 42 38 43 39 44 40 45 90 46
REMARK SMILES IDX 41 47 95 48 89 49 91 50 42 51 94 52 88 53 87 54 43 56 75 57
REMARK SMILES IDX 55 58 74 59 56 60 59 61 73 62 92 63 57 64 58 65 72 67 93 68
REMARK SMILES IDX 60 69 44 70 45 71 53 72 46 73 47 74 51 75 54 76 48 77 49 78
REMARK SMILES IDX 52 79 50 80 76 81 77 82 85 83 78 84 79 85 83 86 86 87 80 88
REMARK SMILES IDX 81 89 84 90 82 91 61 92 62 93 70 94 63 95 64 96 68 97 71 98
REMARK SMILES IDX 65 99 66 100 69 101 67 102
REMARK H PARENT 27 5 5 10 32 36 91 55 59 66
REMARK Flexibility Score: inf
ROOT
ATOM      1  C   UNL A   1      34.570  21.532  24.747  1.00  0.00     0.116 C 
ENDROOT
BRANCH   1   2
ATOM      2  N   UNL A   1      33.675  22.605  24.368  1.00  0.00    -0.356 N 
ATOM      3  O   UNL A   1      32.148  21.309  23.239  1.00  0.00    -0.275 OA
ATOM      4  C   UNL A   1      32.590  22.407  23.550  1.00  0.00     0.222 C 
ATOM      5  H   UNL A   1      33.852  23.511  24.709  1.00  0.00     0.163 HD
BRANCH   4   6
ATOM      6  C   UNL A   1      32.023  23.693  23.012  1.00  0.00     0.129 C 
BRANCH   6   7
ATOM      7  C   UNL A   1      30.653  24.074  23.597  1.00  0.00     0.122 C 
BRANCH   7   8
ATOM      8  N   UNL A   1      30.462  23.515  24.948  1.00  0.00    -0.343 N 
ATOM      9  C   UNL A   1      30.847  23.908  26.215  1.00  0.00     0.273 C 
ATOM     10  H   UNL A   1      29.946  22.676  24.947  1.00  0.00     0.164 HD
ATOM     11  O   UNL A   1      30.414  23.240  27.156  1.00  0.00    -0.267 OA
BRANCH   9  12
ATOM     12  C   UNL A   1      31.735  25.048  26.408  1.00  0.00     0.171 A 
ATOM     13  C   UNL A   1      31.410  26.345  26.871  1.00  0.00     0.088 A 
ATOM     14  N   UNL A   1      33.045  24.966  26.110  1.00  0.00    -0.074 NA
ATOM     15  C   UNL A   1      32.549  27.085  26.654  1.00  0.00     0.167 A 
ATOM     16  O   UNL A   1      33.541  26.258  26.227  1.00  0.00    -0.355 OA
BRANCH  15  17
ATOM     17  C   UNL A   1      32.822  28.513  26.677  1.00  0.00     0.020 A 
ATOM     18  C   UNL A   1      34.049  28.986  27.163  1.00  0.00     0.015 A 
ATOM     19  C   UNL A   1      31.811  29.441  26.377  1.00  0.00     0.015 A 
ATOM     20  C   UNL A   1      34.238  30.348  27.407  1.00  0.00     0.040 A 
ATOM     21  C   UNL A   1      31.988  30.799  26.651  1.00  0.00     0.040 A 
ATOM     22  C   UNL A   1      33.197  31.238  27.177  1.00  0.00     0.123 A 
ATOM     23  F   UNL A   1      33.354  32.532  27.483  1.00  0.00    -0.207 F 
ENDBRANCH  15  17
ENDBRANCH   9  12
ENDBRANCH   7   8
BRANCH   7  24
ATOM     24  C   UNL A   1      30.609  25.587  23.511  1.00  0.00    -0.024 A 
ATOM     25  C   UNL A   1      29.388  26.256  23.689  1.00  0.00     0.006 A 
ATOM     26  C   UNL A   1      31.752  26.331  23.173  1.00  0.00     0.021 A 
ATOM     27  C   UNL A   1      29.317  27.642  23.549  1.00  0.00     0.002 A 
ATOM     28  C   UNL A   1      31.675  27.714  23.050  1.00  0.00     0.018 A 
ATOM     29  C   UNL A   1      30.461  28.371  23.226  1.00  0.00     0.016 A 
ATOM     30  Br  UNL A   1      33.238  28.706  22.668  1.00  0.00    -0.051 Br
ENDBRANCH   7  24
ENDBRANCH   6   7
ENDBRANCH   4   6
ENDBRANCH   1   2
BRANCH   1  31
ATOM     31  C   UNL A   1      36.000  21.849  24.306  1.00  0.00     0.023 C 
BRANCH  31  32
ATOM     32  C   UNL A   1      36.344  23.343  24.273  1.00  0.00     0.023 C 
BRANCH  32  33
ATOM     33  C   UNL A   1      37.240  23.819  25.409  1.00  0.00     0.116 C 
BRANCH  33  34
ATOM     34  N   UNL A   1      38.327  22.893  25.675  1.00  0.00    -0.352 N 
ATOM     35  C   UNL A   1      39.534  23.125  26.287  1.00  0.00     0.251 C 
ATOM     36  H   UNL A   1      38.176  21.968  25.374  1.00  0.00     0.163 HD
ATOM     37  O   UNL A   1      40.411  22.271  26.260  1.00  0.00    -0.269 OA
BRANCH  35  38
ATOM     38  C   UNL A   1      39.784  24.421  26.953  1.00  0.00     0.039 A 
ATOM     39  C   UNL A   1      39.348  24.595  28.268  1.00  0.00     0.014 A 
ATOM     40  C   UNL A   1      40.446  25.457  26.288  1.00  0.00     0.014 A 
ATOM     41  C   UNL A   1      39.631  25.788  28.937  1.00  0.00     0.010 A 
ATOM     42  C   UNL A   1      40.796  26.613  26.980  1.00  0.00     0.010 A 
ATOM     43  C   UNL A   1      40.390  26.791  28.312  1.00  0.00    -0.014 A 
BRANCH  43  44
ATOM     44  C   UNL A   1      40.777  28.027  29.040  1.00  0.00     0.031 A 
ATOM     45  C   UNL A   1      42.174  28.192  29.568  1.00  0.00     0.074 A 
ATOM     46  C   UNL A   1      39.853  28.979  29.273  1.00  0.00     0.049 A 
ATOM     47  N   UNL A   1      42.682  29.174  30.272  1.00  0.00    -0.248 NA
ATOM     48  C   UNL A   1      43.124  27.104  29.287  1.00  0.00     0.031 C 
ATOM     49  C   UNL A   1      38.455  28.919  28.844  1.00  0.00     0.029 A 
ATOM     50  N   UNL A   1      39.946  30.182  29.928  1.00  0.00    -0.354 N 
ATOM     51  C   UNL A   1      43.999  28.816  30.523  1.00  0.00     0.074 A 
ATOM     52  C   UNL A   1      44.201  27.506  29.946  1.00  0.00     0.031 C 
ATOM     53  C   UNL A   1      37.830  30.044  29.221  1.00  0.00     0.029 A 
ATOM     54  C   UNL A   1      38.769  30.887  29.957  1.00  0.00     0.049 A 
ATOM     55  H   UNL A   1      40.780  30.507  30.341  1.00  0.00     0.167 HD
ATOM     56  C   UNL A   1      44.960  29.529  31.157  1.00  0.00     0.037 A 
ATOM     57  C   UNL A   1      38.472  32.075  30.519  1.00  0.00     0.037 A 
ATOM     58  C   UNL A   1      44.759  30.842  31.713  1.00  0.00     0.049 A 
ATOM     59  C   UNL A   1      39.550  32.835  31.243  1.00  0.00     0.074 A 
ATOM     60  C   UNL A   1      45.687  31.667  32.325  1.00  0.00     0.029 A 
ATOM     61  N   UNL A   1      43.548  31.519  31.730  1.00  0.00    -0.354 N 
ATOM     62  N   UNL A   1      40.808  32.516  31.421  1.00  0.00    -0.248 NA
ATOM     63  C   UNL A   1      39.169  34.123  31.841  1.00  0.00     0.031 C 
ATOM     64  C   UNL A   1      45.025  32.816  32.766  1.00  0.00     0.029 A 
ATOM     65  C   UNL A   1      43.700  32.740  32.369  1.00  0.00     0.049 A 
ATOM     66  H   UNL A   1      42.707  31.183  31.346  1.00  0.00     0.167 HD
ATOM     67  C   UNL A   1      41.375  33.568  32.128  1.00  0.00     0.074 A 
ATOM     68  C   UNL A   1      40.326  34.544  32.335  1.00  0.00     0.031 C 
ATOM     69  C   UNL A   1      42.650  33.708  32.565  1.00  0.00     0.037 A 
BRANCH  56  70
ATOM     70  C   UNL A   1      46.326  28.917  31.279  1.00  0.00     0.064 A 
ATOM     71  C   UNL A   1      46.682  28.190  32.425  1.00  0.00     0.173 A 
ATOM     72  C   UNL A   1      47.309  29.115  30.297  1.00  0.00     0.173 A 
ATOM     73  F   UNL A   1      45.783  27.978  33.398  1.00  0.00    -0.203 F 
ATOM     74  C   UNL A   1      47.973  27.698  32.591  1.00  0.00     0.198 A 
ATOM     75  C   UNL A   1      48.591  28.592  30.450  1.00  0.00     0.198 A 
ATOM     76  F   UNL A   1      47.020  29.794  29.177  1.00  0.00    -0.203 F 
ATOM     77  F   UNL A   1      48.300  27.040  33.711  1.00  0.00    -0.200 F 
ATOM     78  C   UNL A   1      48.925  27.895  31.601  1.00  0.00     0.200 A 
ATOM     79  F   UNL A   1      49.502  28.762  29.482  1.00  0.00    -0.200 F 
ATOM     80  F   UNL A   1      50.165  27.411  31.757  1.00  0.00    -0.200 F 
ENDBRANCH  56  70
BRANCH  57  81
ATOM     81  C   UNL A   1      37.099  32.628  30.383  1.00  0.00     0.064 A 
ATOM     82  C   UNL A   1      36.740  33.437  29.294  1.00  0.00     0.173 A 
ATOM     83  C   UNL A   1      36.128  32.388  31.364  1.00  0.00     0.173 A 
ATOM     84  F   UNL A   1      37.634  33.701  28.330  1.00  0.00    -0.203 F 
ATOM     85  C   UNL A   1      35.471  34.005  29.208  1.00  0.00     0.198 A 
ATOM     86  C   UNL A   1      34.850  32.933  31.261  1.00  0.00     0.198 A 
ATOM     87  F   UNL A   1      36.416  31.603  32.413  1.00  0.00    -0.203 F 
ATOM     88  F   UNL A   1      35.168  34.810  28.179  1.00  0.00    -0.200 F 
ATOM     89  C   UNL A   1      34.525  33.750  30.189  1.00  0.00     0.200 A 
ATOM     90  F   UNL A   1      33.932  32.664  32.200  1.00  0.00    -0.200 F 
ATOM     91  F   UNL A   1      33.303  34.290  30.101  1.00  0.00    -0.200 F 
ENDBRANCH  57  81
BRANCH  69  92
ATOM     92  C   UNL A   1      43.009  34.973  33.291  1.00  0.00     0.064 A 
ATOM     93  C   UNL A   1      42.883  35.049  34.688  1.00  0.00     0.173 A 
ATOM     94  C   UNL A   1      43.386  36.134  32.603  1.00  0.00     0.173 A 
ATOM     95  F   UNL A   1      42.516  33.968  35.393  1.00  0.00    -0.203 F 
ATOM     96  C   UNL A   1      43.097  36.246  35.364  1.00  0.00     0.198 A 
ATOM     97  C   UNL A   1      43.632  37.323  33.287  1.00  0.00     0.198 A 
ATOM     98  F   UNL A   1      43.533  36.112  31.270  1.00  0.00    -0.203 F 
ATOM     99  F   UNL A   1      42.925  36.304  36.692  1.00  0.00    -0.200 F 
ATOM    100  C   UNL A   1      43.475  37.380  34.663  1.00  0.00     0.200 A 
ATOM    101  F   UNL A   1      44.021  38.414  32.611  1.00  0.00    -0.200 F 
ATOM    102  F   UNL A   1      43.688  38.532  35.316  1.00  0.00    -0.200 F 
ENDBRANCH  69  92
ENDBRANCH  43  44
ENDBRANCH  35  38
ENDBRANCH  33  34
ENDBRANCH  32  33
ENDBRANCH  31  32
ENDBRANCH   1  31
TORSDOF 16
ENDMDL
MODEL 2
REMARK VINA RESULT:     -12.5      3.352      8.761
REMARK SMILES O=C(C[C@@H](NC(=O)c1cc(-c2ccc(F)cc2)on1)c1cccc(Br)c1)NCCCCNC(=O)c1ccc(-c2c3nc(c(-c4c(F)c(F)c(F)c(F)c4F)c4ccc([nH]4)c(-c4c(F)c(F)c(F)c(F)c4F)c4nc(c(-c5c(F)c(F)c(F)c(F)c5F)c5ccc2[nH]5)C=C4)C=C3)cc1
REMARK SMILES IDX 28 1 27 2 1 3 2 4 3 6 4 7 5 8 6 9 7 11 8 12 9 13 19 14 10 15
REMARK SMILES IDX 18 16 11 17 12 18 17 19 13 20 16 21 14 22 15 23 20 24 21 25
REMARK SMILES IDX 26 26 22 27 24 28 23 29 25 30 29 31 30 32 31 33 32 34 33 35
REMARK SMILES IDX 34 37 35 38 36 39 97 40 37 41 96 42 38 43 39 44 40 45 90 46
REMARK SMILES IDX 41 47 95 48 89 49 91 50 42 51 94 52 88 53 87 54 43 56 75 57
REMARK SMILES IDX 55 58 74 59 56 60 59 61 73 62 92 63 57 64 58 65 72 67 93 68
REMARK SMILES IDX 60 69 44 70 45 71 53 72 46 73 47 74 51 75 54 76 48 77 49 78
REMARK SMILES IDX 52 79 50 80 76 81 77 82 85 83 78 84 79 85 83 86 86 87 80 88
REMARK SMILES IDX 81 89 84 90 82 91 61 92 62 93 70 94 63 95 64 96 68 97 71 98
REMARK SMILES IDX 65 99 66 100 69 101 67 102
REMARK H PARENT 27 5 5 10 32 36 91 55 59 66
REMARK Flexibility Score: inf
ROOT
ATOM      1  C   UNL A   1      31.270  28.615  24.595  1.00  0.00     0.116 C 
ENDROOT
BRANCH   1   2
ATOM      2  N   UNL A   1      31.389  27.173  24.542  1.00  0.00    -0.356 N 
ATOM      3  O   UNL A   1      29.264  26.744  23.780  1.00  0.00    -0.275 OA
ATOM      4  C   UNL A   1      30.330  26.355  24.237  1.00  0.00     0.222 C 
ATOM      5  H   UNL A   1      32.264  26.764  24.733  1.00  0.00     0.163 HD
BRANCH   4   6
ATOM      6  C   UNL A   1      30.587  24.914  24.583  1.00  0.00     0.129 C 
BRANCH   6   7
ATOM      7  C   UNL A   1      30.873  24.012  23.370  1.00  0.00     0.122 C 
BRANCH   7   8
ATOM      8  N   UNL A   1      31.510  24.763  22.272  1.00  0.00    -0.343 N 
ATOM      9  C   UNL A   1      32.811  25.119  21.978  1.00  0.00     0.273 C 
ATOM     10  H   UNL A   1      30.864  25.079  21.598  1.00  0.00     0.164 HD
ATOM     11  O   UNL A   1      33.002  25.671  20.893  1.00  0.00    -0.267 OA
BRANCH   9  12
ATOM     12  C   UNL A   1      33.889  24.863  22.925  1.00  0.00     0.171 A 
ATOM     13  C   UNL A   1      34.888  23.862  22.867  1.00  0.00     0.088 A 
ATOM     14  N   UNL A   1      34.021  25.599  24.044  1.00  0.00    -0.074 NA
ATOM     15  C   UNL A   1      35.503  23.916  24.097  1.00  0.00     0.167 A 
ATOM     16  O   UNL A   1      35.008  24.973  24.794  1.00  0.00    -0.355 OA
BRANCH  15  17
ATOM     17  C   UNL A   1      36.429  23.027  24.781  1.00  0.00     0.020 A 
ATOM     18  C   UNL A   1      37.399  23.555  25.647  1.00  0.00     0.015 A 
ATOM     19  C   UNL A   1      36.481  21.661  24.461  1.00  0.00     0.015 A 
ATOM     20  C   UNL A   1      38.434  22.750  26.126  1.00  0.00     0.040 A 
ATOM     21  C   UNL A   1      37.535  20.864  24.915  1.00  0.00     0.040 A 
ATOM     22  C   UNL A   1      38.509  21.421  25.733  1.00  0.00     0.123 A 
ATOM     23  F   UNL A   1      39.544  20.671  26.133  1.00  0.00    -0.207 F 
ENDBRANCH  15  17
ENDBRANCH   9  12
ENDBRANCH   7   8
BRANCH   7  24
ATOM     24  C   UNL A   1      31.691  22.866  23.930  1.00  0.00    -0.024 A 
ATOM     25  C   UNL A   1      31.897  21.716  23.152  1.00  0.00     0.006 A 
ATOM     26  C   UNL A   1      32.179  22.895  25.248  1.00  0.00     0.021 A 
ATOM     27  C   UNL A   1      32.593  20.627  23.675  1.00  0.00     0.002 A 
ATOM     28  C   UNL A   1      32.884  21.810  25.757  1.00  0.00     0.018 A 
ATOM     29  C   UNL A   1      33.083  20.673  24.980  1.00  0.00     0.016 A 
ATOM     30  Br  UNL A   1      33.596  21.895  27.505  1.00  0.00    -0.051 Br
ENDBRANCH   7  24
ENDBRANCH   6   7
ENDBRANCH   4   6
ENDBRANCH   1   2
BRANCH   1  31
ATOM     31  C   UNL A   1      31.706  29.136  25.965  1.00  0.00     0.023 C 
BRANCH  31  32
ATOM     32  C   UNL A   1      32.542  28.150  26.789  1.00  0.00     0.023 C 
BRANCH  32  33
ATOM     33  C   UNL A   1      33.894  28.683  27.246  1.00  0.00     0.116 C 
BRANCH  33  34
ATOM     34  N   UNL A   1      33.819  30.065  27.685  1.00  0.00    -0.352 N 
ATOM     35  C   UNL A   1      34.740  30.804  28.386  1.00  0.00     0.251 C 
ATOM     36  H   UNL A   1      32.991  30.539  27.445  1.00  0.00     0.163 HD
ATOM     37  O   UNL A   1      34.435  31.901  28.836  1.00  0.00    -0.269 OA
BRANCH  35  38
ATOM     38  C   UNL A   1      36.094  30.259  28.623  1.00  0.00     0.039 A 
ATOM     39  C   UNL A   1      37.063  30.412  27.629  1.00  0.00     0.014 A 
ATOM     40  C   UNL A   1      36.409  29.604  29.817  1.00  0.00     0.014 A 
ATOM     41  C   UNL A   1      38.365  29.961  27.858  1.00  0.00     0.010 A 
ATOM     42  C   UNL A   1      37.724  29.228  30.076  1.00  0.00     0.010 A 
ATOM     43  C   UNL A   1      38.716  29.401  29.097  1.00  0.00    -0.014 A 
BRANCH  43  44
ATOM     44  C   UNL A   1      40.116  29.000  29.390  1.00  0.00     0.031 A 
ATOM     45  C   UNL A   1      41.014  29.904  30.186  1.00  0.00     0.074 A 
ATOM     46  C   UNL A   1      40.595  27.843  28.893  1.00  0.00     0.049 A 
ATOM     47  N   UNL A   1      42.278  29.750  30.496  1.00  0.00    -0.248 NA
ATOM     48  C   UNL A   1      40.425  31.157  30.684  1.00  0.00     0.031 C 
ATOM     49  C   UNL A   1      39.833  26.898  28.075  1.00  0.00     0.029 A 
ATOM     50  N   UNL A   1      41.836  27.265  28.997  1.00  0.00    -0.354 N 
ATOM     51  C   UNL A   1      42.632  30.886  31.212  1.00  0.00     0.074 A 
ATOM     52  C   UNL A   1      41.470  31.745  31.247  1.00  0.00     0.031 C 
ATOM     53  C   UNL A   1      40.611  25.848  27.778  1.00  0.00     0.029 A 
ATOM     54  C   UNL A   1      41.940  26.062  28.343  1.00  0.00     0.049 A 
ATOM     55  H   UNL A   1      42.581  27.676  29.493  1.00  0.00     0.167 HD
ATOM     56  C   UNL A   1      43.814  31.172  31.808  1.00  0.00     0.037 A 
ATOM     57  C   UNL A   1      42.990  25.228  28.205  1.00  0.00     0.037 A 
ATOM     58  C   UNL A   1      44.961  30.302  31.788  1.00  0.00     0.049 A 
ATOM     59  C   UNL A   1      44.301  25.583  28.853  1.00  0.00     0.074 A 
ATOM     60  C   UNL A   1      46.184  30.481  32.410  1.00  0.00     0.029 A 
ATOM     61  N   UNL A   1      45.030  29.097  31.106  1.00  0.00    -0.354 N 
ATOM     62  N   UNL A   1      44.606  26.629  29.580  1.00  0.00    -0.248 NA
ATOM     63  C   UNL A   1      45.411  24.639  28.665  1.00  0.00     0.031 C 
ATOM     64  C   UNL A   1      47.014  29.414  32.056  1.00  0.00     0.029 A 
ATOM     65  C   UNL A   1      46.287  28.535  31.269  1.00  0.00     0.049 A 
ATOM     66  H   UNL A   1      44.297  28.699  30.584  1.00  0.00     0.167 HD
ATOM     67  C   UNL A   1      45.931  26.461  29.956  1.00  0.00     0.074 A 
ATOM     68  C   UNL A   1      46.370  25.203  29.389  1.00  0.00     0.031 C 
ATOM     69  C   UNL A   1      46.712  27.278  30.705  1.00  0.00     0.037 A 
BRANCH  56  70
ATOM     70  C   UNL A   1      43.932  32.473  32.548  1.00  0.00     0.064 A 
ATOM     71  C   UNL A   1      44.441  33.613  31.908  1.00  0.00     0.173 A 
ATOM     72  C   UNL A   1      43.614  32.574  33.911  1.00  0.00     0.173 A 
ATOM     73  F   UNL A   1      44.767  33.570  30.608  1.00  0.00    -0.203 F 
ATOM     74  C   UNL A   1      44.642  34.800  32.607  1.00  0.00     0.198 A 
ATOM     75  C   UNL A   1      43.786  33.772  34.600  1.00  0.00     0.198 A 
ATOM     76  F   UNL A   1      43.116  31.517  34.570  1.00  0.00    -0.203 F 
ATOM     77  F   UNL A   1      45.166  35.863  31.984  1.00  0.00    -0.200 F 
ATOM     78  C   UNL A   1      44.310  34.879  33.952  1.00  0.00     0.200 A 
ATOM     79  F   UNL A   1      43.441  33.854  35.893  1.00  0.00    -0.200 F 
ATOM     80  F   UNL A   1      44.494  36.025  34.622  1.00  0.00    -0.200 F 
ENDBRANCH  56  70
BRANCH  57  81
ATOM     81  C   UNL A   1      42.822  23.960  27.448  1.00  0.00     0.064 A 
ATOM     82  C   UNL A   1      42.380  22.786  28.076  1.00  0.00     0.173 A 
ATOM     83  C   UNL A   1      43.141  23.890  26.085  1.00  0.00     0.173 A 
ATOM     84  F   UNL A   1      42.067  22.798  29.380  1.00  0.00    -0.203 F 
ATOM     85  C   UNL A   1      42.290  21.586  27.374  1.00  0.00     0.198 A 
ATOM     86  C   UNL A   1      43.021  22.696  25.378  1.00  0.00     0.198 A 
ATOM     87  F   UNL A   1      43.547  24.991  25.436  1.00  0.00    -0.203 F 
ATOM     88  F   UNL A   1      41.907  20.468  28.008  1.00  0.00    -0.200 F 
ATOM     89  C   UNL A   1      42.606  21.542  26.024  1.00  0.00     0.200 A 
ATOM     90  F   UNL A   1      43.306  22.664  24.068  1.00  0.00    -0.200 F 
ATOM     91  F   UNL A   1      42.511  20.390  25.349  1.00  0.00    -0.200 F 
ENDBRANCH  57  81
BRANCH  69  92
ATOM     92  C   UNL A   1      48.121  26.839  30.987  1.00  0.00     0.064 A 
ATOM     93  C   UNL A   1      49.167  27.220  30.132  1.00  0.00     0.173 A 
ATOM     94  C   UNL A   1      48.422  25.969  32.044  1.00  0.00     0.173 A 
ATOM     95  F   UNL A   1      48.931  28.043  29.100  1.00  0.00    -0.203 F 
ATOM     96  C   UNL A   1      50.456  26.727  30.310  1.00  0.00     0.198 A 
ATOM     97  C   UNL A   1      49.720  25.504  32.241  1.00  0.00     0.198 A 
ATOM     98  F   UNL A   1      47.460  25.585  32.898  1.00  0.00    -0.203 F 
ATOM     99  F   UNL A   1      51.428  27.069  29.453  1.00  0.00    -0.200 F 
ATOM    100  C   UNL A   1      50.732  25.872  31.367  1.00  0.00     0.200 A 
ATOM    101  F   UNL A   1      49.990  24.697  33.276  1.00  0.00    -0.200 F 
ATOM    102  F   UNL A   1      51.975  25.403  31.543  1.00  0.00    -0.200 F 
ENDBRANCH  69  92
ENDBRANCH  43  44
ENDBRANCH  35  38
ENDBRANCH  33  34
ENDBRANCH  32  33
ENDBRANCH  31  32
ENDBRANCH   1  31
TORSDOF 16
ENDMDL
MODEL 3
REMARK VINA RESULT:     -12.3      3.561      6.585
REMARK SMILES O=C(C[C@@H](NC(=O)c1cc(-c2ccc(F)cc2)on1)c1cccc(Br)c1)NCCCCNC(=O)c1ccc(-c2c3nc(c(-c4c(F)c(F)c(F)c(F)c4F)c4ccc([nH]4)c(-c4c(F)c(F)c(F)c(F)c4F)c4nc(c(-c5c(F)c(F)c(F)c(F)c5F)c5ccc2[nH]5)C=C4)C=C3)cc1
REMARK SMILES IDX 28 1 27 2 1 3 2 4 3 6 4 7 5 8 6 9 7 11 8 12 9 13 19 14 10 15
REMARK SMILES IDX 18 16 11 17 12 18 17 19 13 20 16 21 14 22 15 23 20 24 21 25
REMARK SMILES IDX 26 26 22 27 24 28 23 29 25 30 29 31 30 32 31 33 32 34 33 35
REMARK SMILES IDX 34 37 35 38 36 39 97 40 37 41 96 42 38 43 39 44 40 45 90 46
REMARK SMILES IDX 41 47 95 48 89 49 91 50 42 51 94 52 88 53 87 54 43 56 75 57
REMARK SMILES IDX 55 58 74 59 56 60 59 61 73 62 92 63 57 64 58 65 72 67 93 68
REMARK SMILES IDX 60 69 44 70 45 71 53 72 46 73 47 74 51 75 54 76 48 77 49 78
REMARK SMILES IDX 52 79 50 80 76 81 77 82 85 83 78 84 79 85 83 86 86 87 80 88
REMARK SMILES IDX 81 89 84 90 82 91 61 92 62 93 70 94 63 95 64 96 68 97 71 98
REMARK SMILES IDX 65 99 66 100 69 101 67 102
REMARK H PARENT 27 5 5 10 32 36 91 55 59 66
REMARK Flexibility Score: inf
ROOT
ATOM      1  C   UNL A   1      33.451  27.133  22.001  1.00  0.00     0.116 C 
ENDROOT
BRANCH   1   2
ATOM      2  N   UNL A   1      33.652  25.931  22.781  1.00  0.00    -0.356 N 
ATOM      3  O   UNL A   1      32.971  24.437  21.172  1.00  0.00    -0.275 OA
ATOM      4  C   UNL A   1      33.290  24.687  22.327  1.00  0.00     0.222 C 
ATOM      5  H   UNL A   1      34.063  26.008  23.672  1.00  0.00     0.163 HD
BRANCH   4   6
ATOM      6  C   UNL A   1      33.262  23.652  23.419  1.00  0.00     0.129 C 
BRANCH   6   7
ATOM      7  C   UNL A   1      33.784  24.150  24.777  1.00  0.00     0.122 C 
BRANCH   7   8
ATOM      8  N   UNL A   1      32.761  24.028  25.832  1.00  0.00    -0.343 N 
ATOM      9  C   UNL A   1      31.455  24.458  25.960  1.00  0.00     0.273 C 
ATOM     10  H   UNL A   1      33.079  23.528  26.619  1.00  0.00     0.164 HD
ATOM     11  O   UNL A   1      30.844  24.078  26.961  1.00  0.00    -0.267 OA
BRANCH   9  12
ATOM     12  C   UNL A   1      30.853  25.332  24.961  1.00  0.00     0.171 A 
ATOM     13  C   UNL A   1      30.842  26.746  24.924  1.00  0.00     0.088 A 
ATOM     14  N   UNL A   1      30.173  24.826  23.915  1.00  0.00    -0.074 NA
ATOM     15  C   UNL A   1      29.963  27.059  23.913  1.00  0.00     0.167 A 
ATOM     16  O   UNL A   1      29.583  25.914  23.286  1.00  0.00    -0.355 OA
BRANCH  15  17
ATOM     17  C   UNL A   1      29.317  28.298  23.510  1.00  0.00     0.020 A 
ATOM     18  C   UNL A   1      29.986  29.521  23.663  1.00  0.00     0.015 A 
ATOM     19  C   UNL A   1      27.966  28.311  23.126  1.00  0.00     0.015 A 
ATOM     20  C   UNL A   1      29.303  30.728  23.502  1.00  0.00     0.040 A 
ATOM     21  C   UNL A   1      27.275  29.518  22.996  1.00  0.00     0.040 A 
ATOM     22  C   UNL A   1      27.948  30.715  23.199  1.00  0.00     0.123 A 
ATOM     23  F   UNL A   1      27.277  31.872  23.119  1.00  0.00    -0.207 F 
ENDBRANCH  15  17
ENDBRANCH   9  12
ENDBRANCH   7   8
BRANCH   7  24
ATOM     24  C   UNL A   1      35.053  23.356  25.012  1.00  0.00    -0.024 A 
ATOM     25  C   UNL A   1      35.067  21.977  24.749  1.00  0.00     0.006 A 
ATOM     26  C   UNL A   1      36.196  23.956  25.569  1.00  0.00     0.021 A 
ATOM     27  C   UNL A   1      36.205  21.219  25.021  1.00  0.00     0.002 A 
ATOM     28  C   UNL A   1      37.332  23.195  25.823  1.00  0.00     0.018 A 
ATOM     29  C   UNL A   1      37.338  21.829  25.561  1.00  0.00     0.016 A 
ATOM     30  Br  UNL A   1      38.884  24.032  26.502  1.00  0.00    -0.051 Br
ENDBRANCH   7  24
ENDBRANCH   6   7
ENDBRANCH   4   6
ENDBRANCH   1   2
BRANCH   1  31
ATOM     31  C   UNL A   1      34.114  28.330  22.685  1.00  0.00     0.023 C 
BRANCH  31  32
ATOM     32  C   UNL A   1      33.169  29.187  23.534  1.00  0.00     0.023 C 
BRANCH  32  33
ATOM     33  C   UNL A   1      33.561  29.312  25.001  1.00  0.00     0.116 C 
BRANCH  33  34
ATOM     34  N   UNL A   1      32.926  30.450  25.642  1.00  0.00    -0.352 N 
ATOM     35  C   UNL A   1      33.265  31.088  26.811  1.00  0.00     0.251 C 
ATOM     36  H   UNL A   1      32.143  30.816  25.173  1.00  0.00     0.163 HD
ATOM     37  O   UNL A   1      32.507  31.914  27.303  1.00  0.00    -0.269 OA
BRANCH  35  38
ATOM     38  C   UNL A   1      34.535  30.751  27.491  1.00  0.00     0.039 A 
ATOM     39  C   UNL A   1      35.504  31.746  27.632  1.00  0.00     0.014 A 
ATOM     40  C   UNL A   1      34.767  29.467  27.989  1.00  0.00     0.014 A 
ATOM     41  C   UNL A   1      36.683  31.468  28.327  1.00  0.00     0.010 A 
ATOM     42  C   UNL A   1      35.905  29.213  28.749  1.00  0.00     0.010 A 
ATOM     43  C   UNL A   1      36.877  30.211  28.924  1.00  0.00    -0.014 A 
BRANCH  43  44
ATOM     44  C   UNL A   1      38.083  29.928  29.744  1.00  0.00     0.031 A 
ATOM     45  C   UNL A   1      39.162  29.023  29.219  1.00  0.00     0.074 A 
ATOM     46  C   UNL A   1      38.181  30.445  30.984  1.00  0.00     0.049 A 
ATOM     47  N   UNL A   1      40.259  28.617  29.809  1.00  0.00    -0.248 NA
ATOM     48  C   UNL A   1      38.978  28.486  27.862  1.00  0.00     0.031 C 
ATOM     49  C   UNL A   1      37.183  31.306  31.619  1.00  0.00     0.029 A 
ATOM     50  N   UNL A   1      39.164  30.319  31.935  1.00  0.00    -0.354 N 
ATOM     51  C   UNL A   1      40.885  27.773  28.901  1.00  0.00     0.074 A 
ATOM     52  C   UNL A   1      40.024  27.681  27.743  1.00  0.00     0.031 C 
ATOM     53  C   UNL A   1      37.617  31.655  32.839  1.00  0.00     0.029 A 
ATOM     54  C   UNL A   1      38.901  31.007  33.093  1.00  0.00     0.049 A 
ATOM     55  H   UNL A   1      39.980  29.784  31.799  1.00  0.00     0.167 HD
ATOM     56  C   UNL A   1      42.084  27.153  29.015  1.00  0.00     0.037 A 
ATOM     57  C   UNL A   1      39.608  31.101  34.237  1.00  0.00     0.037 A 
ATOM     58  C   UNL A   1      42.947  27.266  30.162  1.00  0.00     0.049 A 
ATOM     59  C   UNL A   1      40.923  30.379  34.349  1.00  0.00     0.074 A 
ATOM     60  C   UNL A   1      44.205  26.719  30.346  1.00  0.00     0.029 A 
ATOM     61  N   UNL A   1      42.640  27.964  31.320  1.00  0.00    -0.354 N 
ATOM     62  N   UNL A   1      41.535  29.635  33.461  1.00  0.00    -0.248 NA
ATOM     63  C   UNL A   1      41.648  30.513  35.620  1.00  0.00     0.031 C 
ATOM     64  C   UNL A   1      44.634  27.036  31.637  1.00  0.00     0.029 A 
ATOM     65  C   UNL A   1      43.675  27.838  32.234  1.00  0.00     0.049 A 
ATOM     66  H   UNL A   1      41.812  28.474  31.470  1.00  0.00     0.167 HD
ATOM     67  C   UNL A   1      42.724  29.231  34.053  1.00  0.00     0.074 A 
ATOM     68  C   UNL A   1      42.756  29.825  35.373  1.00  0.00     0.031 C 
ATOM     69  C   UNL A   1      43.699  28.439  33.544  1.00  0.00     0.037 A 
BRANCH  56  70
ATOM     70  C   UNL A   1      42.548  26.304  27.867  1.00  0.00     0.064 A 
ATOM     71  C   UNL A   1      42.223  24.940  27.812  1.00  0.00     0.173 A 
ATOM     72  C   UNL A   1      43.379  26.820  26.861  1.00  0.00     0.173 A 
ATOM     73  F   UNL A   1      41.438  24.394  28.752  1.00  0.00    -0.203 F 
ATOM     74  C   UNL A   1      42.724  24.122  26.804  1.00  0.00     0.198 A 
ATOM     75  C   UNL A   1      43.853  26.006  25.835  1.00  0.00     0.198 A 
ATOM     76  F   UNL A   1      43.714  28.119  26.860  1.00  0.00    -0.203 F 
ATOM     77  F   UNL A   1      42.431  22.815  26.794  1.00  0.00    -0.200 F 
ATOM     78  C   UNL A   1      43.535  24.657  25.813  1.00  0.00     0.200 A 
ATOM     79  F   UNL A   1      44.615  26.529  24.864  1.00  0.00    -0.200 F 
ATOM     80  F   UNL A   1      44.008  23.871  24.837  1.00  0.00    -0.200 F 
ENDBRANCH  56  70
BRANCH  57  81
ATOM     81  C   UNL A   1      39.094  31.943  35.348  1.00  0.00     0.064 A 
ATOM     82  C   UNL A   1      39.382  33.314  35.422  1.00  0.00     0.173 A 
ATOM     83  C   UNL A   1      38.335  31.380  36.383  1.00  0.00     0.173 A 
ATOM     84  F   UNL A   1      40.109  33.901  34.460  1.00  0.00    -0.203 F 
ATOM     85  C   UNL A   1      38.953  34.082  36.502  1.00  0.00     0.198 A 
ATOM     86  C   UNL A   1      37.881  32.157  37.447  1.00  0.00     0.198 A 
ATOM     87  F   UNL A   1      38.015  30.078  36.347  1.00  0.00    -0.203 F 
ATOM     88  F   UNL A   1      39.279  35.381  36.570  1.00  0.00    -0.200 F 
ATOM     89  C   UNL A   1      38.199  33.504  37.512  1.00  0.00     0.200 A 
ATOM     90  F   UNL A   1      37.133  31.598  38.409  1.00  0.00    -0.200 F 
ATOM     91  F   UNL A   1      37.779  34.246  38.546  1.00  0.00    -0.200 F 
ENDBRANCH  57  81
BRANCH  69  92
ATOM     92  C   UNL A   1      44.908  28.178  34.397  1.00  0.00     0.064 A 
ATOM     93  C   UNL A   1      44.930  27.089  35.282  1.00  0.00     0.173 A 
ATOM     94  C   UNL A   1      46.003  29.054  34.408  1.00  0.00     0.173 A 
ATOM     95  F   UNL A   1      43.904  26.226  35.317  1.00  0.00    -0.203 F 
ATOM     96  C   UNL A   1      45.991  26.900  36.163  1.00  0.00     0.198 A 
ATOM     97  C   UNL A   1      47.079  28.844  35.268  1.00  0.00     0.198 A 
ATOM     98  F   UNL A   1      46.037  30.104  33.573  1.00  0.00    -0.203 F 
ATOM     99  F   UNL A   1      45.967  25.879  37.030  1.00  0.00    -0.200 F 
ATOM    100  C   UNL A   1      47.065  27.776  36.152  1.00  0.00     0.200 A 
ATOM    101  F   UNL A   1      48.128  29.678  35.240  1.00  0.00    -0.200 F 
ATOM    102  F   UNL A   1      48.090  27.591  36.996  1.00  0.00    -0.200 F 
ENDBRANCH  69  92
ENDBRANCH  43  44
ENDBRANCH  35  38
ENDBRANCH  33  34
ENDBRANCH  32  33
ENDBRANCH  31  32
ENDBRANCH   1  31
TORSDOF 16
ENDMDL
