MODEL 1
REMARK VINA RESULT:     -13.3      0.000      0.000
REMARK SMILES O=C(NCCCCNC(=O)c1cn(-c2ccccc2)c2c1N=C(O)C[C@@H]2c1cccs1)c1ccc(-c2c3nc(c(-c4c(F)c(F)c(F)c(F)c4F)c4ccc([nH]4)c(-c4c(F)c(F)c(F)c(F)c4F)c4nc(c(-c5c(F)c(F)c(F)c(F)c5F)c5ccc2[nH]5)C=C4)C=C3)cc1
REMARK SMILES IDX 5 1 4 2 3 3 1 4 2 5 32 7 33 8 94 9 34 10 93 11 35 12 36 13
REMARK SMILES IDX 37 14 87 15 38 16 92 17 86 18 88 19 39 20 91 21 85 22 84 23
REMARK SMILES IDX 40 25 72 26 52 27 71 28 53 29 56 30 70 31 89 32 54 33 55 34
REMARK SMILES IDX 69 36 90 37 57 38 41 39 42 40 50 41 43 42 44 43 48 44 51 45
REMARK SMILES IDX 45 46 46 47 49 48 47 49 73 50 74 51 82 52 75 53 76 54 80 55
REMARK SMILES IDX 83 56 77 57 78 58 81 59 79 60 58 61 59 62 67 63 60 64 61 65
REMARK SMILES IDX 65 66 68 67 62 68 63 69 66 70 64 71 6 72 7 73 8 74 9 75
REMARK SMILES IDX 10 77 11 78 12 79 21 80 13 81 20 82 22 83 26 84 23 85 25 86
REMARK SMILES IDX 14 87 15 88 19 89 16 90 18 91 17 92 27 93 28 94 31 95 29 96
REMARK SMILES IDX 30 97 24 98
REMARK H PARENT 3 6 88 24 56 35 8 76 24 99
REMARK Flexibility Score: inf
ROOT
ATOM      1  C   UNL A   1      38.042  33.008  34.402  1.00  0.00     0.023 C 
ENDROOT
BRANCH   1   2
ATOM      2  C   UNL A   1      39.333  33.648  33.886  1.00  0.00     0.116 C 
BRANCH   2   3
ATOM      3  N   UNL A   1      39.278  34.081  32.504  1.00  0.00    -0.352 N 
ATOM      4  O   UNL A   1      39.194  34.132  30.294  1.00  0.00    -0.269 OA
ATOM      5  C   UNL A   1      39.475  33.469  31.296  1.00  0.00     0.251 C 
ATOM      6  H   UNL A   1      39.046  35.033  32.412  1.00  0.00     0.163 HD
BRANCH   5   7
ATOM      7  C   UNL A   1      40.042  32.102  31.107  1.00  0.00     0.039 A 
ATOM      8  C   UNL A   1      39.596  30.943  31.742  1.00  0.00     0.014 A 
ATOM      9  C   UNL A   1      41.148  31.999  30.241  1.00  0.00     0.014 A 
ATOM     10  C   UNL A   1      40.282  29.740  31.596  1.00  0.00     0.010 A 
ATOM     11  C   UNL A   1      41.820  30.791  30.064  1.00  0.00     0.010 A 
ATOM     12  C   UNL A   1      41.405  29.667  30.774  1.00  0.00    -0.014 A 
BRANCH  12  13
ATOM     13  C   UNL A   1      42.052  28.364  30.631  1.00  0.00     0.031 A 
ATOM     14  C   UNL A   1      42.818  27.863  31.812  1.00  0.00     0.074 A 
ATOM     15  C   UNL A   1      41.878  27.565  29.560  1.00  0.00     0.049 A 
ATOM     16  N   UNL A   1      44.038  27.426  31.866  1.00  0.00    -0.248 NA
ATOM     17  C   UNL A   1      42.130  27.871  33.114  1.00  0.00     0.031 C 
ATOM     18  C   UNL A   1      40.932  27.733  28.455  1.00  0.00     0.029 A 
ATOM     19  N   UNL A   1      42.455  26.355  29.302  1.00  0.00    -0.354 N 
ATOM     20  C   UNL A   1      44.232  26.972  33.172  1.00  0.00     0.074 A 
ATOM     21  C   UNL A   1      43.056  27.343  33.914  1.00  0.00     0.031 C 
ATOM     22  C   UNL A   1      40.849  26.573  27.767  1.00  0.00     0.029 A 
ATOM     23  C   UNL A   1      41.822  25.635  28.304  1.00  0.00     0.049 A 
ATOM     24  H   UNL A   1      43.249  26.025  29.781  1.00  0.00     0.167 HD
ATOM     25  C   UNL A   1      45.283  26.177  33.520  1.00  0.00     0.037 A 
ATOM     26  C   UNL A   1      42.026  24.334  27.989  1.00  0.00     0.037 A 
ATOM     27  C   UNL A   1      46.374  26.290  32.592  1.00  0.00     0.049 A 
ATOM     28  C   UNL A   1      43.338  23.920  28.539  1.00  0.00     0.074 A 
ATOM     29  C   UNL A   1      47.185  27.324  32.164  1.00  0.00     0.029 A 
ATOM     30  N   UNL A   1      46.628  25.256  31.730  1.00  0.00    -0.354 N 
ATOM     31  N   UNL A   1      44.492  24.320  28.085  1.00  0.00    -0.248 NA
ATOM     32  C   UNL A   1      43.364  23.308  29.859  1.00  0.00     0.031 C 
ATOM     33  C   UNL A   1      47.490  27.022  30.805  1.00  0.00     0.029 A 
ATOM     34  C   UNL A   1      46.850  25.820  30.502  1.00  0.00     0.049 A 
ATOM     35  H   UNL A   1      46.647  24.297  31.949  1.00  0.00     0.167 HD
ATOM     36  C   UNL A   1      45.307  24.386  29.202  1.00  0.00     0.074 A 
ATOM     37  C   UNL A   1      44.600  23.640  30.236  1.00  0.00     0.031 C 
ATOM     38  C   UNL A   1      46.342  25.273  29.269  1.00  0.00     0.037 A 
BRANCH  25  39
ATOM     39  C   UNL A   1      45.212  25.065  34.543  1.00  0.00     0.064 A 
ATOM     40  C   UNL A   1      46.069  25.096  35.664  1.00  0.00     0.173 A 
ATOM     41  C   UNL A   1      44.567  23.832  34.308  1.00  0.00     0.173 A 
ATOM     42  F   UNL A   1      46.745  26.211  35.977  1.00  0.00    -0.203 F 
ATOM     43  C   UNL A   1      46.327  23.957  36.432  1.00  0.00     0.198 A 
ATOM     44  C   UNL A   1      44.787  22.711  35.110  1.00  0.00     0.198 A 
ATOM     45  F   UNL A   1      43.789  23.629  33.238  1.00  0.00    -0.203 F 
ATOM     46  F   UNL A   1      47.250  24.005  37.401  1.00  0.00    -0.200 F 
ATOM     47  C   UNL A   1      45.693  22.763  36.148  1.00  0.00     0.200 A 
ATOM     48  F   UNL A   1      44.172  21.557  34.812  1.00  0.00    -0.200 F 
ATOM     49  F   UNL A   1      45.988  21.654  36.839  1.00  0.00    -0.200 F 
ENDBRANCH  25  39
BRANCH  26  50
ATOM     50  C   UNL A   1      41.039  23.359  27.475  1.00  0.00     0.064 A 
ATOM     51  C   UNL A   1      39.698  23.717  27.273  1.00  0.00     0.173 A 
ATOM     52  C   UNL A   1      41.451  22.126  26.932  1.00  0.00     0.173 A 
ATOM     53  F   UNL A   1      39.240  24.898  27.711  1.00  0.00    -0.203 F 
ATOM     54  C   UNL A   1      38.822  22.891  26.561  1.00  0.00     0.198 A 
ATOM     55  C   UNL A   1      40.573  21.299  26.233  1.00  0.00     0.198 A 
ATOM     56  F   UNL A   1      42.734  21.743  26.988  1.00  0.00    -0.203 F 
ATOM     57  F   UNL A   1      37.562  23.291  26.337  1.00  0.00    -0.200 F 
ATOM     58  C   UNL A   1      39.262  21.687  26.037  1.00  0.00     0.200 A 
ATOM     59  F   UNL A   1      41.022  20.153  25.701  1.00  0.00    -0.200 F 
ATOM     60  F   UNL A   1      38.436  20.920  25.312  1.00  0.00    -0.200 F 
ENDBRANCH  26  50
BRANCH  38  61
ATOM     61  C   UNL A   1      46.766  25.952  28.001  1.00  0.00     0.064 A 
ATOM     62  C   UNL A   1      46.137  27.099  27.489  1.00  0.00     0.173 A 
ATOM     63  C   UNL A   1      47.938  25.516  27.367  1.00  0.00     0.173 A 
ATOM     64  F   UNL A   1      45.079  27.638  28.107  1.00  0.00    -0.203 F 
ATOM     65  C   UNL A   1      46.632  27.747  26.359  1.00  0.00     0.198 A 
ATOM     66  C   UNL A   1      48.450  26.188  26.261  1.00  0.00     0.198 A 
ATOM     67  F   UNL A   1      48.615  24.464  27.853  1.00  0.00    -0.203 F 
ATOM     68  F   UNL A   1      46.007  28.833  25.882  1.00  0.00    -0.200 F 
ATOM     69  C   UNL A   1      47.790  27.295  25.750  1.00  0.00     0.200 A 
ATOM     70  F   UNL A   1      49.599  25.779  25.706  1.00  0.00    -0.200 F 
ATOM     71  F   UNL A   1      48.290  27.944  24.690  1.00  0.00    -0.200 F 
ENDBRANCH  38  61
ENDBRANCH  12  13
ENDBRANCH   5   7
ENDBRANCH   2   3
ENDBRANCH   1   2
BRANCH   1  72
ATOM     72  C   UNL A   1      37.016  33.982  34.978  1.00  0.00     0.023 C 
BRANCH  72  73
ATOM     73  C   UNL A   1      36.046  34.570  33.965  1.00  0.00     0.116 C 
BRANCH  73  74
ATOM     74  N   UNL A   1      34.695  34.062  34.122  1.00  0.00    -0.352 N 
ATOM     75  C   UNL A   1      33.933  33.379  33.198  1.00  0.00     0.255 C 
ATOM     76  H   UNL A   1      34.271  34.226  34.995  1.00  0.00     0.163 HD
ATOM     77  O   UNL A   1      32.770  33.114  33.458  1.00  0.00    -0.269 OA
BRANCH  75  78
ATOM     78  C   UNL A   1      34.535  33.078  31.911  1.00  0.00     0.084 A 
ATOM     79  C   UNL A   1      35.424  32.040  31.690  1.00  0.00     0.107 A 
ATOM     80  C   UNL A   1      34.334  33.673  30.650  1.00  0.00     0.101 A 
ATOM     81  N   UNL A   1      35.721  31.964  30.342  1.00  0.00    -0.317 N 
ATOM     82  C   UNL A   1      34.978  32.934  29.689  1.00  0.00     0.058 A 
ATOM     83  N   UNL A   1      33.445  34.712  30.384  1.00  0.00    -0.215 NA
ATOM     84  C   UNL A   1      34.692  33.044  28.228  1.00  0.00     0.088 C 
ATOM     85  C   UNL A   1      33.286  34.983  29.135  1.00  0.00     0.187 C 
ATOM     86  C   UNL A   1      34.009  34.397  27.946  1.00  0.00     0.112 C 
BRANCH  81  87
ATOM     87  C   UNL A   1      36.565  30.982  29.768  1.00  0.00     0.045 A 
ATOM     88  C   UNL A   1      37.451  31.325  28.743  1.00  0.00     0.026 A 
ATOM     89  C   UNL A   1      36.526  29.670  30.258  1.00  0.00     0.026 A 
ATOM     90  C   UNL A   1      38.294  30.351  28.207  1.00  0.00     0.002 A 
ATOM     91  C   UNL A   1      37.349  28.695  29.695  1.00  0.00     0.002 A 
ATOM     92  C   UNL A   1      38.236  29.036  28.674  1.00  0.00     0.000 A 
ENDBRANCH  81  87
BRANCH  84  93
ATOM     93  C   UNL A   1      33.858  31.902  27.644  1.00  0.00     0.014 A 
ATOM     94  C   UNL A   1      34.307  30.622  27.361  1.00  0.00     0.016 A 
ATOM     95  S   UNL A   1      32.198  32.061  27.225  1.00  0.00    -0.148 S 
ATOM     96  C   UNL A   1      33.285  29.773  26.848  1.00  0.00     0.012 A 
ATOM     97  C   UNL A   1      32.076  30.424  26.761  1.00  0.00     0.065 A 
ENDBRANCH  84  93
BRANCH  85  98
ATOM     98  O   UNL A   1      32.412  35.962  28.815  1.00  0.00    -0.496 OA
ATOM     99  H   UNL A   1      31.682  35.775  28.260  1.00  0.00     0.294 HD
ENDBRANCH  85  98
ENDBRANCH  75  78
ENDBRANCH  73  74
ENDBRANCH  72  73
ENDBRANCH   1  72
TORSDOF 14
ENDMDL
MODEL 2
REMARK VINA RESULT:     -13.3      5.187     10.178
REMARK SMILES O=C(NCCCCNC(=O)c1cn(-c2ccccc2)c2c1N=C(O)C[C@@H]2c1cccs1)c1ccc(-c2c3nc(c(-c4c(F)c(F)c(F)c(F)c4F)c4ccc([nH]4)c(-c4c(F)c(F)c(F)c(F)c4F)c4nc(c(-c5c(F)c(F)c(F)c(F)c5F)c5ccc2[nH]5)C=C4)C=C3)cc1
REMARK SMILES IDX 5 1 4 2 3 3 1 4 2 5 32 7 33 8 94 9 34 10 93 11 35 12 36 13
REMARK SMILES IDX 37 14 87 15 38 16 92 17 86 18 88 19 39 20 91 21 85 22 84 23
REMARK SMILES IDX 40 25 72 26 52 27 71 28 53 29 56 30 70 31 89 32 54 33 55 34
REMARK SMILES IDX 69 36 90 37 57 38 41 39 42 40 50 41 43 42 44 43 48 44 51 45
REMARK SMILES IDX 45 46 46 47 49 48 47 49 73 50 74 51 82 52 75 53 76 54 80 55
REMARK SMILES IDX 83 56 77 57 78 58 81 59 79 60 58 61 59 62 67 63 60 64 61 65
REMARK SMILES IDX 65 66 68 67 62 68 63 69 66 70 64 71 6 72 7 73 8 74 9 75
REMARK SMILES IDX 10 77 11 78 12 79 21 80 13 81 20 82 22 83 26 84 23 85 25 86
REMARK SMILES IDX 14 87 15 88 19 89 16 90 18 91 17 92 27 93 28 94 31 95 29 96
REMARK SMILES IDX 30 97 24 98
REMARK H PARENT 3 6 88 24 56 35 8 76 24 99
REMARK Flexibility Score: inf
ROOT
ATOM      1  C   UNL A   1      39.328  22.124  26.358  1.00  0.00     0.023 C 
ENDROOT
BRANCH   1   2
ATOM      2  C   UNL A   1      40.772  21.706  26.648  1.00  0.00     0.116 C 
BRANCH   2   3
ATOM      3  N   UNL A   1      41.725  22.085  25.625  1.00  0.00    -0.352 N 
ATOM      4  O   UNL A   1      43.334  23.087  24.483  1.00  0.00    -0.269 OA
ATOM      5  C   UNL A   1      42.521  23.176  25.408  1.00  0.00     0.251 C 
ATOM      6  H   UNL A   1      41.823  21.400  24.925  1.00  0.00     0.163 HD
BRANCH   5   7
ATOM      7  C   UNL A   1      42.443  24.460  26.163  1.00  0.00     0.039 A 
ATOM      8  C   UNL A   1      43.023  24.708  27.407  1.00  0.00     0.014 A 
ATOM      9  C   UNL A   1      41.680  25.487  25.573  1.00  0.00     0.014 A 
ATOM     10  C   UNL A   1      42.777  25.898  28.086  1.00  0.00     0.010 A 
ATOM     11  C   UNL A   1      41.457  26.694  26.232  1.00  0.00     0.010 A 
ATOM     12  C   UNL A   1      41.979  26.884  27.509  1.00  0.00    -0.014 A 
BRANCH  12  13
ATOM     13  C   UNL A   1      41.797  28.127  28.256  1.00  0.00     0.031 A 
ATOM     14  C   UNL A   1      42.856  29.168  28.093  1.00  0.00     0.074 A 
ATOM     15  C   UNL A   1      40.681  28.413  28.955  1.00  0.00     0.049 A 
ATOM     16  N   UNL A   1      43.521  29.802  29.008  1.00  0.00    -0.248 NA
ATOM     17  C   UNL A   1      43.237  29.533  26.719  1.00  0.00     0.031 C 
ATOM     18  C   UNL A   1      39.419  27.672  28.981  1.00  0.00     0.029 A 
ATOM     19  N   UNL A   1      40.415  29.516  29.715  1.00  0.00    -0.354 N 
ATOM     20  C   UNL A   1      44.303  30.746  28.339  1.00  0.00     0.074 A 
ATOM     21  C   UNL A   1      44.148  30.482  26.932  1.00  0.00     0.031 C 
ATOM     22  C   UNL A   1      38.464  28.447  29.540  1.00  0.00     0.029 A 
ATOM     23  C   UNL A   1      39.076  29.676  30.020  1.00  0.00     0.049 A 
ATOM     24  H   UNL A   1      41.114  30.140  30.020  1.00  0.00     0.167 HD
ATOM     25  C   UNL A   1      44.901  31.788  28.982  1.00  0.00     0.037 A 
ATOM     26  C   UNL A   1      38.492  30.774  30.557  1.00  0.00     0.037 A 
ATOM     27  C   UNL A   1      45.074  31.527  30.384  1.00  0.00     0.049 A 
ATOM     28  C   UNL A   1      39.544  31.593  31.204  1.00  0.00     0.074 A 
ATOM     29  C   UNL A   1      45.747  30.571  31.121  1.00  0.00     0.029 A 
ATOM     30  N   UNL A   1      44.280  32.183  31.288  1.00  0.00    -0.354 N 
ATOM     31  N   UNL A   1      40.173  31.263  32.296  1.00  0.00    -0.248 NA
ATOM     32  C   UNL A   1      40.160  32.655  30.424  1.00  0.00     0.031 C 
ATOM     33  C   UNL A   1      44.960  30.382  32.295  1.00  0.00     0.029 A 
ATOM     34  C   UNL A   1      43.867  31.243  32.195  1.00  0.00     0.049 A 
ATOM     35  H   UNL A   1      44.052  33.140  31.287  1.00  0.00     0.167 HD
ATOM     36  C   UNL A   1      41.450  31.774  32.134  1.00  0.00     0.074 A 
ATOM     37  C   UNL A   1      41.348  32.718  31.028  1.00  0.00     0.031 C 
ATOM     38  C   UNL A   1      42.528  31.179  32.724  1.00  0.00     0.037 A 
BRANCH  25  39
ATOM     39  C   UNL A   1      45.065  33.173  28.398  1.00  0.00     0.064 A 
ATOM     40  C   UNL A   1      46.361  33.711  28.236  1.00  0.00     0.173 A 
ATOM     41  C   UNL A   1      44.007  34.100  28.283  1.00  0.00     0.173 A 
ATOM     42  F   UNL A   1      47.444  32.927  28.337  1.00  0.00    -0.203 F 
ATOM     43  C   UNL A   1      46.579  35.081  28.066  1.00  0.00     0.198 A 
ATOM     44  C   UNL A   1      44.228  35.460  28.060  1.00  0.00     0.198 A 
ATOM     45  F   UNL A   1      42.732  33.751  28.492  1.00  0.00    -0.203 F 
ATOM     46  F   UNL A   1      47.831  35.557  28.053  1.00  0.00    -0.200 F 
ATOM     47  C   UNL A   1      45.513  35.955  27.987  1.00  0.00     0.200 A 
ATOM     48  F   UNL A   1      43.181  36.295  27.998  1.00  0.00    -0.200 F 
ATOM     49  F   UNL A   1      45.720  37.275  27.891  1.00  0.00    -0.200 F 
ENDBRANCH  25  39
BRANCH  26  50
ATOM     50  C   UNL A   1      37.126  31.286  30.313  1.00  0.00     0.064 A 
ATOM     51  C   UNL A   1      36.265  31.600  31.375  1.00  0.00     0.173 A 
ATOM     52  C   UNL A   1      36.729  31.718  29.032  1.00  0.00     0.173 A 
ATOM     53  F   UNL A   1      36.595  31.273  32.632  1.00  0.00    -0.203 F 
ATOM     54  C   UNL A   1      35.079  32.312  31.168  1.00  0.00     0.198 A 
ATOM     55  C   UNL A   1      35.541  32.416  28.825  1.00  0.00     0.198 A 
ATOM     56  F   UNL A   1      37.531  31.551  27.970  1.00  0.00    -0.203 F 
ATOM     57  F   UNL A   1      34.309  32.645  32.212  1.00  0.00    -0.200 F 
ATOM     58  C   UNL A   1      34.722  32.724  29.894  1.00  0.00     0.200 A 
ATOM     59  F   UNL A   1      35.225  32.839  27.592  1.00  0.00    -0.200 F 
ATOM     60  F   UNL A   1      33.612  33.450  29.702  1.00  0.00    -0.200 F 
ENDBRANCH  26  50
BRANCH  38  61
ATOM     61  C   UNL A   1      42.269  30.157  33.789  1.00  0.00     0.064 A 
ATOM     62  C   UNL A   1      41.931  28.821  33.515  1.00  0.00     0.173 A 
ATOM     63  C   UNL A   1      42.516  30.502  35.125  1.00  0.00     0.173 A 
ATOM     64  F   UNL A   1      41.788  28.392  32.254  1.00  0.00    -0.203 F 
ATOM     65  C   UNL A   1      41.795  27.888  34.540  1.00  0.00     0.198 A 
ATOM     66  C   UNL A   1      42.415  29.559  36.143  1.00  0.00     0.198 A 
ATOM     67  F   UNL A   1      42.905  31.749  35.437  1.00  0.00    -0.203 F 
ATOM     68  F   UNL A   1      41.460  26.621  34.254  1.00  0.00    -0.200 F 
ATOM     69  C   UNL A   1      42.044  28.255  35.851  1.00  0.00     0.200 A 
ATOM     70  F   UNL A   1      42.707  29.905  37.404  1.00  0.00    -0.200 F 
ATOM     71  F   UNL A   1      41.955  27.347  36.833  1.00  0.00    -0.200 F 
ENDBRANCH  38  61
ENDBRANCH  12  13
ENDBRANCH   5   7
ENDBRANCH   2   3
ENDBRANCH   1   2
BRANCH   1  72
ATOM     72  C   UNL A   1      38.978  23.562  26.731  1.00  0.00     0.023 C 
BRANCH  72  73
ATOM     73  C   UNL A   1      37.601  24.028  26.284  1.00  0.00     0.116 C 
BRANCH  73  74
ATOM     74  N   UNL A   1      37.269  23.590  24.940  1.00  0.00    -0.352 N 
ATOM     75  C   UNL A   1      36.049  23.659  24.302  1.00  0.00     0.255 C 
ATOM     76  H   UNL A   1      38.007  23.193  24.422  1.00  0.00     0.163 HD
ATOM     77  O   UNL A   1      35.917  23.145  23.203  1.00  0.00    -0.269 OA
BRANCH  75  78
ATOM     78  C   UNL A   1      34.944  24.274  25.016  1.00  0.00     0.084 A 
ATOM     79  C   UNL A   1      34.838  25.631  25.267  1.00  0.00     0.107 A 
ATOM     80  C   UNL A   1      33.764  23.705  25.534  1.00  0.00     0.101 A 
ATOM     81  N   UNL A   1      33.621  25.898  25.867  1.00  0.00    -0.317 N 
ATOM     82  C   UNL A   1      32.924  24.704  25.960  1.00  0.00     0.058 A 
ATOM     83  N   UNL A   1      33.406  22.363  25.429  1.00  0.00    -0.215 NA
ATOM     84  C   UNL A   1      31.468  24.508  26.220  1.00  0.00     0.088 C 
ATOM     85  C   UNL A   1      32.206  22.090  25.811  1.00  0.00     0.187 C 
ATOM     86  C   UNL A   1      31.190  23.009  26.446  1.00  0.00     0.112 C 
BRANCH  81  87
ATOM     87  C   UNL A   1      33.174  27.195  26.216  1.00  0.00     0.045 A 
ATOM     88  C   UNL A   1      33.661  28.316  25.538  1.00  0.00     0.026 A 
ATOM     89  C   UNL A   1      32.216  27.344  27.229  1.00  0.00     0.026 A 
ATOM     90  C   UNL A   1      33.190  29.585  25.878  1.00  0.00     0.002 A 
ATOM     91  C   UNL A   1      31.775  28.618  27.584  1.00  0.00     0.002 A 
ATOM     92  C   UNL A   1      32.257  29.737  26.905  1.00  0.00     0.000 A 
ENDBRANCH  81  87
BRANCH  84  93
ATOM     93  C   UNL A   1      30.537  25.057  25.137  1.00  0.00     0.014 A 
ATOM     94  C   UNL A   1      29.496  25.952  25.329  1.00  0.00     0.016 A 
ATOM     95  S   UNL A   1      30.646  24.610  23.480  1.00  0.00    -0.148 S 
ATOM     96  C   UNL A   1      28.828  26.296  24.119  1.00  0.00     0.012 A 
ATOM     97  C   UNL A   1      29.381  25.663  23.031  1.00  0.00     0.065 A 
ENDBRANCH  84  93
BRANCH  85  98
ATOM     98  O   UNL A   1      31.794  20.809  25.703  1.00  0.00    -0.496 OA
ATOM     99  H   UNL A   1      32.002  20.191  26.376  1.00  0.00     0.294 HD
ENDBRANCH  85  98
ENDBRANCH  75  78
ENDBRANCH  73  74
ENDBRANCH  72  73
ENDBRANCH   1  72
TORSDOF 14
ENDMDL
MODEL 3
REMARK VINA RESULT:     -13.2      3.643      5.639
REMARK SMILES O=C(NCCCCNC(=O)c1cn(-c2ccccc2)c2c1N=C(O)C[C@@H]2c1cccs1)c1ccc(-c2c3nc(c(-c4c(F)c(F)c(F)c(F)c4F)c4ccc([nH]4)c(-c4c(F)c(F)c(F)c(F)c4F)c4nc(c(-c5c(F)c(F)c(F)c(F)c5F)c5ccc2[nH]5)C=C4)C=C3)cc1
REMARK SMILES IDX 5 1 4 2 3 3 1 4 2 5 32 7 33 8 94 9 34 10 93 11 35 12 36 13
REMARK SMILES IDX 37 14 87 15 38 16 92 17 86 18 88 19 39 20 91 21 85 22 84 23
REMARK SMILES IDX 40 25 72 26 52 27 71 28 53 29 56 30 70 31 89 32 54 33 55 34
REMARK SMILES IDX 69 36 90 37 57 38 41 39 42 40 50 41 43 42 44 43 48 44 51 45
REMARK SMILES IDX 45 46 46 47 49 48 47 49 73 50 74 51 82 52 75 53 76 54 80 55
REMARK SMILES IDX 83 56 77 57 78 58 81 59 79 60 58 61 59 62 67 63 60 64 61 65
REMARK SMILES IDX 65 66 68 67 62 68 63 69 66 70 64 71 6 72 7 73 8 74 9 75
REMARK SMILES IDX 10 77 11 78 12 79 21 80 13 81 20 82 22 83 26 84 23 85 25 86
REMARK SMILES IDX 14 87 15 88 19 89 16 90 18 91 17 92 27 93 28 94 31 95 29 96
REMARK SMILES IDX 30 97 24 98
REMARK H PARENT 3 6 88 24 56 35 8 76 24 99
REMARK Flexibility Score: inf
ROOT
ATOM      1  C   UNL A   1      35.502  30.841  27.646  1.00  0.00     0.023 C 
ENDROOT
BRANCH   1   2
ATOM      2  C   UNL A   1      34.661  32.059  28.035  1.00  0.00     0.116 C 
BRANCH   2   3
ATOM      3  N   UNL A   1      34.437  32.205  29.460  1.00  0.00    -0.352 N 
ATOM      4  O   UNL A   1      34.709  32.350  31.650  1.00  0.00    -0.269 OA
ATOM      5  C   UNL A   1      35.183  31.958  30.580  1.00  0.00     0.251 C 
ATOM      6  H   UNL A   1      33.546  32.566  29.669  1.00  0.00     0.163 HD
BRANCH   5   7
ATOM      7  C   UNL A   1      36.478  31.219  30.605  1.00  0.00     0.039 A 
ATOM      8  C   UNL A   1      37.737  31.778  30.388  1.00  0.00     0.014 A 
ATOM      9  C   UNL A   1      36.399  29.830  30.828  1.00  0.00     0.014 A 
ATOM     10  C   UNL A   1      38.870  30.974  30.301  1.00  0.00     0.010 A 
ATOM     11  C   UNL A   1      37.534  29.023  30.776  1.00  0.00     0.010 A 
ATOM     12  C   UNL A   1      38.768  29.595  30.475  1.00  0.00    -0.014 A 
BRANCH  12  13
ATOM     13  C   UNL A   1      40.002  28.814  30.415  1.00  0.00     0.031 A 
ATOM     14  C   UNL A   1      40.737  28.622  31.702  1.00  0.00     0.074 A 
ATOM     15  C   UNL A   1      40.416  28.169  29.307  1.00  0.00     0.049 A 
ATOM     16  N   UNL A   1      41.987  28.847  31.966  1.00  0.00    -0.248 NA
ATOM     17  C   UNL A   1      39.963  28.132  32.854  1.00  0.00     0.031 C 
ATOM     18  C   UNL A   1      39.688  27.975  28.052  1.00  0.00     0.029 A 
ATOM     19  N   UNL A   1      41.560  27.446  29.123  1.00  0.00    -0.354 N 
ATOM     20  C   UNL A   1      42.196  28.398  33.272  1.00  0.00     0.074 A 
ATOM     21  C   UNL A   1      40.903  28.042  33.795  1.00  0.00     0.031 C 
ATOM     22  C   UNL A   1      40.308  27.019  27.326  1.00  0.00     0.029 A 
ATOM     23  C   UNL A   1      41.535  26.632  28.005  1.00  0.00     0.049 A 
ATOM     24  H   UNL A   1      42.333  27.500  29.731  1.00  0.00     0.167 HD
ATOM     25  C   UNL A   1      43.443  28.194  33.783  1.00  0.00     0.037 A 
ATOM     26  C   UNL A   1      42.416  25.653  27.694  1.00  0.00     0.037 A 
ATOM     27  C   UNL A   1      44.443  28.945  33.077  1.00  0.00     0.049 A 
ATOM     28  C   UNL A   1      43.661  25.884  28.464  1.00  0.00     0.074 A 
ATOM     29  C   UNL A   1      44.665  30.288  32.837  1.00  0.00     0.029 A 
ATOM     30  N   UNL A   1      45.311  28.285  32.245  1.00  0.00    -0.354 N 
ATOM     31  N   UNL A   1      44.501  26.855  28.242  1.00  0.00    -0.248 NA
ATOM     32  C   UNL A   1      43.806  25.213  29.747  1.00  0.00     0.031 C 
ATOM     33  C   UNL A   1      45.273  30.343  31.549  1.00  0.00     0.029 A 
ATOM     34  C   UNL A   1      45.387  29.028  31.097  1.00  0.00     0.049 A 
ATOM     35  H   UNL A   1      45.785  27.445  32.436  1.00  0.00     0.167 HD
ATOM     36  C   UNL A   1      44.997  27.184  29.493  1.00  0.00     0.074 A 
ATOM     37  C   UNL A   1      44.630  26.068  30.356  1.00  0.00     0.031 C 
ATOM     38  C   UNL A   1      45.412  28.453  29.776  1.00  0.00     0.037 A 
BRANCH  25  39
ATOM     39  C   UNL A   1      43.803  27.081  34.742  1.00  0.00     0.064 A 
ATOM     40  C   UNL A   1      44.376  27.399  35.992  1.00  0.00     0.173 A 
ATOM     41  C   UNL A   1      43.895  25.726  34.361  1.00  0.00     0.173 A 
ATOM     42  F   UNL A   1      44.359  28.658  36.453  1.00  0.00    -0.203 F 
ATOM     43  C   UNL A   1      45.065  26.451  36.754  1.00  0.00     0.198 A 
ATOM     44  C   UNL A   1      44.539  24.771  35.150  1.00  0.00     0.198 A 
ATOM     45  F   UNL A   1      43.469  25.293  33.168  1.00  0.00    -0.203 F 
ATOM     46  F   UNL A   1      45.706  26.832  37.867  1.00  0.00    -0.200 F 
ATOM     47  C   UNL A   1      45.154  25.140  36.328  1.00  0.00     0.200 A 
ATOM     48  F   UNL A   1      44.625  23.507  34.714  1.00  0.00    -0.200 F 
ATOM     49  F   UNL A   1      45.870  24.245  37.021  1.00  0.00    -0.200 F 
ENDBRANCH  25  39
BRANCH  26  50
ATOM     50  C   UNL A   1      42.151  24.386  26.978  1.00  0.00     0.064 A 
ATOM     51  C   UNL A   1      43.049  23.885  26.024  1.00  0.00     0.173 A 
ATOM     52  C   UNL A   1      41.129  23.513  27.401  1.00  0.00     0.173 A 
ATOM     53  F   UNL A   1      44.081  24.634  25.610  1.00  0.00    -0.203 F 
ATOM     54  C   UNL A   1      42.937  22.582  25.530  1.00  0.00     0.198 A 
ATOM     55  C   UNL A   1      41.011  22.219  26.897  1.00  0.00     0.198 A 
ATOM     56  F   UNL A   1      40.282  23.866  28.378  1.00  0.00    -0.203 F 
ATOM     57  F   UNL A   1      43.847  22.117  24.663  1.00  0.00    -0.200 F 
ATOM     58  C   UNL A   1      41.921  21.749  25.971  1.00  0.00     0.200 A 
ATOM     59  F   UNL A   1      40.045  21.412  27.360  1.00  0.00    -0.200 F 
ATOM     60  F   UNL A   1      41.844  20.484  25.535  1.00  0.00    -0.200 F 
ENDBRANCH  26  50
BRANCH  38  61
ATOM     61  C   UNL A   1      45.608  29.399  28.629  1.00  0.00     0.064 A 
ATOM     62  C   UNL A   1      44.562  30.127  28.039  1.00  0.00     0.173 A 
ATOM     63  C   UNL A   1      46.915  29.689  28.215  1.00  0.00     0.173 A 
ATOM     64  F   UNL A   1      43.299  29.984  28.462  1.00  0.00    -0.203 F 
ATOM     65  C   UNL A   1      44.812  31.065  27.040  1.00  0.00     0.198 A 
ATOM     66  C   UNL A   1      47.165  30.653  27.243  1.00  0.00     0.198 A 
ATOM     67  F   UNL A   1      47.958  29.069  28.791  1.00  0.00    -0.203 F 
ATOM     68  F   UNL A   1      43.795  31.739  26.483  1.00  0.00    -0.200 F 
ATOM     69  C   UNL A   1      46.112  31.332  26.648  1.00  0.00     0.200 A 
ATOM     70  F   UNL A   1      48.427  30.946  26.903  1.00  0.00    -0.200 F 
ATOM     71  F   UNL A   1      46.356  32.265  25.718  1.00  0.00    -0.200 F 
ENDBRANCH  38  61
ENDBRANCH  12  13
ENDBRANCH   5   7
ENDBRANCH   2   3
ENDBRANCH   1   2
BRANCH   1  72
ATOM     72  C   UNL A   1      34.714  29.554  27.411  1.00  0.00     0.023 C 
BRANCH  72  73
ATOM     73  C   UNL A   1      33.447  29.715  26.585  1.00  0.00     0.116 C 
BRANCH  73  74
ATOM     74  N   UNL A   1      32.304  29.040  27.173  1.00  0.00    -0.352 N 
ATOM     75  C   UNL A   1      31.888  27.741  26.970  1.00  0.00     0.255 C 
ATOM     76  H   UNL A   1      31.758  29.577  27.792  1.00  0.00     0.163 HD
ATOM     77  O   UNL A   1      30.839  27.363  27.465  1.00  0.00    -0.269 OA
BRANCH  75  78
ATOM     78  C   UNL A   1      32.688  26.901  26.096  1.00  0.00     0.084 A 
ATOM     79  C   UNL A   1      33.562  25.923  26.540  1.00  0.00     0.107 A 
ATOM     80  C   UNL A   1      32.729  26.827  24.690  1.00  0.00     0.101 A 
ATOM     81  N   UNL A   1      34.080  25.238  25.457  1.00  0.00    -0.317 N 
ATOM     82  C   UNL A   1      33.497  25.754  24.311  1.00  0.00     0.058 A 
ATOM     83  N   UNL A   1      31.939  27.579  23.823  1.00  0.00    -0.215 NA
ATOM     84  C   UNL A   1      33.468  25.155  22.945  1.00  0.00     0.088 C 
ATOM     85  C   UNL A   1      32.006  27.226  22.585  1.00  0.00     0.187 C 
ATOM     86  C   UNL A   1      32.897  26.185  21.951  1.00  0.00     0.112 C 
BRANCH  81  87
ATOM     87  C   UNL A   1      34.971  24.142  25.562  1.00  0.00     0.045 A 
ATOM     88  C   UNL A   1      34.489  22.866  25.865  1.00  0.00     0.026 A 
ATOM     89  C   UNL A   1      36.339  24.343  25.330  1.00  0.00     0.026 A 
ATOM     90  C   UNL A   1      35.379  21.794  25.940  1.00  0.00     0.002 A 
ATOM     91  C   UNL A   1      37.225  23.272  25.438  1.00  0.00     0.002 A 
ATOM     92  C   UNL A   1      36.745  21.998  25.736  1.00  0.00     0.000 A 
ENDBRANCH  81  87
BRANCH  84  93
ATOM     93  C   UNL A   1      32.703  23.835  22.833  1.00  0.00     0.014 A 
ATOM     94  C   UNL A   1      33.143  22.684  22.198  1.00  0.00     0.016 A 
ATOM     95  S   UNL A   1      31.129  23.596  23.484  1.00  0.00    -0.148 S 
ATOM     96  C   UNL A   1      32.213  21.609  22.287  1.00  0.00     0.012 A 
ATOM     97  C   UNL A   1      31.089  21.962  22.996  1.00  0.00     0.065 A 
ENDBRANCH  84  93
BRANCH  85  98
ATOM     98  O   UNL A   1      31.238  27.900  21.703  1.00  0.00    -0.496 OA
ATOM     99  H   UNL A   1      30.547  28.454  22.010  1.00  0.00     0.294 HD
ENDBRANCH  85  98
ENDBRANCH  75  78
ENDBRANCH  73  74
ENDBRANCH  72  73
ENDBRANCH   1  72
TORSDOF 14
ENDMDL
