MODEL 1
REMARK VINA RESULT:     -12.6      0.000      0.000
REMARK SMILES Nn1c(Cc2ccc(F)c(F)c2)nnc1SCC(=O)NCCCCNC(=O)c1ccc(-c2c3nc(c(-c4c(F)c(F)c(F)c(F)c4F)c4ccc([nH]4)c(-c4c(F)c(F)c(F)c(F)c4F)c4nc(c(-c5c(F)c(F)c(F)c(F)c5F)c5ccc2[nH]5)C=C4)C=C3)cc1
REMARK SMILES IDX 21 1 20 2 18 3 19 4 17 6 16 7 15 8 2 9 3 10 13 11 14 12 1 13
REMARK SMILES IDX 4 16 5 17 6 18 12 19 7 20 10 21 8 22 11 23 9 24 22 25 23 26
REMARK SMILES IDX 24 27 25 28 26 29 27 31 28 32 29 33 90 34 30 35 89 36 31 37
REMARK SMILES IDX 32 38 33 39 83 40 34 41 88 42 82 43 84 44 35 45 87 46 81 47
REMARK SMILES IDX 80 48 36 50 68 51 48 52 67 53 49 54 52 55 66 56 85 57 50 58
REMARK SMILES IDX 51 59 65 61 86 62 53 63 37 64 38 65 46 66 39 67 40 68 44 69
REMARK SMILES IDX 47 70 41 71 42 72 45 73 43 74 69 75 70 76 78 77 71 78 72 79
REMARK SMILES IDX 76 80 79 81 73 82 74 83 77 84 75 85 54 86 55 87 63 88 56 89
REMARK SMILES IDX 57 90 61 91 64 92 58 93 59 94 62 95 60 96
REMARK H PARENT 20 5 1 14 1 15 25 30 84 49 52 60
REMARK Flexibility Score: inf
ROOT
ATOM      1  C   UNL A   1      33.310  29.591  26.156  1.00  0.00     0.116 C 
ENDROOT
BRANCH   1   2
ATOM      2  N   UNL A   1      33.243  29.614  24.706  1.00  0.00    -0.355 N 
ATOM      3  C   UNL A   1      33.506  28.618  23.817  1.00  0.00     0.230 C 
ATOM      4  O   UNL A   1      33.552  28.906  22.616  1.00  0.00    -0.274 OA
ATOM      5  H   UNL A   1      32.968  30.472  24.310  1.00  0.00     0.163 HD
BRANCH   3   6
ATOM      6  C   UNL A   1      33.693  27.188  24.279  1.00  0.00     0.178 C 
BRANCH   6   7
ATOM      7  S   UNL A   1      32.190  26.199  24.301  1.00  0.00    -0.074 SA
BRANCH   7   8
ATOM      8  C   UNL A   1      32.581  24.691  23.551  1.00  0.00     0.210 A 
ATOM      9  N   UNL A   1      31.705  23.710  23.144  1.00  0.00    -0.221 N 
ATOM     10  C   UNL A   1      32.501  22.648  22.758  1.00  0.00     0.157 A 
ATOM     11  N   UNL A   1      33.768  22.991  22.910  1.00  0.00    -0.132 NA
ATOM     12  N   UNL A   1      33.816  24.268  23.403  1.00  0.00    -0.121 NA
BRANCH   9  13
ATOM     13  N   UNL A   1      30.273  23.775  23.115  1.00  0.00    -0.336 N 
ATOM     14  H   UNL A   1      29.745  23.339  23.822  1.00  0.00     0.178 HD
ATOM     15  H   UNL A   1      29.816  24.258  22.387  1.00  0.00     0.178 HD
ENDBRANCH   9  13
BRANCH  10  16
ATOM     16  C   UNL A   1      31.999  21.310  22.327  1.00  0.00     0.115 C 
BRANCH  16  17
ATOM     17  C   UNL A   1      32.330  20.185  23.290  1.00  0.00    -0.037 A 
ATOM     18  C   UNL A   1      32.464  20.436  24.668  1.00  0.00     0.007 A 
ATOM     19  C   UNL A   1      32.502  18.874  22.822  1.00  0.00     0.046 A 
ATOM     20  C   UNL A   1      32.778  19.404  25.556  1.00  0.00     0.043 A 
ATOM     21  C   UNL A   1      32.807  17.849  23.716  1.00  0.00     0.159 A 
ATOM     22  C   UNL A   1      32.947  18.113  25.073  1.00  0.00     0.158 A 
ATOM     23  F   UNL A   1      32.963  16.602  23.251  1.00  0.00    -0.204 F 
ATOM     24  F   UNL A   1      33.246  17.123  25.926  1.00  0.00    -0.204 F 
ENDBRANCH  16  17
ENDBRANCH  10  16
ENDBRANCH   7   8
ENDBRANCH   6   7
ENDBRANCH   3   6
ENDBRANCH   1   2
BRANCH   1  25
ATOM     25  C   UNL A   1      32.018  30.121  26.779  1.00  0.00     0.023 C 
BRANCH  25  26
ATOM     26  C   UNL A   1      31.825  31.638  26.675  1.00  0.00     0.023 C 
BRANCH  26  27
ATOM     27  C   UNL A   1      32.939  32.485  27.284  1.00  0.00     0.116 C 
BRANCH  27  28
ATOM     28  N   UNL A   1      32.520  33.843  27.591  1.00  0.00    -0.352 N 
ATOM     29  C   UNL A   1      33.028  34.707  28.532  1.00  0.00     0.251 C 
ATOM     30  H   UNL A   1      31.772  34.192  27.052  1.00  0.00     0.163 HD
ATOM     31  O   UNL A   1      32.489  35.788  28.746  1.00  0.00    -0.269 OA
BRANCH  29  32
ATOM     32  C   UNL A   1      34.217  34.309  29.314  1.00  0.00     0.039 A 
ATOM     33  C   UNL A   1      34.035  33.652  30.534  1.00  0.00     0.014 A 
ATOM     34  C   UNL A   1      35.503  34.555  28.827  1.00  0.00     0.014 A 
ATOM     35  C   UNL A   1      35.144  33.165  31.229  1.00  0.00     0.010 A 
ATOM     36  C   UNL A   1      36.603  34.020  29.492  1.00  0.00     0.010 A 
ATOM     37  C   UNL A   1      36.433  33.308  30.691  1.00  0.00    -0.014 A 
BRANCH  37  38
ATOM     38  C   UNL A   1      37.625  32.709  31.341  1.00  0.00     0.031 A 
ATOM     39  C   UNL A   1      38.347  31.572  30.679  1.00  0.00     0.074 A 
ATOM     40  C   UNL A   1      37.990  33.114  32.573  1.00  0.00     0.049 A 
ATOM     41  N   UNL A   1      39.279  30.790  31.160  1.00  0.00    -0.248 NA
ATOM     42  C   UNL A   1      37.947  31.257  29.300  1.00  0.00     0.031 C 
ATOM     43  C   UNL A   1      37.353  34.191  33.332  1.00  0.00     0.029 A 
ATOM     44  N   UNL A   1      38.971  32.648  33.413  1.00  0.00    -0.354 N 
ATOM     45  C   UNL A   1      39.558  29.874  30.155  1.00  0.00     0.074 A 
ATOM     46  C   UNL A   1      38.674  30.177  29.049  1.00  0.00     0.031 C 
ATOM     47  C   UNL A   1      37.964  34.309  34.523  1.00  0.00     0.029 A 
ATOM     48  C   UNL A   1      39.001  33.287  34.629  1.00  0.00     0.049 A 
ATOM     49  H   UNL A   1      39.593  31.927  33.168  1.00  0.00     0.167 HD
ATOM     50  C   UNL A   1      40.476  28.879  30.153  1.00  0.00     0.037 A 
ATOM     51  C   UNL A   1      39.762  33.059  35.716  1.00  0.00     0.037 A 
ATOM     52  C   UNL A   1      41.375  28.602  31.242  1.00  0.00     0.049 A 
ATOM     53  C   UNL A   1      40.773  31.944  35.690  1.00  0.00     0.074 A 
ATOM     54  C   UNL A   1      42.375  27.646  31.312  1.00  0.00     0.029 A 
ATOM     55  N   UNL A   1      41.388  29.283  32.451  1.00  0.00    -0.354 N 
ATOM     56  N   UNL A   1      41.039  31.094  34.729  1.00  0.00    -0.248 NA
ATOM     57  C   UNL A   1      41.583  31.755  36.902  1.00  0.00     0.031 C 
ATOM     58  C   UNL A   1      42.967  27.725  32.576  1.00  0.00     0.029 A 
ATOM     59  C   UNL A   1      42.368  28.758  33.278  1.00  0.00     0.049 A 
ATOM     60  H   UNL A   1      40.790  30.029  32.685  1.00  0.00     0.167 HD
ATOM     61  C   UNL A   1      42.054  30.280  35.211  1.00  0.00     0.074 A 
ATOM     62  C   UNL A   1      42.370  30.751  36.545  1.00  0.00     0.031 C 
ATOM     63  C   UNL A   1      42.665  29.232  34.606  1.00  0.00     0.037 A 
BRANCH  50  64
ATOM     64  C   UNL A   1      40.559  28.011  28.931  1.00  0.00     0.064 A 
ATOM     65  C   UNL A   1      41.358  28.390  27.843  1.00  0.00     0.173 A 
ATOM     66  C   UNL A   1      39.809  26.831  28.817  1.00  0.00     0.173 A 
ATOM     67  F   UNL A   1      42.093  29.511  27.900  1.00  0.00    -0.203 F 
ATOM     68  C   UNL A   1      41.397  27.623  26.682  1.00  0.00     0.198 A 
ATOM     69  C   UNL A   1      39.871  26.053  27.665  1.00  0.00     0.198 A 
ATOM     70  F   UNL A   1      39.040  26.419  29.836  1.00  0.00    -0.203 F 
ATOM     71  F   UNL A   1      42.149  28.017  25.645  1.00  0.00    -0.200 F 
ATOM     72  C   UNL A   1      40.658  26.452  26.595  1.00  0.00     0.200 A 
ATOM     73  F   UNL A   1      39.177  24.908  27.593  1.00  0.00    -0.200 F 
ATOM     74  F   UNL A   1      40.708  25.707  25.483  1.00  0.00    -0.200 F 
ENDBRANCH  50  64
BRANCH  51  75
ATOM     75  C   UNL A   1      39.602  33.916  36.919  1.00  0.00     0.064 A 
ATOM     76  C   UNL A   1      38.840  33.498  38.019  1.00  0.00     0.173 A 
ATOM     77  C   UNL A   1      40.195  35.184  36.977  1.00  0.00     0.173 A 
ATOM     78  F   UNL A   1      38.251  32.293  38.010  1.00  0.00    -0.203 F 
ATOM     79  C   UNL A   1      38.663  34.327  39.126  1.00  0.00     0.198 A 
ATOM     80  C   UNL A   1      40.038  36.000  38.095  1.00  0.00     0.198 A 
ATOM     81  F   UNL A   1      40.954  35.614  35.958  1.00  0.00    -0.203 F 
ATOM     82  F   UNL A   1      37.906  33.916  40.153  1.00  0.00    -0.200 F 
ATOM     83  C   UNL A   1      39.265  35.574  39.165  1.00  0.00     0.200 A 
ATOM     84  F   UNL A   1      40.643  37.195  38.138  1.00  0.00    -0.200 F 
ATOM     85  F   UNL A   1      39.106  36.366  40.235  1.00  0.00    -0.200 F 
ENDBRANCH  51  75
BRANCH  63  86
ATOM     86  C   UNL A   1      43.745  28.526  35.373  1.00  0.00     0.064 A 
ATOM     87  C   UNL A   1      45.092  28.878  35.197  1.00  0.00     0.173 A 
ATOM     88  C   UNL A   1      43.450  27.467  36.243  1.00  0.00     0.173 A 
ATOM     89  F   UNL A   1      45.426  29.880  34.370  1.00  0.00    -0.203 F 
ATOM     90  C   UNL A   1      46.105  28.189  35.858  1.00  0.00     0.198 A 
ATOM     91  C   UNL A   1      44.464  26.798  36.925  1.00  0.00     0.198 A 
ATOM     92  F   UNL A   1      42.177  27.101  36.456  1.00  0.00    -0.203 F 
ATOM     93  F   UNL A   1      47.386  28.525  35.653  1.00  0.00    -0.200 F 
ATOM     94  C   UNL A   1      45.790  27.154  36.725  1.00  0.00     0.200 A 
ATOM     95  F   UNL A   1      44.157  25.814  37.782  1.00  0.00    -0.200 F 
ATOM     96  F   UNL A   1      46.764  26.502  37.373  1.00  0.00    -0.200 F 
ENDBRANCH  63  86
ENDBRANCH  37  38
ENDBRANCH  29  32
ENDBRANCH  27  28
ENDBRANCH  26  27
ENDBRANCH  25  26
ENDBRANCH   1  25
TORSDOF 16
ENDMDL
MODEL 2
REMARK VINA RESULT:     -12.5      4.002      8.983
REMARK SMILES Nn1c(Cc2ccc(F)c(F)c2)nnc1SCC(=O)NCCCCNC(=O)c1ccc(-c2c3nc(c(-c4c(F)c(F)c(F)c(F)c4F)c4ccc([nH]4)c(-c4c(F)c(F)c(F)c(F)c4F)c4nc(c(-c5c(F)c(F)c(F)c(F)c5F)c5ccc2[nH]5)C=C4)C=C3)cc1
REMARK SMILES IDX 21 1 20 2 18 3 19 4 17 6 16 7 15 8 2 9 3 10 13 11 14 12 1 13
REMARK SMILES IDX 4 16 5 17 6 18 12 19 7 20 10 21 8 22 11 23 9 24 22 25 23 26
REMARK SMILES IDX 24 27 25 28 26 29 27 31 28 32 29 33 90 34 30 35 89 36 31 37
REMARK SMILES IDX 32 38 33 39 83 40 34 41 88 42 82 43 84 44 35 45 87 46 81 47
REMARK SMILES IDX 80 48 36 50 68 51 48 52 67 53 49 54 52 55 66 56 85 57 50 58
REMARK SMILES IDX 51 59 65 61 86 62 53 63 37 64 38 65 46 66 39 67 40 68 44 69
REMARK SMILES IDX 47 70 41 71 42 72 45 73 43 74 69 75 70 76 78 77 71 78 72 79
REMARK SMILES IDX 76 80 79 81 73 82 74 83 77 84 75 85 54 86 55 87 63 88 56 89
REMARK SMILES IDX 57 90 61 91 64 92 58 93 59 94 62 95 60 96
REMARK H PARENT 20 5 1 14 1 15 25 30 84 49 52 60
REMARK Flexibility Score: inf
ROOT
ATOM      1  C   UNL A   1      31.417  29.193  25.020  1.00  0.00     0.116 C 
ENDROOT
BRANCH   1   2
ATOM      2  N   UNL A   1      30.763  29.557  23.777  1.00  0.00    -0.355 N 
ATOM      3  C   UNL A   1      30.668  28.853  22.616  1.00  0.00     0.230 C 
ATOM      4  O   UNL A   1      30.210  29.428  21.622  1.00  0.00    -0.274 OA
ATOM      5  H   UNL A   1      30.324  30.438  23.774  1.00  0.00     0.163 HD
BRANCH   3   6
ATOM      6  C   UNL A   1      31.071  27.395  22.552  1.00  0.00     0.178 C 
BRANCH   6   7
ATOM      7  S   UNL A   1      32.812  27.107  22.200  1.00  0.00    -0.074 SA
BRANCH   7   8
ATOM      8  C   UNL A   1      33.097  25.423  22.464  1.00  0.00     0.210 A 
ATOM      9  N   UNL A   1      33.132  24.761  23.671  1.00  0.00    -0.221 N 
ATOM     10  C   UNL A   1      33.547  23.478  23.372  1.00  0.00     0.157 A 
ATOM     11  N   UNL A   1      33.726  23.384  22.066  1.00  0.00    -0.132 NA
ATOM     12  N   UNL A   1      33.442  24.598  21.500  1.00  0.00    -0.121 NA
BRANCH   9  13
ATOM     13  N   UNL A   1      32.799  25.286  24.964  1.00  0.00    -0.336 N 
ATOM     14  H   UNL A   1      33.433  25.873  25.435  1.00  0.00     0.178 HD
ATOM     15  H   UNL A   1      31.936  25.058  25.380  1.00  0.00     0.178 HD
ENDBRANCH   9  13
BRANCH  10  16
ATOM     16  C   UNL A   1      33.830  22.410  24.376  1.00  0.00     0.115 C 
BRANCH  16  17
ATOM     17  C   UNL A   1      35.291  22.300  24.770  1.00  0.00    -0.037 A 
ATOM     18  C   UNL A   1      35.953  21.058  24.734  1.00  0.00     0.007 A 
ATOM     19  C   UNL A   1      36.009  23.437  25.170  1.00  0.00     0.046 A 
ATOM     20  C   UNL A   1      37.295  20.952  25.104  1.00  0.00     0.043 A 
ATOM     21  C   UNL A   1      37.350  23.323  25.530  1.00  0.00     0.159 A 
ATOM     22  C   UNL A   1      37.988  22.089  25.500  1.00  0.00     0.158 A 
ATOM     23  F   UNL A   1      38.021  24.421  25.905  1.00  0.00    -0.204 F 
ATOM     24  F   UNL A   1      39.277  21.987  25.853  1.00  0.00    -0.204 F 
ENDBRANCH  16  17
ENDBRANCH  10  16
ENDBRANCH   7   8
ENDBRANCH   6   7
ENDBRANCH   3   6
ENDBRANCH   1   2
BRANCH   1  25
ATOM     25  C   UNL A   1      32.903  29.551  24.991  1.00  0.00     0.023 C 
BRANCH  25  26
ATOM     26  C   UNL A   1      33.818  28.571  25.735  1.00  0.00     0.023 C 
BRANCH  26  27
ATOM     27  C   UNL A   1      33.814  28.693  27.256  1.00  0.00     0.116 C 
BRANCH  27  28
ATOM     28  N   UNL A   1      33.780  30.071  27.717  1.00  0.00    -0.352 N 
ATOM     29  C   UNL A   1      34.753  30.779  28.384  1.00  0.00     0.251 C 
ATOM     30  H   UNL A   1      32.949  30.565  27.526  1.00  0.00     0.163 HD
ATOM     31  O   UNL A   1      34.527  31.908  28.805  1.00  0.00    -0.269 OA
BRANCH  29  32
ATOM     32  C   UNL A   1      36.070  30.153  28.621  1.00  0.00     0.039 A 
ATOM     33  C   UNL A   1      37.044  30.228  27.622  1.00  0.00     0.014 A 
ATOM     34  C   UNL A   1      36.351  29.527  29.838  1.00  0.00     0.014 A 
ATOM     35  C   UNL A   1      38.331  29.745  27.873  1.00  0.00     0.010 A 
ATOM     36  C   UNL A   1      37.647  29.099  30.107  1.00  0.00     0.010 A 
ATOM     37  C   UNL A   1      38.653  29.217  29.133  1.00  0.00    -0.014 A 
BRANCH  37  38
ATOM     38  C   UNL A   1      40.034  28.797  29.477  1.00  0.00     0.031 A 
ATOM     39  C   UNL A   1      40.930  29.726  30.243  1.00  0.00     0.074 A 
ATOM     40  C   UNL A   1      40.515  27.629  29.009  1.00  0.00     0.049 A 
ATOM     41  N   UNL A   1      42.215  29.635  30.475  1.00  0.00    -0.248 NA
ATOM     42  C   UNL A   1      40.301  30.933  30.797  1.00  0.00     0.031 C 
ATOM     43  C   UNL A   1      39.752  26.651  28.233  1.00  0.00     0.029 A 
ATOM     44  N   UNL A   1      41.770  27.079  29.097  1.00  0.00    -0.354 N 
ATOM     45  C   UNL A   1      42.553  30.783  31.177  1.00  0.00     0.074 A 
ATOM     46  C   UNL A   1      41.346  31.572  31.306  1.00  0.00     0.031 C 
ATOM     47  C   UNL A   1      40.552  25.617  27.922  1.00  0.00     0.029 A 
ATOM     48  C   UNL A   1      41.893  25.882  28.435  1.00  0.00     0.049 A 
ATOM     49  H   UNL A   1      42.510  27.502  29.589  1.00  0.00     0.167 HD
ATOM     50  C   UNL A   1      43.759  31.139  31.679  1.00  0.00     0.037 A 
ATOM     51  C   UNL A   1      42.970  25.098  28.242  1.00  0.00     0.037 A 
ATOM     52  C   UNL A   1      44.950  30.337  31.577  1.00  0.00     0.049 A 
ATOM     53  C   UNL A   1      44.301  25.519  28.806  1.00  0.00     0.074 A 
ATOM     54  C   UNL A   1      46.207  30.591  32.098  1.00  0.00     0.029 A 
ATOM     55  N   UNL A   1      45.030  29.121  30.914  1.00  0.00    -0.354 N 
ATOM     56  N   UNL A   1      44.606  26.598  29.482  1.00  0.00    -0.248 NA
ATOM     57  C   UNL A   1      45.435  24.613  28.574  1.00  0.00     0.031 C 
ATOM     58  C   UNL A   1      47.057  29.548  31.718  1.00  0.00     0.029 A 
ATOM     59  C   UNL A   1      46.320  28.621  30.999  1.00  0.00     0.049 A 
ATOM     60  H   UNL A   1      44.282  28.679  30.452  1.00  0.00     0.167 HD
ATOM     61  C   UNL A   1      45.961  26.498  29.769  1.00  0.00     0.074 A 
ATOM     62  C   UNL A   1      46.414  25.240  29.210  1.00  0.00     0.031 C 
ATOM     63  C   UNL A   1      46.758  27.371  30.431  1.00  0.00     0.037 A 
BRANCH  50  64
ATOM     64  C   UNL A   1      43.856  32.458  32.388  1.00  0.00     0.064 A 
ATOM     65  C   UNL A   1      43.595  32.547  33.764  1.00  0.00     0.173 A 
ATOM     66  C   UNL A   1      44.158  33.642  31.699  1.00  0.00     0.173 A 
ATOM     67  F   UNL A   1      43.299  31.445  34.468  1.00  0.00    -0.203 F 
ATOM     68  C   UNL A   1      43.624  33.774  34.420  1.00  0.00     0.198 A 
ATOM     69  C   UNL A   1      44.213  34.863  32.364  1.00  0.00     0.198 A 
ATOM     70  F   UNL A   1      44.429  33.608  30.385  1.00  0.00    -0.203 F 
ATOM     71  F   UNL A   1      43.346  33.839  35.729  1.00  0.00    -0.200 F 
ATOM     72  C   UNL A   1      43.938  34.931  33.721  1.00  0.00     0.200 A 
ATOM     73  F   UNL A   1      44.542  35.976  31.693  1.00  0.00    -0.200 F 
ATOM     74  F   UNL A   1      43.981  36.109  34.358  1.00  0.00    -0.200 F 
ENDBRANCH  50  64
BRANCH  51  75
ATOM     75  C   UNL A   1      42.829  23.827  27.486  1.00  0.00     0.064 A 
ATOM     76  C   UNL A   1      43.180  23.738  26.131  1.00  0.00     0.173 A 
ATOM     77  C   UNL A   1      42.316  22.680  28.106  1.00  0.00     0.173 A 
ATOM     78  F   UNL A   1      43.674  24.809  25.493  1.00  0.00    -0.203 F 
ATOM     79  C   UNL A   1      43.005  22.551  25.421  1.00  0.00     0.198 A 
ATOM     80  C   UNL A   1      42.166  21.488  27.401  1.00  0.00     0.198 A 
ATOM     81  F   UNL A   1      41.991  22.713  29.407  1.00  0.00    -0.203 F 
ATOM     82  F   UNL A   1      43.322  22.499  24.120  1.00  0.00    -0.200 F 
ATOM     83  C   UNL A   1      42.503  21.427  26.058  1.00  0.00     0.200 A 
ATOM     84  F   UNL A   1      41.704  20.398  28.027  1.00  0.00    -0.200 F 
ATOM     85  F   UNL A   1      42.347  20.282  25.378  1.00  0.00    -0.200 F 
ENDBRANCH  51  75
BRANCH  63  86
ATOM     86  C   UNL A   1      48.202  26.998  30.597  1.00  0.00     0.064 A 
ATOM     87  C   UNL A   1      48.611  26.193  31.672  1.00  0.00     0.173 A 
ATOM     88  C   UNL A   1      49.187  27.479  29.723  1.00  0.00     0.173 A 
ATOM     89  F   UNL A   1      47.708  25.714  32.540  1.00  0.00    -0.203 F 
ATOM     90  C   UNL A   1      49.956  25.891  31.869  1.00  0.00     0.198 A 
ATOM     91  C   UNL A   1      50.528  27.152  29.907  1.00  0.00     0.198 A 
ATOM     92  F   UNL A   1      48.845  28.241  28.673  1.00  0.00    -0.203 F 
ATOM     93  F   UNL A   1      50.326  25.143  32.917  1.00  0.00    -0.200 F 
ATOM     94  C   UNL A   1      50.912  26.366  30.983  1.00  0.00     0.200 A 
ATOM     95  F   UNL A   1      51.449  27.590  29.037  1.00  0.00    -0.200 F 
ATOM     96  F   UNL A   1      52.204  26.061  31.165  1.00  0.00    -0.200 F 
ENDBRANCH  63  86
ENDBRANCH  37  38
ENDBRANCH  29  32
ENDBRANCH  27  28
ENDBRANCH  26  27
ENDBRANCH  25  26
ENDBRANCH   1  25
TORSDOF 16
ENDMDL
MODEL 3
REMARK VINA RESULT:     -12.5      1.377      2.320
REMARK SMILES Nn1c(Cc2ccc(F)c(F)c2)nnc1SCC(=O)NCCCCNC(=O)c1ccc(-c2c3nc(c(-c4c(F)c(F)c(F)c(F)c4F)c4ccc([nH]4)c(-c4c(F)c(F)c(F)c(F)c4F)c4nc(c(-c5c(F)c(F)c(F)c(F)c5F)c5ccc2[nH]5)C=C4)C=C3)cc1
REMARK SMILES IDX 21 1 20 2 18 3 19 4 17 6 16 7 15 8 2 9 3 10 13 11 14 12 1 13
REMARK SMILES IDX 4 16 5 17 6 18 12 19 7 20 10 21 8 22 11 23 9 24 22 25 23 26
REMARK SMILES IDX 24 27 25 28 26 29 27 31 28 32 29 33 90 34 30 35 89 36 31 37
REMARK SMILES IDX 32 38 33 39 83 40 34 41 88 42 82 43 84 44 35 45 87 46 81 47
REMARK SMILES IDX 80 48 36 50 68 51 48 52 67 53 49 54 52 55 66 56 85 57 50 58
REMARK SMILES IDX 51 59 65 61 86 62 53 63 37 64 38 65 46 66 39 67 40 68 44 69
REMARK SMILES IDX 47 70 41 71 42 72 45 73 43 74 69 75 70 76 78 77 71 78 72 79
REMARK SMILES IDX 76 80 79 81 73 82 74 83 77 84 75 85 54 86 55 87 63 88 56 89
REMARK SMILES IDX 57 90 61 91 64 92 58 93 59 94 62 95 60 96
REMARK H PARENT 20 5 1 14 1 15 25 30 84 49 52 60
REMARK Flexibility Score: inf
ROOT
ATOM      1  C   UNL A   1      32.309  29.770  25.373  1.00  0.00     0.116 C 
ENDROOT
BRANCH   1   2
ATOM      2  N   UNL A   1      32.632  28.363  25.519  1.00  0.00    -0.355 N 
ATOM      3  C   UNL A   1      31.855  27.272  25.275  1.00  0.00     0.230 C 
ATOM      4  O   UNL A   1      32.276  26.166  25.632  1.00  0.00    -0.274 OA
ATOM      5  H   UNL A   1      33.542  28.170  25.840  1.00  0.00     0.163 HD
BRANCH   3   6
ATOM      6  C   UNL A   1      30.534  27.402  24.548  1.00  0.00     0.178 C 
BRANCH   6   7
ATOM      7  S   UNL A   1      30.663  27.474  22.754  1.00  0.00    -0.074 SA
BRANCH   7   8
ATOM      8  C   UNL A   1      31.831  26.286  22.295  1.00  0.00     0.210 A 
ATOM      9  N   UNL A   1      31.768  24.927  22.509  1.00  0.00    -0.221 N 
ATOM     10  C   UNL A   1      32.996  24.437  22.107  1.00  0.00     0.157 A 
ATOM     11  N   UNL A   1      33.729  25.443  21.666  1.00  0.00    -0.132 NA
ATOM     12  N   UNL A   1      33.000  26.597  21.781  1.00  0.00    -0.121 NA
BRANCH   9  13
ATOM     13  N   UNL A   1      30.662  24.175  23.027  1.00  0.00    -0.336 N 
ATOM     14  H   UNL A   1      30.705  23.797  23.935  1.00  0.00     0.178 HD
ATOM     15  H   UNL A   1      29.858  24.038  22.474  1.00  0.00     0.178 HD
ENDBRANCH   9  13
BRANCH  10  16
ATOM     16  C   UNL A   1      33.440  23.018  22.240  1.00  0.00     0.115 C 
BRANCH  16  17
ATOM     17  C   UNL A   1      33.732  22.591  23.666  1.00  0.00    -0.037 A 
ATOM     18  C   UNL A   1      33.021  21.529  24.258  1.00  0.00     0.007 A 
ATOM     19  C   UNL A   1      34.720  23.243  24.418  1.00  0.00     0.046 A 
ATOM     20  C   UNL A   1      33.280  21.139  25.573  1.00  0.00     0.043 A 
ATOM     21  C   UNL A   1      34.978  22.842  25.728  1.00  0.00     0.159 A 
ATOM     22  C   UNL A   1      34.261  21.799  26.302  1.00  0.00     0.158 A 
ATOM     23  F   UNL A   1      35.930  23.473  26.429  1.00  0.00    -0.204 F 
ATOM     24  F   UNL A   1      34.511  21.423  27.564  1.00  0.00    -0.204 F 
ENDBRANCH  16  17
ENDBRANCH  10  16
ENDBRANCH   7   8
ENDBRANCH   6   7
ENDBRANCH   3   6
ENDBRANCH   1   2
BRANCH   1  25
ATOM     25  C   UNL A   1      31.853  30.376  26.702  1.00  0.00     0.023 C 
BRANCH  25  26
ATOM     26  C   UNL A   1      31.674  31.899  26.689  1.00  0.00     0.023 C 
BRANCH  26  27
ATOM     27  C   UNL A   1      32.792  32.698  27.350  1.00  0.00     0.116 C 
BRANCH  27  28
ATOM     28  N   UNL A   1      32.414  34.069  27.651  1.00  0.00    -0.352 N 
ATOM     29  C   UNL A   1      32.969  34.933  28.565  1.00  0.00     0.251 C 
ATOM     30  H   UNL A   1      31.660  34.428  27.128  1.00  0.00     0.163 HD
ATOM     31  O   UNL A   1      32.461  36.029  28.779  1.00  0.00    -0.269 OA
BRANCH  29  32
ATOM     32  C   UNL A   1      34.169  34.518  29.319  1.00  0.00     0.039 A 
ATOM     33  C   UNL A   1      34.009  33.943  30.583  1.00  0.00     0.014 A 
ATOM     34  C   UNL A   1      35.444  34.664  28.765  1.00  0.00     0.014 A 
ATOM     35  C   UNL A   1      35.122  33.439  31.259  1.00  0.00     0.010 A 
ATOM     36  C   UNL A   1      36.543  34.110  29.413  1.00  0.00     0.010 A 
ATOM     37  C   UNL A   1      36.392  33.480  30.659  1.00  0.00    -0.014 A 
BRANCH  37  38
ATOM     38  C   UNL A   1      37.579  32.856  31.294  1.00  0.00     0.031 A 
ATOM     39  C   UNL A   1      38.273  31.709  30.619  1.00  0.00     0.074 A 
ATOM     40  C   UNL A   1      37.964  33.249  32.524  1.00  0.00     0.049 A 
ATOM     41  N   UNL A   1      39.195  30.907  31.087  1.00  0.00    -0.248 NA
ATOM     42  C   UNL A   1      37.852  31.407  29.243  1.00  0.00     0.031 C 
ATOM     43  C   UNL A   1      37.357  34.334  33.294  1.00  0.00     0.029 A 
ATOM     44  N   UNL A   1      38.946  32.761  33.351  1.00  0.00    -0.354 N 
ATOM     45  C   UNL A   1      39.446  29.990  30.075  1.00  0.00     0.074 A 
ATOM     46  C   UNL A   1      38.555  30.315  28.980  1.00  0.00     0.031 C 
ATOM     47  C   UNL A   1      37.983  34.436  34.478  1.00  0.00     0.029 A 
ATOM     48  C   UNL A   1      39.001  33.394  34.569  1.00  0.00     0.049 A 
ATOM     49  H   UNL A   1      39.552  32.030  33.096  1.00  0.00     0.167 HD
ATOM     50  C   UNL A   1      40.345  28.979  30.059  1.00  0.00     0.037 A 
ATOM     51  C   UNL A   1      39.770  33.147  35.647  1.00  0.00     0.037 A 
ATOM     52  C   UNL A   1      41.251  28.680  31.136  1.00  0.00     0.049 A 
ATOM     53  C   UNL A   1      40.759  32.013  35.604  1.00  0.00     0.074 A 
ATOM     54  C   UNL A   1      42.233  27.706  31.192  1.00  0.00     0.029 A 
ATOM     55  N   UNL A   1      41.290  29.355  32.348  1.00  0.00    -0.354 N 
ATOM     56  N   UNL A   1      40.999  31.163  34.637  1.00  0.00    -0.248 NA
ATOM     57  C   UNL A   1      41.579  31.804  36.807  1.00  0.00     0.031 C 
ATOM     58  C   UNL A   1      42.840  27.768  32.450  1.00  0.00     0.029 A 
ATOM     59  C   UNL A   1      42.269  28.809  33.162  1.00  0.00     0.049 A 
ATOM     60  H   UNL A   1      40.708  30.111  32.591  1.00  0.00     0.167 HD
ATOM     61  C   UNL A   1      42.004  30.328  35.105  1.00  0.00     0.074 A 
ATOM     62  C   UNL A   1      42.343  30.787  36.437  1.00  0.00     0.031 C 
ATOM     63  C   UNL A   1      42.589  29.272  34.489  1.00  0.00     0.037 A 
BRANCH  50  64
ATOM     64  C   UNL A   1      40.399  28.115  28.833  1.00  0.00     0.064 A 
ATOM     65  C   UNL A   1      39.711  26.893  28.793  1.00  0.00     0.173 A 
ATOM     66  C   UNL A   1      41.171  28.471  27.717  1.00  0.00     0.173 A 
ATOM     67  F   UNL A   1      38.961  26.505  29.834  1.00  0.00    -0.203 F 
ATOM     68  C   UNL A   1      39.802  26.056  27.684  1.00  0.00     0.198 A 
ATOM     69  C   UNL A   1      41.237  27.645  26.599  1.00  0.00     0.198 A 
ATOM     70  F   UNL A   1      41.836  29.637  27.700  1.00  0.00    -0.203 F 
ATOM     71  F   UNL A   1      39.157  24.882  27.678  1.00  0.00    -0.200 F 
ATOM     72  C   UNL A   1      40.561  26.435  26.586  1.00  0.00     0.200 A 
ATOM     73  F   UNL A   1      41.949  28.025  25.528  1.00  0.00    -0.200 F 
ATOM     74  F   UNL A   1      40.635  25.635  25.513  1.00  0.00    -0.200 F 
ENDBRANCH  50  64
BRANCH  51  75
ATOM     75  C   UNL A   1      39.639  34.001  36.855  1.00  0.00     0.064 A 
ATOM     76  C   UNL A   1      38.850  33.610  37.946  1.00  0.00     0.173 A 
ATOM     77  C   UNL A   1      40.288  35.241  36.927  1.00  0.00     0.173 A 
ATOM     78  F   UNL A   1      38.207  32.433  37.923  1.00  0.00    -0.203 F 
ATOM     79  C   UNL A   1      38.701  34.438  39.058  1.00  0.00     0.198 A 
ATOM     80  C   UNL A   1      40.158  36.055  38.050  1.00  0.00     0.198 A 
ATOM     81  F   UNL A   1      41.073  35.644  35.918  1.00  0.00    -0.203 F 
ATOM     82  F   UNL A   1      37.919  34.054  40.075  1.00  0.00    -0.200 F 
ATOM     83  C   UNL A   1      39.359  35.657  39.110  1.00  0.00     0.200 A 
ATOM     84  F   UNL A   1      40.816  37.221  38.107  1.00  0.00    -0.200 F 
ATOM     85  F   UNL A   1      39.227  36.447  40.185  1.00  0.00    -0.200 F 
ENDBRANCH  51  75
BRANCH  63  86
ATOM     86  C   UNL A   1      43.664  28.542  35.241  1.00  0.00     0.064 A 
ATOM     87  C   UNL A   1      43.333  27.532  36.157  1.00  0.00     0.173 A 
ATOM     88  C   UNL A   1      45.017  28.879  35.093  1.00  0.00     0.173 A 
ATOM     89  F   UNL A   1      42.052  27.179  36.340  1.00  0.00    -0.203 F 
ATOM     90  C   UNL A   1      44.318  26.891  36.903  1.00  0.00     0.198 A 
ATOM     91  C   UNL A   1      46.002  28.216  35.821  1.00  0.00     0.198 A 
ATOM     92  F   UNL A   1      45.386  29.829  34.219  1.00  0.00    -0.203 F 
ATOM     93  F   UNL A   1      43.976  25.948  37.791  1.00  0.00    -0.200 F 
ATOM     94  C   UNL A   1      45.652  27.230  36.730  1.00  0.00     0.200 A 
ATOM     95  F   UNL A   1      47.293  28.527  35.634  1.00  0.00    -0.200 F 
ATOM     96  F   UNL A   1      46.600  26.602  37.437  1.00  0.00    -0.200 F 
ENDBRANCH  63  86
ENDBRANCH  37  38
ENDBRANCH  29  32
ENDBRANCH  27  28
ENDBRANCH  26  27
ENDBRANCH  25  26
ENDBRANCH   1  25
TORSDOF 16
ENDMDL
