MODEL 1
REMARK VINA RESULT:     -11.8      0.000      0.000
REMARK SMILES [NH3+][C@@H](Cc1cncnc1)C(=O)NCCCCNC(=O)c1ccc(-c2c3nc(c(-c4c(F)c(F)c(F)c(F)c4F)c4ccc([nH]4)c(-c4c(F)c(F)c(F)c(F)c4F)c4nc(c(-c5c(F)c(F)c(F)c(F)c5F)c5ccc2[nH]5)C=C4)C=C3)cc1
REMARK SMILES IDX 14 1 13 2 12 3 10 4 11 5 2 7 1 8 3 12 4 13 5 14 9 15 6 16
REMARK SMILES IDX 8 17 7 18 15 19 16 20 17 21 18 22 19 24 20 25 21 26 82 27
REMARK SMILES IDX 22 28 81 29 23 30 24 31 25 32 75 33 26 34 80 35 74 36 76 37
REMARK SMILES IDX 27 38 79 39 73 40 72 41 28 43 60 44 40 45 59 46 41 47 44 48
REMARK SMILES IDX 58 49 77 50 42 51 43 52 57 54 78 55 45 56 29 57 30 58 38 59
REMARK SMILES IDX 31 60 32 61 36 62 39 63 33 64 34 65 37 66 35 67 61 68 62 69
REMARK SMILES IDX 70 70 63 71 64 72 68 73 71 74 65 75 66 76 69 77 67 78 46 79
REMARK SMILES IDX 47 80 55 81 48 82 49 83 53 84 56 85 50 86 51 87 54 88 52 89
REMARK H PARENT 12 6 1 9 1 10 1 11 17 23 76 42 44 53
REMARK Flexibility Score: inf
ROOT
ATOM      1  C   UNL A   1      31.870  30.427  26.916  1.00  0.00     0.023 C 
ENDROOT
BRANCH   1   2
ATOM      2  C   UNL A   1      32.497  29.729  25.714  1.00  0.00     0.116 C 
BRANCH   2   3
ATOM      3  N   UNL A   1      31.739  28.595  25.225  1.00  0.00    -0.351 N 
ATOM      4  C   UNL A   1      30.950  28.456  24.123  1.00  0.00     0.278 C 
ATOM      5  O   UNL A   1      30.610  27.299  23.840  1.00  0.00    -0.268 OA
ATOM      6  H   UNL A   1      31.804  27.787  25.784  1.00  0.00     0.163 HD
BRANCH   4   7
ATOM      7  C   UNL A   1      30.524  29.612  23.183  1.00  0.00     0.275 C 
BRANCH   7   8
ATOM      8  N   UNL A   1      31.305  29.708  21.936  1.00  0.00    -0.347 N 
ATOM      9  H   UNL A   1      31.601  28.775  21.648  1.00  0.00     0.345 HD
ATOM     10  H   UNL A   1      32.126  30.292  22.094  1.00  0.00     0.345 HD
ATOM     11  H   UNL A   1      30.727  30.122  21.204  1.00  0.00     0.345 HD
ENDBRANCH   7   8
BRANCH   7  12
ATOM     12  C   UNL A   1      28.993  29.720  23.003  1.00  0.00     0.114 C 
BRANCH  12  13
ATOM     13  C   UNL A   1      28.490  30.879  22.195  1.00  0.00    -0.005 A 
ATOM     14  C   UNL A   1      28.034  30.740  20.900  1.00  0.00     0.118 A 
ATOM     15  C   UNL A   1      28.441  32.169  22.687  1.00  0.00     0.118 A 
ATOM     16  N   UNL A   1      27.644  31.770  20.123  1.00  0.00    -0.245 NA
ATOM     17  N   UNL A   1      28.045  33.234  21.965  1.00  0.00    -0.245 NA
ATOM     18  C   UNL A   1      27.670  32.978  20.702  1.00  0.00     0.221 A 
ENDBRANCH  12  13
ENDBRANCH   7  12
ENDBRANCH   4   7
ENDBRANCH   2   3
ENDBRANCH   1   2
BRANCH   1  19
ATOM     19  C   UNL A   1      31.677  31.939  26.801  1.00  0.00     0.023 C 
BRANCH  19  20
ATOM     20  C   UNL A   1      32.847  32.822  27.229  1.00  0.00     0.116 C 
BRANCH  20  21
ATOM     21  N   UNL A   1      32.467  34.164  27.647  1.00  0.00    -0.352 N 
ATOM     22  C   UNL A   1      33.015  34.982  28.611  1.00  0.00     0.251 C 
ATOM     23  H   UNL A   1      31.698  34.547  27.165  1.00  0.00     0.163 HD
ATOM     24  O   UNL A   1      32.521  36.074  28.853  1.00  0.00    -0.269 OA
BRANCH  22  25
ATOM     25  C   UNL A   1      34.180  34.512  29.394  1.00  0.00     0.039 A 
ATOM     26  C   UNL A   1      33.956  33.891  30.625  1.00  0.00     0.014 A 
ATOM     27  C   UNL A   1      35.477  34.638  28.897  1.00  0.00     0.014 A 
ATOM     28  C   UNL A   1      35.022  33.293  31.302  1.00  0.00     0.010 A 
ATOM     29  C   UNL A   1      36.524  33.974  29.531  1.00  0.00     0.010 A 
ATOM     30  C   UNL A   1      36.305  33.276  30.729  1.00  0.00    -0.014 A 
BRANCH  30  31
ATOM     31  C   UNL A   1      37.416  32.498  31.340  1.00  0.00     0.031 A 
ATOM     32  C   UNL A   1      37.934  32.854  32.705  1.00  0.00     0.074 A 
ATOM     33  C   UNL A   1      38.019  31.527  30.625  1.00  0.00     0.049 A 
ATOM     34  N   UNL A   1      38.950  32.351  33.361  1.00  0.00    -0.248 NA
ATOM     35  C   UNL A   1      37.238  33.937  33.414  1.00  0.00     0.031 C 
ATOM     36  C   UNL A   1      37.653  31.122  29.267  1.00  0.00     0.029 A 
ATOM     37  N   UNL A   1      39.079  30.710  30.938  1.00  0.00    -0.354 N 
ATOM     38  C   UNL A   1      39.028  33.071  34.546  1.00  0.00     0.074 A 
ATOM     39  C   UNL A   1      37.987  34.076  34.499  1.00  0.00     0.031 C 
ATOM     40  C   UNL A   1      38.455  30.120  28.874  1.00  0.00     0.029 A 
ATOM     41  C   UNL A   1      39.417  29.836  29.933  1.00  0.00     0.049 A 
ATOM     42  H   UNL A   1      39.551  30.748  31.801  1.00  0.00     0.167 HD
ATOM     43  C   UNL A   1      39.875  32.896  35.588  1.00  0.00     0.037 A 
ATOM     44  C   UNL A   1      40.397  28.915  29.869  1.00  0.00     0.037 A 
ATOM     45  C   UNL A   1      40.886  31.874  35.652  1.00  0.00     0.049 A 
ATOM     46  C   UNL A   1      41.319  28.735  31.046  1.00  0.00     0.074 A 
ATOM     47  C   UNL A   1      41.740  31.569  36.698  1.00  0.00     0.029 A 
ATOM     48  N   UNL A   1      41.181  30.989  34.625  1.00  0.00    -0.354 N 
ATOM     49  N   UNL A   1      41.331  29.370  32.191  1.00  0.00    -0.248 NA
ATOM     50  C   UNL A   1      42.361  27.706  30.919  1.00  0.00     0.031 C 
ATOM     51  C   UNL A   1      42.580  30.528  36.288  1.00  0.00     0.029 A 
ATOM     52  C   UNL A   1      42.218  30.152  35.005  1.00  0.00     0.049 A 
ATOM     53  H   UNL A   1      40.720  30.960  33.755  1.00  0.00     0.167 HD
ATOM     54  C   UNL A   1      42.356  28.799  32.933  1.00  0.00     0.074 A 
ATOM     55  C   UNL A   1      42.937  27.758  32.112  1.00  0.00     0.031 C 
ATOM     56  C   UNL A   1      42.779  29.111  34.183  1.00  0.00     0.037 A 
BRANCH  43  57
ATOM     57  C   UNL A   1      39.740  33.829  36.757  1.00  0.00     0.064 A 
ATOM     58  C   UNL A   1      40.381  35.077  36.777  1.00  0.00     0.173 A 
ATOM     59  C   UNL A   1      38.930  33.489  37.851  1.00  0.00     0.173 A 
ATOM     60  F   UNL A   1      41.174  35.446  35.761  1.00  0.00    -0.203 F 
ATOM     61  C   UNL A   1      40.238  35.938  37.863  1.00  0.00     0.198 A 
ATOM     62  C   UNL A   1      38.766  34.364  38.921  1.00  0.00     0.198 A 
ATOM     63  F   UNL A   1      38.290  32.310  37.878  1.00  0.00    -0.203 F 
ATOM     64  F   UNL A   1      40.898  37.104  37.883  1.00  0.00    -0.200 F 
ATOM     65  C   UNL A   1      39.427  35.583  38.930  1.00  0.00     0.200 A 
ATOM     66  F   UNL A   1      37.971  34.027  39.945  1.00  0.00    -0.200 F 
ATOM     67  F   UNL A   1      39.284  36.416  39.971  1.00  0.00    -0.200 F 
ENDBRANCH  43  57
BRANCH  44  68
ATOM     68  C   UNL A   1      40.543  28.064  28.659  1.00  0.00     0.064 A 
ATOM     69  C   UNL A   1      41.305  28.499  27.565  1.00  0.00     0.173 A 
ATOM     70  C   UNL A   1      39.917  26.813  28.562  1.00  0.00     0.173 A 
ATOM     71  F   UNL A   1      41.904  29.698  27.602  1.00  0.00    -0.203 F 
ATOM     72  C   UNL A   1      41.418  27.725  26.412  1.00  0.00     0.198 A 
ATOM     73  C   UNL A   1      40.053  26.028  27.419  1.00  0.00     0.198 A 
ATOM     74  F   UNL A   1      39.180  26.349  29.582  1.00  0.00    -0.203 F 
ATOM     75  F   UNL A   1      42.111  28.187  25.363  1.00  0.00    -0.200 F 
ATOM     76  C   UNL A   1      40.796  26.488  26.341  1.00  0.00     0.200 A 
ATOM     77  F   UNL A   1      39.461  24.827  27.359  1.00  0.00    -0.200 F 
ATOM     78  F   UNL A   1      40.903  25.744  25.232  1.00  0.00    -0.200 F 
ENDBRANCH  44  68
BRANCH  56  79
ATOM     79  C   UNL A   1      43.895  28.290  34.758  1.00  0.00     0.064 A 
ATOM     80  C   UNL A   1      43.647  27.111  35.476  1.00  0.00     0.173 A 
ATOM     81  C   UNL A   1      45.231  28.666  34.551  1.00  0.00     0.173 A 
ATOM     82  F   UNL A   1      42.387  26.717  35.714  1.00  0.00    -0.203 F 
ATOM     83  C   UNL A   1      44.696  26.350  35.986  1.00  0.00     0.198 A 
ATOM     84  C   UNL A   1      46.278  27.889  35.039  1.00  0.00     0.198 A 
ATOM     85  F   UNL A   1      45.521  29.782  33.867  1.00  0.00    -0.203 F 
ATOM     86  F   UNL A   1      44.436  25.251  36.708  1.00  0.00    -0.200 F 
ATOM     87  C   UNL A   1      46.010  26.736  35.761  1.00  0.00     0.200 A 
ATOM     88  F   UNL A   1      47.546  28.255  34.809  1.00  0.00    -0.200 F 
ATOM     89  F   UNL A   1      47.018  25.998  36.246  1.00  0.00    -0.200 F 
ENDBRANCH  56  79
ENDBRANCH  30  31
ENDBRANCH  22  25
ENDBRANCH  20  21
ENDBRANCH  19  20
ENDBRANCH   1  19
TORSDOF 14
ENDMDL
MODEL 2
REMARK VINA RESULT:     -11.7      3.359      6.141
REMARK SMILES [NH3+][C@@H](Cc1cncnc1)C(=O)NCCCCNC(=O)c1ccc(-c2c3nc(c(-c4c(F)c(F)c(F)c(F)c4F)c4ccc([nH]4)c(-c4c(F)c(F)c(F)c(F)c4F)c4nc(c(-c5c(F)c(F)c(F)c(F)c5F)c5ccc2[nH]5)C=C4)C=C3)cc1
REMARK SMILES IDX 14 1 13 2 12 3 10 4 11 5 2 7 1 8 3 12 4 13 5 14 9 15 6 16
REMARK SMILES IDX 8 17 7 18 15 19 16 20 17 21 18 22 19 24 20 25 21 26 82 27
REMARK SMILES IDX 22 28 81 29 23 30 24 31 25 32 75 33 26 34 80 35 74 36 76 37
REMARK SMILES IDX 27 38 79 39 73 40 72 41 28 43 60 44 40 45 59 46 41 47 44 48
REMARK SMILES IDX 58 49 77 50 42 51 43 52 57 54 78 55 45 56 29 57 30 58 38 59
REMARK SMILES IDX 31 60 32 61 36 62 39 63 33 64 34 65 37 66 35 67 61 68 62 69
REMARK SMILES IDX 70 70 63 71 64 72 68 73 71 74 65 75 66 76 69 77 67 78 46 79
REMARK SMILES IDX 47 80 55 81 48 82 49 83 53 84 56 85 50 86 51 87 54 88 52 89
REMARK H PARENT 12 6 1 9 1 10 1 11 17 23 76 42 44 53
REMARK Flexibility Score: inf
ROOT
ATOM      1  C   UNL A   1      34.050  36.557  28.401  1.00  0.00     0.023 C 
ENDROOT
BRANCH   1   2
ATOM      2  C   UNL A   1      32.999  36.529  29.505  1.00  0.00     0.116 C 
BRANCH   2   3
ATOM      3  N   UNL A   1      33.276  37.424  30.610  1.00  0.00    -0.351 N 
ATOM      4  C   UNL A   1      33.312  37.199  31.954  1.00  0.00     0.278 C 
ATOM      5  O   UNL A   1      33.801  38.105  32.644  1.00  0.00    -0.268 OA
ATOM      6  H   UNL A   1      33.472  38.352  30.347  1.00  0.00     0.163 HD
BRANCH   4   7
ATOM      7  C   UNL A   1      32.861  35.890  32.648  1.00  0.00     0.275 C 
BRANCH   7   8
ATOM      8  N   UNL A   1      31.409  35.641  32.604  1.00  0.00    -0.347 N 
ATOM      9  H   UNL A   1      31.210  34.898  31.934  1.00  0.00     0.345 HD
ATOM     10  H   UNL A   1      30.927  36.494  32.319  1.00  0.00     0.345 HD
ATOM     11  H   UNL A   1      31.083  35.360  33.530  1.00  0.00     0.345 HD
ENDBRANCH   7   8
BRANCH   7  12
ATOM     12  C   UNL A   1      33.741  34.672  32.285  1.00  0.00     0.114 C 
BRANCH  12  13
ATOM     13  C   UNL A   1      35.005  34.495  33.072  1.00  0.00    -0.005 A 
ATOM     14  C   UNL A   1      35.029  33.893  34.314  1.00  0.00     0.118 A 
ATOM     15  C   UNL A   1      36.238  34.916  32.613  1.00  0.00     0.118 A 
ATOM     16  N   UNL A   1      36.133  33.783  35.078  1.00  0.00    -0.245 NA
ATOM     17  N   UNL A   1      37.378  34.818  33.324  1.00  0.00    -0.245 NA
ATOM     18  C   UNL A   1      37.264  34.257  34.537  1.00  0.00     0.221 A 
ENDBRANCH  12  13
ENDBRANCH   7  12
ENDBRANCH   4   7
ENDBRANCH   2   3
ENDBRANCH   1   2
BRANCH   1  19
ATOM     19  C   UNL A   1      34.765  35.237  28.108  1.00  0.00     0.023 C 
BRANCH  19  20
ATOM     20  C   UNL A   1      34.261  33.997  28.843  1.00  0.00     0.116 C 
BRANCH  20  21
ATOM     21  N   UNL A   1      33.513  33.066  28.011  1.00  0.00    -0.352 N 
ATOM     22  C   UNL A   1      33.830  31.788  27.604  1.00  0.00     0.251 C 
ATOM     23  H   UNL A   1      32.646  33.402  27.687  1.00  0.00     0.163 HD
ATOM     24  O   UNL A   1      33.084  31.171  26.857  1.00  0.00    -0.269 OA
BRANCH  22  25
ATOM     25  C   UNL A   1      35.106  31.177  28.037  1.00  0.00     0.039 A 
ATOM     26  C   UNL A   1      36.254  31.972  28.072  1.00  0.00     0.014 A 
ATOM     27  C   UNL A   1      35.161  29.846  28.452  1.00  0.00     0.014 A 
ATOM     28  C   UNL A   1      37.430  31.466  28.632  1.00  0.00     0.010 A 
ATOM     29  C   UNL A   1      36.308  29.369  29.082  1.00  0.00     0.010 A 
ATOM     30  C   UNL A   1      37.448  30.180  29.198  1.00  0.00    -0.014 A 
BRANCH  30  31
ATOM     31  C   UNL A   1      38.629  29.684  29.955  1.00  0.00     0.031 A 
ATOM     32  C   UNL A   1      38.908  30.181  31.345  1.00  0.00     0.074 A 
ATOM     33  C   UNL A   1      39.503  28.852  29.352  1.00  0.00     0.049 A 
ATOM     34  N   UNL A   1      39.932  29.935  32.122  1.00  0.00    -0.248 NA
ATOM     35  C   UNL A   1      37.920  31.103  31.927  1.00  0.00     0.031 C 
ATOM     36  C   UNL A   1      39.382  28.340  27.986  1.00  0.00     0.029 A 
ATOM     37  N   UNL A   1      40.675  28.299  29.808  1.00  0.00    -0.354 N 
ATOM     38  C   UNL A   1      39.724  30.685  33.272  1.00  0.00     0.074 A 
ATOM     39  C   UNL A   1      38.500  31.432  33.072  1.00  0.00     0.031 C 
ATOM     40  C   UNL A   1      40.420  27.531  27.724  1.00  0.00     0.029 A 
ATOM     41  C   UNL A   1      41.302  27.495  28.886  1.00  0.00     0.049 A 
ATOM     42  H   UNL A   1      41.032  28.463  30.711  1.00  0.00     0.167 HD
ATOM     43  C   UNL A   1      40.471  30.730  34.400  1.00  0.00     0.037 A 
ATOM     44  C   UNL A   1      42.460  26.813  28.965  1.00  0.00     0.037 A 
ATOM     45  C   UNL A   1      41.668  29.959  34.614  1.00  0.00     0.049 A 
ATOM     46  C   UNL A   1      43.267  26.873  30.235  1.00  0.00     0.074 A 
ATOM     47  C   UNL A   1      42.450  29.879  35.753  1.00  0.00     0.029 A 
ATOM     48  N   UNL A   1      42.257  29.135  33.666  1.00  0.00    -0.354 N 
ATOM     49  N   UNL A   1      43.017  27.525  31.343  1.00  0.00    -0.248 NA
ATOM     50  C   UNL A   1      44.515  26.098  30.263  1.00  0.00     0.031 C 
ATOM     51  C   UNL A   1      43.536  29.040  35.481  1.00  0.00     0.029 A 
ATOM     52  C   UNL A   1      43.404  28.559  34.189  1.00  0.00     0.049 A 
ATOM     53  H   UNL A   1      41.910  28.981  32.758  1.00  0.00     0.167 HD
ATOM     54  C   UNL A   1      44.056  27.215  32.211  1.00  0.00     0.074 A 
ATOM     55  C   UNL A   1      44.934  26.307  31.504  1.00  0.00     0.031 C 
ATOM     56  C   UNL A   1      44.263  27.646  33.479  1.00  0.00     0.037 A 
BRANCH  43  57
ATOM     57  C   UNL A   1      40.012  31.641  35.502  1.00  0.00     0.064 A 
ATOM     58  C   UNL A   1      40.632  32.877  35.739  1.00  0.00     0.173 A 
ATOM     59  C   UNL A   1      38.915  31.292  36.304  1.00  0.00     0.173 A 
ATOM     60  F   UNL A   1      41.691  33.253  35.008  1.00  0.00    -0.203 F 
ATOM     61  C   UNL A   1      40.188  33.717  36.758  1.00  0.00     0.198 A 
ATOM     62  C   UNL A   1      38.456  32.148  37.301  1.00  0.00     0.198 A 
ATOM     63  F   UNL A   1      38.282  30.124  36.114  1.00  0.00    -0.203 F 
ATOM     64  F   UNL A   1      40.826  34.871  36.997  1.00  0.00    -0.200 F 
ATOM     65  C   UNL A   1      39.098  33.355  37.533  1.00  0.00     0.200 A 
ATOM     66  F   UNL A   1      37.393  31.803  38.041  1.00  0.00    -0.200 F 
ATOM     67  F   UNL A   1      38.667  34.168  38.507  1.00  0.00    -0.200 F 
ENDBRANCH  43  57
BRANCH  44  68
ATOM     68  C   UNL A   1      42.916  25.983  27.820  1.00  0.00     0.064 A 
ATOM     69  C   UNL A   1      43.795  26.508  26.860  1.00  0.00     0.173 A 
ATOM     70  C   UNL A   1      42.477  24.663  27.649  1.00  0.00     0.173 A 
ATOM     71  F   UNL A   1      44.225  27.774  26.969  1.00  0.00    -0.203 F 
ATOM     72  C   UNL A   1      44.200  25.751  25.763  1.00  0.00     0.198 A 
ATOM     73  C   UNL A   1      42.905  23.898  26.566  1.00  0.00     0.198 A 
ATOM     74  F   UNL A   1      41.639  24.112  28.539  1.00  0.00    -0.203 F 
ATOM     75  F   UNL A   1      45.001  26.294  24.837  1.00  0.00    -0.200 F 
ATOM     76  C   UNL A   1      43.758  24.445  25.619  1.00  0.00     0.200 A 
ATOM     77  F   UNL A   1      42.486  22.632  26.435  1.00  0.00    -0.200 F 
ATOM     78  F   UNL A   1      44.147  23.717  24.563  1.00  0.00    -0.200 F 
ENDBRANCH  44  68
BRANCH  56  79
ATOM     79  C   UNL A   1      45.463  27.109  34.201  1.00  0.00     0.064 A 
ATOM     80  C   UNL A   1      46.701  27.767  34.163  1.00  0.00     0.173 A 
ATOM     81  C   UNL A   1      45.361  25.944  34.977  1.00  0.00     0.173 A 
ATOM     82  F   UNL A   1      46.854  28.876  33.423  1.00  0.00    -0.203 F 
ATOM     83  C   UNL A   1      47.800  27.265  34.856  1.00  0.00     0.198 A 
ATOM     84  C   UNL A   1      46.454  25.460  35.691  1.00  0.00     0.198 A 
ATOM     85  F   UNL A   1      44.198  25.281  35.051  1.00  0.00    -0.203 F 
ATOM     86  F   UNL A   1      48.985  27.884  34.769  1.00  0.00    -0.200 F 
ATOM     87  C   UNL A   1      47.673  26.117  35.625  1.00  0.00     0.200 A 
ATOM     88  F   UNL A   1      46.326  24.360  36.444  1.00  0.00    -0.200 F 
ATOM     89  F   UNL A   1      48.730  25.640  36.297  1.00  0.00    -0.200 F 
ENDBRANCH  56  79
ENDBRANCH  30  31
ENDBRANCH  22  25
ENDBRANCH  20  21
ENDBRANCH  19  20
ENDBRANCH   1  19
TORSDOF 14
ENDMDL
MODEL 3
REMARK VINA RESULT:     -11.5      0.555      7.804
REMARK SMILES [NH3+][C@@H](Cc1cncnc1)C(=O)NCCCCNC(=O)c1ccc(-c2c3nc(c(-c4c(F)c(F)c(F)c(F)c4F)c4ccc([nH]4)c(-c4c(F)c(F)c(F)c(F)c4F)c4nc(c(-c5c(F)c(F)c(F)c(F)c5F)c5ccc2[nH]5)C=C4)C=C3)cc1
REMARK SMILES IDX 14 1 13 2 12 3 10 4 11 5 2 7 1 8 3 12 4 13 5 14 9 15 6 16
REMARK SMILES IDX 8 17 7 18 15 19 16 20 17 21 18 22 19 24 20 25 21 26 82 27
REMARK SMILES IDX 22 28 81 29 23 30 24 31 25 32 75 33 26 34 80 35 74 36 76 37
REMARK SMILES IDX 27 38 79 39 73 40 72 41 28 43 60 44 40 45 59 46 41 47 44 48
REMARK SMILES IDX 58 49 77 50 42 51 43 52 57 54 78 55 45 56 29 57 30 58 38 59
REMARK SMILES IDX 31 60 32 61 36 62 39 63 33 64 34 65 37 66 35 67 61 68 62 69
REMARK SMILES IDX 70 70 63 71 64 72 68 73 71 74 65 75 66 76 69 77 67 78 46 79
REMARK SMILES IDX 47 80 55 81 48 82 49 83 53 84 56 85 50 86 51 87 54 88 52 89
REMARK H PARENT 12 6 1 9 1 10 1 11 17 23 76 42 44 53
REMARK Flexibility Score: inf
ROOT
ATOM      1  C   UNL A   1      32.106  30.040  27.045  1.00  0.00     0.023 C 
ENDROOT
BRANCH   1   2
ATOM      2  C   UNL A   1      32.896  29.354  25.936  1.00  0.00     0.116 C 
BRANCH   2   3
ATOM      3  N   UNL A   1      32.240  28.193  25.371  1.00  0.00    -0.351 N 
ATOM      4  C   UNL A   1      31.487  28.052  24.244  1.00  0.00     0.278 C 
ATOM      5  O   UNL A   1      31.245  26.889  23.893  1.00  0.00    -0.268 OA
ATOM      6  H   UNL A   1      32.356  27.364  25.889  1.00  0.00     0.163 HD
BRANCH   4   7
ATOM      7  C   UNL A   1      30.991  29.220  23.355  1.00  0.00     0.275 C 
BRANCH   7   8
ATOM      8  N   UNL A   1      31.735  29.389  22.093  1.00  0.00    -0.347 N 
ATOM      9  H   UNL A   1      32.062  28.479  21.766  1.00  0.00     0.345 HD
ATOM     10  H   UNL A   1      32.536  30.001  22.251  1.00  0.00     0.345 HD
ATOM     11  H   UNL A   1      31.123  29.803  21.390  1.00  0.00     0.345 HD
ENDBRANCH   7   8
BRANCH   7  12
ATOM     12  C   UNL A   1      29.453  29.271  23.215  1.00  0.00     0.114 C 
BRANCH  12  13
ATOM     13  C   UNL A   1      28.876  30.495  22.568  1.00  0.00    -0.005 A 
ATOM     14  C   UNL A   1      28.398  30.495  21.273  1.00  0.00     0.118 A 
ATOM     15  C   UNL A   1      28.774  31.709  23.219  1.00  0.00     0.118 A 
ATOM     16  N   UNL A   1      27.941  31.592  20.638  1.00  0.00    -0.245 NA
ATOM     17  N   UNL A   1      28.310  32.834  22.643  1.00  0.00    -0.245 NA
ATOM     18  C   UNL A   1      27.920  32.719  21.364  1.00  0.00     0.221 A 
ENDBRANCH  12  13
ENDBRANCH   7  12
ENDBRANCH   4   7
ENDBRANCH   2   3
ENDBRANCH   1   2
BRANCH   1  19
ATOM     19  C   UNL A   1      31.859  31.540  26.879  1.00  0.00     0.023 C 
BRANCH  19  20
ATOM     20  C   UNL A   1      32.973  32.480  27.333  1.00  0.00     0.116 C 
BRANCH  20  21
ATOM     21  N   UNL A   1      32.532  33.834  27.635  1.00  0.00    -0.352 N 
ATOM     22  C   UNL A   1      33.044  34.757  28.521  1.00  0.00     0.251 C 
ATOM     23  H   UNL A   1      31.744  34.137  27.129  1.00  0.00     0.163 HD
ATOM     24  O   UNL A   1      32.500  35.842  28.672  1.00  0.00    -0.269 OA
BRANCH  22  25
ATOM     25  C   UNL A   1      34.232  34.412  29.333  1.00  0.00     0.039 A 
ATOM     26  C   UNL A   1      34.042  33.882  30.611  1.00  0.00     0.014 A 
ATOM     27  C   UNL A   1      35.521  34.563  28.820  1.00  0.00     0.014 A 
ATOM     28  C   UNL A   1      35.138  33.396  31.329  1.00  0.00     0.010 A 
ATOM     29  C   UNL A   1      36.601  34.006  29.500  1.00  0.00     0.010 A 
ATOM     30  C   UNL A   1      36.419  33.398  30.752  1.00  0.00    -0.014 A 
BRANCH  30  31
ATOM     31  C   UNL A   1      37.569  32.729  31.419  1.00  0.00     0.031 A 
ATOM     32  C   UNL A   1      38.256  31.563  30.766  1.00  0.00     0.074 A 
ATOM     33  C   UNL A   1      37.936  33.116  32.658  1.00  0.00     0.049 A 
ATOM     34  N   UNL A   1      39.212  30.799  31.231  1.00  0.00    -0.248 NA
ATOM     35  C   UNL A   1      37.787  31.187  29.424  1.00  0.00     0.031 C 
ATOM     36  C   UNL A   1      37.314  34.194  33.428  1.00  0.00     0.029 A 
ATOM     37  N   UNL A   1      38.916  32.637  33.494  1.00  0.00    -0.354 N 
ATOM     38  C   UNL A   1      39.442  29.842  30.252  1.00  0.00     0.074 A 
ATOM     39  C   UNL A   1      38.494  30.091  29.187  1.00  0.00     0.031 C 
ATOM     40  C   UNL A   1      37.940  34.311  34.610  1.00  0.00     0.029 A 
ATOM     41  C   UNL A   1      38.982  33.294  34.699  1.00  0.00     0.049 A 
ATOM     42  H   UNL A   1      39.513  31.893  33.252  1.00  0.00     0.167 HD
ATOM     43  C   UNL A   1      40.373  28.858  30.233  1.00  0.00     0.037 A 
ATOM     44  C   UNL A   1      39.786  33.093  35.760  1.00  0.00     0.037 A 
ATOM     45  C   UNL A   1      41.339  28.632  31.275  1.00  0.00     0.049 A 
ATOM     46  C   UNL A   1      40.819  31.998  35.708  1.00  0.00     0.074 A 
ATOM     47  C   UNL A   1      42.371  27.710  31.308  1.00  0.00     0.029 A 
ATOM     48  N   UNL A   1      41.393  29.336  32.469  1.00  0.00    -0.354 N 
ATOM     49  N   UNL A   1      41.077  31.151  34.743  1.00  0.00    -0.248 NA
ATOM     50  C   UNL A   1      41.673  31.837  36.892  1.00  0.00     0.031 C 
ATOM     51  C   UNL A   1      43.023  27.827  32.541  1.00  0.00     0.029 A 
ATOM     52  C   UNL A   1      42.427  28.854  33.255  1.00  0.00     0.049 A 
ATOM     53  H   UNL A   1      40.786  30.070  32.720  1.00  0.00     0.167 HD
ATOM     54  C   UNL A   1      42.140  30.378  35.188  1.00  0.00     0.074 A 
ATOM     55  C   UNL A   1      42.488  30.865  36.506  1.00  0.00     0.031 C 
ATOM     56  C   UNL A   1      42.771  29.356  34.561  1.00  0.00     0.037 A 
BRANCH  43  57
ATOM     57  C   UNL A   1      40.398  27.950  29.037  1.00  0.00     0.064 A 
ATOM     58  C   UNL A   1      39.661  26.756  29.006  1.00  0.00     0.173 A 
ATOM     59  C   UNL A   1      41.135  28.296  27.895  1.00  0.00     0.173 A 
ATOM     60  F   UNL A   1      38.948  26.374  30.075  1.00  0.00    -0.203 F 
ATOM     61  C   UNL A   1      39.685  25.929  27.885  1.00  0.00     0.198 A 
ATOM     62  C   UNL A   1      41.133  27.482  26.766  1.00  0.00     0.198 A 
ATOM     63  F   UNL A   1      41.852  29.431  27.870  1.00  0.00    -0.203 F 
ATOM     64  F   UNL A   1      39.012  24.771  27.896  1.00  0.00    -0.200 F 
ATOM     65  C   UNL A   1      40.415  26.295  26.766  1.00  0.00     0.200 A 
ATOM     66  F   UNL A   1      41.828  27.843  25.679  1.00  0.00    -0.200 F 
ATOM     67  F   UNL A   1      40.431  25.502  25.685  1.00  0.00    -0.200 F 
ENDBRANCH  43  57
BRANCH  44  68
ATOM     68  C   UNL A   1      39.675  33.968  36.956  1.00  0.00     0.064 A 
ATOM     69  C   UNL A   1      38.888  33.586  38.053  1.00  0.00     0.173 A 
ATOM     70  C   UNL A   1      40.333  35.204  37.026  1.00  0.00     0.173 A 
ATOM     71  F   UNL A   1      38.221  32.422  38.023  1.00  0.00    -0.203 F 
ATOM     72  C   UNL A   1      38.747  34.415  39.163  1.00  0.00     0.198 A 
ATOM     73  C   UNL A   1      40.213  36.020  38.149  1.00  0.00     0.198 A 
ATOM     74  F   UNL A   1      41.101  35.615  36.006  1.00  0.00    -0.203 F 
ATOM     75  F   UNL A   1      37.950  34.046  40.175  1.00  0.00    -0.200 F 
ATOM     76  C   UNL A   1      39.413  35.630  39.213  1.00  0.00     0.200 A 
ATOM     77  F   UNL A   1      40.868  37.188  38.199  1.00  0.00    -0.200 F 
ATOM     78  F   UNL A   1      39.277  36.428  40.281  1.00  0.00    -0.200 F 
ENDBRANCH  44  68
BRANCH  56  79
ATOM     79  C   UNL A   1      43.931  28.722  35.271  1.00  0.00     0.064 A 
ATOM     80  C   UNL A   1      45.242  29.191  35.104  1.00  0.00     0.173 A 
ATOM     81  C   UNL A   1      43.721  27.658  36.162  1.00  0.00     0.173 A 
ATOM     82  F   UNL A   1      45.497  30.195  34.251  1.00  0.00    -0.203 F 
ATOM     83  C   UNL A   1      46.304  28.603  35.787  1.00  0.00     0.198 A 
ATOM     84  C   UNL A   1      44.781  27.091  36.864  1.00  0.00     0.198 A 
ATOM     85  F   UNL A   1      42.485  27.177  36.361  1.00  0.00    -0.203 F 
ATOM     86  F   UNL A   1      47.555  29.037  35.579  1.00  0.00    -0.200 F 
ATOM     87  C   UNL A   1      46.072  27.559  36.671  1.00  0.00     0.200 A 
ATOM     88  F   UNL A   1      44.553  26.093  37.728  1.00  0.00    -0.200 F 
ATOM     89  F   UNL A   1      47.095  27.000  37.333  1.00  0.00    -0.200 F 
ENDBRANCH  56  79
ENDBRANCH  30  31
ENDBRANCH  22  25
ENDBRANCH  20  21
ENDBRANCH  19  20
ENDBRANCH   1  19
TORSDOF 14
ENDMDL
