MODEL 1
REMARK VINA RESULT:     -12.6      0.000      0.000
REMARK SMILES CC[C@H](C)[C@H](NC(=O)[C@H](C)Oc1ccc2c(C)c(C)c(=O)oc2c1C)C(=O)NCCCCNC(=O)c1ccc(-c2c3nc(c(-c4c(F)c(F)c(F)c(F)c4F)c4ccc([nH]4)c(-c4c(F)c(F)c(F)c(F)c4F)c4nc(c(-c5c(F)c(F)c(F)c(F)c5F)c5ccc2[nH]5)C=C4)C=C3)cc1
REMARK SMILES IDX 29 1 28 2 26 3 27 4 5 6 3 7 4 8 2 9 1 10 6 11 7 12 8 14 9 15
REMARK SMILES IDX 10 16 11 17 12 18 13 19 24 20 14 21 23 22 25 23 15 24 22 25
REMARK SMILES IDX 16 26 20 27 17 28 18 29 21 30 19 31 30 32 31 33 32 34 33 35
REMARK SMILES IDX 34 36 35 38 36 39 37 40 98 41 38 42 97 43 39 44 40 45 41 46
REMARK SMILES IDX 91 47 42 48 96 49 90 50 92 51 43 52 95 53 89 54 88 55 44 57
REMARK SMILES IDX 76 58 56 59 75 60 57 61 60 62 74 63 93 64 58 65 59 66 73 68
REMARK SMILES IDX 94 69 61 70 45 71 46 72 54 73 47 74 48 75 52 76 55 77 49 78
REMARK SMILES IDX 50 79 53 80 51 81 77 82 78 83 86 84 79 85 80 86 84 87 87 88
REMARK SMILES IDX 81 89 82 90 85 91 83 92 62 93 63 94 71 95 64 96 65 97 69 98
REMARK SMILES IDX 72 99 66 100 67 101 70 102 68 103
REMARK H PARENT 28 5 6 13 33 37 92 56 60 67
REMARK Flexibility Score: inf
ROOT
ATOM      1  C   UNL A   1      31.047  30.189  25.211  1.00  0.00     0.116 C 
ENDROOT
BRANCH   1   2
ATOM      2  N   UNL A   1      30.890  29.948  23.786  1.00  0.00    -0.354 N 
ATOM      3  C   UNL A   1      31.021  28.797  23.070  1.00  0.00     0.242 C 
ATOM      4  O   UNL A   1      30.451  28.749  21.977  1.00  0.00    -0.273 OA
ATOM      5  H   UNL A   1      30.652  30.742  23.256  1.00  0.00     0.163 HD
BRANCH   3   6
ATOM      6  C   UNL A   1      31.725  27.567  23.654  1.00  0.00     0.174 C 
BRANCH   6   7
ATOM      7  C   UNL A   1      33.283  27.718  23.567  1.00  0.00     0.018 C 
ATOM      8  C   UNL A   1      33.688  28.980  22.795  1.00  0.00     0.010 C 
BRANCH   7   9
ATOM      9  C   UNL A   1      34.037  27.622  24.911  1.00  0.00     0.002 C 
ATOM     10  C   UNL A   1      33.134  27.656  26.139  1.00  0.00     0.004 C 
ENDBRANCH   7   9
ENDBRANCH   6   7
BRANCH   6  11
ATOM     11  N   UNL A   1      31.181  26.293  23.188  1.00  0.00    -0.341 N 
ATOM     12  C   UNL A   1      30.877  25.137  23.842  1.00  0.00     0.261 C 
ATOM     13  H   UNL A   1      31.000  26.266  22.220  1.00  0.00     0.164 HD
ATOM     14  O   UNL A   1      30.686  24.164  23.096  1.00  0.00    -0.271 OA
BRANCH  12  15
ATOM     15  C   UNL A   1      30.670  24.954  25.397  1.00  0.00     0.258 C 
ATOM     16  C   UNL A   1      29.603  25.861  26.004  1.00  0.00     0.064 C 
BRANCH  15  17
ATOM     17  O   UNL A   1      31.670  24.688  26.376  1.00  0.00    -0.480 OA
BRANCH  17  18
ATOM     18  C   UNL A   1      32.426  23.585  26.141  1.00  0.00     0.127 A 
ATOM     19  C   UNL A   1      33.814  23.691  26.218  1.00  0.00     0.047 A 
ATOM     20  C   UNL A   1      31.816  22.353  25.909  1.00  0.00     0.035 A 
ATOM     21  C   UNL A   1      34.617  22.595  25.892  1.00  0.00     0.016 A 
ATOM     22  C   UNL A   1      32.651  21.264  25.610  1.00  0.00     0.145 A 
ATOM     23  C   UNL A   1      30.329  22.172  26.012  1.00  0.00     0.052 C 
ATOM     24  C   UNL A   1      34.042  21.371  25.531  1.00  0.00     0.021 A 
ATOM     25  O   UNL A   1      32.023  20.026  25.379  1.00  0.00    -0.422 OA
ATOM     26  C   UNL A   1      34.821  20.225  25.032  1.00  0.00    -0.030 A 
ATOM     27  C   UNL A   1      32.739  18.881  25.080  1.00  0.00     0.339 A 
ATOM     28  C   UNL A   1      36.276  20.460  24.707  1.00  0.00     0.045 C 
ATOM     29  C   UNL A   1      34.197  19.045  24.830  1.00  0.00     0.038 A 
ATOM     30  O   UNL A   1      32.175  17.797  24.981  1.00  0.00    -0.246 OA
ATOM     31  C   UNL A   1      34.901  17.811  24.334  1.00  0.00     0.052 C 
ENDBRANCH  17  18
ENDBRANCH  15  17
ENDBRANCH  12  15
ENDBRANCH   6  11
ENDBRANCH   3   6
ENDBRANCH   1   2
BRANCH   1  32
ATOM     32  C   UNL A   1      30.912  31.651  25.616  1.00  0.00     0.023 C 
BRANCH  32  33
ATOM     33  C   UNL A   1      31.412  31.986  27.018  1.00  0.00     0.023 C 
BRANCH  33  34
ATOM     34  C   UNL A   1      32.659  32.857  27.073  1.00  0.00     0.116 C 
BRANCH  34  35
ATOM     35  N   UNL A   1      32.406  34.187  27.595  1.00  0.00    -0.352 N 
ATOM     36  C   UNL A   1      33.072  34.835  28.606  1.00  0.00     0.251 C 
ATOM     37  H   UNL A   1      31.668  34.684  27.175  1.00  0.00     0.163 HD
ATOM     38  O   UNL A   1      32.721  35.936  29.002  1.00  0.00    -0.269 OA
BRANCH  36  39
ATOM     39  C   UNL A   1      34.208  34.140  29.232  1.00  0.00     0.039 A 
ATOM     40  C   UNL A   1      35.502  34.537  28.897  1.00  0.00     0.014 A 
ATOM     41  C   UNL A   1      33.977  33.176  30.220  1.00  0.00     0.014 A 
ATOM     42  C   UNL A   1      36.580  33.993  29.588  1.00  0.00     0.010 A 
ATOM     43  C   UNL A   1      35.049  32.683  30.952  1.00  0.00     0.010 A 
ATOM     44  C   UNL A   1      36.357  33.077  30.630  1.00  0.00    -0.014 A 
BRANCH  44  45
ATOM     45  C   UNL A   1      37.494  32.448  31.335  1.00  0.00     0.031 A 
ATOM     46  C   UNL A   1      38.234  31.333  30.658  1.00  0.00     0.074 A 
ATOM     47  C   UNL A   1      37.837  32.854  32.570  1.00  0.00     0.049 A 
ATOM     48  N   UNL A   1      39.231  30.611  31.103  1.00  0.00    -0.248 NA
ATOM     49  C   UNL A   1      37.780  30.965  29.307  1.00  0.00     0.031 C 
ATOM     50  C   UNL A   1      37.171  33.913  33.329  1.00  0.00     0.029 A 
ATOM     51  N   UNL A   1      38.834  32.419  33.405  1.00  0.00    -0.354 N 
ATOM     52  C   UNL A   1      39.515  29.707  30.088  1.00  0.00     0.074 A 
ATOM     53  C   UNL A   1      38.553  29.926  29.033  1.00  0.00     0.031 C 
ATOM     54  C   UNL A   1      37.795  34.061  34.511  1.00  0.00     0.029 A 
ATOM     55  C   UNL A   1      38.884  33.093  34.601  1.00  0.00     0.049 A 
ATOM     56  H   UNL A   1      39.455  31.693  33.170  1.00  0.00     0.167 HD
ATOM     57  C   UNL A   1      40.513  28.797  30.030  1.00  0.00     0.037 A 
ATOM     58  C   UNL A   1      39.722  32.943  35.643  1.00  0.00     0.037 A 
ATOM     59  C   UNL A   1      41.484  28.602  31.071  1.00  0.00     0.049 A 
ATOM     60  C   UNL A   1      40.808  31.903  35.566  1.00  0.00     0.074 A 
ATOM     61  C   UNL A   1      42.559  27.733  31.095  1.00  0.00     0.029 A 
ATOM     62  N   UNL A   1      41.496  29.295  32.273  1.00  0.00    -0.354 N 
ATOM     63  N   UNL A   1      41.096  31.081  34.586  1.00  0.00    -0.248 NA
ATOM     64  C   UNL A   1      41.685  31.771  36.738  1.00  0.00     0.031 C 
ATOM     65  C   UNL A   1      43.206  27.879  32.327  1.00  0.00     0.029 A 
ATOM     66  C   UNL A   1      42.553  28.862  33.054  1.00  0.00     0.049 A 
ATOM     67  H   UNL A   1      40.849  29.991  32.530  1.00  0.00     0.167 HD
ATOM     68  C   UNL A   1      42.197  30.350  35.011  1.00  0.00     0.074 A 
ATOM     69  C   UNL A   1      42.533  30.833  36.335  1.00  0.00     0.031 C 
ATOM     70  C   UNL A   1      42.868  29.365  34.366  1.00  0.00     0.037 A 
BRANCH  57  71
ATOM     71  C   UNL A   1      40.610  27.962  28.791  1.00  0.00     0.064 A 
ATOM     72  C   UNL A   1      39.908  26.751  28.674  1.00  0.00     0.173 A 
ATOM     73  C   UNL A   1      41.391  28.380  27.705  1.00  0.00     0.173 A 
ATOM     74  F   UNL A   1      39.164  26.301  29.695  1.00  0.00    -0.203 F 
ATOM     75  C   UNL A   1      40.004  25.979  27.521  1.00  0.00     0.198 A 
ATOM     76  C   UNL A   1      41.464  27.616  26.543  1.00  0.00     0.198 A 
ATOM     77  F   UNL A   1      42.082  29.527  27.770  1.00  0.00    -0.203 F 
ATOM     78  F   UNL A   1      39.361  24.805  27.449  1.00  0.00    -0.200 F 
ATOM     79  C   UNL A   1      40.775  26.414  26.454  1.00  0.00     0.200 A 
ATOM     80  F   UNL A   1      42.205  28.040  25.510  1.00  0.00    -0.200 F 
ATOM     81  F   UNL A   1      40.863  25.672  25.343  1.00  0.00    -0.200 F 
ENDBRANCH  57  71
BRANCH  58  82
ATOM     82  C   UNL A   1      39.592  33.822  36.832  1.00  0.00     0.064 A 
ATOM     83  C   UNL A   1      38.827  33.422  37.937  1.00  0.00     0.173 A 
ATOM     84  C   UNL A   1      40.230  35.069  36.896  1.00  0.00     0.173 A 
ATOM     85  F   UNL A   1      38.182  32.247  37.913  1.00  0.00    -0.203 F 
ATOM     86  C   UNL A   1      38.696  34.241  39.056  1.00  0.00     0.198 A 
ATOM     87  C   UNL A   1      40.115  35.878  38.024  1.00  0.00     0.198 A 
ATOM     88  F   UNL A   1      40.974  35.496  35.865  1.00  0.00    -0.203 F 
ATOM     89  F   UNL A   1      37.934  33.848  40.085  1.00  0.00    -0.200 F 
ATOM     90  C   UNL A   1      39.345  35.466  39.102  1.00  0.00     0.200 A 
ATOM     91  F   UNL A   1      40.750  37.057  38.069  1.00  0.00    -0.200 F 
ATOM     92  F   UNL A   1      39.223  36.251  40.181  1.00  0.00    -0.200 F 
ENDBRANCH  58  82
BRANCH  70  93
ATOM     93  C   UNL A   1      44.039  28.751  35.070  1.00  0.00     0.064 A 
ATOM     94  C   UNL A   1      43.881  27.647  35.919  1.00  0.00     0.173 A 
ATOM     95  C   UNL A   1      45.339  29.220  34.828  1.00  0.00     0.173 A 
ATOM     96  F   UNL A   1      42.655  27.174  36.189  1.00  0.00    -0.203 F 
ATOM     97  C   UNL A   1      44.984  27.038  36.508  1.00  0.00     0.198 A 
ATOM     98  C   UNL A   1      46.441  28.593  35.400  1.00  0.00     0.198 A 
ATOM     99  F   UNL A   1      45.540  30.268  34.016  1.00  0.00    -0.203 F 
ATOM    100  F   UNL A   1      44.810  25.999  37.337  1.00  0.00    -0.200 F 
ATOM    101  C   UNL A   1      46.263  27.504  36.241  1.00  0.00     0.200 A 
ATOM    102  F   UNL A   1      47.678  29.036  35.130  1.00  0.00    -0.200 F 
ATOM    103  F   UNL A   1      47.326  26.905  36.796  1.00  0.00    -0.200 F 
ENDBRANCH  70  93
ENDBRANCH  44  45
ENDBRANCH  36  39
ENDBRANCH  34  35
ENDBRANCH  33  34
ENDBRANCH  32  33
ENDBRANCH   1  32
TORSDOF 17
ENDMDL
MODEL 2
REMARK VINA RESULT:     -12.6      1.082      7.146
REMARK SMILES CC[C@H](C)[C@H](NC(=O)[C@H](C)Oc1ccc2c(C)c(C)c(=O)oc2c1C)C(=O)NCCCCNC(=O)c1ccc(-c2c3nc(c(-c4c(F)c(F)c(F)c(F)c4F)c4ccc([nH]4)c(-c4c(F)c(F)c(F)c(F)c4F)c4nc(c(-c5c(F)c(F)c(F)c(F)c5F)c5ccc2[nH]5)C=C4)C=C3)cc1
REMARK SMILES IDX 29 1 28 2 26 3 27 4 5 6 3 7 4 8 2 9 1 10 6 11 7 12 8 14 9 15
REMARK SMILES IDX 10 16 11 17 12 18 13 19 24 20 14 21 23 22 25 23 15 24 22 25
REMARK SMILES IDX 16 26 20 27 17 28 18 29 21 30 19 31 30 32 31 33 32 34 33 35
REMARK SMILES IDX 34 36 35 38 36 39 37 40 98 41 38 42 97 43 39 44 40 45 41 46
REMARK SMILES IDX 91 47 42 48 96 49 90 50 92 51 43 52 95 53 89 54 88 55 44 57
REMARK SMILES IDX 76 58 56 59 75 60 57 61 60 62 74 63 93 64 58 65 59 66 73 68
REMARK SMILES IDX 94 69 61 70 45 71 46 72 54 73 47 74 48 75 52 76 55 77 49 78
REMARK SMILES IDX 50 79 53 80 51 81 77 82 78 83 86 84 79 85 80 86 84 87 87 88
REMARK SMILES IDX 81 89 82 90 85 91 83 92 62 93 63 94 71 95 64 96 65 97 69 98
REMARK SMILES IDX 72 99 66 100 67 101 70 102 68 103
REMARK H PARENT 28 5 6 13 33 37 92 56 60 67
REMARK Flexibility Score: inf
ROOT
ATOM      1  C   UNL A   1      31.381  30.595  25.734  1.00  0.00     0.116 C 
ENDROOT
BRANCH   1   2
ATOM      2  N   UNL A   1      30.656  30.434  24.484  1.00  0.00    -0.354 N 
ATOM      3  C   UNL A   1      30.467  29.327  23.714  1.00  0.00     0.242 C 
ATOM      4  O   UNL A   1      29.502  29.337  22.945  1.00  0.00    -0.273 OA
ATOM      5  H   UNL A   1      30.236  31.256  24.140  1.00  0.00     0.163 HD
BRANCH   3   6
ATOM      6  C   UNL A   1      31.329  28.072  23.893  1.00  0.00     0.174 C 
BRANCH   6   7
ATOM      7  C   UNL A   1      31.957  27.622  22.530  1.00  0.00     0.018 C 
ATOM      8  C   UNL A   1      33.490  27.602  22.591  1.00  0.00     0.010 C 
BRANCH   7   9
ATOM      9  C   UNL A   1      31.406  26.304  21.945  1.00  0.00     0.002 C 
ATOM     10  C   UNL A   1      32.159  25.802  20.718  1.00  0.00     0.004 C 
ENDBRANCH   7   9
ENDBRANCH   6   7
BRANCH   6  11
ATOM     11  N   UNL A   1      30.687  27.018  24.677  1.00  0.00    -0.341 N 
ATOM     12  C   UNL A   1      31.193  26.062  25.507  1.00  0.00     0.261 C 
ATOM     13  H   UNL A   1      29.706  26.995  24.591  1.00  0.00     0.164 HD
ATOM     14  O   UNL A   1      30.390  25.163  25.798  1.00  0.00    -0.271 OA
BRANCH  12  15
ATOM     15  C   UNL A   1      32.626  26.046  26.172  1.00  0.00     0.258 C 
ATOM     16  C   UNL A   1      33.022  27.353  26.853  1.00  0.00     0.064 C 
BRANCH  15  17
ATOM     17  O   UNL A   1      33.796  25.399  25.684  1.00  0.00    -0.480 OA
BRANCH  17  18
ATOM     18  C   UNL A   1      33.582  24.203  25.077  1.00  0.00     0.127 A 
ATOM     19  C   UNL A   1      33.525  24.155  23.684  1.00  0.00     0.047 A 
ATOM     20  C   UNL A   1      33.505  23.035  25.834  1.00  0.00     0.035 A 
ATOM     21  C   UNL A   1      33.216  22.956  23.039  1.00  0.00     0.016 A 
ATOM     22  C   UNL A   1      33.219  21.840  25.154  1.00  0.00     0.145 A 
ATOM     23  C   UNL A   1      33.756  23.032  27.315  1.00  0.00     0.052 C 
ATOM     24  C   UNL A   1      33.007  21.783  23.774  1.00  0.00     0.021 A 
ATOM     25  O   UNL A   1      33.145  20.669  25.930  1.00  0.00    -0.422 OA
ATOM     26  C   UNL A   1      32.532  20.524  23.174  1.00  0.00    -0.030 A 
ATOM     27  C   UNL A   1      32.874  19.432  25.373  1.00  0.00     0.339 A 
ATOM     28  C   UNL A   1      32.059  20.569  21.743  1.00  0.00     0.045 C 
ATOM     29  C   UNL A   1      32.481  19.411  23.938  1.00  0.00     0.038 A 
ATOM     30  O   UNL A   1      32.912  18.415  26.056  1.00  0.00    -0.246 OA
ATOM     31  C   UNL A   1      32.023  18.074  23.422  1.00  0.00     0.052 C 
ENDBRANCH  17  18
ENDBRANCH  15  17
ENDBRANCH  12  15
ENDBRANCH   6  11
ENDBRANCH   3   6
ENDBRANCH   1   2
BRANCH   1  32
ATOM     32  C   UNL A   1      31.130  31.923  26.435  1.00  0.00     0.023 C 
BRANCH  32  33
ATOM     33  C   UNL A   1      32.136  32.283  27.524  1.00  0.00     0.023 C 
BRANCH  33  34
ATOM     34  C   UNL A   1      33.002  33.500  27.233  1.00  0.00     0.116 C 
BRANCH  34  35
ATOM     35  N   UNL A   1      32.557  34.697  27.923  1.00  0.00    -0.352 N 
ATOM     36  C   UNL A   1      33.071  35.246  29.072  1.00  0.00     0.251 C 
ATOM     37  H   UNL A   1      31.797  35.174  27.519  1.00  0.00     0.163 HD
ATOM     38  O   UNL A   1      32.565  36.227  29.596  1.00  0.00    -0.269 OA
BRANCH  36  39
ATOM     39  C   UNL A   1      34.235  34.585  29.684  1.00  0.00     0.039 A 
ATOM     40  C   UNL A   1      34.024  33.710  30.749  1.00  0.00     0.014 A 
ATOM     41  C   UNL A   1      35.507  34.760  29.128  1.00  0.00     0.014 A 
ATOM     42  C   UNL A   1      35.094  32.968  31.239  1.00  0.00     0.010 A 
ATOM     43  C   UNL A   1      36.559  33.971  29.576  1.00  0.00     0.010 A 
ATOM     44  C   UNL A   1      36.361  33.082  30.645  1.00  0.00    -0.014 A 
BRANCH  44  45
ATOM     45  C   UNL A   1      37.519  32.342  31.191  1.00  0.00     0.031 A 
ATOM     46  C   UNL A   1      38.013  32.689  32.564  1.00  0.00     0.074 A 
ATOM     47  C   UNL A   1      38.129  31.396  30.456  1.00  0.00     0.049 A 
ATOM     48  N   UNL A   1      39.033  32.204  33.224  1.00  0.00    -0.248 NA
ATOM     49  C   UNL A   1      37.274  33.739  33.284  1.00  0.00     0.031 C 
ATOM     50  C   UNL A   1      37.746  30.995  29.103  1.00  0.00     0.029 A 
ATOM     51  N   UNL A   1      39.207  30.599  30.749  1.00  0.00    -0.354 N 
ATOM     52  C   UNL A   1      39.055  32.891  34.429  1.00  0.00     0.074 A 
ATOM     53  C   UNL A   1      37.991  33.868  34.389  1.00  0.00     0.031 C 
ATOM     54  C   UNL A   1      38.563  30.010  28.690  1.00  0.00     0.029 A 
ATOM     55  C   UNL A   1      39.539  29.730  29.739  1.00  0.00     0.049 A 
ATOM     56  H   UNL A   1      39.695  30.646  31.602  1.00  0.00     0.167 HD
ATOM     57  C   UNL A   1      39.872  32.699  35.490  1.00  0.00     0.037 A 
ATOM     58  C   UNL A   1      40.520  28.810  29.679  1.00  0.00     0.037 A 
ATOM     59  C   UNL A   1      40.912  31.709  35.535  1.00  0.00     0.049 A 
ATOM     60  C   UNL A   1      41.435  28.635  30.861  1.00  0.00     0.074 A 
ATOM     61  C   UNL A   1      41.770  31.407  36.575  1.00  0.00     0.029 A 
ATOM     62  N   UNL A   1      41.227  30.854  34.488  1.00  0.00    -0.354 N 
ATOM     63  N   UNL A   1      41.423  29.261  32.014  1.00  0.00    -0.248 NA
ATOM     64  C   UNL A   1      42.497  27.628  30.736  1.00  0.00     0.031 C 
ATOM     65  C   UNL A   1      42.627  30.387  36.147  1.00  0.00     0.029 A 
ATOM     66  C   UNL A   1      42.278  30.032  34.854  1.00  0.00     0.049 A 
ATOM     67  H   UNL A   1      40.769  30.835  33.617  1.00  0.00     0.167 HD
ATOM     68  C   UNL A   1      42.458  28.711  32.758  1.00  0.00     0.074 A 
ATOM     69  C   UNL A   1      43.071  27.692  31.930  1.00  0.00     0.031 C 
ATOM     70  C   UNL A   1      42.866  29.023  34.011  1.00  0.00     0.037 A 
BRANCH  57  71
ATOM     71  C   UNL A   1      39.656  33.570  36.689  1.00  0.00     0.064 A 
ATOM     72  C   UNL A   1      40.307  34.807  36.815  1.00  0.00     0.173 A 
ATOM     73  C   UNL A   1      38.780  33.178  37.710  1.00  0.00     0.173 A 
ATOM     74  F   UNL A   1      41.170  35.216  35.874  1.00  0.00    -0.203 F 
ATOM     75  C   UNL A   1      40.104  35.610  37.934  1.00  0.00     0.198 A 
ATOM     76  C   UNL A   1      38.560  33.996  38.815  1.00  0.00     0.198 A 
ATOM     77  F   UNL A   1      38.137  32.003  37.636  1.00  0.00    -0.203 F 
ATOM     78  F   UNL A   1      40.770  36.767  38.054  1.00  0.00    -0.200 F 
ATOM     79  C   UNL A   1      39.225  35.208  38.928  1.00  0.00     0.200 A 
ATOM     80  F   UNL A   1      37.707  33.609  39.773  1.00  0.00    -0.200 F 
ATOM     81  F   UNL A   1      39.027  35.985  40.002  1.00  0.00    -0.200 F 
ENDBRANCH  57  71
BRANCH  58  82
ATOM     82  C   UNL A   1      40.664  27.958  28.471  1.00  0.00     0.064 A 
ATOM     83  C   UNL A   1      40.030  26.710  28.396  1.00  0.00     0.173 A 
ATOM     84  C   UNL A   1      41.425  28.372  27.368  1.00  0.00     0.173 A 
ATOM     85  F   UNL A   1      39.308  26.264  29.434  1.00  0.00    -0.203 F 
ATOM     86  C   UNL A   1      40.161  25.903  27.269  1.00  0.00     0.198 A 
ATOM     87  C   UNL A   1      41.539  27.572  26.233  1.00  0.00     0.198 A 
ATOM     88  F   UNL A   1      42.050  29.558  27.391  1.00  0.00    -0.203 F 
ATOM     89  F   UNL A   1      39.571  24.701  27.236  1.00  0.00    -0.200 F 
ATOM     90  C   UNL A   1      40.911  26.336  26.186  1.00  0.00     0.200 A 
ATOM     91  F   UNL A   1      42.256  27.998  25.185  1.00  0.00    -0.200 F 
ATOM     92  F   UNL A   1      41.032  25.562  25.099  1.00  0.00    -0.200 F 
ENDBRANCH  58  82
BRANCH  70  93
ATOM     93  C   UNL A   1      44.019  28.250  34.575  1.00  0.00     0.064 A 
ATOM     94  C   UNL A   1      43.824  27.027  35.232  1.00  0.00     0.173 A 
ATOM     95  C   UNL A   1      45.336  28.696  34.384  1.00  0.00     0.173 A 
ATOM     96  F   UNL A   1      42.581  26.568  35.448  1.00  0.00    -0.203 F 
ATOM     97  C   UNL A   1      44.907  26.281  35.685  1.00  0.00     0.198 A 
ATOM     98  C   UNL A   1      46.417  27.936  34.817  1.00  0.00     0.198 A 
ATOM     99  F   UNL A   1      45.571  29.856  33.753  1.00  0.00    -0.203 F 
ATOM    100  F   UNL A   1      44.698  25.127  36.333  1.00  0.00    -0.200 F 
ATOM    101  C   UNL A   1      46.202  26.730  35.469  1.00  0.00     0.200 A 
ATOM    102  F   UNL A   1      47.668  28.363  34.595  1.00  0.00    -0.200 F 
ATOM    103  F   UNL A   1      47.244  26.001  35.890  1.00  0.00    -0.200 F 
ENDBRANCH  70  93
ENDBRANCH  44  45
ENDBRANCH  36  39
ENDBRANCH  34  35
ENDBRANCH  33  34
ENDBRANCH  32  33
ENDBRANCH   1  32
TORSDOF 17
ENDMDL
MODEL 3
REMARK VINA RESULT:     -12.5      5.164      9.985
REMARK SMILES CC[C@H](C)[C@H](NC(=O)[C@H](C)Oc1ccc2c(C)c(C)c(=O)oc2c1C)C(=O)NCCCCNC(=O)c1ccc(-c2c3nc(c(-c4c(F)c(F)c(F)c(F)c4F)c4ccc([nH]4)c(-c4c(F)c(F)c(F)c(F)c4F)c4nc(c(-c5c(F)c(F)c(F)c(F)c5F)c5ccc2[nH]5)C=C4)C=C3)cc1
REMARK SMILES IDX 29 1 28 2 26 3 27 4 5 6 3 7 4 8 2 9 1 10 6 11 7 12 8 14 9 15
REMARK SMILES IDX 10 16 11 17 12 18 13 19 24 20 14 21 23 22 25 23 15 24 22 25
REMARK SMILES IDX 16 26 20 27 17 28 18 29 21 30 19 31 30 32 31 33 32 34 33 35
REMARK SMILES IDX 34 36 35 38 36 39 37 40 98 41 38 42 97 43 39 44 40 45 41 46
REMARK SMILES IDX 91 47 42 48 96 49 90 50 92 51 43 52 95 53 89 54 88 55 44 57
REMARK SMILES IDX 76 58 56 59 75 60 57 61 60 62 74 63 93 64 58 65 59 66 73 68
REMARK SMILES IDX 94 69 61 70 45 71 46 72 54 73 47 74 48 75 52 76 55 77 49 78
REMARK SMILES IDX 50 79 53 80 51 81 77 82 78 83 86 84 79 85 80 86 84 87 87 88
REMARK SMILES IDX 81 89 82 90 85 91 83 92 62 93 63 94 71 95 64 96 65 97 69 98
REMARK SMILES IDX 72 99 66 100 67 101 70 102 68 103
REMARK H PARENT 28 5 6 13 33 37 92 56 60 67
REMARK Flexibility Score: inf
ROOT
ATOM      1  C   UNL A   1      37.736  23.161  25.717  1.00  0.00     0.116 C 
ENDROOT
BRANCH   1   2
ATOM      2  N   UNL A   1      37.463  22.922  24.310  1.00  0.00    -0.354 N 
ATOM      3  C   UNL A   1      36.277  22.756  23.661  1.00  0.00     0.242 C 
ATOM      4  O   UNL A   1      36.266  22.976  22.447  1.00  0.00    -0.273 OA
ATOM      5  H   UNL A   1      38.260  22.871  23.736  1.00  0.00     0.163 HD
BRANCH   3   6
ATOM      6  C   UNL A   1      34.984  22.446  24.425  1.00  0.00     0.174 C 
BRANCH   6   7
ATOM      7  C   UNL A   1      35.216  21.320  25.489  1.00  0.00     0.018 C 
ATOM      8  C   UNL A   1      34.431  21.589  26.779  1.00  0.00     0.010 C 
BRANCH   7   9
ATOM      9  C   UNL A   1      34.992  19.876  24.991  1.00  0.00     0.002 C 
ATOM     10  C   UNL A   1      36.274  19.071  24.810  1.00  0.00     0.004 C 
ENDBRANCH   7   9
ENDBRANCH   6   7
BRANCH   6  11
ATOM     11  N   UNL A   1      33.812  22.280  23.566  1.00  0.00    -0.341 N 
ATOM     12  C   UNL A   1      32.781  23.116  23.260  1.00  0.00     0.261 C 
ATOM     13  H   UNL A   1      33.759  21.400  23.127  1.00  0.00     0.164 HD
ATOM     14  O   UNL A   1      31.818  22.558  22.711  1.00  0.00    -0.271 OA
BRANCH  12  15
ATOM     15  C   UNL A   1      32.740  24.683  23.453  1.00  0.00     0.258 C 
ATOM     16  C   UNL A   1      33.909  25.430  22.816  1.00  0.00     0.064 C 
BRANCH  15  17
ATOM     17  O   UNL A   1      32.298  25.399  24.603  1.00  0.00    -0.480 OA
BRANCH  17  18
ATOM     18  C   UNL A   1      31.491  26.460  24.344  1.00  0.00     0.127 A 
ATOM     19  C   UNL A   1      30.357  26.268  23.555  1.00  0.00     0.047 A 
ATOM     20  C   UNL A   1      31.751  27.699  24.930  1.00  0.00     0.035 A 
ATOM     21  C   UNL A   1      29.561  27.359  23.200  1.00  0.00     0.016 A 
ATOM     22  C   UNL A   1      30.917  28.771  24.573  1.00  0.00     0.145 A 
ATOM     23  C   UNL A   1      32.851  27.885  25.935  1.00  0.00     0.052 C 
ATOM     24  C   UNL A   1      29.862  28.644  23.667  1.00  0.00     0.021 A 
ATOM     25  O   UNL A   1      31.190  30.015  25.172  1.00  0.00    -0.422 OA
ATOM     26  C   UNL A   1      29.158  29.857  23.213  1.00  0.00    -0.030 A 
ATOM     27  C   UNL A   1      30.436  31.143  24.903  1.00  0.00     0.339 A 
ATOM     28  C   UNL A   1      28.215  29.718  22.044  1.00  0.00     0.045 C 
ATOM     29  C   UNL A   1      29.430  31.036  23.812  1.00  0.00     0.038 A 
ATOM     30  O   UNL A   1      30.633  32.188  25.512  1.00  0.00    -0.246 OA
ATOM     31  C   UNL A   1      28.761  32.329  23.432  1.00  0.00     0.052 C 
ENDBRANCH  17  18
ENDBRANCH  15  17
ENDBRANCH  12  15
ENDBRANCH   6  11
ENDBRANCH   3   6
ENDBRANCH   1   2
BRANCH   1  32
ATOM     32  C   UNL A   1      38.984  22.463  26.239  1.00  0.00     0.023 C 
BRANCH  32  33
ATOM     33  C   UNL A   1      39.239  21.073  25.666  1.00  0.00     0.023 C 
BRANCH  33  34
ATOM     34  C   UNL A   1      39.746  20.041  26.662  1.00  0.00     0.116 C 
BRANCH  34  35
ATOM     35  N   UNL A   1      40.804  19.202  26.130  1.00  0.00    -0.352 N 
ATOM     36  C   UNL A   1      42.112  19.546  25.895  1.00  0.00     0.251 C 
ATOM     37  H   UNL A   1      40.555  18.276  25.912  1.00  0.00     0.163 HD
ATOM     38  O   UNL A   1      42.898  18.766  25.380  1.00  0.00    -0.269 OA
BRANCH  36  39
ATOM     39  C   UNL A   1      42.534  20.912  26.248  1.00  0.00     0.039 A 
ATOM     40  C   UNL A   1      42.708  21.842  25.224  1.00  0.00     0.014 A 
ATOM     41  C   UNL A   1      42.649  21.280  27.593  1.00  0.00     0.014 A 
ATOM     42  C   UNL A   1      42.962  23.171  25.551  1.00  0.00     0.010 A 
ATOM     43  C   UNL A   1      42.838  22.617  27.916  1.00  0.00     0.010 A 
ATOM     44  C   UNL A   1      43.011  23.568  26.897  1.00  0.00    -0.014 A 
BRANCH  44  45
ATOM     45  C   UNL A   1      43.335  24.964  27.260  1.00  0.00     0.031 A 
ATOM     46  C   UNL A   1      44.725  25.469  27.011  1.00  0.00     0.074 A 
ATOM     47  C   UNL A   1      42.404  25.753  27.826  1.00  0.00     0.049 A 
ATOM     48  N   UNL A   1      45.243  26.638  27.287  1.00  0.00    -0.248 NA
ATOM     49  C   UNL A   1      45.667  24.525  26.386  1.00  0.00     0.031 C 
ATOM     50  C   UNL A   1      41.030  25.356  28.133  1.00  0.00     0.029 A 
ATOM     51  N   UNL A   1      42.479  27.056  28.245  1.00  0.00    -0.354 N 
ATOM     52  C   UNL A   1      46.565  26.565  26.873  1.00  0.00     0.074 A 
ATOM     53  C   UNL A   1      46.791  25.224  26.385  1.00  0.00     0.031 C 
ATOM     54  C   UNL A   1      40.383  26.404  28.672  1.00  0.00     0.029 A 
ATOM     55  C   UNL A   1      41.303  27.534  28.770  1.00  0.00     0.049 A 
ATOM     56  H   UNL A   1      43.298  27.598  28.177  1.00  0.00     0.167 HD
ATOM     57  C   UNL A   1      47.499  27.543  26.869  1.00  0.00     0.037 A 
ATOM     58  C   UNL A   1      41.009  28.750  29.266  1.00  0.00     0.037 A 
ATOM     59  C   UNL A   1      47.261  28.882  27.331  1.00  0.00     0.049 A 
ATOM     60  C   UNL A   1      42.075  29.814  29.278  1.00  0.00     0.074 A 
ATOM     61  C   UNL A   1      48.128  29.959  27.335  1.00  0.00     0.029 A 
ATOM     62  N   UNL A   1      46.061  29.326  27.867  1.00  0.00    -0.354 N 
ATOM     63  N   UNL A   1      43.311  29.749  28.846  1.00  0.00    -0.248 NA
ATOM     64  C   UNL A   1      41.704  31.118  29.844  1.00  0.00     0.031 C 
ATOM     65  C   UNL A   1      47.461  31.050  27.902  1.00  0.00     0.029 A 
ATOM     66  C   UNL A   1      46.169  30.660  28.219  1.00  0.00     0.049 A 
ATOM     67  H   UNL A   1      45.254  28.775  27.978  1.00  0.00     0.167 HD
ATOM     68  C   UNL A   1      43.860  31.004  29.067  1.00  0.00     0.074 A 
ATOM     69  C   UNL A   1      42.818  31.816  29.663  1.00  0.00     0.031 C 
ATOM     70  C   UNL A   1      45.114  31.445  28.805  1.00  0.00     0.037 A 
BRANCH  57  71
ATOM     71  C   UNL A   1      48.854  27.197  26.333  1.00  0.00     0.064 A 
ATOM     72  C   UNL A   1      49.137  27.286  24.961  1.00  0.00     0.173 A 
ATOM     73  C   UNL A   1      49.882  26.792  27.194  1.00  0.00     0.173 A 
ATOM     74  F   UNL A   1      48.179  27.649  24.096  1.00  0.00    -0.203 F 
ATOM     75  C   UNL A   1      50.397  26.960  24.469  1.00  0.00     0.198 A 
ATOM     76  C   UNL A   1      51.149  26.492  26.701  1.00  0.00     0.198 A 
ATOM     77  F   UNL A   1      49.660  26.689  28.513  1.00  0.00    -0.203 F 
ATOM     78  F   UNL A   1      50.632  27.010  23.151  1.00  0.00    -0.200 F 
ATOM     79  C   UNL A   1      51.404  26.571  25.339  1.00  0.00     0.200 A 
ATOM     80  F   UNL A   1      52.123  26.120  27.543  1.00  0.00    -0.200 F 
ATOM     81  F   UNL A   1      52.618  26.262  24.864  1.00  0.00    -0.200 F 
ENDBRANCH  57  71
BRANCH  58  82
ATOM     82  C   UNL A   1      39.639  29.039  29.757  1.00  0.00     0.064 A 
ATOM     83  C   UNL A   1      39.299  28.821  31.100  1.00  0.00     0.173 A 
ATOM     84  C   UNL A   1      38.645  29.544  28.905  1.00  0.00     0.173 A 
ATOM     85  F   UNL A   1      40.211  28.321  31.947  1.00  0.00    -0.203 F 
ATOM     86  C   UNL A   1      38.015  29.086  31.570  1.00  0.00     0.198 A 
ATOM     87  C   UNL A   1      37.367  29.828  29.382  1.00  0.00     0.198 A 
ATOM     88  F   UNL A   1      38.921  29.770  27.613  1.00  0.00    -0.203 F 
ATOM     89  F   UNL A   1      37.709  28.840  32.850  1.00  0.00    -0.200 F 
ATOM     90  C   UNL A   1      37.051  29.595  30.712  1.00  0.00     0.200 A 
ATOM     91  F   UNL A   1      36.441  30.328  28.553  1.00  0.00    -0.200 F 
ATOM     92  F   UNL A   1      35.818  29.855  31.166  1.00  0.00    -0.200 F 
ENDBRANCH  58  82
BRANCH  70  93
ATOM     93  C   UNL A   1      45.430  32.870  29.144  1.00  0.00     0.064 A 
ATOM     94  C   UNL A   1      45.180  33.907  28.235  1.00  0.00     0.173 A 
ATOM     95  C   UNL A   1      45.911  33.208  30.419  1.00  0.00     0.173 A 
ATOM     96  F   UNL A   1      44.733  33.629  27.001  1.00  0.00    -0.203 F 
ATOM     97  C   UNL A   1      45.407  35.234  28.587  1.00  0.00     0.198 A 
ATOM     98  C   UNL A   1      46.114  34.537  30.775  1.00  0.00     0.198 A 
ATOM     99  F   UNL A   1      46.156  32.250  31.324  1.00  0.00    -0.203 F 
ATOM    100  F   UNL A   1      45.186  36.209  27.695  1.00  0.00    -0.200 F 
ATOM    101  C   UNL A   1      45.864  35.549  29.859  1.00  0.00     0.200 A 
ATOM    102  F   UNL A   1      46.542  34.841  32.008  1.00  0.00    -0.200 F 
ATOM    103  F   UNL A   1      46.065  36.828  30.202  1.00  0.00    -0.200 F 
ENDBRANCH  70  93
ENDBRANCH  44  45
ENDBRANCH  36  39
ENDBRANCH  34  35
ENDBRANCH  33  34
ENDBRANCH  32  33
ENDBRANCH   1  32
TORSDOF 17
ENDMDL
