MODEL 1
REMARK VINA RESULT:     -11.8      0.000      0.000
REMARK SMILES CCC[C@@H]1SC[C@@H](C(=O)NCCCCNC(=O)c2ccc(-c3c4nc(c(-c5c(F)c(F)c(F)c(F)c5F)c5ccc([nH]5)c(-c5c(F)c(F)c(F)c(F)c5F)c5nc(c(-c6c(F)c(F)c(F)c(F)c6F)c6ccc3[nH]6)C=C5)C=C4)cc2)N1C(=O)C1C(C)(C)C1(C)C
REMARK SMILES IDX 12 1 11 2 10 3 8 4 9 5 7 7 4 8 5 9 81 10 6 11 3 12 2 13 1 14
REMARK SMILES IDX 82 15 83 16 84 17 85 18 88 19 86 20 87 21 89 22 90 23 13 24
REMARK SMILES IDX 14 25 15 26 16 27 17 29 18 30 19 31 80 32 20 33 79 34 21 35
REMARK SMILES IDX 22 36 23 37 73 38 24 39 78 40 72 41 74 42 25 43 77 44 71 45
REMARK SMILES IDX 70 46 26 48 58 49 38 50 57 51 39 52 42 53 56 54 75 55 40 56
REMARK SMILES IDX 41 57 55 59 76 60 43 61 27 62 28 63 36 64 29 65 30 66 34 67
REMARK SMILES IDX 37 68 31 69 32 70 35 71 33 72 59 73 60 74 68 75 61 76 62 77
REMARK SMILES IDX 66 78 69 79 63 80 64 81 67 82 65 83 44 84 45 85 53 86 46 87
REMARK SMILES IDX 47 88 51 89 54 90 48 91 49 92 52 93 50 94
REMARK H PARENT 10 6 15 28 74 47 42 58
REMARK Flexibility Score: inf
ROOT
ATOM      1  C   UNL A   1      37.442  22.188  24.647  1.00  0.00     0.023 C 
ENDROOT
BRANCH   1   2
ATOM      2  C   UNL A   1      35.939  22.429  24.718  1.00  0.00     0.116 C 
BRANCH   2   3
ATOM      3  N   UNL A   1      35.413  22.176  26.041  1.00  0.00    -0.354 N 
ATOM      4  C   UNL A   1      34.147  21.968  26.502  1.00  0.00     0.243 C 
ATOM      5  O   UNL A   1      34.078  21.454  27.626  1.00  0.00    -0.273 OA
ATOM      6  H   UNL A   1      36.102  22.150  26.745  1.00  0.00     0.163 HD
BRANCH   4   7
ATOM      7  C   UNL A   1      32.857  22.134  25.643  1.00  0.00     0.185 C 
ATOM      8  C   UNL A   1      32.537  23.648  23.697  1.00  0.00     0.144 C 
ATOM      9  S   UNL A   1      32.085  21.942  23.131  1.00  0.00    -0.134 SA
ATOM     10  N   UNL A   1      32.472  23.521  25.201  1.00  0.00    -0.318 N 
ATOM     11  C   UNL A   1      32.950  21.152  24.480  1.00  0.00     0.107 C 
BRANCH   8  12
ATOM     12  C   UNL A   1      31.817  24.599  22.695  1.00  0.00     0.036 C 
BRANCH  12  13
ATOM     13  C   UNL A   1      32.636  25.423  21.685  1.00  0.00    -0.000 C 
ATOM     14  C   UNL A   1      33.091  26.788  22.170  1.00  0.00     0.004 C 
ENDBRANCH  12  13
ENDBRANCH   8  12
BRANCH  10  15
ATOM     15  C   UNL A   1      32.090  24.312  26.336  1.00  0.00     0.228 C 
ATOM     16  O   UNL A   1      31.430  23.771  27.228  1.00  0.00    -0.274 OA
BRANCH  15  17
ATOM     17  C   UNL A   1      32.380  25.779  26.661  1.00  0.00     0.091 C 
ATOM     18  C   UNL A   1      33.333  26.654  25.870  1.00  0.00    -0.017 C 
ATOM     19  C   UNL A   1      31.698  26.896  25.967  1.00  0.00    -0.017 C 
ATOM     20  C   UNL A   1      34.116  27.825  26.490  1.00  0.00     0.012 C 
ATOM     21  C   UNL A   1      34.401  25.696  25.382  1.00  0.00     0.012 C 
ATOM     22  C   UNL A   1      30.469  26.482  25.186  1.00  0.00     0.012 C 
ATOM     23  C   UNL A   1      31.312  28.168  26.743  1.00  0.00     0.012 C 
ENDBRANCH  15  17
ENDBRANCH  10  15
ENDBRANCH   4   7
ENDBRANCH   2   3
ENDBRANCH   1   2
BRANCH   1  24
ATOM     24  C   UNL A   1      37.898  20.799  25.081  1.00  0.00     0.023 C 
BRANCH  24  25
ATOM     25  C   UNL A   1      39.092  20.771  26.026  1.00  0.00     0.116 C 
BRANCH  25  26
ATOM     26  N   UNL A   1      39.952  19.604  25.871  1.00  0.00    -0.352 N 
ATOM     27  C   UNL A   1      41.317  19.513  26.034  1.00  0.00     0.251 C 
ATOM     28  H   UNL A   1      39.496  18.770  25.614  1.00  0.00     0.163 HD
ATOM     29  O   UNL A   1      41.904  18.463  25.799  1.00  0.00    -0.269 OA
BRANCH  27  30
ATOM     30  C   UNL A   1      42.075  20.713  26.446  1.00  0.00     0.039 A 
ATOM     31  C   UNL A   1      42.580  21.568  25.461  1.00  0.00     0.014 A 
ATOM     32  C   UNL A   1      42.207  21.038  27.797  1.00  0.00     0.014 A 
ATOM     33  C   UNL A   1      43.119  22.801  25.832  1.00  0.00     0.010 A 
ATOM     34  C   UNL A   1      42.654  22.304  28.156  1.00  0.00     0.010 A 
ATOM     35  C   UNL A   1      43.105  23.204  27.178  1.00  0.00    -0.014 A 
BRANCH  35  36
ATOM     36  C   UNL A   1      43.551  24.558  27.595  1.00  0.00     0.031 A 
ATOM     37  C   UNL A   1      42.529  25.604  27.947  1.00  0.00     0.074 A 
ATOM     38  C   UNL A   1      44.861  24.874  27.570  1.00  0.00     0.049 A 
ATOM     39  N   UNL A   1      42.698  26.876  28.201  1.00  0.00    -0.248 NA
ATOM     40  C   UNL A   1      41.123  25.166  27.982  1.00  0.00     0.031 C 
ATOM     41  C   UNL A   1      45.948  23.966  27.198  1.00  0.00     0.029 A 
ATOM     42  N   UNL A   1      45.501  26.057  27.848  1.00  0.00    -0.354 N 
ATOM     43  C   UNL A   1      41.424  27.391  28.403  1.00  0.00     0.074 A 
ATOM     44  C   UNL A   1      40.488  26.311  28.184  1.00  0.00     0.031 C 
ATOM     45  C   UNL A   1      47.119  24.616  27.295  1.00  0.00     0.029 A 
ATOM     46  C   UNL A   1      46.866  25.996  27.693  1.00  0.00     0.049 A 
ATOM     47  H   UNL A   1      45.028  26.872  28.131  1.00  0.00     0.167 HD
ATOM     48  C   UNL A   1      41.067  28.645  28.770  1.00  0.00     0.037 A 
ATOM     49  C   UNL A   1      47.803  26.952  27.844  1.00  0.00     0.037 A 
ATOM     50  C   UNL A   1      42.001  29.708  29.026  1.00  0.00     0.049 A 
ATOM     51  C   UNL A   1      47.378  28.338  28.247  1.00  0.00     0.074 A 
ATOM     52  C   UNL A   1      41.743  31.000  29.451  1.00  0.00     0.029 A 
ATOM     53  N   UNL A   1      43.377  29.599  28.886  1.00  0.00    -0.354 N 
ATOM     54  N   UNL A   1      46.175  28.798  28.488  1.00  0.00    -0.248 NA
ATOM     55  C   UNL A   1      48.444  29.339  28.402  1.00  0.00     0.031 C 
ATOM     56  C   UNL A   1      42.961  31.682  29.538  1.00  0.00     0.029 A 
ATOM     57  C   UNL A   1      43.981  30.804  29.206  1.00  0.00     0.049 A 
ATOM     58  H   UNL A   1      43.853  28.786  28.601  1.00  0.00     0.167 HD
ATOM     59  C   UNL A   1      46.340  30.128  28.850  1.00  0.00     0.074 A 
ATOM     60  C   UNL A   1      47.762  30.398  28.814  1.00  0.00     0.031 C 
ATOM     61  C   UNL A   1      45.399  31.046  29.179  1.00  0.00     0.037 A 
BRANCH  48  62
ATOM     62  C   UNL A   1      39.604  28.928  28.935  1.00  0.00     0.064 A 
ATOM     63  C   UNL A   1      38.973  28.819  30.184  1.00  0.00     0.173 A 
ATOM     64  C   UNL A   1      38.828  29.349  27.844  1.00  0.00     0.173 A 
ATOM     65  F   UNL A   1      39.668  28.406  31.256  1.00  0.00    -0.203 F 
ATOM     66  C   UNL A   1      37.617  29.094  30.330  1.00  0.00     0.198 A 
ATOM     67  C   UNL A   1      37.479  29.653  27.999  1.00  0.00     0.198 A 
ATOM     68  F   UNL A   1      39.382  29.473  26.628  1.00  0.00    -0.203 F 
ATOM     69  F   UNL A   1      37.028  28.937  31.523  1.00  0.00    -0.200 F 
ATOM     70  C   UNL A   1      36.873  29.520  29.240  1.00  0.00     0.200 A 
ATOM     71  F   UNL A   1      36.762  30.074  26.948  1.00  0.00    -0.200 F 
ATOM     72  F   UNL A   1      35.569  29.793  29.383  1.00  0.00    -0.200 F 
ENDBRANCH  48  62
BRANCH  49  73
ATOM     73  C   UNL A   1      49.241  26.635  27.635  1.00  0.00     0.064 A 
ATOM     74  C   UNL A   1      49.764  26.495  26.341  1.00  0.00     0.173 A 
ATOM     75  C   UNL A   1      50.114  26.437  28.715  1.00  0.00     0.173 A 
ATOM     76  F   UNL A   1      48.964  26.653  25.277  1.00  0.00    -0.203 F 
ATOM     77  C   UNL A   1      51.096  26.141  26.136  1.00  0.00     0.198 A 
ATOM     78  C   UNL A   1      51.453  26.112  28.507  1.00  0.00     0.198 A 
ATOM     79  F   UNL A   1      49.666  26.563  29.973  1.00  0.00    -0.203 F 
ATOM     80  F   UNL A   1      51.553  25.959  24.890  1.00  0.00    -0.200 F 
ATOM     81  C   UNL A   1      51.940  25.953  27.219  1.00  0.00     0.200 A 
ATOM     82  F   UNL A   1      52.269  25.944  29.557  1.00  0.00    -0.200 F 
ATOM     83  F   UNL A   1      53.221  25.609  27.021  1.00  0.00    -0.200 F 
ENDBRANCH  49  73
BRANCH  61  84
ATOM     84  C   UNL A   1      45.880  32.414  29.566  1.00  0.00     0.064 A 
ATOM     85  C   UNL A   1      46.006  33.443  28.622  1.00  0.00     0.173 A 
ATOM     86  C   UNL A   1      46.178  32.708  30.905  1.00  0.00     0.173 A 
ATOM     87  F   UNL A   1      45.746  33.206  27.327  1.00  0.00    -0.203 F 
ATOM     88  C   UNL A   1      46.436  34.711  29.000  1.00  0.00     0.198 A 
ATOM     89  C   UNL A   1      46.581  33.984  31.284  1.00  0.00     0.198 A 
ATOM     90  F   UNL A   1      46.067  31.759  31.847  1.00  0.00    -0.203 F 
ATOM     91  F   UNL A   1      46.593  35.667  28.075  1.00  0.00    -0.200 F 
ATOM     92  C   UNL A   1      46.717  34.983  30.331  1.00  0.00     0.200 A 
ATOM     93  F   UNL A   1      46.838  34.249  32.573  1.00  0.00    -0.200 F 
ATOM     94  F   UNL A   1      47.124  36.207  30.696  1.00  0.00    -0.200 F 
ENDBRANCH  61  84
ENDBRANCH  35  36
ENDBRANCH  27  30
ENDBRANCH  25  26
ENDBRANCH  24  25
ENDBRANCH   1  24
TORSDOF 15
ENDMDL
MODEL 2
REMARK VINA RESULT:     -11.7      5.529      9.700
REMARK SMILES CCC[C@@H]1SC[C@@H](C(=O)NCCCCNC(=O)c2ccc(-c3c4nc(c(-c5c(F)c(F)c(F)c(F)c5F)c5ccc([nH]5)c(-c5c(F)c(F)c(F)c(F)c5F)c5nc(c(-c6c(F)c(F)c(F)c(F)c6F)c6ccc3[nH]6)C=C5)C=C4)cc2)N1C(=O)C1C(C)(C)C1(C)C
REMARK SMILES IDX 12 1 11 2 10 3 8 4 9 5 7 7 4 8 5 9 81 10 6 11 3 12 2 13 1 14
REMARK SMILES IDX 82 15 83 16 84 17 85 18 88 19 86 20 87 21 89 22 90 23 13 24
REMARK SMILES IDX 14 25 15 26 16 27 17 29 18 30 19 31 80 32 20 33 79 34 21 35
REMARK SMILES IDX 22 36 23 37 73 38 24 39 78 40 72 41 74 42 25 43 77 44 71 45
REMARK SMILES IDX 70 46 26 48 58 49 38 50 57 51 39 52 42 53 56 54 75 55 40 56
REMARK SMILES IDX 41 57 55 59 76 60 43 61 27 62 28 63 36 64 29 65 30 66 34 67
REMARK SMILES IDX 37 68 31 69 32 70 35 71 33 72 59 73 60 74 68 75 61 76 62 77
REMARK SMILES IDX 66 78 69 79 63 80 64 81 67 82 65 83 44 84 45 85 53 86 46 87
REMARK SMILES IDX 47 88 51 89 54 90 48 91 49 92 52 93 50 94
REMARK H PARENT 10 6 15 28 74 47 42 58
REMARK Flexibility Score: inf
ROOT
ATOM      1  C   UNL A   1      32.174  30.462  26.818  1.00  0.00     0.023 C 
ENDROOT
BRANCH   1   2
ATOM      2  C   UNL A   1      31.782  29.749  25.529  1.00  0.00     0.116 C 
BRANCH   2   3
ATOM      3  N   UNL A   1      32.903  29.613  24.625  1.00  0.00    -0.354 N 
ATOM      4  C   UNL A   1      33.084  28.878  23.491  1.00  0.00     0.243 C 
ATOM      5  O   UNL A   1      34.030  29.242  22.779  1.00  0.00    -0.273 OA
ATOM      6  H   UNL A   1      33.686  30.155  24.877  1.00  0.00     0.163 HD
BRANCH   4   7
ATOM      7  C   UNL A   1      32.085  27.803  22.968  1.00  0.00     0.185 C 
ATOM      8  C   UNL A   1      31.124  25.900  24.248  1.00  0.00     0.144 C 
ATOM      9  S   UNL A   1      29.697  26.844  23.534  1.00  0.00    -0.134 SA
ATOM     10  N   UNL A   1      32.284  26.376  23.404  1.00  0.00    -0.318 N 
ATOM     11  C   UNL A   1      30.675  28.312  23.248  1.00  0.00     0.107 C 
BRANCH   8  12
ATOM     12  C   UNL A   1      30.553  24.480  24.536  1.00  0.00     0.036 C 
BRANCH  12  13
ATOM     13  C   UNL A   1      30.721  23.846  25.929  1.00  0.00    -0.000 C 
ATOM     14  C   UNL A   1      31.538  22.567  25.970  1.00  0.00     0.004 C 
ENDBRANCH  12  13
ENDBRANCH   8  12
BRANCH  10  15
ATOM     15  C   UNL A   1      33.495  25.852  22.840  1.00  0.00     0.228 C 
ATOM     16  O   UNL A   1      33.757  26.128  21.666  1.00  0.00    -0.274 OA
BRANCH  15  17
ATOM     17  C   UNL A   1      34.581  24.976  23.469  1.00  0.00     0.091 C 
ATOM     18  C   UNL A   1      34.584  24.536  24.920  1.00  0.00    -0.017 C 
ATOM     19  C   UNL A   1      34.426  23.512  23.628  1.00  0.00    -0.017 C 
ATOM     20  C   UNL A   1      35.873  24.252  25.712  1.00  0.00     0.012 C 
ATOM     21  C   UNL A   1      33.926  25.683  25.660  1.00  0.00     0.012 C 
ATOM     22  C   UNL A   1      33.294  22.916  22.820  1.00  0.00     0.012 C 
ATOM     23  C   UNL A   1      35.637  22.581  23.433  1.00  0.00     0.012 C 
ENDBRANCH  15  17
ENDBRANCH  10  15
ENDBRANCH   4   7
ENDBRANCH   2   3
ENDBRANCH   1   2
BRANCH   1  24
ATOM     24  C   UNL A   1      31.801  31.939  26.882  1.00  0.00     0.023 C 
BRANCH  24  25
ATOM     25  C   UNL A   1      32.939  32.884  27.242  1.00  0.00     0.116 C 
BRANCH  25  26
ATOM     26  N   UNL A   1      32.507  34.212  27.660  1.00  0.00    -0.352 N 
ATOM     27  C   UNL A   1      33.011  35.004  28.668  1.00  0.00     0.251 C 
ATOM     28  H   UNL A   1      31.754  34.593  27.155  1.00  0.00     0.163 HD
ATOM     29  O   UNL A   1      32.486  36.079  28.939  1.00  0.00    -0.269 OA
BRANCH  27  30
ATOM     30  C   UNL A   1      34.161  34.517  29.460  1.00  0.00     0.039 A 
ATOM     31  C   UNL A   1      33.924  33.887  30.684  1.00  0.00     0.014 A 
ATOM     32  C   UNL A   1      35.458  34.604  28.950  1.00  0.00     0.014 A 
ATOM     33  C   UNL A   1      34.976  33.247  31.344  1.00  0.00     0.010 A 
ATOM     34  C   UNL A   1      36.481  33.886  29.557  1.00  0.00     0.010 A 
ATOM     35  C   UNL A   1      36.250  33.191  30.754  1.00  0.00    -0.014 A 
BRANCH  35  36
ATOM     36  C   UNL A   1      37.360  32.412  31.361  1.00  0.00     0.031 A 
ATOM     37  C   UNL A   1      37.871  32.779  32.726  1.00  0.00     0.074 A 
ATOM     38  C   UNL A   1      37.966  31.438  30.652  1.00  0.00     0.049 A 
ATOM     39  N   UNL A   1      38.911  32.322  33.374  1.00  0.00    -0.248 NA
ATOM     40  C   UNL A   1      37.132  33.832  33.445  1.00  0.00     0.031 C 
ATOM     41  C   UNL A   1      37.599  31.019  29.298  1.00  0.00     0.029 A 
ATOM     42  N   UNL A   1      39.033  30.634  30.967  1.00  0.00    -0.354 N 
ATOM     43  C   UNL A   1      38.962  33.042  34.561  1.00  0.00     0.074 A 
ATOM     44  C   UNL A   1      37.887  34.008  34.519  1.00  0.00     0.031 C 
ATOM     45  C   UNL A   1      38.409  30.020  28.910  1.00  0.00     0.029 A 
ATOM     46  C   UNL A   1      39.379  29.757  29.967  1.00  0.00     0.049 A 
ATOM     47  H   UNL A   1      39.506  30.680  31.829  1.00  0.00     0.167 HD
ATOM     48  C   UNL A   1      39.811  32.891  35.605  1.00  0.00     0.037 A 
ATOM     49  C   UNL A   1      40.376  28.852  29.908  1.00  0.00     0.037 A 
ATOM     50  C   UNL A   1      40.855  31.904  35.662  1.00  0.00     0.049 A 
ATOM     51  C   UNL A   1      41.306  28.709  31.082  1.00  0.00     0.074 A 
ATOM     52  C   UNL A   1      41.735  31.637  36.696  1.00  0.00     0.029 A 
ATOM     53  N   UNL A   1      41.155  31.016  34.640  1.00  0.00    -0.354 N 
ATOM     54  N   UNL A   1      41.311  29.359  32.220  1.00  0.00    -0.248 NA
ATOM     55  C   UNL A   1      42.372  27.703  30.963  1.00  0.00     0.031 C 
ATOM     56  C   UNL A   1      42.589  30.608  36.288  1.00  0.00     0.029 A 
ATOM     57  C   UNL A   1      42.215  30.206  35.015  1.00  0.00     0.049 A 
ATOM     58  H   UNL A   1      40.685  30.967  33.777  1.00  0.00     0.167 HD
ATOM     59  C   UNL A   1      42.354  28.823  32.961  1.00  0.00     0.074 A 
ATOM     60  C   UNL A   1      42.952  27.782  32.152  1.00  0.00     0.031 C 
ATOM     61  C   UNL A   1      42.783  29.165  34.201  1.00  0.00     0.037 A 
BRANCH  48  62
ATOM     62  C   UNL A   1      39.629  33.804  36.781  1.00  0.00     0.064 A 
ATOM     63  C   UNL A   1      38.836  33.436  37.879  1.00  0.00     0.173 A 
ATOM     64  C   UNL A   1      40.283  35.045  36.832  1.00  0.00     0.173 A 
ATOM     65  F   UNL A   1      38.177  32.266  37.872  1.00  0.00    -0.203 F 
ATOM     66  C   UNL A   1      38.682  34.285  38.971  1.00  0.00     0.198 A 
ATOM     67  C   UNL A   1      40.153  35.879  37.940  1.00  0.00     0.198 A 
ATOM     68  F   UNL A   1      41.056  35.444  35.811  1.00  0.00    -0.203 F 
ATOM     69  F   UNL A   1      37.882  33.931  39.985  1.00  0.00    -0.200 F 
ATOM     70  C   UNL A   1      39.348  35.501  39.004  1.00  0.00     0.200 A 
ATOM     71  F   UNL A   1      40.803  37.049  37.976  1.00  0.00    -0.200 F 
ATOM     72  F   UNL A   1      39.206  36.314  40.060  1.00  0.00    -0.200 F 
ENDBRANCH  48  62
BRANCH  49  73
ATOM     73  C   UNL A   1      40.540  27.991  28.706  1.00  0.00     0.064 A 
ATOM     74  C   UNL A   1      41.329  28.412  27.625  1.00  0.00     0.173 A 
ATOM     75  C   UNL A   1      39.894  26.751  28.597  1.00  0.00     0.173 A 
ATOM     76  F   UNL A   1      41.948  29.601  27.673  1.00  0.00    -0.203 F 
ATOM     77  C   UNL A   1      41.442  27.640  26.471  1.00  0.00     0.198 A 
ATOM     78  C   UNL A   1      40.032  25.966  27.453  1.00  0.00     0.198 A 
ATOM     79  F   UNL A   1      39.131  26.300  29.604  1.00  0.00    -0.203 F 
ATOM     80  F   UNL A   1      42.156  28.093  25.433  1.00  0.00    -0.200 F 
ATOM     81  C   UNL A   1      40.796  26.416  26.387  1.00  0.00     0.200 A 
ATOM     82  F   UNL A   1      39.416  24.778  27.382  1.00  0.00    -0.200 F 
ATOM     83  F   UNL A   1      40.902  25.675  25.276  1.00  0.00    -0.200 F 
ENDBRANCH  49  73
BRANCH  61  84
ATOM     84  C   UNL A   1      43.926  28.378  34.772  1.00  0.00     0.064 A 
ATOM     85  C   UNL A   1      45.255  28.803  34.629  1.00  0.00     0.173 A 
ATOM     86  C   UNL A   1      43.684  27.209  35.508  1.00  0.00     0.173 A 
ATOM     87  F   UNL A   1      45.538  29.908  33.922  1.00  0.00    -0.203 F 
ATOM     88  C   UNL A   1      46.302  28.071  35.180  1.00  0.00     0.198 A 
ATOM     89  C   UNL A   1      44.731  26.495  36.082  1.00  0.00     0.198 A 
ATOM     90  F   UNL A   1      42.429  26.764  35.679  1.00  0.00    -0.203 F 
ATOM     91  F   UNL A   1      47.568  28.470  34.993  1.00  0.00    -0.200 F 
ATOM     92  C   UNL A   1      46.040  26.922  35.912  1.00  0.00     0.200 A 
ATOM     93  F   UNL A   1      44.474  25.393  36.800  1.00  0.00    -0.200 F 
ATOM     94  F   UNL A   1      47.049  26.222  36.449  1.00  0.00    -0.200 F 
ENDBRANCH  61  84
ENDBRANCH  35  36
ENDBRANCH  27  30
ENDBRANCH  25  26
ENDBRANCH  24  25
ENDBRANCH   1  24
TORSDOF 15
ENDMDL
MODEL 3
REMARK VINA RESULT:     -11.7      5.649     10.633
REMARK SMILES CCC[C@@H]1SC[C@@H](C(=O)NCCCCNC(=O)c2ccc(-c3c4nc(c(-c5c(F)c(F)c(F)c(F)c5F)c5ccc([nH]5)c(-c5c(F)c(F)c(F)c(F)c5F)c5nc(c(-c6c(F)c(F)c(F)c(F)c6F)c6ccc3[nH]6)C=C5)C=C4)cc2)N1C(=O)C1C(C)(C)C1(C)C
REMARK SMILES IDX 12 1 11 2 10 3 8 4 9 5 7 7 4 8 5 9 81 10 6 11 3 12 2 13 1 14
REMARK SMILES IDX 82 15 83 16 84 17 85 18 88 19 86 20 87 21 89 22 90 23 13 24
REMARK SMILES IDX 14 25 15 26 16 27 17 29 18 30 19 31 80 32 20 33 79 34 21 35
REMARK SMILES IDX 22 36 23 37 73 38 24 39 78 40 72 41 74 42 25 43 77 44 71 45
REMARK SMILES IDX 70 46 26 48 58 49 38 50 57 51 39 52 42 53 56 54 75 55 40 56
REMARK SMILES IDX 41 57 55 59 76 60 43 61 27 62 28 63 36 64 29 65 30 66 34 67
REMARK SMILES IDX 37 68 31 69 32 70 35 71 33 72 59 73 60 74 68 75 61 76 62 77
REMARK SMILES IDX 66 78 69 79 63 80 64 81 67 82 65 83 44 84 45 85 53 86 46 87
REMARK SMILES IDX 47 88 51 89 54 90 48 91 49 92 52 93 50 94
REMARK H PARENT 10 6 15 28 74 47 42 58
REMARK Flexibility Score: inf
ROOT
ATOM      1  C   UNL A   1      32.380  30.058  27.128  1.00  0.00     0.023 C 
ENDROOT
BRANCH   1   2
ATOM      2  C   UNL A   1      32.058  29.079  26.007  1.00  0.00     0.116 C 
BRANCH   2   3
ATOM      3  N   UNL A   1      32.939  29.247  24.873  1.00  0.00    -0.354 N 
ATOM      4  C   UNL A   1      32.926  28.724  23.614  1.00  0.00     0.243 C 
ATOM      5  O   UNL A   1      33.628  29.327  22.790  1.00  0.00    -0.273 OA
ATOM      6  H   UNL A   1      33.694  29.857  25.042  1.00  0.00     0.163 HD
BRANCH   4   7
ATOM      7  C   UNL A   1      31.958  27.601  23.135  1.00  0.00     0.185 C 
ATOM      8  C   UNL A   1      31.140  25.662  24.460  1.00  0.00     0.144 C 
ATOM      9  S   UNL A   1      29.642  26.534  23.803  1.00  0.00    -0.134 SA
ATOM     10  N   UNL A   1      32.241  26.187  23.567  1.00  0.00    -0.318 N 
ATOM     11  C   UNL A   1      30.538  28.046  23.472  1.00  0.00     0.107 C 
BRANCH   8  12
ATOM     12  C   UNL A   1      30.648  24.219  24.776  1.00  0.00     0.036 C 
BRANCH  12  13
ATOM     13  C   UNL A   1      30.733  23.668  26.211  1.00  0.00    -0.000 C 
ATOM     14  C   UNL A   1      31.849  22.670  26.463  1.00  0.00     0.004 C 
ENDBRANCH  12  13
ENDBRANCH   8  12
BRANCH  10  15
ATOM     15  C   UNL A   1      33.450  25.717  22.956  1.00  0.00     0.228 C 
ATOM     16  O   UNL A   1      33.652  26.001  21.771  1.00  0.00    -0.274 OA
BRANCH  15  17
ATOM     17  C   UNL A   1      34.600  24.894  23.541  1.00  0.00     0.091 C 
ATOM     18  C   UNL A   1      34.699  24.488  24.999  1.00  0.00    -0.017 C 
ATOM     19  C   UNL A   1      34.506  23.429  23.741  1.00  0.00    -0.017 C 
ATOM     20  C   UNL A   1      36.039  24.267  25.723  1.00  0.00     0.012 C 
ATOM     21  C   UNL A   1      34.043  25.629  25.749  1.00  0.00     0.012 C 
ATOM     22  C   UNL A   1      33.352  22.777  23.010  1.00  0.00     0.012 C 
ATOM     23  C   UNL A   1      35.736  22.536  23.498  1.00  0.00     0.012 C 
ENDBRANCH  15  17
ENDBRANCH  10  15
ENDBRANCH   4   7
ENDBRANCH   2   3
ENDBRANCH   1   2
BRANCH   1  24
ATOM     24  C   UNL A   1      32.136  31.527  26.799  1.00  0.00     0.023 C 
BRANCH  24  25
ATOM     25  C   UNL A   1      33.178  32.498  27.336  1.00  0.00     0.116 C 
BRANCH  25  26
ATOM     26  N   UNL A   1      32.664  33.831  27.626  1.00  0.00    -0.352 N 
ATOM     27  C   UNL A   1      33.099  34.735  28.570  1.00  0.00     0.251 C 
ATOM     28  H   UNL A   1      31.902  34.122  27.075  1.00  0.00     0.163 HD
ATOM     29  O   UNL A   1      32.509  35.798  28.733  1.00  0.00    -0.269 OA
BRANCH  27  30
ATOM     30  C   UNL A   1      34.255  34.387  29.422  1.00  0.00     0.039 A 
ATOM     31  C   UNL A   1      34.027  33.773  30.657  1.00  0.00     0.014 A 
ATOM     32  C   UNL A   1      35.559  34.585  28.963  1.00  0.00     0.014 A 
ATOM     33  C   UNL A   1      35.106  33.258  31.379  1.00  0.00     0.010 A 
ATOM     34  C   UNL A   1      36.619  33.988  29.634  1.00  0.00     0.010 A 
ATOM     35  C   UNL A   1      36.404  33.309  30.843  1.00  0.00    -0.014 A 
BRANCH  35  36
ATOM     36  C   UNL A   1      37.556  32.660  31.519  1.00  0.00     0.031 A 
ATOM     37  C   UNL A   1      38.252  31.501  30.861  1.00  0.00     0.074 A 
ATOM     38  C   UNL A   1      37.918  33.050  32.758  1.00  0.00     0.049 A 
ATOM     39  N   UNL A   1      39.181  30.711  31.336  1.00  0.00    -0.248 NA
ATOM     40  C   UNL A   1      37.816  31.161  29.496  1.00  0.00     0.031 C 
ATOM     41  C   UNL A   1      37.292  34.128  33.527  1.00  0.00     0.029 A 
ATOM     42  N   UNL A   1      38.893  32.571  33.598  1.00  0.00    -0.354 N 
ATOM     43  C   UNL A   1      39.423  29.774  30.340  1.00  0.00     0.074 A 
ATOM     44  C   UNL A   1      38.504  30.054  29.260  1.00  0.00     0.031 C 
ATOM     45  C   UNL A   1      37.914  34.244  34.712  1.00  0.00     0.029 A 
ATOM     46  C   UNL A   1      38.952  33.224  34.807  1.00  0.00     0.049 A 
ATOM     47  H   UNL A   1      39.495  31.830  33.358  1.00  0.00     0.167 HD
ATOM     48  C   UNL A   1      40.350  28.787  30.316  1.00  0.00     0.037 A 
ATOM     49  C   UNL A   1      39.747  33.012  35.873  1.00  0.00     0.037 A 
ATOM     50  C   UNL A   1      41.289  28.535  31.375  1.00  0.00     0.049 A 
ATOM     51  C   UNL A   1      40.765  31.905  35.820  1.00  0.00     0.074 A 
ATOM     52  C   UNL A   1      42.301  27.592  31.425  1.00  0.00     0.029 A 
ATOM     53  N   UNL A   1      41.335  29.236  32.571  1.00  0.00    -0.354 N 
ATOM     54  N   UNL A   1      41.021  31.061  34.851  1.00  0.00    -0.248 NA
ATOM     55  C   UNL A   1      41.609  31.724  37.011  1.00  0.00     0.031 C 
ATOM     56  C   UNL A   1      42.939  27.701  32.664  1.00  0.00     0.029 A 
ATOM     57  C   UNL A   1      42.352  28.739  33.370  1.00  0.00     0.049 A 
ATOM     58  H   UNL A   1      40.735  29.977  32.815  1.00  0.00     0.167 HD
ATOM     59  C   UNL A   1      42.070  30.270  35.301  1.00  0.00     0.074 A 
ATOM     60  C   UNL A   1      42.415  30.746  36.624  1.00  0.00     0.031 C 
ATOM     61  C   UNL A   1      42.689  29.239  34.676  1.00  0.00     0.037 A 
BRANCH  48  62
ATOM     62  C   UNL A   1      40.405  27.920  29.094  1.00  0.00     0.064 A 
ATOM     63  C   UNL A   1      39.653  26.737  29.001  1.00  0.00     0.173 A 
ATOM     64  C   UNL A   1      41.185  28.290  27.988  1.00  0.00     0.173 A 
ATOM     65  F   UNL A   1      38.903  26.332  30.036  1.00  0.00    -0.203 F 
ATOM     66  C   UNL A   1      39.702  25.945  27.858  1.00  0.00     0.198 A 
ATOM     67  C   UNL A   1      41.207  27.511  26.834  1.00  0.00     0.198 A 
ATOM     68  F   UNL A   1      41.919  29.412  28.023  1.00  0.00    -0.203 F 
ATOM     69  F   UNL A   1      39.014  24.797  27.811  1.00  0.00    -0.200 F 
ATOM     70  C   UNL A   1      40.472  26.337  26.772  1.00  0.00     0.200 A 
ATOM     71  F   UNL A   1      41.943  27.894  25.782  1.00  0.00    -0.200 F 
ATOM     72  F   UNL A   1      40.511  25.577  25.669  1.00  0.00    -0.200 F 
ENDBRANCH  48  62
BRANCH  49  73
ATOM     73  C   UNL A   1      39.633  33.875  37.079  1.00  0.00     0.064 A 
ATOM     74  C   UNL A   1      38.826  33.493  38.160  1.00  0.00     0.173 A 
ATOM     75  C   UNL A   1      40.300  35.106  37.166  1.00  0.00     0.173 A 
ATOM     76  F   UNL A   1      38.151  32.336  38.114  1.00  0.00    -0.203 F 
ATOM     77  C   UNL A   1      38.667  34.322  39.269  1.00  0.00     0.198 A 
ATOM     78  C   UNL A   1      40.163  35.920  38.289  1.00  0.00     0.198 A 
ATOM     79  F   UNL A   1      41.088  35.517  36.162  1.00  0.00    -0.203 F 
ATOM     80  F   UNL A   1      37.846  33.956  40.263  1.00  0.00    -0.200 F 
ATOM     81  C   UNL A   1      39.338  35.533  39.335  1.00  0.00     0.200 A 
ATOM     82  F   UNL A   1      40.824  37.085  38.354  1.00  0.00    -0.200 F 
ATOM     83  F   UNL A   1      39.183  36.331  40.400  1.00  0.00    -0.200 F 
ENDBRANCH  49  73
BRANCH  61  84
ATOM     84  C   UNL A   1      43.829  28.584  35.400  1.00  0.00     0.064 A 
ATOM     85  C   UNL A   1      43.627  27.492  36.256  1.00  0.00     0.173 A 
ATOM     86  C   UNL A   1      45.145  29.030  35.200  1.00  0.00     0.173 A 
ATOM     87  F   UNL A   1      42.386  27.039  36.489  1.00  0.00    -0.203 F 
ATOM     88  C   UNL A   1      44.698  26.885  36.905  1.00  0.00     0.198 A 
ATOM     89  C   UNL A   1      46.216  28.403  35.829  1.00  0.00     0.198 A 
ATOM     90  F   UNL A   1      45.391  30.068  34.386  1.00  0.00    -0.203 F 
ATOM     91  F   UNL A   1      44.477  25.872  37.754  1.00  0.00    -0.200 F 
ATOM     92  C   UNL A   1      45.992  27.336  36.686  1.00  0.00     0.200 A 
ATOM     93  F   UNL A   1      47.466  28.831  35.605  1.00  0.00    -0.200 F 
ATOM     94  F   UNL A   1      47.022  26.746  37.307  1.00  0.00    -0.200 F 
ENDBRANCH  61  84
ENDBRANCH  35  36
ENDBRANCH  27  30
ENDBRANCH  25  26
ENDBRANCH  24  25
ENDBRANCH   1  24
TORSDOF 15
ENDMDL
