MODEL 1
REMARK VINA RESULT:     -12.0      0.000      0.000
REMARK SMILES CCCC[C@H]1C[NH2+]CCN1c1ccc(C(=O)NCCCCNC(=O)c2ccc(-c3c4nc(c(-c5c(F)c(F)c(F)c(F)c5F)c5ccc([nH]5)c(-c5c(F)c(F)c(F)c(F)c5F)c5nc(c(-c6c(F)c(F)c(F)c(F)c6F)c6ccc3[nH]6)C=C5)C=C4)cc2)cc1
REMARK SMILES IDX 18 1 17 2 15 3 16 4 14 6 11 7 12 8 89 9 13 10 88 11 10 12
REMARK SMILES IDX 5 13 6 14 7 15 9 16 8 17 4 20 3 21 2 22 1 23 19 24 20 25
REMARK SMILES IDX 21 26 22 27 23 28 24 30 25 31 26 32 87 33 27 34 86 35 28 36
REMARK SMILES IDX 29 37 30 38 80 39 31 40 85 41 79 42 81 43 32 44 84 45 78 46
REMARK SMILES IDX 77 47 33 49 65 50 45 51 64 52 46 53 49 54 63 55 82 56 47 57
REMARK SMILES IDX 48 58 62 60 83 61 50 62 34 63 35 64 43 65 36 66 37 67 41 68
REMARK SMILES IDX 44 69 38 70 39 71 42 72 40 73 66 74 67 75 75 76 68 77 69 78
REMARK SMILES IDX 73 79 76 80 70 81 71 82 74 83 72 84 51 85 52 86 60 87 53 88
REMARK SMILES IDX 54 89 58 90 61 91 55 92 56 93 59 94 57 95
REMARK H PARENT 17 5 7 18 7 19 22 29 81 48 49 59
REMARK Flexibility Score: inf
ROOT
ATOM      1  C   UNL A   1      33.274  30.048  26.241  1.00  0.00     0.116 C 
ENDROOT
BRANCH   1   2
ATOM      2  N   UNL A   1      33.119  29.889  24.809  1.00  0.00    -0.352 N 
ATOM      3  C   UNL A   1      32.943  28.770  24.035  1.00  0.00     0.251 C 
ATOM      4  O   UNL A   1      32.776  28.934  22.827  1.00  0.00    -0.269 OA
ATOM      5  H   UNL A   1      33.144  30.733  24.303  1.00  0.00     0.163 HD
BRANCH   3   6
ATOM      6  C   UNL A   1      32.904  27.388  24.593  1.00  0.00     0.039 A 
ATOM      7  C   UNL A   1      33.006  24.749  25.618  1.00  0.00     0.037 A 
ATOM      8  C   UNL A   1      34.098  25.298  24.940  1.00  0.00     0.027 A 
ATOM      9  C   UNL A   1      31.871  25.541  25.790  1.00  0.00     0.027 A 
ATOM     10  C   UNL A   1      34.052  26.602  24.436  1.00  0.00     0.016 A 
ATOM     11  C   UNL A   1      31.829  26.851  25.304  1.00  0.00     0.016 A 
BRANCH   7  12
ATOM     12  N   UNL A   1      33.070  23.445  26.099  1.00  0.00    -0.357 N 
ATOM     13  C   UNL A   1      33.856  22.497  25.287  1.00  0.00     0.137 C 
ATOM     14  C   UNL A   1      32.909  21.508  24.538  1.00  0.00     0.285 C 
ATOM     15  N   UNL A   1      31.893  20.860  25.397  1.00  0.00    -0.343 N 
ATOM     16  C   UNL A   1      31.889  22.950  26.826  1.00  0.00     0.178 C 
ATOM     17  C   UNL A   1      31.075  21.917  26.022  1.00  0.00     0.282 C 
ATOM     18  H   UNL A   1      32.354  20.307  26.121  1.00  0.00     0.346 HD
ATOM     19  H   UNL A   1      31.303  20.242  24.840  1.00  0.00     0.346 HD
BRANCH  13  20
ATOM     20  C   UNL A   1      34.902  21.712  26.108  1.00  0.00     0.031 C 
BRANCH  20  21
ATOM     21  C   UNL A   1      36.162  21.229  25.381  1.00  0.00     0.002 C 
BRANCH  21  22
ATOM     22  C   UNL A   1      36.921  22.282  24.564  1.00  0.00    -0.003 C 
ATOM     23  C   UNL A   1      37.369  23.498  25.362  1.00  0.00     0.004 C 
ENDBRANCH  21  22
ENDBRANCH  20  21
ENDBRANCH  13  20
ENDBRANCH   7  12
ENDBRANCH   3   6
ENDBRANCH   1   2
BRANCH   1  24
ATOM     24  C   UNL A   1      31.944  30.428  26.895  1.00  0.00     0.023 C 
BRANCH  24  25
ATOM     25  C   UNL A   1      31.659  31.929  26.930  1.00  0.00     0.023 C 
BRANCH  25  26
ATOM     26  C   UNL A   1      32.823  32.785  27.407  1.00  0.00     0.116 C 
BRANCH  26  27
ATOM     27  N   UNL A   1      32.450  34.162  27.694  1.00  0.00    -0.352 N 
ATOM     28  C   UNL A   1      33.008  35.011  28.619  1.00  0.00     0.251 C 
ATOM     29  H   UNL A   1      31.707  34.529  27.163  1.00  0.00     0.163 HD
ATOM     30  O   UNL A   1      32.532  36.122  28.825  1.00  0.00    -0.269 OA
BRANCH  28  31
ATOM     31  C   UNL A   1      34.170  34.543  29.397  1.00  0.00     0.039 A 
ATOM     32  C   UNL A   1      33.956  33.970  30.652  1.00  0.00     0.014 A 
ATOM     33  C   UNL A   1      35.455  34.613  28.855  1.00  0.00     0.014 A 
ATOM     34  C   UNL A   1      35.030  33.406  31.341  1.00  0.00     0.010 A 
ATOM     35  C   UNL A   1      36.509  33.986  29.508  1.00  0.00     0.010 A 
ATOM     36  C   UNL A   1      36.306  33.379  30.757  1.00  0.00    -0.014 A 
BRANCH  36  37
ATOM     37  C   UNL A   1      37.458  32.742  31.438  1.00  0.00     0.031 A 
ATOM     38  C   UNL A   1      38.157  31.584  30.787  1.00  0.00     0.074 A 
ATOM     39  C   UNL A   1      37.816  33.148  32.672  1.00  0.00     0.049 A 
ATOM     40  N   UNL A   1      39.101  30.812  31.259  1.00  0.00    -0.248 NA
ATOM     41  C   UNL A   1      37.708  31.226  29.431  1.00  0.00     0.031 C 
ATOM     42  C   UNL A   1      37.186  34.234  33.422  1.00  0.00     0.029 A 
ATOM     43  N   UNL A   1      38.790  32.679  33.516  1.00  0.00    -0.354 N 
ATOM     44  C   UNL A   1      39.341  29.867  30.272  1.00  0.00     0.074 A 
ATOM     45  C   UNL A   1      38.410  30.128  29.196  1.00  0.00     0.031 C 
ATOM     46  C   UNL A   1      37.802  34.361  34.609  1.00  0.00     0.029 A 
ATOM     47  C   UNL A   1      38.842  33.343  34.717  1.00  0.00     0.049 A 
ATOM     48  H   UNL A   1      39.395  31.938  33.284  1.00  0.00     0.167 HD
ATOM     49  C   UNL A   1      40.272  28.883  30.253  1.00  0.00     0.037 A 
ATOM     50  C   UNL A   1      39.636  33.143  35.786  1.00  0.00     0.037 A 
ATOM     51  C   UNL A   1      41.216  28.648  31.312  1.00  0.00     0.049 A 
ATOM     52  C   UNL A   1      40.664  32.045  35.742  1.00  0.00     0.074 A 
ATOM     53  C   UNL A   1      42.235  27.712  31.371  1.00  0.00     0.029 A 
ATOM     54  N   UNL A   1      41.258  29.361  32.502  1.00  0.00    -0.354 N 
ATOM     55  N   UNL A   1      40.920  31.190  34.781  1.00  0.00    -0.248 NA
ATOM     56  C   UNL A   1      41.515  31.886  36.929  1.00  0.00     0.031 C 
ATOM     57  C   UNL A   1      42.870  27.836  32.610  1.00  0.00     0.029 A 
ATOM     58  C   UNL A   1      42.277  28.877  33.306  1.00  0.00     0.049 A 
ATOM     59  H   UNL A   1      40.654  30.101  32.739  1.00  0.00     0.167 HD
ATOM     60  C   UNL A   1      41.981  30.416  35.232  1.00  0.00     0.074 A 
ATOM     61  C   UNL A   1      42.325  30.907  36.551  1.00  0.00     0.031 C 
ATOM     62  C   UNL A   1      42.615  29.393  34.609  1.00  0.00     0.037 A 
BRANCH  49  63
ATOM     63  C   UNL A   1      40.310  27.994  29.045  1.00  0.00     0.064 A 
ATOM     64  C   UNL A   1      41.058  28.331  27.907  1.00  0.00     0.173 A 
ATOM     65  C   UNL A   1      39.600  26.784  29.029  1.00  0.00     0.173 A 
ATOM     66  F   UNL A   1      41.743  29.484  27.867  1.00  0.00    -0.203 F 
ATOM     67  C   UNL A   1      41.063  27.510  26.783  1.00  0.00     0.198 A 
ATOM     68  C   UNL A   1      39.633  25.950  27.915  1.00  0.00     0.198 A 
ATOM     69  F   UNL A   1      38.872  26.411  30.092  1.00  0.00    -0.203 F 
ATOM     70  F   UNL A   1      41.737  27.882  25.686  1.00  0.00    -0.200 F 
ATOM     71  C   UNL A   1      40.356  26.317  26.791  1.00  0.00     0.200 A 
ATOM     72  F   UNL A   1      38.958  24.790  27.927  1.00  0.00    -0.200 F 
ATOM     73  F   UNL A   1      40.363  25.526  25.708  1.00  0.00    -0.200 F 
ENDBRANCH  49  63
BRANCH  50  74
ATOM     74  C   UNL A   1      39.517  34.027  36.974  1.00  0.00     0.064 A 
ATOM     75  C   UNL A   1      40.166  35.269  37.010  1.00  0.00     0.173 A 
ATOM     76  C   UNL A   1      38.755  33.657  38.090  1.00  0.00     0.173 A 
ATOM     77  F   UNL A   1      40.923  35.658  35.972  1.00  0.00    -0.203 F 
ATOM     78  C   UNL A   1      40.071  36.099  38.124  1.00  0.00     0.198 A 
ATOM     79  C   UNL A   1      38.640  34.499  39.194  1.00  0.00     0.198 A 
ATOM     80  F   UNL A   1      38.109  32.481  38.103  1.00  0.00    -0.203 F 
ATOM     81  F   UNL A   1      40.735  37.263  38.148  1.00  0.00    -0.200 F 
ATOM     82  C   UNL A   1      39.304  35.716  39.214  1.00  0.00     0.200 A 
ATOM     83  F   UNL A   1      37.887  34.131  40.241  1.00  0.00    -0.200 F 
ATOM     84  F   UNL A   1      39.210  36.517  40.284  1.00  0.00    -0.200 F 
ENDBRANCH  50  74
BRANCH  62  85
ATOM     85  C   UNL A   1      43.776  28.766  35.321  1.00  0.00     0.064 A 
ATOM     86  C   UNL A   1      45.087  29.229  35.143  1.00  0.00     0.173 A 
ATOM     87  C   UNL A   1      43.564  27.720  36.234  1.00  0.00     0.173 A 
ATOM     88  F   UNL A   1      45.342  30.216  34.270  1.00  0.00    -0.203 F 
ATOM     89  C   UNL A   1      46.147  28.655  35.839  1.00  0.00     0.198 A 
ATOM     90  C   UNL A   1      44.622  27.168  36.948  1.00  0.00     0.198 A 
ATOM     91  F   UNL A   1      42.327  27.247  36.443  1.00  0.00    -0.203 F 
ATOM     92  F   UNL A   1      47.398  29.086  35.625  1.00  0.00    -0.200 F 
ATOM     93  C   UNL A   1      45.914  27.631  36.747  1.00  0.00     0.200 A 
ATOM     94  F   UNL A   1      44.394  26.188  37.833  1.00  0.00    -0.200 F 
ATOM     95  F   UNL A   1      46.935  27.088  37.423  1.00  0.00    -0.200 F 
ENDBRANCH  62  85
ENDBRANCH  36  37
ENDBRANCH  28  31
ENDBRANCH  26  27
ENDBRANCH  25  26
ENDBRANCH  24  25
ENDBRANCH   1  24
TORSDOF 15
ENDMDL
MODEL 2
REMARK VINA RESULT:     -12.0      0.245      1.622
REMARK SMILES CCCC[C@H]1C[NH2+]CCN1c1ccc(C(=O)NCCCCNC(=O)c2ccc(-c3c4nc(c(-c5c(F)c(F)c(F)c(F)c5F)c5ccc([nH]5)c(-c5c(F)c(F)c(F)c(F)c5F)c5nc(c(-c6c(F)c(F)c(F)c(F)c6F)c6ccc3[nH]6)C=C5)C=C4)cc2)cc1
REMARK SMILES IDX 18 1 17 2 15 3 16 4 14 6 11 7 12 8 89 9 13 10 88 11 10 12
REMARK SMILES IDX 5 13 6 14 7 15 9 16 8 17 4 20 3 21 2 22 1 23 19 24 20 25
REMARK SMILES IDX 21 26 22 27 23 28 24 30 25 31 26 32 87 33 27 34 86 35 28 36
REMARK SMILES IDX 29 37 30 38 80 39 31 40 85 41 79 42 81 43 32 44 84 45 78 46
REMARK SMILES IDX 77 47 33 49 65 50 45 51 64 52 46 53 49 54 63 55 82 56 47 57
REMARK SMILES IDX 48 58 62 60 83 61 50 62 34 63 35 64 43 65 36 66 37 67 41 68
REMARK SMILES IDX 44 69 38 70 39 71 42 72 40 73 66 74 67 75 75 76 68 77 69 78
REMARK SMILES IDX 73 79 76 80 70 81 71 82 74 83 72 84 51 85 52 86 60 87 53 88
REMARK SMILES IDX 54 89 58 90 61 91 55 92 56 93 59 94 57 95
REMARK H PARENT 17 5 7 18 7 19 22 29 81 48 49 59
REMARK Flexibility Score: inf
ROOT
ATOM      1  C   UNL A   1      33.279  30.078  26.068  1.00  0.00     0.116 C 
ENDROOT
BRANCH   1   2
ATOM      2  N   UNL A   1      32.967  29.888  24.666  1.00  0.00    -0.352 N 
ATOM      3  C   UNL A   1      32.723  28.751  23.938  1.00  0.00     0.251 C 
ATOM      4  O   UNL A   1      32.420  28.886  22.753  1.00  0.00    -0.269 OA
ATOM      5  H   UNL A   1      32.924  30.721  24.143  1.00  0.00     0.163 HD
BRANCH   3   6
ATOM      6  C   UNL A   1      32.766  27.380  24.524  1.00  0.00     0.039 A 
ATOM      7  C   UNL A   1      33.018  24.762  25.578  1.00  0.00     0.037 A 
ATOM      8  C   UNL A   1      33.998  25.294  24.735  1.00  0.00     0.027 A 
ATOM      9  C   UNL A   1      31.921  25.561  25.898  1.00  0.00     0.027 A 
ATOM     10  C   UNL A   1      33.878  26.587  24.216  1.00  0.00     0.016 A 
ATOM     11  C   UNL A   1      31.808  26.861  25.397  1.00  0.00     0.016 A 
BRANCH   7  12
ATOM     12  N   UNL A   1      33.151  23.468  26.071  1.00  0.00    -0.357 N 
ATOM     13  C   UNL A   1      33.999  22.560  25.275  1.00  0.00     0.137 C 
ATOM     14  C   UNL A   1      33.118  21.511  24.526  1.00  0.00     0.285 C 
ATOM     15  N   UNL A   1      32.132  20.814  25.381  1.00  0.00    -0.343 N 
ATOM     16  C   UNL A   1      31.993  22.912  26.791  1.00  0.00     0.178 C 
ATOM     17  C   UNL A   1      31.248  21.827  25.989  1.00  0.00     0.282 C 
ATOM     18  H   UNL A   1      32.617  20.295  26.114  1.00  0.00     0.346 HD
ATOM     19  H   UNL A   1      31.585  20.158  24.824  1.00  0.00     0.346 HD
BRANCH  13  20
ATOM     20  C   UNL A   1      35.080  21.843  26.114  1.00  0.00     0.031 C 
BRANCH  20  21
ATOM     21  C   UNL A   1      36.543  22.029  25.697  1.00  0.00     0.002 C 
BRANCH  21  22
ATOM     22  C   UNL A   1      36.845  23.225  24.787  1.00  0.00    -0.003 C 
ATOM     23  C   UNL A   1      36.655  22.953  23.302  1.00  0.00     0.004 C 
ENDBRANCH  21  22
ENDBRANCH  20  21
ENDBRANCH  13  20
ENDBRANCH   7  12
ENDBRANCH   3   6
ENDBRANCH   1   2
BRANCH   1  24
ATOM     24  C   UNL A   1      32.026  30.460  26.858  1.00  0.00     0.023 C 
BRANCH  24  25
ATOM     25  C   UNL A   1      31.717  31.958  26.876  1.00  0.00     0.023 C 
BRANCH  25  26
ATOM     26  C   UNL A   1      32.881  32.839  27.304  1.00  0.00     0.116 C 
BRANCH  26  27
ATOM     27  N   UNL A   1      32.486  34.202  27.626  1.00  0.00    -0.352 N 
ATOM     28  C   UNL A   1      33.024  35.033  28.579  1.00  0.00     0.251 C 
ATOM     29  H   UNL A   1      31.743  34.574  27.098  1.00  0.00     0.163 HD
ATOM     30  O   UNL A   1      32.531  36.130  28.812  1.00  0.00    -0.269 OA
BRANCH  28  31
ATOM     31  C   UNL A   1      34.186  34.559  29.355  1.00  0.00     0.039 A 
ATOM     32  C   UNL A   1      33.976  34.029  30.629  1.00  0.00     0.014 A 
ATOM     33  C   UNL A   1      35.464  34.580  28.793  1.00  0.00     0.014 A 
ATOM     34  C   UNL A   1      35.046  33.458  31.319  1.00  0.00     0.010 A 
ATOM     35  C   UNL A   1      36.512  33.947  29.449  1.00  0.00     0.010 A 
ATOM     36  C   UNL A   1      36.312  33.382  30.718  1.00  0.00    -0.014 A 
BRANCH  36  37
ATOM     37  C   UNL A   1      37.457  32.736  31.403  1.00  0.00     0.031 A 
ATOM     38  C   UNL A   1      38.162  31.587  30.743  1.00  0.00     0.074 A 
ATOM     39  C   UNL A   1      37.804  33.126  32.644  1.00  0.00     0.049 A 
ATOM     40  N   UNL A   1      39.103  30.808  31.214  1.00  0.00    -0.248 NA
ATOM     41  C   UNL A   1      37.726  31.245  29.379  1.00  0.00     0.031 C 
ATOM     42  C   UNL A   1      37.168  34.203  33.403  1.00  0.00     0.029 A 
ATOM     43  N   UNL A   1      38.771  32.647  33.491  1.00  0.00    -0.354 N 
ATOM     44  C   UNL A   1      39.352  29.876  30.218  1.00  0.00     0.074 A 
ATOM     45  C   UNL A   1      38.430  30.151  29.137  1.00  0.00     0.031 C 
ATOM     46  C   UNL A   1      37.773  34.316  34.596  1.00  0.00     0.029 A 
ATOM     47  C   UNL A   1      38.812  33.296  34.701  1.00  0.00     0.049 A 
ATOM     48  H   UNL A   1      39.378  31.909  33.255  1.00  0.00     0.167 HD
ATOM     49  C   UNL A   1      40.282  28.892  30.195  1.00  0.00     0.037 A 
ATOM     50  C   UNL A   1      39.596  33.083  35.775  1.00  0.00     0.037 A 
ATOM     51  C   UNL A   1      41.217  28.644  31.260  1.00  0.00     0.049 A 
ATOM     52  C   UNL A   1      40.624  31.985  35.727  1.00  0.00     0.074 A 
ATOM     53  C   UNL A   1      42.235  27.707  31.316  1.00  0.00     0.029 A 
ATOM     54  N   UNL A   1      41.248  29.342  32.458  1.00  0.00    -0.354 N 
ATOM     55  N   UNL A   1      40.889  31.143  34.757  1.00  0.00    -0.248 NA
ATOM     56  C   UNL A   1      41.464  31.811  36.919  1.00  0.00     0.031 C 
ATOM     57  C   UNL A   1      42.859  27.816  32.563  1.00  0.00     0.029 A 
ATOM     58  C   UNL A   1      42.259  28.848  33.266  1.00  0.00     0.049 A 
ATOM     59  H   UNL A   1      40.642  30.079  32.699  1.00  0.00     0.167 HD
ATOM     60  C   UNL A   1      41.946  30.363  35.209  1.00  0.00     0.074 A 
ATOM     61  C   UNL A   1      42.277  30.837  36.536  1.00  0.00     0.031 C 
ATOM     62  C   UNL A   1      42.585  29.348  34.579  1.00  0.00     0.037 A 
BRANCH  49  63
ATOM     63  C   UNL A   1      40.332  28.018  28.977  1.00  0.00     0.064 A 
ATOM     64  C   UNL A   1      41.081  28.375  27.845  1.00  0.00     0.173 A 
ATOM     65  C   UNL A   1      39.631  26.802  28.943  1.00  0.00     0.173 A 
ATOM     66  F   UNL A   1      41.757  29.534  27.822  1.00  0.00    -0.203 F 
ATOM     67  C   UNL A   1      41.096  27.567  26.711  1.00  0.00     0.198 A 
ATOM     68  C   UNL A   1      39.675  25.982  27.820  1.00  0.00     0.198 A 
ATOM     69  F   UNL A   1      38.903  26.411  29.999  1.00  0.00    -0.203 F 
ATOM     70  F   UNL A   1      41.771  27.959  25.621  1.00  0.00    -0.200 F 
ATOM     71  C   UNL A   1      40.399  26.369  26.702  1.00  0.00     0.200 A 
ATOM     72  F   UNL A   1      39.009  24.818  27.814  1.00  0.00    -0.200 F 
ATOM     73  F   UNL A   1      40.416  25.592  25.610  1.00  0.00    -0.200 F 
ENDBRANCH  49  63
BRANCH  50  74
ATOM     74  C   UNL A   1      39.465  33.952  36.972  1.00  0.00     0.064 A 
ATOM     75  C   UNL A   1      38.706  33.538  38.077  1.00  0.00     0.173 A 
ATOM     76  C   UNL A   1      40.093  35.202  37.043  1.00  0.00     0.173 A 
ATOM     77  F   UNL A   1      38.071  32.357  38.047  1.00  0.00    -0.203 F 
ATOM     78  C   UNL A   1      38.566  34.352  39.199  1.00  0.00     0.198 A 
ATOM     79  C   UNL A   1      39.973  36.004  38.177  1.00  0.00     0.198 A 
ATOM     80  F   UNL A   1      40.835  35.641  36.016  1.00  0.00    -0.203 F 
ATOM     81  F   UNL A   1      37.802  33.949  40.223  1.00  0.00    -0.200 F 
ATOM     82  C   UNL A   1      39.204  35.582  39.250  1.00  0.00     0.200 A 
ATOM     83  F   UNL A   1      40.601  37.188  38.228  1.00  0.00    -0.200 F 
ATOM     84  F   UNL A   1      39.072  36.362  40.332  1.00  0.00    -0.200 F 
ENDBRANCH  50  74
BRANCH  62  85
ATOM     85  C   UNL A   1      43.740  28.711  35.293  1.00  0.00     0.064 A 
ATOM     86  C   UNL A   1      43.565  27.607  36.140  1.00  0.00     0.173 A 
ATOM     87  C   UNL A   1      45.046  29.181  35.085  1.00  0.00     0.173 A 
ATOM     88  F   UNL A   1      42.333  27.132  36.383  1.00  0.00    -0.203 F 
ATOM     89  C   UNL A   1      44.653  27.010  36.768  1.00  0.00     0.198 A 
ATOM     90  C   UNL A   1      46.135  28.564  35.692  1.00  0.00     0.198 A 
ATOM     91  F   UNL A   1      45.265  30.231  34.279  1.00  0.00    -0.203 F 
ATOM     92  F   UNL A   1      44.460  25.981  37.605  1.00  0.00    -0.200 F 
ATOM     93  C   UNL A   1      45.938  27.482  36.537  1.00  0.00     0.200 A 
ATOM     94  F   UNL A   1      47.375  29.014  35.459  1.00  0.00    -0.200 F 
ATOM     95  F   UNL A   1      46.985  26.898  37.135  1.00  0.00    -0.200 F 
ENDBRANCH  62  85
ENDBRANCH  36  37
ENDBRANCH  28  31
ENDBRANCH  26  27
ENDBRANCH  25  26
ENDBRANCH  24  25
ENDBRANCH   1  24
TORSDOF 15
ENDMDL
MODEL 3
REMARK VINA RESULT:     -11.9      5.688     11.293
REMARK SMILES CCCC[C@H]1C[NH2+]CCN1c1ccc(C(=O)NCCCCNC(=O)c2ccc(-c3c4nc(c(-c5c(F)c(F)c(F)c(F)c5F)c5ccc([nH]5)c(-c5c(F)c(F)c(F)c(F)c5F)c5nc(c(-c6c(F)c(F)c(F)c(F)c6F)c6ccc3[nH]6)C=C5)C=C4)cc2)cc1
REMARK SMILES IDX 18 1 17 2 15 3 16 4 14 6 11 7 12 8 89 9 13 10 88 11 10 12
REMARK SMILES IDX 5 13 6 14 7 15 9 16 8 17 4 20 3 21 2 22 1 23 19 24 20 25
REMARK SMILES IDX 21 26 22 27 23 28 24 30 25 31 26 32 87 33 27 34 86 35 28 36
REMARK SMILES IDX 29 37 30 38 80 39 31 40 85 41 79 42 81 43 32 44 84 45 78 46
REMARK SMILES IDX 77 47 33 49 65 50 45 51 64 52 46 53 49 54 63 55 82 56 47 57
REMARK SMILES IDX 48 58 62 60 83 61 50 62 34 63 35 64 43 65 36 66 37 67 41 68
REMARK SMILES IDX 44 69 38 70 39 71 42 72 40 73 66 74 67 75 75 76 68 77 69 78
REMARK SMILES IDX 73 79 76 80 70 81 71 82 74 83 72 84 51 85 52 86 60 87 53 88
REMARK SMILES IDX 54 89 58 90 61 91 55 92 56 93 59 94 57 95
REMARK H PARENT 17 5 7 18 7 19 22 29 81 48 49 59
REMARK Flexibility Score: inf
ROOT
ATOM      1  C   UNL A   1      35.707  21.250  24.627  1.00  0.00     0.116 C 
ENDROOT
BRANCH   1   2
ATOM      2  N   UNL A   1      35.153  21.037  25.948  1.00  0.00    -0.352 N 
ATOM      3  C   UNL A   1      34.396  21.848  26.755  1.00  0.00     0.251 C 
ATOM      4  O   UNL A   1      34.003  21.382  27.824  1.00  0.00    -0.269 OA
ATOM      5  H   UNL A   1      35.356  20.154  26.336  1.00  0.00     0.163 HD
BRANCH   3   6
ATOM      6  C   UNL A   1      33.997  23.234  26.377  1.00  0.00     0.039 A 
ATOM      7  C   UNL A   1      33.087  25.843  25.749  1.00  0.00     0.037 A 
ATOM      8  C   UNL A   1      32.235  24.909  26.345  1.00  0.00     0.027 A 
ATOM      9  C   UNL A   1      34.402  25.460  25.486  1.00  0.00     0.027 A 
ATOM     10  C   UNL A   1      32.682  23.621  26.659  1.00  0.00     0.016 A 
ATOM     11  C   UNL A   1      34.858  24.181  25.817  1.00  0.00     0.016 A 
BRANCH   7  12
ATOM     12  N   UNL A   1      32.617  27.113  25.433  1.00  0.00    -0.357 N 
ATOM     13  C   UNL A   1      33.639  28.093  25.017  1.00  0.00     0.137 C 
ATOM     14  C   UNL A   1      33.874  29.145  26.146  1.00  0.00     0.285 C 
ATOM     15  N   UNL A   1      32.639  29.760  26.680  1.00  0.00    -0.343 N 
ATOM     16  C   UNL A   1      31.440  27.587  26.180  1.00  0.00     0.178 C 
ATOM     17  C   UNL A   1      31.779  28.684  27.208  1.00  0.00     0.282 C 
ATOM     18  H   UNL A   1      32.151  30.258  25.935  1.00  0.00     0.346 HD
ATOM     19  H   UNL A   1      32.868  30.423  27.420  1.00  0.00     0.346 HD
BRANCH  13  20
ATOM     20  C   UNL A   1      33.296  28.805  23.690  1.00  0.00     0.031 C 
BRANCH  20  21
ATOM     21  C   UNL A   1      33.657  28.088  22.384  1.00  0.00     0.002 C 
BRANCH  21  22
ATOM     22  C   UNL A   1      32.701  26.978  21.931  1.00  0.00    -0.003 C 
ATOM     23  C   UNL A   1      33.277  25.572  22.025  1.00  0.00     0.004 C 
ENDBRANCH  21  22
ENDBRANCH  20  21
ENDBRANCH  13  20
ENDBRANCH   7  12
ENDBRANCH   3   6
ENDBRANCH   1   2
BRANCH   1  24
ATOM     24  C   UNL A   1      37.224  21.440  24.696  1.00  0.00     0.023 C 
BRANCH  24  25
ATOM     25  C   UNL A   1      38.011  20.165  24.999  1.00  0.00     0.023 C 
BRANCH  25  26
ATOM     26  C   UNL A   1      39.205  20.360  25.921  1.00  0.00     0.116 C 
BRANCH  26  27
ATOM     27  N   UNL A   1      40.115  19.225  25.939  1.00  0.00    -0.352 N 
ATOM     28  C   UNL A   1      41.477  19.239  26.120  1.00  0.00     0.251 C 
ATOM     29  H   UNL A   1      39.706  18.340  25.803  1.00  0.00     0.163 HD
ATOM     30  O   UNL A   1      42.138  18.213  26.017  1.00  0.00    -0.269 OA
BRANCH  28  31
ATOM     31  C   UNL A   1      42.139  20.528  26.397  1.00  0.00     0.039 A 
ATOM     32  C   UNL A   1      42.563  21.314  25.325  1.00  0.00     0.014 A 
ATOM     33  C   UNL A   1      42.277  20.980  27.711  1.00  0.00     0.014 A 
ATOM     34  C   UNL A   1      43.071  22.590  25.568  1.00  0.00     0.010 A 
ATOM     35  C   UNL A   1      42.714  22.277  27.947  1.00  0.00     0.010 A 
ATOM     36  C   UNL A   1      43.117  23.093  26.878  1.00  0.00    -0.014 A 
BRANCH  36  37
ATOM     37  C   UNL A   1      43.602  24.463  27.167  1.00  0.00     0.031 A 
ATOM     38  C   UNL A   1      42.646  25.493  27.694  1.00  0.00     0.074 A 
ATOM     39  C   UNL A   1      44.874  24.800  26.876  1.00  0.00     0.049 A 
ATOM     40  N   UNL A   1      42.831  26.771  27.899  1.00  0.00    -0.248 NA
ATOM     41  C   UNL A   1      41.283  25.026  28.000  1.00  0.00     0.031 C 
ATOM     42  C   UNL A   1      45.884  23.897  26.323  1.00  0.00     0.029 A 
ATOM     43  N   UNL A   1      45.526  26.000  26.992  1.00  0.00    -0.354 N 
ATOM     44  C   UNL A   1      41.609  27.263  28.334  1.00  0.00     0.074 A 
ATOM     45  C   UNL A   1      40.674  26.159  28.314  1.00  0.00     0.031 C 
ATOM     46  C   UNL A   1      47.034  24.571  26.166  1.00  0.00     0.029 A 
ATOM     47  C   UNL A   1      46.832  25.960  26.569  1.00  0.00     0.049 A 
ATOM     48  H   UNL A   1      45.100  26.815  27.346  1.00  0.00     0.167 HD
ATOM     49  C   UNL A   1      41.299  28.518  28.736  1.00  0.00     0.037 A 
ATOM     50  C   UNL A   1      47.757  26.937  26.508  1.00  0.00     0.037 A 
ATOM     51  C   UNL A   1      42.241  29.604  28.784  1.00  0.00     0.049 A 
ATOM     52  C   UNL A   1      47.390  28.324  26.963  1.00  0.00     0.074 A 
ATOM     53  C   UNL A   1      42.044  30.901  29.226  1.00  0.00     0.029 A 
ATOM     54  N   UNL A   1      43.564  29.517  28.376  1.00  0.00    -0.354 N 
ATOM     55  N   UNL A   1      46.245  28.767  27.424  1.00  0.00    -0.248 NA
ATOM     56  C   UNL A   1      48.444  29.345  26.892  1.00  0.00     0.031 C 
ATOM     57  C   UNL A   1      43.238  31.607  29.052  1.00  0.00     0.029 A 
ATOM     58  C   UNL A   1      44.192  30.740  28.544  1.00  0.00     0.049 A 
ATOM     59  H   UNL A   1      43.994  28.706  28.020  1.00  0.00     0.167 HD
ATOM     60  C   UNL A   1      46.450  30.106  27.729  1.00  0.00     0.074 A 
ATOM     61  C   UNL A   1      47.830  30.401  27.406  1.00  0.00     0.031 C 
ATOM     62  C   UNL A   1      45.574  31.008  28.234  1.00  0.00     0.037 A 
BRANCH  49  63
ATOM     63  C   UNL A   1      39.883  28.776  29.160  1.00  0.00     0.064 A 
ATOM     64  C   UNL A   1      39.465  28.585  30.486  1.00  0.00     0.173 A 
ATOM     65  C   UNL A   1      38.934  29.230  28.231  1.00  0.00     0.173 A 
ATOM     66  F   UNL A   1      40.331  28.139  31.408  1.00  0.00    -0.203 F 
ATOM     67  C   UNL A   1      38.141  28.803  30.858  1.00  0.00     0.198 A 
ATOM     68  C   UNL A   1      37.619  29.477  28.615  1.00  0.00     0.198 A 
ATOM     69  F   UNL A   1      39.281  29.433  26.952  1.00  0.00    -0.203 F 
ATOM     70  F   UNL A   1      37.753  28.557  32.118  1.00  0.00    -0.200 F 
ATOM     71  C   UNL A   1      37.221  29.254  29.925  1.00  0.00     0.200 A 
ATOM     72  F   UNL A   1      36.731  29.924  27.714  1.00  0.00    -0.200 F 
ATOM     73  F   UNL A   1      35.948  29.465  30.286  1.00  0.00    -0.200 F 
ENDBRANCH  49  63
BRANCH  50  74
ATOM     74  C   UNL A   1      49.130  26.629  26.033  1.00  0.00     0.064 A 
ATOM     75  C   UNL A   1      49.503  26.893  24.707  1.00  0.00     0.173 A 
ATOM     76  C   UNL A   1      50.094  26.074  26.885  1.00  0.00     0.173 A 
ATOM     77  F   UNL A   1      48.608  27.406  23.850  1.00  0.00    -0.203 F 
ATOM     78  C   UNL A   1      50.784  26.596  24.248  1.00  0.00     0.198 A 
ATOM     79  C   UNL A   1      51.383  25.800  26.430  1.00  0.00     0.198 A 
ATOM     80  F   UNL A   1      49.788  25.808  28.163  1.00  0.00    -0.203 F 
ATOM     81  F   UNL A   1      51.102  26.820  22.966  1.00  0.00    -0.200 F 
ATOM     82  C   UNL A   1      51.725  26.054  25.111  1.00  0.00     0.200 A 
ATOM     83  F   UNL A   1      52.293  25.289  27.271  1.00  0.00    -0.200 F 
ATOM     84  F   UNL A   1      52.958  25.773  24.669  1.00  0.00    -0.200 F 
ENDBRANCH  50  74
BRANCH  62  85
ATOM     85  C   UNL A   1      46.091  32.387  28.515  1.00  0.00     0.064 A 
ATOM     86  C   UNL A   1      46.013  33.413  27.562  1.00  0.00     0.173 A 
ATOM     87  C   UNL A   1      46.623  32.699  29.777  1.00  0.00     0.173 A 
ATOM     88  F   UNL A   1      45.527  33.160  26.337  1.00  0.00    -0.203 F 
ATOM     89  C   UNL A   1      46.468  34.695  27.855  1.00  0.00     0.198 A 
ATOM     90  C   UNL A   1      47.050  33.988  30.075  1.00  0.00     0.198 A 
ATOM     91  F   UNL A   1      46.712  31.753  30.724  1.00  0.00    -0.203 F 
ATOM     92  F   UNL A   1      46.421  35.651  26.917  1.00  0.00    -0.200 F 
ATOM     93  C   UNL A   1      46.978  34.984  29.113  1.00  0.00     0.200 A 
ATOM     94  F   UNL A   1      47.532  34.269  31.293  1.00  0.00    -0.200 F 
ATOM     95  F   UNL A   1      47.405  36.223  29.395  1.00  0.00    -0.200 F 
ENDBRANCH  62  85
ENDBRANCH  36  37
ENDBRANCH  28  31
ENDBRANCH  26  27
ENDBRANCH  25  26
ENDBRANCH  24  25
ENDBRANCH   1  24
TORSDOF 15
ENDMDL
