MODEL 1
REMARK VINA RESULT:     -10.2      0.000      0.000
REMARK SMILES CC[C@H](C)[NH2+][C@H](CS)C(=O)NCCCCNC(=O)c1ccc(-c2c3nc(c(-c4c(F)c(F)c(F)c(F)c4F)c4ccc([nH]4)c(-c4c(F)c(F)c(F)c(F)c4F)c4nc(c(-c5c(F)c(F)c(F)c(F)c5F)c5ccc2[nH]5)C=C4)C=C3)cc1
REMARK SMILES IDX 13 1 12 2 11 3 9 4 10 5 6 7 5 8 3 11 4 12 2 13 1 14 7 15
REMARK SMILES IDX 8 16 14 18 15 19 16 20 17 21 18 23 19 24 20 25 81 26 21 27
REMARK SMILES IDX 80 28 22 29 23 30 24 31 74 32 25 33 79 34 73 35 75 36 26 37
REMARK SMILES IDX 78 38 72 39 71 40 27 42 59 43 39 44 58 45 40 46 43 47 57 48
REMARK SMILES IDX 76 49 41 50 42 51 56 53 77 54 44 55 28 56 29 57 37 58 30 59
REMARK SMILES IDX 31 60 35 61 38 62 32 63 33 64 36 65 34 66 60 67 61 68 69 69
REMARK SMILES IDX 62 70 63 71 67 72 70 73 64 74 65 75 68 76 66 77 45 78 46 79
REMARK SMILES IDX 54 80 47 81 48 82 52 83 55 84 49 85 50 86 53 87 51 88
REMARK H PARENT 11 6 5 9 5 10 8 17 16 22 75 41 43 52
REMARK Flexibility Score: inf
ROOT
ATOM      1  C   UNL A   1      31.432  30.730  26.741  1.00  0.00     0.023 C 
ENDROOT
BRANCH   1   2
ATOM      2  C   UNL A   1      31.987  30.072  25.481  1.00  0.00     0.116 C 
BRANCH   2   3
ATOM      3  N   UNL A   1      31.016  30.050  24.398  1.00  0.00    -0.351 N 
ATOM      4  C   UNL A   1      30.537  28.975  23.694  1.00  0.00     0.279 C 
ATOM      5  O   UNL A   1      29.658  29.175  22.852  1.00  0.00    -0.268 OA
ATOM      6  H   UNL A   1      30.653  30.926  24.135  1.00  0.00     0.163 HD
BRANCH   4   7
ATOM      7  C   UNL A   1      31.071  27.548  23.985  1.00  0.00     0.282 C 
BRANCH   7   8
ATOM      8  N   UNL A   1      31.951  27.198  22.840  1.00  0.00    -0.333 N 
ATOM      9  H   UNL A   1      31.650  26.286  22.497  1.00  0.00     0.347 HD
ATOM     10  H   UNL A   1      31.840  27.981  22.196  1.00  0.00     0.347 HD
BRANCH   8  11
ATOM     11  C   UNL A   1      33.394  27.121  23.062  1.00  0.00     0.179 C 
ATOM     12  C   UNL A   1      33.989  28.392  22.437  1.00  0.00     0.075 C 
BRANCH  11  13
ATOM     13  C   UNL A   1      33.770  26.959  24.542  1.00  0.00     0.061 C 
ATOM     14  C   UNL A   1      34.031  25.512  24.940  1.00  0.00     0.010 C 
ENDBRANCH  11  13
ENDBRANCH   8  11
ENDBRANCH   7   8
BRANCH   7  15
ATOM     15  C   UNL A   1      29.867  26.627  24.288  1.00  0.00     0.141 C 
BRANCH  15  16
ATOM     16  S   UNL A   1      30.228  25.373  25.567  1.00  0.00    -0.173 SA
ATOM     17  H   UNL A   1      29.739  25.792  26.764  1.00  0.00     0.102 HD
ENDBRANCH  15  16
ENDBRANCH   7  15
ENDBRANCH   4   7
ENDBRANCH   2   3
ENDBRANCH   1   2
BRANCH   1  18
ATOM     18  C   UNL A   1      31.407  32.254  26.702  1.00  0.00     0.023 C 
BRANCH  18  19
ATOM     19  C   UNL A   1      32.658  32.925  27.248  1.00  0.00     0.116 C 
BRANCH  19  20
ATOM     20  N   UNL A   1      32.418  34.284  27.708  1.00  0.00    -0.352 N 
ATOM     21  C   UNL A   1      33.031  34.979  28.720  1.00  0.00     0.251 C 
ATOM     22  H   UNL A   1      31.715  34.777  27.224  1.00  0.00     0.163 HD
ATOM     23  O   UNL A   1      32.598  36.072  29.074  1.00  0.00    -0.269 OA
BRANCH  21  24
ATOM     24  C   UNL A   1      34.200  34.390  29.407  1.00  0.00     0.039 A 
ATOM     25  C   UNL A   1      33.996  33.664  30.581  1.00  0.00     0.014 A 
ATOM     26  C   UNL A   1      35.486  34.534  28.880  1.00  0.00     0.014 A 
ATOM     27  C   UNL A   1      35.076  33.024  31.191  1.00  0.00     0.010 A 
ATOM     28  C   UNL A   1      36.543  33.822  29.438  1.00  0.00     0.010 A 
ATOM     29  C   UNL A   1      36.351  33.065  30.602  1.00  0.00    -0.014 A 
BRANCH  29  30
ATOM     30  C   UNL A   1      37.493  32.324  31.195  1.00  0.00     0.031 A 
ATOM     31  C   UNL A   1      38.000  32.686  32.564  1.00  0.00     0.074 A 
ATOM     32  C   UNL A   1      38.102  31.357  30.483  1.00  0.00     0.049 A 
ATOM     33  N   UNL A   1      39.007  32.185  33.234  1.00  0.00    -0.248 NA
ATOM     34  C   UNL A   1      37.300  33.775  33.263  1.00  0.00     0.031 C 
ATOM     35  C   UNL A   1      37.737  30.948  29.124  1.00  0.00     0.029 A 
ATOM     36  N   UNL A   1      39.163  30.543  30.799  1.00  0.00    -0.354 N 
ATOM     37  C   UNL A   1      39.060  32.896  34.425  1.00  0.00     0.074 A 
ATOM     38  C   UNL A   1      38.032  33.911  34.358  1.00  0.00     0.031 C 
ATOM     39  C   UNL A   1      38.539  29.944  28.736  1.00  0.00     0.029 A 
ATOM     40  C   UNL A   1      39.500  29.665  29.798  1.00  0.00     0.049 A 
ATOM     41  H   UNL A   1      39.635  30.586  31.661  1.00  0.00     0.167 HD
ATOM     42  C   UNL A   1      39.870  32.699  35.494  1.00  0.00     0.037 A 
ATOM     43  C   UNL A   1      40.480  28.742  29.743  1.00  0.00     0.037 A 
ATOM     44  C   UNL A   1      40.885  31.683  35.561  1.00  0.00     0.049 A 
ATOM     45  C   UNL A   1      41.385  28.564  30.933  1.00  0.00     0.074 A 
ATOM     46  C   UNL A   1      41.734  31.378  36.610  1.00  0.00     0.029 A 
ATOM     47  N   UNL A   1      41.192  30.804  34.531  1.00  0.00    -0.354 N 
ATOM     48  N   UNL A   1      41.378  29.194  32.083  1.00  0.00    -0.248 NA
ATOM     49  C   UNL A   1      42.428  27.535  30.821  1.00  0.00     0.031 C 
ATOM     50  C   UNL A   1      42.589  30.350  36.197  1.00  0.00     0.029 A 
ATOM     51  C   UNL A   1      42.233  29.971  34.913  1.00  0.00     0.049 A 
ATOM     52  H   UNL A   1      40.738  30.777  33.658  1.00  0.00     0.167 HD
ATOM     53  C   UNL A   1      42.389  28.619  32.841  1.00  0.00     0.074 A 
ATOM     54  C   UNL A   1      42.974  27.574  32.028  1.00  0.00     0.031 C 
ATOM     55  C   UNL A   1      42.797  28.928  34.097  1.00  0.00     0.037 A 
BRANCH  42  56
ATOM     56  C   UNL A   1      39.681  33.600  36.681  1.00  0.00     0.064 A 
ATOM     57  C   UNL A   1      40.318  34.849  36.764  1.00  0.00     0.173 A 
ATOM     58  C   UNL A   1      38.828  33.231  37.732  1.00  0.00     0.173 A 
ATOM     59  F   UNL A   1      41.154  35.246  35.793  1.00  0.00    -0.203 F 
ATOM     60  C   UNL A   1      40.132  35.679  37.867  1.00  0.00     0.198 A 
ATOM     61  C   UNL A   1      38.617  34.079  38.817  1.00  0.00     0.198 A 
ATOM     62  F   UNL A   1      38.188  32.052  37.702  1.00  0.00    -0.203 F 
ATOM     63  F   UNL A   1      40.795  36.841  37.948  1.00  0.00    -0.200 F 
ATOM     64  C   UNL A   1      39.276  35.297  38.888  1.00  0.00     0.200 A 
ATOM     65  F   UNL A   1      37.777  33.715  39.796  1.00  0.00    -0.200 F 
ATOM     66  F   UNL A   1      39.092  36.100  39.945  1.00  0.00    -0.200 F 
ENDBRANCH  42  56
BRANCH  43  67
ATOM     67  C   UNL A   1      40.651  27.903  28.527  1.00  0.00     0.064 A 
ATOM     68  C   UNL A   1      41.424  28.349  27.445  1.00  0.00     0.173 A 
ATOM     69  C   UNL A   1      40.027  26.653  28.407  1.00  0.00     0.173 A 
ATOM     70  F   UNL A   1      42.027  29.546  27.502  1.00  0.00    -0.203 F 
ATOM     71  C   UNL A   1      41.537  27.594  26.279  1.00  0.00     0.198 A 
ATOM     72  C   UNL A   1      40.168  25.884  27.254  1.00  0.00     0.198 A 
ATOM     73  F   UNL A   1      39.281  26.174  29.414  1.00  0.00    -0.203 F 
ATOM     74  F   UNL A   1      42.231  28.074  25.238  1.00  0.00    -0.200 F 
ATOM     75  C   UNL A   1      40.913  26.360  26.186  1.00  0.00     0.200 A 
ATOM     76  F   UNL A   1      39.576  24.684  27.175  1.00  0.00    -0.200 F 
ATOM     77  F   UNL A   1      41.019  25.635  25.064  1.00  0.00    -0.200 F 
ENDBRANCH  43  67
BRANCH  55  78
ATOM     78  C   UNL A   1      43.901  28.096  34.685  1.00  0.00     0.064 A 
ATOM     79  C   UNL A   1      43.642  26.903  35.375  1.00  0.00     0.173 A 
ATOM     80  C   UNL A   1      45.240  28.487  34.533  1.00  0.00     0.173 A 
ATOM     81  F   UNL A   1      42.378  26.490  35.562  1.00  0.00    -0.203 F 
ATOM     82  C   UNL A   1      44.679  26.150  35.919  1.00  0.00     0.198 A 
ATOM     83  C   UNL A   1      46.277  27.714  35.047  1.00  0.00     0.198 A 
ATOM     84  F   UNL A   1      45.545  29.616  33.874  1.00  0.00    -0.203 F 
ATOM     85  F   UNL A   1      44.404  25.044  36.626  1.00  0.00    -0.200 F 
ATOM     86  C   UNL A   1      45.995  26.552  35.748  1.00  0.00     0.200 A 
ATOM     87  F   UNL A   1      47.549  28.095  34.865  1.00  0.00    -0.200 F 
ATOM     88  F   UNL A   1      46.994  25.824  36.269  1.00  0.00    -0.200 F 
ENDBRANCH  55  78
ENDBRANCH  29  30
ENDBRANCH  21  24
ENDBRANCH  19  20
ENDBRANCH  18  19
ENDBRANCH   1  18
TORSDOF 16
ENDMDL
MODEL 2
REMARK VINA RESULT:     -10.1      1.099      8.012
REMARK SMILES CC[C@H](C)[NH2+][C@H](CS)C(=O)NCCCCNC(=O)c1ccc(-c2c3nc(c(-c4c(F)c(F)c(F)c(F)c4F)c4ccc([nH]4)c(-c4c(F)c(F)c(F)c(F)c4F)c4nc(c(-c5c(F)c(F)c(F)c(F)c5F)c5ccc2[nH]5)C=C4)C=C3)cc1
REMARK SMILES IDX 13 1 12 2 11 3 9 4 10 5 6 7 5 8 3 11 4 12 2 13 1 14 7 15
REMARK SMILES IDX 8 16 14 18 15 19 16 20 17 21 18 23 19 24 20 25 81 26 21 27
REMARK SMILES IDX 80 28 22 29 23 30 24 31 74 32 25 33 79 34 73 35 75 36 26 37
REMARK SMILES IDX 78 38 72 39 71 40 27 42 59 43 39 44 58 45 40 46 43 47 57 48
REMARK SMILES IDX 76 49 41 50 42 51 56 53 77 54 44 55 28 56 29 57 37 58 30 59
REMARK SMILES IDX 31 60 35 61 38 62 32 63 33 64 36 65 34 66 60 67 61 68 69 69
REMARK SMILES IDX 62 70 63 71 67 72 70 73 64 74 65 75 68 76 66 77 45 78 46 79
REMARK SMILES IDX 54 80 47 81 48 82 52 83 55 84 49 85 50 86 53 87 51 88
REMARK H PARENT 11 6 5 9 5 10 8 17 16 22 75 41 43 52
REMARK Flexibility Score: inf
ROOT
ATOM      1  C   UNL A   1      31.690  30.737  26.143  1.00  0.00     0.023 C 
ENDROOT
BRANCH   1   2
ATOM      2  C   UNL A   1      32.462  29.747  27.011  1.00  0.00     0.116 C 
BRANCH   2   3
ATOM      3  N   UNL A   1      31.709  28.527  27.255  1.00  0.00    -0.351 N 
ATOM      4  C   UNL A   1      31.401  27.517  26.379  1.00  0.00     0.279 C 
ATOM      5  O   UNL A   1      30.803  26.530  26.814  1.00  0.00    -0.268 OA
ATOM      6  H   UNL A   1      31.375  28.409  28.173  1.00  0.00     0.163 HD
BRANCH   4   7
ATOM      7  C   UNL A   1      31.831  27.613  24.891  1.00  0.00     0.282 C 
BRANCH   7   8
ATOM      8  N   UNL A   1      30.588  27.450  24.095  1.00  0.00    -0.333 N 
ATOM      9  H   UNL A   1      30.808  26.825  23.318  1.00  0.00     0.347 HD
ATOM     10  H   UNL A   1      29.905  27.106  24.770  1.00  0.00     0.347 HD
BRANCH   8  11
ATOM     11  C   UNL A   1      29.957  28.640  23.525  1.00  0.00     0.179 C 
ATOM     12  C   UNL A   1      30.865  29.092  22.372  1.00  0.00     0.075 C 
BRANCH  11  13
ATOM     13  C   UNL A   1      28.508  28.399  23.076  1.00  0.00     0.061 C 
ATOM     14  C   UNL A   1      27.720  29.687  22.875  1.00  0.00     0.010 C 
ENDBRANCH  11  13
ENDBRANCH   8  11
ENDBRANCH   7   8
BRANCH   7  15
ATOM     15  C   UNL A   1      32.988  26.618  24.651  1.00  0.00     0.141 C 
BRANCH  15  16
ATOM     16  S   UNL A   1      32.451  25.079  23.826  1.00  0.00    -0.173 SA
ATOM     17  H   UNL A   1      33.502  24.529  23.163  1.00  0.00     0.102 HD
ENDBRANCH  15  16
ENDBRANCH   7  15
ENDBRANCH   4   7
ENDBRANCH   2   3
ENDBRANCH   1   2
BRANCH   1  18
ATOM     18  C   UNL A   1      31.422  32.086  26.803  1.00  0.00     0.023 C 
BRANCH  18  19
ATOM     19  C   UNL A   1      32.667  32.812  27.292  1.00  0.00     0.116 C 
BRANCH  19  20
ATOM     20  N   UNL A   1      32.420  34.212  27.602  1.00  0.00    -0.352 N 
ATOM     21  C   UNL A   1      33.017  35.010  28.545  1.00  0.00     0.251 C 
ATOM     22  H   UNL A   1      31.725  34.650  27.058  1.00  0.00     0.163 HD
ATOM     23  O   UNL A   1      32.579  36.134  28.775  1.00  0.00    -0.269 OA
BRANCH  21  24
ATOM     24  C   UNL A   1      34.174  34.498  29.309  1.00  0.00     0.039 A 
ATOM     25  C   UNL A   1      33.950  33.886  30.542  1.00  0.00     0.014 A 
ATOM     26  C   UNL A   1      35.471  34.600  28.797  1.00  0.00     0.014 A 
ATOM     27  C   UNL A   1      35.021  33.315  31.233  1.00  0.00     0.010 A 
ATOM     28  C   UNL A   1      36.520  33.952  29.441  1.00  0.00     0.010 A 
ATOM     29  C   UNL A   1      36.308  33.309  30.668  1.00  0.00    -0.014 A 
BRANCH  29  30
ATOM     30  C   UNL A   1      37.440  32.636  31.353  1.00  0.00     0.031 A 
ATOM     31  C   UNL A   1      38.154  31.492  30.687  1.00  0.00     0.074 A 
ATOM     32  C   UNL A   1      37.795  33.024  32.593  1.00  0.00     0.049 A 
ATOM     33  N   UNL A   1      39.136  30.753  31.138  1.00  0.00    -0.248 NA
ATOM     34  C   UNL A   1      37.685  31.109  29.345  1.00  0.00     0.031 C 
ATOM     35  C   UNL A   1      37.146  34.085  33.366  1.00  0.00     0.029 A 
ATOM     36  N   UNL A   1      38.786  32.566  33.427  1.00  0.00    -0.354 N 
ATOM     37  C   UNL A   1      39.398  29.824  30.140  1.00  0.00     0.074 A 
ATOM     38  C   UNL A   1      38.427  30.042  29.091  1.00  0.00     0.031 C 
ATOM     39  C   UNL A   1      37.773  34.216  34.546  1.00  0.00     0.029 A 
ATOM     40  C   UNL A   1      38.839  33.224  34.631  1.00  0.00     0.049 A 
ATOM     41  H   UNL A   1      39.399  31.836  33.183  1.00  0.00     0.167 HD
ATOM     42  C   UNL A   1      40.381  28.892  30.088  1.00  0.00     0.037 A 
ATOM     43  C   UNL A   1      39.655  33.041  35.688  1.00  0.00     0.037 A 
ATOM     44  C   UNL A   1      41.352  28.683  31.129  1.00  0.00     0.049 A 
ATOM     45  C   UNL A   1      40.720  31.980  35.615  1.00  0.00     0.074 A 
ATOM     46  C   UNL A   1      42.409  27.791  31.158  1.00  0.00     0.029 A 
ATOM     47  N   UNL A   1      41.382  29.376  32.332  1.00  0.00    -0.354 N 
ATOM     48  N   UNL A   1      41.004  31.155  34.636  1.00  0.00    -0.248 NA
ATOM     49  C   UNL A   1      41.588  31.833  36.791  1.00  0.00     0.031 C 
ATOM     50  C   UNL A   1      43.047  27.907  32.397  1.00  0.00     0.029 A 
ATOM     51  C   UNL A   1      42.426  28.915  33.118  1.00  0.00     0.049 A 
ATOM     52  H   UNL A   1      40.753  30.088  32.588  1.00  0.00     0.167 HD
ATOM     53  C   UNL A   1      42.099  30.416  35.064  1.00  0.00     0.074 A 
ATOM     54  C   UNL A   1      42.441  30.905  36.382  1.00  0.00     0.031 C 
ATOM     55  C   UNL A   1      42.762  29.420  34.424  1.00  0.00     0.037 A 
BRANCH  42  56
ATOM     56  C   UNL A   1      40.459  28.035  28.856  1.00  0.00     0.064 A 
ATOM     57  C   UNL A   1      39.765  26.818  28.764  1.00  0.00     0.173 A 
ATOM     58  C   UNL A   1      41.204  28.449  27.742  1.00  0.00     0.173 A 
ATOM     59  F   UNL A   1      39.047  26.369  29.805  1.00  0.00    -0.203 F 
ATOM     60  C   UNL A   1      39.839  26.033  27.616  1.00  0.00     0.198 A 
ATOM     61  C   UNL A   1      41.248  27.678  26.582  1.00  0.00     0.198 A 
ATOM     62  F   UNL A   1      41.882  29.606  27.772  1.00  0.00    -0.203 F 
ATOM     63  F   UNL A   1      39.213  24.850  27.573  1.00  0.00    -0.200 F 
ATOM     64  C   UNL A   1      40.574  26.468  26.523  1.00  0.00     0.200 A 
ATOM     65  F   UNL A   1      41.946  28.107  25.521  1.00  0.00    -0.200 F 
ATOM     66  F   UNL A   1      40.638  25.716  25.416  1.00  0.00    -0.200 F 
ENDBRANCH  42  56
BRANCH  43  67
ATOM     67  C   UNL A   1      39.510  33.889  36.901  1.00  0.00     0.064 A 
ATOM     68  C   UNL A   1      38.760  33.451  38.002  1.00  0.00     0.173 A 
ATOM     69  C   UNL A   1      40.093  35.162  36.977  1.00  0.00     0.173 A 
ATOM     70  F   UNL A   1      38.166  32.249  37.973  1.00  0.00    -0.203 F 
ATOM     71  C   UNL A   1      38.570  34.267  39.116  1.00  0.00     0.198 A 
ATOM     72  C   UNL A   1      39.930  35.963  38.106  1.00  0.00     0.198 A 
ATOM     73  F   UNL A   1      40.826  35.628  35.955  1.00  0.00    -0.203 F 
ATOM     74  F   UNL A   1      37.796  33.847  40.127  1.00  0.00    -0.200 F 
ATOM     75  C   UNL A   1      39.159  35.521  39.169  1.00  0.00     0.200 A 
ATOM     76  F   UNL A   1      40.516  37.168  38.159  1.00  0.00    -0.200 F 
ATOM     77  F   UNL A   1      38.974  36.307  40.239  1.00  0.00    -0.200 F 
ENDBRANCH  43  67
BRANCH  55  78
ATOM     78  C   UNL A   1      43.952  28.826  35.122  1.00  0.00     0.064 A 
ATOM     79  C   UNL A   1      45.246  29.335  34.942  1.00  0.00     0.173 A 
ATOM     80  C   UNL A   1      43.788  27.747  36.006  1.00  0.00     0.173 A 
ATOM     81  F   UNL A   1      45.461  30.356  34.099  1.00  0.00    -0.203 F 
ATOM     82  C   UNL A   1      46.336  28.764  35.594  1.00  0.00     0.198 A 
ATOM     83  C   UNL A   1      44.874  27.203  36.683  1.00  0.00     0.198 A 
ATOM     84  F   UNL A   1      42.569  27.228  36.221  1.00  0.00    -0.203 F 
ATOM     85  F   UNL A   1      47.573  29.229  35.361  1.00  0.00    -0.200 F 
ATOM     86  C   UNL A   1      46.149  27.704  36.469  1.00  0.00     0.200 A 
ATOM     87  F   UNL A   1      44.689  26.191  37.541  1.00  0.00    -0.200 F 
ATOM     88  F   UNL A   1      47.199  27.159  37.099  1.00  0.00    -0.200 F 
ENDBRANCH  55  78
ENDBRANCH  29  30
ENDBRANCH  21  24
ENDBRANCH  19  20
ENDBRANCH  18  19
ENDBRANCH   1  18
TORSDOF 16
ENDMDL
MODEL 3
REMARK VINA RESULT:     -10.1      6.267     10.350
REMARK SMILES CC[C@H](C)[NH2+][C@H](CS)C(=O)NCCCCNC(=O)c1ccc(-c2c3nc(c(-c4c(F)c(F)c(F)c(F)c4F)c4ccc([nH]4)c(-c4c(F)c(F)c(F)c(F)c4F)c4nc(c(-c5c(F)c(F)c(F)c(F)c5F)c5ccc2[nH]5)C=C4)C=C3)cc1
REMARK SMILES IDX 13 1 12 2 11 3 9 4 10 5 6 7 5 8 3 11 4 12 2 13 1 14 7 15
REMARK SMILES IDX 8 16 14 18 15 19 16 20 17 21 18 23 19 24 20 25 81 26 21 27
REMARK SMILES IDX 80 28 22 29 23 30 24 31 74 32 25 33 79 34 73 35 75 36 26 37
REMARK SMILES IDX 78 38 72 39 71 40 27 42 59 43 39 44 58 45 40 46 43 47 57 48
REMARK SMILES IDX 76 49 41 50 42 51 56 53 77 54 44 55 28 56 29 57 37 58 30 59
REMARK SMILES IDX 31 60 35 61 38 62 32 63 33 64 36 65 34 66 60 67 61 68 69 69
REMARK SMILES IDX 62 70 63 71 67 72 70 73 64 74 65 75 68 76 66 77 45 78 46 79
REMARK SMILES IDX 54 80 47 81 48 82 52 83 55 84 49 85 50 86 53 87 51 88
REMARK H PARENT 11 6 5 9 5 10 8 17 16 22 75 41 43 52
REMARK Flexibility Score: inf
ROOT
ATOM      1  C   UNL A   1      37.404  21.393  24.645  1.00  0.00     0.023 C 
ENDROOT
BRANCH   1   2
ATOM      2  C   UNL A   1      35.929  21.371  25.037  1.00  0.00     0.116 C 
BRANCH   2   3
ATOM      3  N   UNL A   1      35.120  22.228  24.184  1.00  0.00    -0.351 N 
ATOM      4  C   UNL A   1      33.765  22.204  23.978  1.00  0.00     0.279 C 
ATOM      5  O   UNL A   1      33.269  23.073  23.257  1.00  0.00    -0.268 OA
ATOM      6  H   UNL A   1      35.613  22.919  23.686  1.00  0.00     0.163 HD
BRANCH   4   7
ATOM      7  C   UNL A   1      32.887  21.127  24.669  1.00  0.00     0.282 C 
BRANCH   7   8
ATOM      8  N   UNL A   1      32.433  20.214  23.589  1.00  0.00    -0.333 N 
ATOM      9  H   UNL A   1      31.455  20.436  23.398  1.00  0.00     0.347 HD
ATOM     10  H   UNL A   1      33.090  20.384  22.828  1.00  0.00     0.347 HD
BRANCH   8  11
ATOM     11  C   UNL A   1      32.511  18.771  23.811  1.00  0.00     0.179 C 
ATOM     12  C   UNL A   1      32.409  18.121  22.423  1.00  0.00     0.075 C 
BRANCH  11  13
ATOM     13  C   UNL A   1      33.777  18.344  24.570  1.00  0.00     0.061 C 
ATOM     14  C   UNL A   1      34.527  17.205  23.893  1.00  0.00     0.010 C 
ENDBRANCH  11  13
ENDBRANCH   8  11
ENDBRANCH   7   8
BRANCH   7  15
ATOM     15  C   UNL A   1      31.813  21.844  25.520  1.00  0.00     0.141 C 
BRANCH  15  16
ATOM     16  S   UNL A   1      32.523  22.848  26.870  1.00  0.00    -0.173 SA
ATOM     17  H   UNL A   1      33.865  22.641  26.933  1.00  0.00     0.102 HD
ENDBRANCH  15  16
ENDBRANCH   7  15
ENDBRANCH   4   7
ENDBRANCH   2   3
ENDBRANCH   1   2
BRANCH   1  18
ATOM     18  C   UNL A   1      38.154  20.094  24.920  1.00  0.00     0.023 C 
BRANCH  18  19
ATOM     19  C   UNL A   1      39.167  20.172  26.051  1.00  0.00     0.116 C 
BRANCH  19  20
ATOM     20  N   UNL A   1      40.178  19.128  25.980  1.00  0.00    -0.352 N 
ATOM     21  C   UNL A   1      41.545  19.237  26.038  1.00  0.00     0.251 C 
ATOM     22  H   UNL A   1      39.832  18.211  25.875  1.00  0.00     0.163 HD
ATOM     23  O   UNL A   1      42.256  18.263  25.808  1.00  0.00    -0.269 OA
BRANCH  21  24
ATOM     24  C   UNL A   1      42.160  20.545  26.347  1.00  0.00     0.039 A 
ATOM     25  C   UNL A   1      42.563  21.367  25.293  1.00  0.00     0.014 A 
ATOM     26  C   UNL A   1      42.316  20.967  27.670  1.00  0.00     0.014 A 
ATOM     27  C   UNL A   1      43.060  22.641  25.565  1.00  0.00     0.010 A 
ATOM     28  C   UNL A   1      42.726  22.270  27.934  1.00  0.00     0.010 A 
ATOM     29  C   UNL A   1      43.108  23.119  26.886  1.00  0.00    -0.014 A 
BRANCH  29  30
ATOM     30  C   UNL A   1      43.560  24.501  27.185  1.00  0.00     0.031 A 
ATOM     31  C   UNL A   1      42.583  25.519  27.704  1.00  0.00     0.074 A 
ATOM     32  C   UNL A   1      44.838  24.852  26.943  1.00  0.00     0.049 A 
ATOM     33  N   UNL A   1      42.775  26.784  27.985  1.00  0.00    -0.248 NA
ATOM     34  C   UNL A   1      41.199  25.065  27.911  1.00  0.00     0.031 C 
ATOM     35  C   UNL A   1      45.868  23.970  26.390  1.00  0.00     0.029 A 
ATOM     36  N   UNL A   1      45.489  26.047  27.125  1.00  0.00    -0.354 N 
ATOM     37  C   UNL A   1      41.542  27.271  28.398  1.00  0.00     0.074 A 
ATOM     38  C   UNL A   1      40.592  26.188  28.262  1.00  0.00     0.031 C 
ATOM     39  C   UNL A   1      47.026  24.643  26.307  1.00  0.00     0.029 A 
ATOM     40  C   UNL A   1      46.813  26.014  26.759  1.00  0.00     0.049 A 
ATOM     41  H   UNL A   1      45.049  26.850  27.485  1.00  0.00     0.167 HD
ATOM     42  C   UNL A   1      41.235  28.500  28.879  1.00  0.00     0.037 A 
ATOM     43  C   UNL A   1      47.747  26.984  26.780  1.00  0.00     0.037 A 
ATOM     44  C   UNL A   1      42.184  29.572  29.021  1.00  0.00     0.049 A 
ATOM     45  C   UNL A   1      47.371  28.350  27.292  1.00  0.00     0.074 A 
ATOM     46  C   UNL A   1      41.982  30.842  29.530  1.00  0.00     0.029 A 
ATOM     47  N   UNL A   1      43.519  29.499  28.648  1.00  0.00    -0.354 N 
ATOM     48  N   UNL A   1      46.218  28.777  27.748  1.00  0.00    -0.248 NA
ATOM     49  C   UNL A   1      48.433  29.365  27.304  1.00  0.00     0.031 C 
ATOM     50  C   UNL A   1      43.180  31.555  29.418  1.00  0.00     0.029 A 
ATOM     51  C   UNL A   1      44.146  30.710  28.897  1.00  0.00     0.049 A 
ATOM     52  H   UNL A   1      43.955  28.704  28.263  1.00  0.00     0.167 HD
ATOM     53  C   UNL A   1      46.423  30.097  28.129  1.00  0.00     0.074 A 
ATOM     54  C   UNL A   1      47.816  30.392  27.871  1.00  0.00     0.031 C 
ATOM     55  C   UNL A   1      45.538  30.985  28.646  1.00  0.00     0.037 A 
BRANCH  42  56
ATOM     56  C   UNL A   1      39.812  28.745  29.295  1.00  0.00     0.064 A 
ATOM     57  C   UNL A   1      39.376  28.491  30.605  1.00  0.00     0.173 A 
ATOM     58  C   UNL A   1      38.882  29.274  28.387  1.00  0.00     0.173 A 
ATOM     59  F   UNL A   1      40.222  27.975  31.510  1.00  0.00    -0.203 F 
ATOM     60  C   UNL A   1      38.056  28.727  30.982  1.00  0.00     0.198 A 
ATOM     61  C   UNL A   1      37.571  29.542  28.777  1.00  0.00     0.198 A 
ATOM     62  F   UNL A   1      39.244  29.542  27.124  1.00  0.00    -0.203 F 
ATOM     63  F   UNL A   1      37.652  28.424  32.223  1.00  0.00    -0.200 F 
ATOM     64  C   UNL A   1      37.157  29.259  30.070  1.00  0.00     0.200 A 
ATOM     65  F   UNL A   1      36.707  30.070  27.900  1.00  0.00    -0.200 F 
ATOM     66  F   UNL A   1      35.890  29.494  30.437  1.00  0.00    -0.200 F 
ENDBRANCH  42  56
BRANCH  43  67
ATOM     67  C   UNL A   1      49.132  26.701  26.319  1.00  0.00     0.064 A 
ATOM     68  C   UNL A   1      50.094  26.183  27.198  1.00  0.00     0.173 A 
ATOM     69  C   UNL A   1      49.532  26.966  25.001  1.00  0.00     0.173 A 
ATOM     70  F   UNL A   1      49.767  25.929  28.474  1.00  0.00    -0.203 F 
ATOM     71  C   UNL A   1      51.409  25.974  26.787  1.00  0.00     0.198 A 
ATOM     72  C   UNL A   1      50.839  26.725  24.582  1.00  0.00     0.198 A 
ATOM     73  F   UNL A   1      48.651  27.456  24.117  1.00  0.00    -0.203 F 
ATOM     74  F   UNL A   1      52.322  25.537  27.666  1.00  0.00    -0.200 F 
ATOM     75  C   UNL A   1      51.780  26.241  25.479  1.00  0.00     0.200 A 
ATOM     76  F   UNL A   1      51.188  26.969  23.311  1.00  0.00    -0.200 F 
ATOM     77  F   UNL A   1      53.045  26.043  25.083  1.00  0.00    -0.200 F 
ENDBRANCH  43  67
BRANCH  55  78
ATOM     78  C   UNL A   1      46.060  32.346  29.008  1.00  0.00     0.064 A 
ATOM     79  C   UNL A   1      46.602  32.618  30.273  1.00  0.00     0.173 A 
ATOM     80  C   UNL A   1      46.042  33.385  28.065  1.00  0.00     0.173 A 
ATOM     81  F   UNL A   1      46.632  31.664  31.216  1.00  0.00    -0.203 F 
ATOM     82  C   UNL A   1      47.075  33.889  30.591  1.00  0.00     0.198 A 
ATOM     83  C   UNL A   1      46.548  34.644  28.374  1.00  0.00     0.198 A 
ATOM     84  F   UNL A   1      45.543  33.176  26.837  1.00  0.00    -0.203 F 
ATOM     85  F   UNL A   1      47.533  34.142  31.825  1.00  0.00    -0.200 F 
ATOM     86  C   UNL A   1      47.054  34.898  29.640  1.00  0.00     0.200 A 
ATOM     87  F   UNL A   1      46.544  35.612  27.448  1.00  0.00    -0.200 F 
ATOM     88  F   UNL A   1      47.514  36.120  29.946  1.00  0.00    -0.200 F 
ENDBRANCH  55  78
ENDBRANCH  29  30
ENDBRANCH  21  24
ENDBRANCH  19  20
ENDBRANCH  18  19
ENDBRANCH   1  18
TORSDOF 16
ENDMDL
