MODEL 1
REMARK VINA RESULT:     -13.2      0.000      0.000
REMARK SMILES O=C(CC1CC[NH+](C[C@@H]2Cc3ccccc32)CC1)NCCCCNC(=O)c1ccc(-c2c3nc(c(-c4c(F)c(F)c(F)c(F)c4F)c4ccc([nH]4)c(-c4c(F)c(F)c(F)c(F)c4F)c4nc(c(-c5c(F)c(F)c(F)c(F)c5F)c5ccc2[nH]5)C=C4)C=C3)cc1
REMARK SMILES IDX 21 1 20 2 19 3 1 4 2 5 3 7 4 8 5 9 18 10 6 11 17 12 7 13
REMARK SMILES IDX 8 15 9 16 10 17 16 18 11 19 15 20 12 21 14 22 13 23 22 24
REMARK SMILES IDX 23 25 24 26 25 27 26 29 27 30 28 31 89 32 29 33 88 34 30 35
REMARK SMILES IDX 31 36 32 37 82 38 33 39 87 40 81 41 83 42 34 43 86 44 80 45
REMARK SMILES IDX 79 46 35 48 67 49 47 50 66 51 48 52 51 53 65 54 84 55 49 56
REMARK SMILES IDX 50 57 64 59 85 60 52 61 36 62 37 63 45 64 38 65 39 66 43 67
REMARK SMILES IDX 46 68 40 69 41 70 44 71 42 72 68 73 69 74 77 75 70 76 71 77
REMARK SMILES IDX 75 78 78 79 72 80 73 81 76 82 74 83 53 84 54 85 62 86 55 87
REMARK SMILES IDX 56 88 60 89 63 90 57 91 58 92 61 93 59 94
REMARK H PARENT 19 6 7 14 24 28 83 47 51 58
REMARK Flexibility Score: inf
ROOT
ATOM      1  C   UNL A   1      34.528  33.111  29.104  1.00  0.00     0.023 C 
ENDROOT
BRANCH   1   2
ATOM      2  C   UNL A   1      35.251  31.352  28.018  1.00  0.00     0.116 C 
BRANCH   2   3
ATOM      3  N   UNL A   1      34.605  30.315  26.992  1.00  0.00    -0.356 N 
ATOM      4  O   UNL A   1      32.429  31.067  27.170  1.00  0.00    -0.275 OA
ATOM      5  C   UNL A   1      33.268  30.342  26.643  1.00  0.00     0.220 C 
ATOM      6  H   UNL A   1      35.183  29.627  26.591  1.00  0.00     0.163 HD
BRANCH   5   7
ATOM      7  C   UNL A   1      32.899  29.385  25.524  1.00  0.00     0.104 C 
BRANCH   7   8
ATOM      8  C   UNL A   1      32.110  28.106  25.894  1.00  0.00     0.009 C 
ATOM      9  C   UNL A   1      33.030  26.936  26.258  1.00  0.00     0.066 C 
ATOM     10  C   UNL A   1      31.084  27.584  24.886  1.00  0.00     0.066 C 
ATOM     11  C   UNL A   1      33.803  26.432  25.048  1.00  0.00     0.262 C 
ATOM     12  C   UNL A   1      31.665  26.796  23.705  1.00  0.00     0.262 C 
ATOM     13  N   UNL A   1      32.990  26.225  23.872  1.00  0.00    -0.334 N 
ATOM     14  H   UNL A   1      32.510  25.529  24.443  1.00  0.00     0.348 HD
BRANCH  13  15
ATOM     15  C   UNL A   1      33.621  25.624  22.709  1.00  0.00     0.270 C 
BRANCH  15  16
ATOM     16  C   UNL A   1      33.612  24.092  22.605  1.00  0.00     0.079 C 
ATOM     17  C   UNL A   1      32.527  23.079  23.347  1.00  0.00     0.050 C 
ATOM     18  C   UNL A   1      34.784  23.338  23.215  1.00  0.00    -0.036 A 
ATOM     19  C   UNL A   1      33.636  22.245  23.938  1.00  0.00    -0.043 A 
ATOM     20  C   UNL A   1      36.552  23.062  23.346  1.00  0.00     0.004 A 
ATOM     21  C   UNL A   1      34.164  20.879  24.949  1.00  0.00     0.004 A 
ATOM     22  C   UNL A   1      37.147  21.668  24.349  1.00  0.00     0.000 A 
ATOM     23  C   UNL A   1      35.941  20.531  25.094  1.00  0.00     0.000 A 
ENDBRANCH  15  16
ENDBRANCH  13  15
ENDBRANCH   7   8
ENDBRANCH   5   7
ENDBRANCH   2   3
ENDBRANCH   1   2
BRANCH   1  24
ATOM     24  C   UNL A   1      33.312  34.336  28.919  1.00  0.00     0.023 C 
BRANCH  24  25
ATOM     25  C   UNL A   1      33.349  35.744  29.532  1.00  0.00     0.116 C 
BRANCH  25  26
ATOM     26  N   UNL A   1      32.419  36.012  30.605  1.00  0.00    -0.352 N 
ATOM     27  C   UNL A   1      32.604  35.653  31.926  1.00  0.00     0.251 C 
ATOM     28  H   UNL A   1      31.589  36.488  30.377  1.00  0.00     0.163 HD
ATOM     29  O   UNL A   1      31.737  35.849  32.768  1.00  0.00    -0.269 OA
BRANCH  27  30
ATOM     30  C   UNL A   1      33.869  34.976  32.314  1.00  0.00     0.039 A 
ATOM     31  C   UNL A   1      33.815  33.667  32.795  1.00  0.00     0.014 A 
ATOM     32  C   UNL A   1      35.104  35.623  32.184  1.00  0.00     0.014 A 
ATOM     33  C   UNL A   1      34.998  32.991  33.115  1.00  0.00     0.010 A 
ATOM     34  C   UNL A   1      36.288  34.932  32.467  1.00  0.00     0.010 A 
ATOM     35  C   UNL A   1      36.248  33.611  32.941  1.00  0.00    -0.014 A 
BRANCH  35  36
ATOM     36  C   UNL A   1      37.506  32.881  33.269  1.00  0.00     0.031 A 
ATOM     37  C   UNL A   1      38.251  33.177  34.543  1.00  0.00     0.074 A 
ATOM     38  C   UNL A   1      37.990  31.955  32.419  1.00  0.00     0.049 A 
ATOM     39  N   UNL A   1      39.342  32.621  35.013  1.00  0.00    -0.248 NA
ATOM     40  C   UNL A   1      37.709  34.245  35.394  1.00  0.00     0.031 C 
ATOM     41  C   UNL A   1      37.390  31.593  31.136  1.00  0.00     0.029 A 
ATOM     42  N   UNL A   1      39.100  31.149  32.506  1.00  0.00    -0.354 N 
ATOM     43  C   UNL A   1      39.614  33.269  36.211  1.00  0.00     0.074 A 
ATOM     44  C   UNL A   1      38.603  34.294  36.371  1.00  0.00     0.031 C 
ATOM     45  C   UNL A   1      38.123  30.622  30.566  1.00  0.00     0.029 A 
ATOM     46  C   UNL A   1      39.260  30.309  31.430  1.00  0.00     0.049 A 
ATOM     47  H   UNL A   1      39.723  31.171  33.268  1.00  0.00     0.167 HD
ATOM     48  C   UNL A   1      40.601  33.021  37.106  1.00  0.00     0.037 A 
ATOM     49  C   UNL A   1      40.210  29.390  31.169  1.00  0.00     0.037 A 
ATOM     50  C   UNL A   1      41.601  31.996  36.959  1.00  0.00     0.049 A 
ATOM     51  C   UNL A   1      41.309  29.149  32.170  1.00  0.00     0.074 A 
ATOM     52  C   UNL A   1      42.601  31.633  37.845  1.00  0.00     0.029 A 
ATOM     53  N   UNL A   1      41.734  31.173  35.850  1.00  0.00    -0.354 N 
ATOM     54  N   UNL A   1      41.504  29.712  33.337  1.00  0.00    -0.248 NA
ATOM     55  C   UNL A   1      42.316  28.135  31.820  1.00  0.00     0.031 C 
ATOM     56  C   UNL A   1      43.372  30.627  37.250  1.00  0.00     0.029 A 
ATOM     57  C   UNL A   1      42.818  30.325  36.017  1.00  0.00     0.049 A 
ATOM     58  H   UNL A   1      41.145  31.189  35.062  1.00  0.00     0.167 HD
ATOM     59  C   UNL A   1      42.632  29.103  33.872  1.00  0.00     0.074 A 
ATOM     60  C   UNL A   1      43.072  28.116  32.908  1.00  0.00     0.031 C 
ATOM     61  C   UNL A   1      43.247  29.340  35.057  1.00  0.00     0.037 A 
BRANCH  48  62
ATOM     62  C   UNL A   1      40.653  33.880  38.338  1.00  0.00     0.064 A 
ATOM     63  C   UNL A   1      41.442  35.039  38.392  1.00  0.00     0.173 A 
ATOM     64  C   UNL A   1      39.866  33.569  39.457  1.00  0.00     0.173 A 
ATOM     65  F   UNL A   1      42.218  35.377  37.351  1.00  0.00    -0.203 F 
ATOM     66  C   UNL A   1      41.463  35.840  39.532  1.00  0.00     0.198 A 
ATOM     67  C   UNL A   1      39.867  34.387  40.583  1.00  0.00     0.198 A 
ATOM     68  F   UNL A   1      39.085  32.479  39.453  1.00  0.00    -0.203 F 
ATOM     69  F   UNL A   1      42.258  36.917  39.577  1.00  0.00    -0.200 F 
ATOM     70  C   UNL A   1      40.670  35.517  40.623  1.00  0.00     0.200 A 
ATOM     71  F   UNL A   1      39.089  34.084  41.632  1.00  0.00    -0.200 F 
ATOM     72  F   UNL A   1      40.685  36.293  41.716  1.00  0.00    -0.200 F 
ENDBRANCH  48  62
BRANCH  49  73
ATOM     73  C   UNL A   1      40.154  28.601  29.910  1.00  0.00     0.064 A 
ATOM     74  C   UNL A   1      39.501  27.361  29.865  1.00  0.00     0.173 A 
ATOM     75  C   UNL A   1      40.765  29.060  28.734  1.00  0.00     0.173 A 
ATOM     76  F   UNL A   1      38.923  26.868  30.971  1.00  0.00    -0.203 F 
ATOM     77  C   UNL A   1      39.477  26.601  28.697  1.00  0.00     0.198 A 
ATOM     78  C   UNL A   1      40.716  28.312  27.559  1.00  0.00     0.198 A 
ATOM     79  F   UNL A   1      41.402  30.240  28.724  1.00  0.00    -0.203 F 
ATOM     80  F   UNL A   1      38.886  25.398  28.694  1.00  0.00    -0.200 F 
ATOM     81  C   UNL A   1      40.080  27.080  27.544  1.00  0.00     0.200 A 
ATOM     82  F   UNL A   1      41.289  28.785  26.444  1.00  0.00    -0.200 F 
ATOM     83  F   UNL A   1      40.054  26.351  26.420  1.00  0.00    -0.200 F 
ENDBRANCH  49  73
BRANCH  61  84
ATOM     84  C   UNL A   1      44.443  28.499  35.398  1.00  0.00     0.064 A 
ATOM     85  C   UNL A   1      45.746  28.900  35.069  1.00  0.00     0.173 A 
ATOM     86  C   UNL A   1      44.286  27.293  36.101  1.00  0.00     0.173 A 
ATOM     87  F   UNL A   1      45.948  30.036  34.384  1.00  0.00    -0.203 F 
ATOM     88  C   UNL A   1      46.845  28.115  35.406  1.00  0.00     0.198 A 
ATOM     89  C   UNL A   1      45.390  26.526  36.463  1.00  0.00     0.198 A 
ATOM     90  F   UNL A   1      43.063  26.866  36.446  1.00  0.00    -0.203 F 
ATOM     91  F   UNL A   1      48.076  28.496  35.040  1.00  0.00    -0.200 F 
ATOM     92  C   UNL A   1      46.668  26.933  36.109  1.00  0.00     0.200 A 
ATOM     93  F   UNL A   1      45.217  25.390  37.154  1.00  0.00    -0.200 F 
ATOM     94  F   UNL A   1      47.727  26.182  36.440  1.00  0.00    -0.200 F 
ENDBRANCH  61  84
ENDBRANCH  35  36
ENDBRANCH  27  30
ENDBRANCH  25  26
ENDBRANCH  24  25
ENDBRANCH   1  24
TORSDOF 14
ENDMDL
MODEL 2
REMARK VINA RESULT:     -12.9      1.813      2.773
REMARK SMILES O=C(CC1CC[NH+](C[C@@H]2Cc3ccccc32)CC1)NCCCCNC(=O)c1ccc(-c2c3nc(c(-c4c(F)c(F)c(F)c(F)c4F)c4ccc([nH]4)c(-c4c(F)c(F)c(F)c(F)c4F)c4nc(c(-c5c(F)c(F)c(F)c(F)c5F)c5ccc2[nH]5)C=C4)C=C3)cc1
REMARK SMILES IDX 21 1 20 2 19 3 1 4 2 5 3 7 4 8 5 9 18 10 6 11 17 12 7 13
REMARK SMILES IDX 8 15 9 16 10 17 16 18 11 19 15 20 12 21 14 22 13 23 22 24
REMARK SMILES IDX 23 25 24 26 25 27 26 29 27 30 28 31 89 32 29 33 88 34 30 35
REMARK SMILES IDX 31 36 32 37 82 38 33 39 87 40 81 41 83 42 34 43 86 44 80 45
REMARK SMILES IDX 79 46 35 48 67 49 47 50 66 51 48 52 51 53 65 54 84 55 49 56
REMARK SMILES IDX 50 57 64 59 85 60 52 61 36 62 37 63 45 64 38 65 39 66 43 67
REMARK SMILES IDX 46 68 40 69 41 70 44 71 42 72 68 73 69 74 77 75 70 76 71 77
REMARK SMILES IDX 75 78 78 79 72 80 73 81 76 82 74 83 53 84 54 85 62 86 55 87
REMARK SMILES IDX 56 88 60 89 63 90 57 91 58 92 61 93 59 94
REMARK H PARENT 19 6 7 14 24 28 83 47 51 58
REMARK Flexibility Score: inf
ROOT
ATOM      1  C   UNL A   1      31.448  30.616  25.746  1.00  0.00     0.023 C 
ENDROOT
BRANCH   1   2
ATOM      2  C   UNL A   1      32.947  29.294  24.851  1.00  0.00     0.116 C 
BRANCH   2   3
ATOM      3  N   UNL A   1      33.016  27.739  24.500  1.00  0.00    -0.356 N 
ATOM      4  O   UNL A   1      33.480  27.983  22.250  1.00  0.00    -0.275 OA
ATOM      5  C   UNL A   1      33.340  27.271  23.240  1.00  0.00     0.220 C 
ATOM      6  H   UNL A   1      32.819  27.086  25.209  1.00  0.00     0.163 HD
BRANCH   5   7
ATOM      7  C   UNL A   1      33.520  25.765  23.166  1.00  0.00     0.104 C 
BRANCH   7   8
ATOM      8  C   UNL A   1      32.481  24.949  22.361  1.00  0.00     0.009 C 
ATOM      9  C   UNL A   1      31.160  24.775  23.117  1.00  0.00     0.066 C 
ATOM     10  C   UNL A   1      32.900  23.568  21.849  1.00  0.00     0.066 C 
ATOM     11  C   UNL A   1      31.323  23.875  24.332  1.00  0.00     0.262 C 
ATOM     12  C   UNL A   1      32.866  22.444  22.891  1.00  0.00     0.262 C 
ATOM     13  N   UNL A   1      32.039  22.648  24.066  1.00  0.00    -0.334 N 
ATOM     14  H   UNL A   1      31.264  22.444  23.434  1.00  0.00     0.348 HD
BRANCH  13  15
ATOM     15  C   UNL A   1      32.130  21.670  25.138  1.00  0.00     0.270 C 
BRANCH  15  16
ATOM     16  C   UNL A   1      33.278  21.823  26.146  1.00  0.00     0.079 C 
ATOM     17  C   UNL A   1      33.851  23.260  26.748  1.00  0.00     0.050 C 
ATOM     18  C   UNL A   1      34.672  21.419  25.691  1.00  0.00    -0.036 A 
ATOM     19  C   UNL A   1      35.270  22.903  26.383  1.00  0.00    -0.043 A 
ATOM     20  C   UNL A   1      35.785  20.193  25.001  1.00  0.00     0.004 A 
ATOM     21  C   UNL A   1      36.997  23.328  26.318  1.00  0.00     0.004 A 
ATOM     22  C   UNL A   1      37.563  20.565  24.930  1.00  0.00     0.000 A 
ATOM     23  C   UNL A   1      38.174  22.113  25.659  1.00  0.00     0.000 A 
ENDBRANCH  15  16
ENDBRANCH  13  15
ENDBRANCH   7   8
ENDBRANCH   5   7
ENDBRANCH   2   3
ENDBRANCH   1   2
BRANCH   1  24
ATOM     24  C   UNL A   1      31.400  31.975  26.826  1.00  0.00     0.023 C 
BRANCH  24  25
ATOM     25  C   UNL A   1      32.591  32.864  27.210  1.00  0.00     0.116 C 
BRANCH  25  26
ATOM     26  N   UNL A   1      32.285  34.206  27.652  1.00  0.00    -0.352 N 
ATOM     27  C   UNL A   1      32.984  34.903  28.619  1.00  0.00     0.251 C 
ATOM     28  H   UNL A   1      31.520  34.658  27.232  1.00  0.00     0.163 HD
ATOM     29  O   UNL A   1      32.621  36.010  28.995  1.00  0.00    -0.269 OA
BRANCH  27  30
ATOM     30  C   UNL A   1      34.175  34.267  29.241  1.00  0.00     0.039 A 
ATOM     31  C   UNL A   1      33.992  33.400  30.320  1.00  0.00     0.014 A 
ATOM     32  C   UNL A   1      35.463  34.510  28.749  1.00  0.00     0.014 A 
ATOM     33  C   UNL A   1      35.094  32.748  30.885  1.00  0.00     0.010 A 
ATOM     34  C   UNL A   1      36.558  33.827  29.291  1.00  0.00     0.010 A 
ATOM     35  C   UNL A   1      36.387  32.943  30.369  1.00  0.00    -0.014 A 
BRANCH  35  36
ATOM     36  C   UNL A   1      37.555  32.235  30.966  1.00  0.00     0.031 A 
ATOM     37  C   UNL A   1      38.034  32.582  32.350  1.00  0.00     0.074 A 
ATOM     38  C   UNL A   1      38.198  31.282  30.262  1.00  0.00     0.049 A 
ATOM     39  N   UNL A   1      39.010  32.052  33.046  1.00  0.00    -0.248 NA
ATOM     40  C   UNL A   1      37.334  33.677  33.037  1.00  0.00     0.031 C 
ATOM     41  C   UNL A   1      37.863  30.870  28.900  1.00  0.00     0.029 A 
ATOM     42  N   UNL A   1      39.268  30.488  30.597  1.00  0.00    -0.354 N 
ATOM     43  C   UNL A   1      39.040  32.745  34.250  1.00  0.00     0.074 A 
ATOM     44  C   UNL A   1      38.017  33.768  34.168  1.00  0.00     0.031 C 
ATOM     45  C   UNL A   1      38.694  29.884  28.523  1.00  0.00     0.029 A 
ATOM     46  C   UNL A   1      39.638  29.611  29.605  1.00  0.00     0.049 A 
ATOM     47  H   UNL A   1      39.728  30.542  31.466  1.00  0.00     0.167 HD
ATOM     48  C   UNL A   1      39.830  32.537  35.331  1.00  0.00     0.037 A 
ATOM     49  C   UNL A   1      40.621  28.690  29.572  1.00  0.00     0.037 A 
ATOM     50  C   UNL A   1      40.839  31.514  35.422  1.00  0.00     0.049 A 
ATOM     51  C   UNL A   1      41.500  28.493  30.779  1.00  0.00     0.074 A 
ATOM     52  C   UNL A   1      41.645  31.191  36.501  1.00  0.00     0.029 A 
ATOM     53  N   UNL A   1      41.189  30.653  34.393  1.00  0.00    -0.354 N 
ATOM     54  N   UNL A   1      41.461  29.100  31.940  1.00  0.00    -0.248 NA
ATOM     55  C   UNL A   1      42.556  27.475  30.673  1.00  0.00     0.031 C 
ATOM     56  C   UNL A   1      42.517  30.169  36.108  1.00  0.00     0.029 A 
ATOM     57  C   UNL A   1      42.218  29.820  34.802  1.00  0.00     0.049 A 
ATOM     58  H   UNL A   1      40.768  30.635  33.503  1.00  0.00     0.167 HD
ATOM     59  C   UNL A   1      42.460  28.518  32.709  1.00  0.00     0.074 A 
ATOM     60  C   UNL A   1      43.082  27.501  31.889  1.00  0.00     0.031 C 
ATOM     61  C   UNL A   1      42.828  28.803  33.983  1.00  0.00     0.037 A 
BRANCH  48  62
ATOM     62  C   UNL A   1      39.638  33.440  36.515  1.00  0.00     0.064 A 
ATOM     63  C   UNL A   1      40.282  34.684  36.604  1.00  0.00     0.173 A 
ATOM     64  C   UNL A   1      38.760  33.082  37.550  1.00  0.00     0.173 A 
ATOM     65  F   UNL A   1      41.136  35.072  35.644  1.00  0.00    -0.203 F 
ATOM     66  C   UNL A   1      40.076  35.523  37.696  1.00  0.00     0.198 A 
ATOM     67  C   UNL A   1      38.534  33.935  38.626  1.00  0.00     0.198 A 
ATOM     68  F   UNL A   1      38.110  31.909  37.510  1.00  0.00    -0.203 F 
ATOM     69  F   UNL A   1      40.736  36.685  37.780  1.00  0.00    -0.200 F 
ATOM     70  C   UNL A   1      39.197  35.150  38.702  1.00  0.00     0.200 A 
ATOM     71  F   UNL A   1      37.673  33.582  39.591  1.00  0.00    -0.200 F 
ATOM     72  F   UNL A   1      38.994  35.963  39.750  1.00  0.00    -0.200 F 
ENDBRANCH  48  62
BRANCH  49  73
ATOM     73  C   UNL A   1      40.815  27.855  28.357  1.00  0.00     0.064 A 
ATOM     74  C   UNL A   1      40.229  26.585  28.253  1.00  0.00     0.173 A 
ATOM     75  C   UNL A   1      41.601  28.300  27.285  1.00  0.00     0.173 A 
ATOM     76  F   UNL A   1      39.488  26.106  29.264  1.00  0.00    -0.203 F 
ATOM     77  C   UNL A   1      40.437  25.785  27.132  1.00  0.00     0.198 A 
ATOM     78  C   UNL A   1      41.786  27.510  26.152  1.00  0.00     0.198 A 
ATOM     79  F   UNL A   1      42.184  29.507  27.334  1.00  0.00    -0.203 F 
ATOM     80  F   UNL A   1      39.904  24.556  27.079  1.00  0.00    -0.200 F 
ATOM     81  C   UNL A   1      41.211  26.250  26.080  1.00  0.00     0.200 A 
ATOM     82  F   UNL A   1      42.526  27.968  25.133  1.00  0.00    -0.200 F 
ATOM     83  F   UNL A   1      41.410  25.482  25.000  1.00  0.00    -0.200 F 
ENDBRANCH  49  73
BRANCH  61  84
ATOM     84  C   UNL A   1      43.933  27.984  34.585  1.00  0.00     0.064 A 
ATOM     85  C   UNL A   1      45.268  28.414  34.562  1.00  0.00     0.173 A 
ATOM     86  C   UNL A   1      43.647  26.769  35.229  1.00  0.00     0.173 A 
ATOM     87  F   UNL A   1      45.596  29.560  33.946  1.00  0.00    -0.203 F 
ATOM     88  C   UNL A   1      46.278  27.648  35.139  1.00  0.00     0.198 A 
ATOM     89  C   UNL A   1      44.656  26.021  35.830  1.00  0.00     0.198 A 
ATOM     90  F   UNL A   1      42.387  26.314  35.285  1.00  0.00    -0.203 F 
ATOM     91  F   UNL A   1      47.552  28.057  35.063  1.00  0.00    -0.200 F 
ATOM     92  C   UNL A   1      45.971  26.457  35.779  1.00  0.00     0.200 A 
ATOM     93  F   UNL A   1      44.355  24.877  36.460  1.00  0.00    -0.200 F 
ATOM     94  F   UNL A   1      46.943  25.725  36.339  1.00  0.00    -0.200 F 
ENDBRANCH  61  84
ENDBRANCH  35  36
ENDBRANCH  27  30
ENDBRANCH  25  26
ENDBRANCH  24  25
ENDBRANCH   1  24
TORSDOF 14
ENDMDL
MODEL 3
REMARK VINA RESULT:     -12.9      6.738     12.294
REMARK SMILES O=C(CC1CC[NH+](C[C@@H]2Cc3ccccc32)CC1)NCCCCNC(=O)c1ccc(-c2c3nc(c(-c4c(F)c(F)c(F)c(F)c4F)c4ccc([nH]4)c(-c4c(F)c(F)c(F)c(F)c4F)c4nc(c(-c5c(F)c(F)c(F)c(F)c5F)c5ccc2[nH]5)C=C4)C=C3)cc1
REMARK SMILES IDX 21 1 20 2 19 3 1 4 2 5 3 7 4 8 5 9 18 10 6 11 17 12 7 13
REMARK SMILES IDX 8 15 9 16 10 17 16 18 11 19 15 20 12 21 14 22 13 23 22 24
REMARK SMILES IDX 23 25 24 26 25 27 26 29 27 30 28 31 89 32 29 33 88 34 30 35
REMARK SMILES IDX 31 36 32 37 82 38 33 39 87 40 81 41 83 42 34 43 86 44 80 45
REMARK SMILES IDX 79 46 35 48 67 49 47 50 66 51 48 52 51 53 65 54 84 55 49 56
REMARK SMILES IDX 50 57 64 59 85 60 52 61 36 62 37 63 45 64 38 65 39 66 43 67
REMARK SMILES IDX 46 68 40 69 41 70 44 71 42 72 68 73 69 74 77 75 70 76 71 77
REMARK SMILES IDX 75 78 78 79 72 80 73 81 76 82 74 83 53 84 54 85 62 86 55 87
REMARK SMILES IDX 56 88 60 89 63 90 57 91 58 92 61 93 59 94
REMARK H PARENT 19 6 7 14 24 28 83 47 51 58
REMARK Flexibility Score: inf
ROOT
ATOM      1  C   UNL A   1      41.025  21.543  26.135  1.00  0.00     0.023 C 
ENDROOT
BRANCH   1   2
ATOM      2  C   UNL A   1      39.345  22.890  26.535  1.00  0.00     0.116 C 
BRANCH   2   3
ATOM      3  N   UNL A   1      37.780  22.864  26.227  1.00  0.00    -0.356 N 
ATOM      4  O   UNL A   1      37.772  20.912  24.992  1.00  0.00    -0.275 OA
ATOM      5  C   UNL A   1      37.170  21.833  25.538  1.00  0.00     0.220 C 
ATOM      6  H   UNL A   1      37.225  23.615  26.540  1.00  0.00     0.163 HD
BRANCH   5   7
ATOM      7  C   UNL A   1      35.654  21.917  25.508  1.00  0.00     0.104 C 
BRANCH   7   8
ATOM      8  C   UNL A   1      34.993  22.648  24.315  1.00  0.00     0.009 C 
ATOM      9  C   UNL A   1      34.937  24.166  24.516  1.00  0.00     0.066 C 
ATOM     10  C   UNL A   1      33.596  22.192  23.885  1.00  0.00     0.066 C 
ATOM     11  C   UNL A   1      33.975  24.549  25.630  1.00  0.00     0.262 C 
ATOM     12  C   UNL A   1      32.441  22.712  24.750  1.00  0.00     0.262 C 
ATOM     13  N   UNL A   1      32.688  23.898  25.550  1.00  0.00    -0.334 N 
ATOM     14  H   UNL A   1      32.598  24.394  24.664  1.00  0.00     0.348 HD
BRANCH  13  15
ATOM     15  C   UNL A   1      31.663  24.301  26.499  1.00  0.00     0.270 C 
BRANCH  15  16
ATOM     16  C   UNL A   1      30.737  25.457  26.098  1.00  0.00     0.079 C 
ATOM     17  C   UNL A   1      30.349  25.891  24.544  1.00  0.00     0.050 C 
ATOM     18  C   UNL A   1      31.199  26.872  26.415  1.00  0.00    -0.036 A 
ATOM     19  C   UNL A   1      30.730  27.328  24.799  1.00  0.00    -0.043 A 
ATOM     20  C   UNL A   1      31.777  28.087  27.601  1.00  0.00     0.004 A 
ATOM     21  C   UNL A   1      30.927  28.997  24.212  1.00  0.00     0.004 A 
ATOM     22  C   UNL A   1      31.975  29.811  27.061  1.00  0.00     0.000 A 
ATOM     23  C   UNL A   1      31.478  30.277  25.376  1.00  0.00     0.000 A 
ENDBRANCH  15  16
ENDBRANCH  13  15
ENDBRANCH   7   8
ENDBRANCH   5   7
ENDBRANCH   2   3
ENDBRANCH   1   2
BRANCH   1  24
ATOM     24  C   UNL A   1      41.343  19.836  26.133  1.00  0.00     0.023 C 
BRANCH  24  25
ATOM     25  C   UNL A   1      42.711  19.173  26.353  1.00  0.00     0.116 C 
BRANCH  25  26
ATOM     26  N   UNL A   1      43.425  18.747  25.171  1.00  0.00    -0.352 N 
ATOM     27  C   UNL A   1      44.288  19.536  24.436  1.00  0.00     0.251 C 
ATOM     28  H   UNL A   1      43.287  17.822  24.867  1.00  0.00     0.163 HD
ATOM     29  O   UNL A   1      44.802  19.128  23.402  1.00  0.00    -0.269 OA
BRANCH  27  30
ATOM     30  C   UNL A   1      44.559  20.923  24.896  1.00  0.00     0.039 A 
ATOM     31  C   UNL A   1      44.163  21.992  24.089  1.00  0.00     0.014 A 
ATOM     32  C   UNL A   1      45.181  21.168  26.126  1.00  0.00     0.014 A 
ATOM     33  C   UNL A   1      44.359  23.307  24.527  1.00  0.00     0.010 A 
ATOM     34  C   UNL A   1      45.339  22.483  26.579  1.00  0.00     0.010 A 
ATOM     35  C   UNL A   1      44.935  23.567  25.782  1.00  0.00    -0.014 A 
BRANCH  35  36
ATOM     36  C   UNL A   1      45.127  24.969  26.250  1.00  0.00     0.031 A 
ATOM     37  C   UNL A   1      46.479  25.626  26.163  1.00  0.00     0.074 A 
ATOM     38  C   UNL A   1      44.089  25.657  26.765  1.00  0.00     0.049 A 
ATOM     39  N   UNL A   1      46.829  26.847  26.488  1.00  0.00    -0.248 NA
ATOM     40  C   UNL A   1      47.584  24.801  25.657  1.00  0.00     0.031 C 
ATOM     41  C   UNL A   1      42.735  25.134  26.939  1.00  0.00     0.029 A 
ATOM     42  N   UNL A   1      44.011  26.945  27.237  1.00  0.00    -0.354 N 
ATOM     43  C   UNL A   1      48.190  26.935  26.226  1.00  0.00     0.074 A 
ATOM     44  C   UNL A   1      48.612  25.630  25.761  1.00  0.00     0.031 C 
ATOM     45  C   UNL A   1      41.955  26.097  27.457  1.00  0.00     0.029 A 
ATOM     46  C   UNL A   1      42.758  27.299  27.676  1.00  0.00     0.049 A 
ATOM     47  H   UNL A   1      44.781  27.558  27.258  1.00  0.00     0.167 HD
ATOM     48  C   UNL A   1      49.010  28.009  26.340  1.00  0.00     0.037 A 
ATOM     49  C   UNL A   1      42.305  28.459  28.191  1.00  0.00     0.037 A 
ATOM     50  C   UNL A   1      48.594  29.312  26.788  1.00  0.00     0.049 A 
ATOM     51  C   UNL A   1      43.241  29.630  28.328  1.00  0.00     0.074 A 
ATOM     52  C   UNL A   1      49.342  30.474  26.876  1.00  0.00     0.029 A 
ATOM     53  N   UNL A   1      47.318  29.626  27.233  1.00  0.00    -0.354 N 
ATOM     54  N   UNL A   1      44.506  29.723  27.997  1.00  0.00    -0.248 NA
ATOM     55  C   UNL A   1      42.682  30.863  28.903  1.00  0.00     0.031 C 
ATOM     56  C   UNL A   1      48.534  31.478  27.423  1.00  0.00     0.029 A 
ATOM     57  C   UNL A   1      47.267  30.955  27.624  1.00  0.00     0.049 A 
ATOM     58  H   UNL A   1      46.560  28.999  27.265  1.00  0.00     0.167 HD
ATOM     59  C   UNL A   1      44.884  31.026  28.293  1.00  0.00     0.074 A 
ATOM     60  C   UNL A   1      43.712  31.694  28.819  1.00  0.00     0.031 C 
ATOM     61  C   UNL A   1      46.095  31.616  28.141  1.00  0.00     0.037 A 
BRANCH  48  62
ATOM     62  C   UNL A   1      50.454  27.822  25.972  1.00  0.00     0.064 A 
ATOM     63  C   UNL A   1      50.899  27.955  24.647  1.00  0.00     0.173 A 
ATOM     64  C   UNL A   1      51.413  27.557  26.962  1.00  0.00     0.173 A 
ATOM     65  F   UNL A   1      50.021  28.202  23.663  1.00  0.00    -0.203 F 
ATOM     66  C   UNL A   1      52.244  27.802  24.324  1.00  0.00     0.198 A 
ATOM     67  C   UNL A   1      52.761  27.433  26.639  1.00  0.00     0.198 A 
ATOM     68  F   UNL A   1      51.044  27.431  28.245  1.00  0.00    -0.203 F 
ATOM     69  F   UNL A   1      52.638  27.890  23.047  1.00  0.00    -0.200 F 
ATOM     70  C   UNL A   1      53.175  27.549  25.320  1.00  0.00     0.200 A 
ATOM     71  F   UNL A   1      53.663  27.204  27.604  1.00  0.00    -0.200 F 
ATOM     72  F   UNL A   1      54.472  27.410  25.008  1.00  0.00    -0.200 F 
ENDBRANCH  48  62
BRANCH  49  73
ATOM     73  C   UNL A   1      40.880  28.584  28.597  1.00  0.00     0.064 A 
ATOM     74  C   UNL A   1      40.470  28.263  29.900  1.00  0.00     0.173 A 
ATOM     75  C   UNL A   1      39.898  29.009  27.691  1.00  0.00     0.173 A 
ATOM     76  F   UNL A   1      41.370  27.828  30.795  1.00  0.00    -0.203 F 
ATOM     77  C   UNL A   1      39.131  28.343  30.274  1.00  0.00     0.198 A 
ATOM     78  C   UNL A   1      38.562  29.116  28.076  1.00  0.00     0.198 A 
ATOM     79  F   UNL A   1      40.237  29.329  26.434  1.00  0.00    -0.203 F 
ATOM     80  F   UNL A   1      38.761  27.985  31.512  1.00  0.00    -0.200 F 
ATOM     81  C   UNL A   1      38.179  28.775  29.364  1.00  0.00     0.200 A 
ATOM     82  F   UNL A   1      37.648  29.545  27.195  1.00  0.00    -0.200 F 
ATOM     83  F   UNL A   1      36.891  28.856  29.724  1.00  0.00    -0.200 F 
ENDBRANCH  49  73
BRANCH  61  84
ATOM     84  C   UNL A   1      46.212  33.065  28.515  1.00  0.00     0.064 A 
ATOM     85  C   UNL A   1      46.599  33.466  29.803  1.00  0.00     0.173 A 
ATOM     86  C   UNL A   1      45.973  34.067  27.562  1.00  0.00     0.173 A 
ATOM     87  F   UNL A   1      46.824  32.548  30.755  1.00  0.00    -0.203 F 
ATOM     88  C   UNL A   1      46.717  34.815  30.129  1.00  0.00     0.198 A 
ATOM     89  C   UNL A   1      46.122  35.414  27.883  1.00  0.00     0.198 A 
ATOM     90  F   UNL A   1      45.608  33.740  26.313  1.00  0.00    -0.203 F 
ATOM     91  F   UNL A   1      47.042  35.174  31.378  1.00  0.00    -0.200 F 
ATOM     92  C   UNL A   1      46.486  35.787  29.168  1.00  0.00     0.200 A 
ATOM     93  F   UNL A   1      45.911  36.352  26.949  1.00  0.00    -0.200 F 
ATOM     94  F   UNL A   1      46.608  37.084  29.481  1.00  0.00    -0.200 F 
ENDBRANCH  61  84
ENDBRANCH  35  36
ENDBRANCH  27  30
ENDBRANCH  25  26
ENDBRANCH  24  25
ENDBRANCH   1  24
TORSDOF 14
ENDMDL
