MODEL 1
REMARK VINA RESULT:     -13.4      0.000      0.000
REMARK SMILES C#Cc1cccc(NS(=O)(=O)c2ccc(F)c(C(=O)NCCCCNC(=O)c3ccc(-c4c5nc(c(-c6c(F)c(F)c(F)c(F)c6F)c6ccc([nH]6)c(-c6c(F)c(F)c(F)c(F)c6F)c6nc(c(-c7c(F)c(F)c(F)c(F)c7F)c7ccc4[nH]7)C=C6)C=C5)cc3)c2)c1
REMARK SMILES IDX 21 1 20 2 18 3 19 4 17 6 12 7 13 8 91 9 14 10 15 11 16 12
REMARK SMILES IDX 9 13 10 14 11 15 8 16 7 18 3 19 4 20 92 21 5 22 6 23 2 24
REMARK SMILES IDX 1 25 22 26 23 27 24 28 25 29 26 30 27 32 28 33 29 34 90 35
REMARK SMILES IDX 30 36 89 37 31 38 32 39 33 40 83 41 34 42 88 43 82 44 84 45
REMARK SMILES IDX 35 46 87 47 81 48 80 49 36 51 68 52 48 53 67 54 49 55 52 56
REMARK SMILES IDX 66 57 85 58 50 59 51 60 65 62 86 63 53 64 37 65 38 66 46 67
REMARK SMILES IDX 39 68 40 69 44 70 47 71 41 72 42 73 45 74 43 75 69 76 70 77
REMARK SMILES IDX 78 78 71 79 72 80 76 81 79 82 73 83 74 84 77 85 75 86 54 87
REMARK SMILES IDX 55 88 63 89 56 90 57 91 61 92 64 93 58 94 59 95 62 96 60 97
REMARK H PARENT 20 5 8 17 25 31 84 50 52 61
REMARK Flexibility Score: inf
ROOT
ATOM      1  C   UNL A   1      36.108  21.193  25.596  1.00  0.00     0.116 C 
ENDROOT
BRANCH   1   2
ATOM      2  N   UNL A   1      35.257  20.157  25.054  1.00  0.00    -0.352 N 
ATOM      3  C   UNL A   1      33.943  20.138  24.667  1.00  0.00     0.254 C 
ATOM      4  O   UNL A   1      33.480  19.037  24.364  1.00  0.00    -0.269 OA
ATOM      5  H   UNL A   1      35.712  19.294  24.937  1.00  0.00     0.163 HD
BRANCH   3   6
ATOM      6  C   UNL A   1      33.101  21.349  24.466  1.00  0.00     0.076 A 
ATOM      7  C   UNL A   1      31.166  22.618  25.234  1.00  0.00     0.088 A 
ATOM      8  C   UNL A   1      31.067  23.248  23.999  1.00  0.00     0.025 A 
ATOM      9  C   UNL A   1      32.113  21.600  25.431  1.00  0.00     0.039 A 
ATOM     10  C   UNL A   1      32.135  23.118  23.116  1.00  0.00     0.041 A 
ATOM     11  C   UNL A   1      33.187  22.251  23.413  1.00  0.00     0.136 A 
ATOM     12  F   UNL A   1      34.321  22.437  22.726  1.00  0.00    -0.206 F 
BRANCH   7  13
ATOM     13  S   UNL A   1      30.403  23.302  26.695  1.00  0.00     0.261 S 
ATOM     14  O   UNL A   1      31.463  23.513  27.658  1.00  0.00    -0.201 OA
ATOM     15  O   UNL A   1      29.270  22.454  26.995  1.00  0.00    -0.201 OA
BRANCH  13  16
ATOM     16  N   UNL A   1      29.751  24.807  26.339  1.00  0.00    -0.280 N 
ATOM     17  H   UNL A   1      28.805  24.929  26.585  1.00  0.00     0.180 HD
BRANCH  16  18
ATOM     18  C   UNL A   1      30.380  25.932  25.728  1.00  0.00     0.050 A 
ATOM     19  C   UNL A   1      31.876  27.813  26.081  1.00  0.00     0.026 A 
ATOM     20  C   UNL A   1      31.305  28.471  24.994  1.00  0.00     0.017 A 
ATOM     21  C   UNL A   1      31.394  26.558  26.464  1.00  0.00     0.044 A 
ATOM     22  C   UNL A   1      30.393  27.796  24.188  1.00  0.00     0.003 A 
ATOM     23  C   UNL A   1      30.002  26.491  24.508  1.00  0.00     0.027 A 
BRANCH  19  24
ATOM     24  C   UNL A   1      32.988  28.411  26.747  1.00  0.00    -0.070 C 
ATOM     25  C   UNL A   1      33.974  28.793  27.323  1.00  0.00     0.010 C 
ENDBRANCH  19  24
ENDBRANCH  16  18
ENDBRANCH  13  16
ENDBRANCH   7  13
ENDBRANCH   3   6
ENDBRANCH   1   2
BRANCH   1  26
ATOM     26  C   UNL A   1      37.411  21.254  24.792  1.00  0.00     0.023 C 
BRANCH  26  27
ATOM     27  C   UNL A   1      38.268  20.001  24.972  1.00  0.00     0.023 C 
BRANCH  27  28
ATOM     28  C   UNL A   1      39.454  20.194  25.907  1.00  0.00     0.116 C 
BRANCH  28  29
ATOM     29  N   UNL A   1      40.366  19.059  25.916  1.00  0.00    -0.352 N 
ATOM     30  C   UNL A   1      41.730  19.077  26.076  1.00  0.00     0.251 C 
ATOM     31  H   UNL A   1      39.956  18.173  25.793  1.00  0.00     0.163 HD
ATOM     32  O   UNL A   1      42.399  18.063  25.927  1.00  0.00    -0.269 OA
BRANCH  30  33
ATOM     33  C   UNL A   1      42.378  20.364  26.393  1.00  0.00     0.039 A 
ATOM     34  C   UNL A   1      42.963  21.096  25.362  1.00  0.00     0.014 A 
ATOM     35  C   UNL A   1      42.317  20.878  27.692  1.00  0.00     0.014 A 
ATOM     36  C   UNL A   1      43.436  22.381  25.623  1.00  0.00     0.010 A 
ATOM     37  C   UNL A   1      42.699  22.192  27.926  1.00  0.00     0.010 A 
ATOM     38  C   UNL A   1      43.268  22.956  26.896  1.00  0.00    -0.014 A 
BRANCH  38  39
ATOM     39  C   UNL A   1      43.683  24.354  27.166  1.00  0.00     0.031 A 
ATOM     40  C   UNL A   1      42.665  25.366  27.613  1.00  0.00     0.074 A 
ATOM     41  C   UNL A   1      44.964  24.722  26.968  1.00  0.00     0.049 A 
ATOM     42  N   UNL A   1      42.823  26.644  27.854  1.00  0.00    -0.248 NA
ATOM     43  C   UNL A   1      41.282  24.892  27.792  1.00  0.00     0.031 C 
ATOM     44  C   UNL A   1      46.032  23.839  26.497  1.00  0.00     0.029 A 
ATOM     45  N   UNL A   1      45.588  25.933  27.137  1.00  0.00    -0.354 N 
ATOM     46  C   UNL A   1      41.567  27.118  28.209  1.00  0.00     0.074 A 
ATOM     47  C   UNL A   1      40.643  26.013  28.090  1.00  0.00     0.031 C 
ATOM     48  C   UNL A   1      47.185  24.526  26.451  1.00  0.00     0.029 A 
ATOM     49  C   UNL A   1      46.930  25.911  26.836  1.00  0.00     0.049 A 
ATOM     50  H   UNL A   1      45.119  26.743  27.444  1.00  0.00     0.167 HD
ATOM     51  C   UNL A   1      41.225  28.358  28.627  1.00  0.00     0.037 A 
ATOM     52  C   UNL A   1      47.848  26.896  26.859  1.00  0.00     0.037 A 
ATOM     53  C   UNL A   1      42.155  29.446  28.767  1.00  0.00     0.049 A 
ATOM     54  C   UNL A   1      47.430  28.276  27.293  1.00  0.00     0.074 A 
ATOM     55  C   UNL A   1      41.910  30.726  29.231  1.00  0.00     0.029 A 
ATOM     56  N   UNL A   1      43.502  29.386  28.443  1.00  0.00    -0.354 N 
ATOM     57  N   UNL A   1      46.251  28.696  27.686  1.00  0.00    -0.248 NA
ATOM     58  C   UNL A   1      48.466  29.319  27.291  1.00  0.00     0.031 C 
ATOM     59  C   UNL A   1      43.091  31.461  29.121  1.00  0.00     0.029 A 
ATOM     60  C   UNL A   1      44.093  30.619  28.667  1.00  0.00     0.049 A 
ATOM     61  H   UNL A   1      43.968  28.587  28.106  1.00  0.00     0.167 HD
ATOM     62  C   UNL A   1      46.411  30.038  28.008  1.00  0.00     0.074 A 
ATOM     63  C   UNL A   1      47.804  30.359  27.778  1.00  0.00     0.031 C 
ATOM     64  C   UNL A   1      45.485  30.923  28.451  1.00  0.00     0.037 A 
BRANCH  51  65
ATOM     65  C   UNL A   1      39.792  28.615  28.989  1.00  0.00     0.064 A 
ATOM     66  C   UNL A   1      38.922  29.209  28.062  1.00  0.00     0.173 A 
ATOM     67  C   UNL A   1      39.309  28.380  30.285  1.00  0.00     0.173 A 
ATOM     68  F   UNL A   1      39.334  29.458  26.810  1.00  0.00    -0.203 F 
ATOM     69  C   UNL A   1      37.634  29.588  28.430  1.00  0.00     0.198 A 
ATOM     70  C   UNL A   1      38.009  28.729  30.639  1.00  0.00     0.198 A 
ATOM     71  F   UNL A   1      40.096  27.801  31.204  1.00  0.00    -0.203 F 
ATOM     72  F   UNL A   1      36.839  30.203  27.542  1.00  0.00    -0.200 F 
ATOM     73  C   UNL A   1      37.178  29.347  29.717  1.00  0.00     0.200 A 
ATOM     74  F   UNL A   1      37.562  28.473  31.877  1.00  0.00    -0.200 F 
ATOM     75  F   UNL A   1      35.939  29.715  30.070  1.00  0.00    -0.200 F 
ENDBRANCH  51  65
BRANCH  52  76
ATOM     76  C   UNL A   1      49.257  26.607  26.476  1.00  0.00     0.064 A 
ATOM     77  C   UNL A   1      50.190  26.143  27.416  1.00  0.00     0.173 A 
ATOM     78  C   UNL A   1      49.703  26.798  25.160  1.00  0.00     0.173 A 
ATOM     79  F   UNL A   1      49.819  25.946  28.690  1.00  0.00    -0.203 F 
ATOM     80  C   UNL A   1      51.515  25.901  27.059  1.00  0.00     0.198 A 
ATOM     81  C   UNL A   1      51.019  26.520  24.796  1.00  0.00     0.198 A 
ATOM     82  F   UNL A   1      48.846  27.221  24.218  1.00  0.00    -0.203 F 
ATOM     83  F   UNL A   1      52.393  25.495  27.987  1.00  0.00    -0.200 F 
ATOM     84  C   UNL A   1      51.926  26.081  25.748  1.00  0.00     0.200 A 
ATOM     85  F   UNL A   1      51.405  26.667  23.521  1.00  0.00    -0.200 F 
ATOM     86  F   UNL A   1      53.195  25.825  25.400  1.00  0.00    -0.200 F 
ENDBRANCH  52  76
BRANCH  64  87
ATOM     87  C   UNL A   1      45.935  32.323  28.757  1.00  0.00     0.064 A 
ATOM     88  C   UNL A   1      45.928  33.303  27.751  1.00  0.00     0.173 A 
ATOM     89  C   UNL A   1      46.466  32.670  30.007  1.00  0.00     0.173 A 
ATOM     90  F   UNL A   1      45.441  33.020  26.533  1.00  0.00    -0.203 F 
ATOM     91  C   UNL A   1      46.460  34.569  27.979  1.00  0.00     0.198 A 
ATOM     92  C   UNL A   1      46.963  33.949  30.242  1.00  0.00     0.198 A 
ATOM     93  F   UNL A   1      46.488  31.774  31.005  1.00  0.00    -0.203 F 
ATOM     94  F   UNL A   1      46.490  35.469  26.987  1.00  0.00    -0.200 F 
ATOM     95  C   UNL A   1      46.972  34.892  29.225  1.00  0.00     0.200 A 
ATOM     96  F   UNL A   1      47.435  34.269  31.455  1.00  0.00    -0.200 F 
ATOM     97  F   UNL A   1      47.478  36.114  29.445  1.00  0.00    -0.200 F 
ENDBRANCH  64  87
ENDBRANCH  38  39
ENDBRANCH  30  33
ENDBRANCH  28  29
ENDBRANCH  27  28
ENDBRANCH  26  27
ENDBRANCH   1  26
TORSDOF 15
ENDMDL
MODEL 2
REMARK VINA RESULT:     -13.3      5.729     11.129
REMARK SMILES C#Cc1cccc(NS(=O)(=O)c2ccc(F)c(C(=O)NCCCCNC(=O)c3ccc(-c4c5nc(c(-c6c(F)c(F)c(F)c(F)c6F)c6ccc([nH]6)c(-c6c(F)c(F)c(F)c(F)c6F)c6nc(c(-c7c(F)c(F)c(F)c(F)c7F)c7ccc4[nH]7)C=C6)C=C5)cc3)c2)c1
REMARK SMILES IDX 21 1 20 2 18 3 19 4 17 6 12 7 13 8 91 9 14 10 15 11 16 12
REMARK SMILES IDX 9 13 10 14 11 15 8 16 7 18 3 19 4 20 92 21 5 22 6 23 2 24
REMARK SMILES IDX 1 25 22 26 23 27 24 28 25 29 26 30 27 32 28 33 29 34 90 35
REMARK SMILES IDX 30 36 89 37 31 38 32 39 33 40 83 41 34 42 88 43 82 44 84 45
REMARK SMILES IDX 35 46 87 47 81 48 80 49 36 51 68 52 48 53 67 54 49 55 52 56
REMARK SMILES IDX 66 57 85 58 50 59 51 60 65 62 86 63 53 64 37 65 38 66 46 67
REMARK SMILES IDX 39 68 40 69 44 70 47 71 41 72 42 73 45 74 43 75 69 76 70 77
REMARK SMILES IDX 78 78 71 79 72 80 76 81 79 82 73 83 74 84 77 85 75 86 54 87
REMARK SMILES IDX 55 88 63 89 56 90 57 91 61 92 64 93 58 94 59 95 62 96 60 97
REMARK H PARENT 20 5 8 17 25 31 84 50 52 61
REMARK Flexibility Score: inf
ROOT
ATOM      1  C   UNL A   1      33.432  29.685  26.557  1.00  0.00     0.116 C 
ENDROOT
BRANCH   1   2
ATOM      2  N   UNL A   1      33.615  29.637  25.123  1.00  0.00    -0.352 N 
ATOM      3  C   UNL A   1      33.165  28.781  24.154  1.00  0.00     0.254 C 
ATOM      4  O   UNL A   1      33.619  28.951  23.022  1.00  0.00    -0.269 OA
ATOM      5  H   UNL A   1      34.172  30.368  24.773  1.00  0.00     0.163 HD
BRANCH   3   6
ATOM      6  C   UNL A   1      32.090  27.770  24.349  1.00  0.00     0.076 A 
ATOM      7  C   UNL A   1      31.569  25.437  24.831  1.00  0.00     0.088 A 
ATOM      8  C   UNL A   1      30.312  25.581  24.257  1.00  0.00     0.025 A 
ATOM      9  C   UNL A   1      32.490  26.497  24.784  1.00  0.00     0.039 A 
ATOM     10  C   UNL A   1      29.867  26.870  23.981  1.00  0.00     0.041 A 
ATOM     11  C   UNL A   1      30.730  27.956  24.134  1.00  0.00     0.136 A 
ATOM     12  F   UNL A   1      30.157  29.164  24.204  1.00  0.00    -0.206 F 
BRANCH   7  13
ATOM     13  S   UNL A   1      31.934  24.103  25.959  1.00  0.00     0.261 S 
ATOM     14  O   UNL A   1      31.501  22.882  25.314  1.00  0.00    -0.201 OA
ATOM     15  O   UNL A   1      31.405  24.504  27.245  1.00  0.00    -0.201 OA
BRANCH  13  16
ATOM     16  N   UNL A   1      33.593  23.987  26.178  1.00  0.00    -0.280 N 
ATOM     17  H   UNL A   1      33.942  24.383  27.009  1.00  0.00     0.180 HD
BRANCH  16  18
ATOM     18  C   UNL A   1      34.569  23.394  25.321  1.00  0.00     0.050 A 
ATOM     19  C   UNL A   1      36.905  22.766  25.100  1.00  0.00     0.026 A 
ATOM     20  C   UNL A   1      36.783  22.803  23.713  1.00  0.00     0.017 A 
ATOM     21  C   UNL A   1      35.807  23.089  25.902  1.00  0.00     0.044 A 
ATOM     22  C   UNL A   1      35.527  22.977  23.141  1.00  0.00     0.003 A 
ATOM     23  C   UNL A   1      34.405  23.180  23.954  1.00  0.00     0.027 A 
BRANCH  19  24
ATOM     24  C   UNL A   1      38.139  22.337  25.675  1.00  0.00    -0.070 C 
ATOM     25  C   UNL A   1      39.145  21.852  26.126  1.00  0.00     0.010 C 
ENDBRANCH  19  24
ENDBRANCH  16  18
ENDBRANCH  13  16
ENDBRANCH   7  13
ENDBRANCH   3   6
ENDBRANCH   1   2
BRANCH   1  26
ATOM     26  C   UNL A   1      32.021  30.189  26.875  1.00  0.00     0.023 C 
BRANCH  26  27
ATOM     27  C   UNL A   1      31.883  31.700  26.681  1.00  0.00     0.023 C 
BRANCH  27  28
ATOM     28  C   UNL A   1      32.943  32.515  27.409  1.00  0.00     0.116 C 
BRANCH  28  29
ATOM     29  N   UNL A   1      32.553  33.901  27.625  1.00  0.00    -0.352 N 
ATOM     30  C   UNL A   1      33.040  34.775  28.565  1.00  0.00     0.251 C 
ATOM     31  H   UNL A   1      31.856  34.252  27.025  1.00  0.00     0.163 HD
ATOM     32  O   UNL A   1      32.529  35.875  28.731  1.00  0.00    -0.269 OA
BRANCH  30  33
ATOM     33  C   UNL A   1      34.174  34.340  29.402  1.00  0.00     0.039 A 
ATOM     34  C   UNL A   1      33.912  33.679  30.600  1.00  0.00     0.014 A 
ATOM     35  C   UNL A   1      35.485  34.506  28.946  1.00  0.00     0.014 A 
ATOM     36  C   UNL A   1      34.971  33.125  31.317  1.00  0.00     0.010 A 
ATOM     37  C   UNL A   1      36.525  33.870  29.611  1.00  0.00     0.010 A 
ATOM     38  C   UNL A   1      36.281  33.178  30.807  1.00  0.00    -0.014 A 
BRANCH  38  39
ATOM     39  C   UNL A   1      37.406  32.516  31.512  1.00  0.00     0.031 A 
ATOM     40  C   UNL A   1      38.106  31.348  30.876  1.00  0.00     0.074 A 
ATOM     41  C   UNL A   1      37.766  32.938  32.740  1.00  0.00     0.049 A 
ATOM     42  N   UNL A   1      39.077  30.609  31.352  1.00  0.00    -0.248 NA
ATOM     43  C   UNL A   1      37.644  30.936  29.539  1.00  0.00     0.031 C 
ATOM     44  C   UNL A   1      37.134  34.033  33.476  1.00  0.00     0.029 A 
ATOM     45  N   UNL A   1      38.752  32.497  33.588  1.00  0.00    -0.354 N 
ATOM     46  C   UNL A   1      39.336  29.654  30.379  1.00  0.00     0.074 A 
ATOM     47  C   UNL A   1      38.382  29.859  29.313  1.00  0.00     0.031 C 
ATOM     48  C   UNL A   1      37.769  34.205  34.645  1.00  0.00     0.029 A 
ATOM     49  C   UNL A   1      38.819  33.197  34.769  1.00  0.00     0.049 A 
ATOM     50  H   UNL A   1      39.354  31.748  33.371  1.00  0.00     0.167 HD
ATOM     51  C   UNL A   1      40.306  28.712  30.364  1.00  0.00     0.037 A 
ATOM     52  C   UNL A   1      39.628  33.040  35.835  1.00  0.00     0.037 A 
ATOM     53  C   UNL A   1      41.269  28.530  31.417  1.00  0.00     0.049 A 
ATOM     54  C   UNL A   1      40.674  31.957  35.806  1.00  0.00     0.074 A 
ATOM     55  C   UNL A   1      42.320  27.633  31.469  1.00  0.00     0.029 A 
ATOM     56  N   UNL A   1      41.297  29.252  32.600  1.00  0.00    -0.354 N 
ATOM     57  N   UNL A   1      40.950  31.101  34.852  1.00  0.00    -0.248 NA
ATOM     58  C   UNL A   1      41.526  31.819  36.997  1.00  0.00     0.031 C 
ATOM     59  C   UNL A   1      42.942  27.763  32.712  1.00  0.00     0.029 A 
ATOM     60  C   UNL A   1      42.330  28.797  33.403  1.00  0.00     0.049 A 
ATOM     61  H   UNL A   1      40.678  29.981  32.834  1.00  0.00     0.167 HD
ATOM     62  C   UNL A   1      42.022  30.347  35.312  1.00  0.00     0.074 A 
ATOM     63  C   UNL A   1      42.357  30.856  36.625  1.00  0.00     0.031 C 
ATOM     64  C   UNL A   1      42.666  29.323  34.701  1.00  0.00     0.037 A 
BRANCH  51  65
ATOM     65  C   UNL A   1      40.403  27.810  29.169  1.00  0.00     0.064 A 
ATOM     66  C   UNL A   1      41.174  28.186  28.057  1.00  0.00     0.173 A 
ATOM     67  C   UNL A   1      39.646  26.633  29.075  1.00  0.00     0.173 A 
ATOM     68  F   UNL A   1      41.914  29.305  28.094  1.00  0.00    -0.203 F 
ATOM     69  C   UNL A   1      41.156  27.434  26.887  1.00  0.00     0.198 A 
ATOM     70  C   UNL A   1      39.658  25.865  27.914  1.00  0.00     0.198 A 
ATOM     71  F   UNL A   1      38.904  26.222  30.114  1.00  0.00    -0.203 F 
ATOM     72  F   UNL A   1      41.858  27.842  25.819  1.00  0.00    -0.200 F 
ATOM     73  C   UNL A   1      40.400  26.274  26.815  1.00  0.00     0.200 A 
ATOM     74  F   UNL A   1      38.945  24.731  27.855  1.00  0.00    -0.200 F 
ATOM     75  F   UNL A   1      40.382  25.552  25.687  1.00  0.00    -0.200 F 
ENDBRANCH  51  65
BRANCH  52  76
ATOM     76  C   UNL A   1      39.491  33.943  37.010  1.00  0.00     0.064 A 
ATOM     77  C   UNL A   1      40.119  35.197  37.047  1.00  0.00     0.173 A 
ATOM     78  C   UNL A   1      38.735  33.564  38.129  1.00  0.00     0.173 A 
ATOM     79  F   UNL A   1      40.857  35.609  36.005  1.00  0.00    -0.203 F 
ATOM     80  C   UNL A   1      40.011  36.027  38.160  1.00  0.00     0.198 A 
ATOM     81  C   UNL A   1      38.597  34.411  39.228  1.00  0.00     0.198 A 
ATOM     82  F   UNL A   1      38.098  32.383  38.138  1.00  0.00    -0.203 F 
ATOM     83  F   UNL A   1      40.654  37.203  38.182  1.00  0.00    -0.200 F 
ATOM     84  C   UNL A   1      39.244  35.637  39.247  1.00  0.00     0.200 A 
ATOM     85  F   UNL A   1      37.830  34.042  40.263  1.00  0.00    -0.200 F 
ATOM     86  F   UNL A   1      39.121  36.445  40.309  1.00  0.00    -0.200 F 
ENDBRANCH  52  76
BRANCH  64  87
ATOM     87  C   UNL A   1      43.828  28.694  35.416  1.00  0.00     0.064 A 
ATOM     88  C   UNL A   1      43.613  27.656  36.337  1.00  0.00     0.173 A 
ATOM     89  C   UNL A   1      45.135  29.179  35.269  1.00  0.00     0.173 A 
ATOM     90  F   UNL A   1      42.380  27.161  36.524  1.00  0.00    -0.203 F 
ATOM     91  C   UNL A   1      44.658  27.147  37.102  1.00  0.00     0.198 A 
ATOM     92  C   UNL A   1      46.185  28.642  36.010  1.00  0.00     0.198 A 
ATOM     93  F   UNL A   1      45.396  30.163  34.396  1.00  0.00    -0.203 F 
ATOM     94  F   UNL A   1      44.417  26.193  38.013  1.00  0.00    -0.200 F 
ATOM     95  C   UNL A   1      45.943  27.637  36.934  1.00  0.00     0.200 A 
ATOM     96  F   UNL A   1      47.431  29.098  35.828  1.00  0.00    -0.200 F 
ATOM     97  F   UNL A   1      46.950  27.141  37.667  1.00  0.00    -0.200 F 
ENDBRANCH  64  87
ENDBRANCH  38  39
ENDBRANCH  30  33
ENDBRANCH  28  29
ENDBRANCH  27  28
ENDBRANCH  26  27
ENDBRANCH   1  26
TORSDOF 15
ENDMDL
MODEL 3
REMARK VINA RESULT:     -13.2      5.647     10.102
REMARK SMILES C#Cc1cccc(NS(=O)(=O)c2ccc(F)c(C(=O)NCCCCNC(=O)c3ccc(-c4c5nc(c(-c6c(F)c(F)c(F)c(F)c6F)c6ccc([nH]6)c(-c6c(F)c(F)c(F)c(F)c6F)c6nc(c(-c7c(F)c(F)c(F)c(F)c7F)c7ccc4[nH]7)C=C6)C=C5)cc3)c2)c1
REMARK SMILES IDX 21 1 20 2 18 3 19 4 17 6 12 7 13 8 91 9 14 10 15 11 16 12
REMARK SMILES IDX 9 13 10 14 11 15 8 16 7 18 3 19 4 20 92 21 5 22 6 23 2 24
REMARK SMILES IDX 1 25 22 26 23 27 24 28 25 29 26 30 27 32 28 33 29 34 90 35
REMARK SMILES IDX 30 36 89 37 31 38 32 39 33 40 83 41 34 42 88 43 82 44 84 45
REMARK SMILES IDX 35 46 87 47 81 48 80 49 36 51 68 52 48 53 67 54 49 55 52 56
REMARK SMILES IDX 66 57 85 58 50 59 51 60 65 62 86 63 53 64 37 65 38 66 46 67
REMARK SMILES IDX 39 68 40 69 44 70 47 71 41 72 42 73 45 74 43 75 69 76 70 77
REMARK SMILES IDX 78 78 71 79 72 80 76 81 79 82 73 83 74 84 77 85 75 86 54 87
REMARK SMILES IDX 55 88 63 89 56 90 57 91 61 92 64 93 58 94 59 95 62 96 60 97
REMARK H PARENT 20 5 8 17 25 31 84 50 52 61
REMARK Flexibility Score: inf
ROOT
ATOM      1  C   UNL A   1      32.208  29.984  25.474  1.00  0.00     0.116 C 
ENDROOT
BRANCH   1   2
ATOM      2  N   UNL A   1      31.005  30.085  24.678  1.00  0.00    -0.352 N 
ATOM      3  C   UNL A   1      30.363  29.211  23.842  1.00  0.00     0.254 C 
ATOM      4  O   UNL A   1      29.412  29.665  23.203  1.00  0.00    -0.269 OA
ATOM      5  H   UNL A   1      30.556  30.957  24.753  1.00  0.00     0.163 HD
BRANCH   3   6
ATOM      6  C   UNL A   1      30.650  27.752  23.759  1.00  0.00     0.076 A 
ATOM      7  C   UNL A   1      31.355  25.907  22.331  1.00  0.00     0.088 A 
ATOM      8  C   UNL A   1      30.762  24.991  23.191  1.00  0.00     0.025 A 
ATOM      9  C   UNL A   1      31.210  27.285  22.560  1.00  0.00     0.039 A 
ATOM     10  C   UNL A   1      30.359  25.444  24.444  1.00  0.00     0.041 A 
ATOM     11  C   UNL A   1      30.410  26.805  24.746  1.00  0.00     0.136 A 
ATOM     12  F   UNL A   1      30.357  27.127  26.045  1.00  0.00    -0.206 F 
BRANCH   7  13
ATOM     13  S   UNL A   1      32.611  25.413  21.162  1.00  0.00     0.261 S 
ATOM     14  O   UNL A   1      33.826  26.101  21.541  1.00  0.00    -0.201 OA
ATOM     15  O   UNL A   1      32.028  25.580  19.848  1.00  0.00    -0.201 OA
BRANCH  13  16
ATOM     16  N   UNL A   1      32.905  23.768  21.313  1.00  0.00    -0.280 N 
ATOM     17  H   UNL A   1      32.638  23.215  20.542  1.00  0.00     0.180 HD
BRANCH  16  18
ATOM     18  C   UNL A   1      33.489  23.060  22.406  1.00  0.00     0.050 A 
ATOM     19  C   UNL A   1      33.214  21.207  23.952  1.00  0.00     0.026 A 
ATOM     20  C   UNL A   1      34.080  21.827  24.849  1.00  0.00     0.017 A 
ATOM     21  C   UNL A   1      32.897  21.836  22.745  1.00  0.00     0.044 A 
ATOM     22  C   UNL A   1      34.765  22.973  24.458  1.00  0.00     0.003 A 
ATOM     23  C   UNL A   1      34.534  23.535  23.196  1.00  0.00     0.027 A 
BRANCH  19  24
ATOM     24  C   UNL A   1      32.714  19.905  24.259  1.00  0.00    -0.070 C 
ATOM     25  C   UNL A   1      32.417  18.764  24.503  1.00  0.00     0.010 C 
ENDBRANCH  19  24
ENDBRANCH  16  18
ENDBRANCH  13  16
ENDBRANCH   7  13
ENDBRANCH   3   6
ENDBRANCH   1   2
BRANCH   1  26
ATOM     26  C   UNL A   1      31.921  30.476  26.895  1.00  0.00     0.023 C 
BRANCH  26  27
ATOM     27  C   UNL A   1      31.639  31.978  26.949  1.00  0.00     0.023 C 
BRANCH  27  28
ATOM     28  C   UNL A   1      32.852  32.820  27.323  1.00  0.00     0.116 C 
BRANCH  28  29
ATOM     29  N   UNL A   1      32.511  34.193  27.667  1.00  0.00    -0.352 N 
ATOM     30  C   UNL A   1      33.064  34.976  28.650  1.00  0.00     0.251 C 
ATOM     31  H   UNL A   1      31.799  34.610  27.130  1.00  0.00     0.163 HD
ATOM     32  O   UNL A   1      32.593  36.071  28.928  1.00  0.00    -0.269 OA
BRANCH  30  33
ATOM     33  C   UNL A   1      34.221  34.445  29.395  1.00  0.00     0.039 A 
ATOM     34  C   UNL A   1      33.994  33.613  30.490  1.00  0.00     0.014 A 
ATOM     35  C   UNL A   1      35.520  34.700  28.946  1.00  0.00     0.014 A 
ATOM     36  C   UNL A   1      35.076  32.982  31.101  1.00  0.00     0.010 A 
ATOM     37  C   UNL A   1      36.584  33.995  29.494  1.00  0.00     0.010 A 
ATOM     38  C   UNL A   1      36.375  33.133  30.581  1.00  0.00    -0.014 A 
BRANCH  38  39
ATOM     39  C   UNL A   1      37.524  32.397  31.163  1.00  0.00     0.031 A 
ATOM     40  C   UNL A   1      38.041  32.770  32.524  1.00  0.00     0.074 A 
ATOM     41  C   UNL A   1      38.126  31.426  30.450  1.00  0.00     0.049 A 
ATOM     42  N   UNL A   1      39.061  32.278  33.182  1.00  0.00    -0.248 NA
ATOM     43  C   UNL A   1      37.340  33.852  33.235  1.00  0.00     0.031 C 
ATOM     44  C   UNL A   1      37.740  31.004  29.103  1.00  0.00     0.029 A 
ATOM     45  N   UNL A   1      39.192  30.615  30.756  1.00  0.00    -0.354 N 
ATOM     46  C   UNL A   1      39.120  32.988  34.373  1.00  0.00     0.074 A 
ATOM     47  C   UNL A   1      38.079  33.990  34.325  1.00  0.00     0.031 C 
ATOM     48  C   UNL A   1      38.529  29.990  28.714  1.00  0.00     0.029 A 
ATOM     49  C   UNL A   1      39.513  29.724  29.759  1.00  0.00     0.049 A 
ATOM     50  H   UNL A   1      39.681  30.668  31.609  1.00  0.00     0.167 HD
ATOM     51  C   UNL A   1      39.949  32.799  35.424  1.00  0.00     0.037 A 
ATOM     52  C   UNL A   1      40.494  28.804  29.691  1.00  0.00     0.037 A 
ATOM     53  C   UNL A   1      40.967  31.783  35.474  1.00  0.00     0.049 A 
ATOM     54  C   UNL A   1      41.427  28.641  30.862  1.00  0.00     0.074 A 
ATOM     55  C   UNL A   1      41.824  31.482  36.518  1.00  0.00     0.029 A 
ATOM     56  N   UNL A   1      41.267  30.908  34.442  1.00  0.00    -0.354 N 
ATOM     57  N   UNL A   1      41.432  29.278  32.009  1.00  0.00    -0.248 NA
ATOM     58  C   UNL A   1      42.488  27.631  30.736  1.00  0.00     0.031 C 
ATOM     59  C   UNL A   1      42.689  30.474  36.092  1.00  0.00     0.029 A 
ATOM     60  C   UNL A   1      42.320  30.088  34.814  1.00  0.00     0.049 A 
ATOM     61  H   UNL A   1      40.801  30.874  33.576  1.00  0.00     0.167 HD
ATOM     62  C   UNL A   1      42.470  28.726  32.749  1.00  0.00     0.074 A 
ATOM     63  C   UNL A   1      43.063  27.692  31.928  1.00  0.00     0.031 C 
ATOM     64  C   UNL A   1      42.892  29.050  33.995  1.00  0.00     0.037 A 
BRANCH  51  65
ATOM     65  C   UNL A   1      39.789  33.685  36.624  1.00  0.00     0.064 A 
ATOM     66  C   UNL A   1      38.930  33.314  37.671  1.00  0.00     0.173 A 
ATOM     67  C   UNL A   1      40.395  34.949  36.688  1.00  0.00     0.173 A 
ATOM     68  F   UNL A   1      38.324  32.118  37.657  1.00  0.00    -0.203 F 
ATOM     69  C   UNL A   1      38.659  34.190  38.718  1.00  0.00     0.198 A 
ATOM     70  C   UNL A   1      40.147  35.808  37.755  1.00  0.00     0.198 A 
ATOM     71  F   UNL A   1      41.235  35.345  35.721  1.00  0.00    -0.203 F 
ATOM     72  F   UNL A   1      37.793  33.835  39.678  1.00  0.00    -0.200 F 
ATOM     73  C   UNL A   1      39.267  35.435  38.760  1.00  0.00     0.200 A 
ATOM     74  F   UNL A   1      40.755  37.002  37.807  1.00  0.00    -0.200 F 
ATOM     75  F   UNL A   1      39.003  36.277  39.768  1.00  0.00    -0.200 F 
ENDBRANCH  51  65
BRANCH  52  76
ATOM     76  C   UNL A   1      40.633  27.954  28.477  1.00  0.00     0.064 A 
ATOM     77  C   UNL A   1      40.022  26.694  28.393  1.00  0.00     0.173 A 
ATOM     78  C   UNL A   1      41.388  28.383  27.376  1.00  0.00     0.173 A 
ATOM     79  F   UNL A   1      39.290  26.232  29.418  1.00  0.00    -0.203 F 
ATOM     80  C   UNL A   1      40.177  25.889  27.266  1.00  0.00     0.198 A 
ATOM     81  C   UNL A   1      41.512  27.594  26.234  1.00  0.00     0.198 A 
ATOM     82  F   UNL A   1      41.977  29.588  27.397  1.00  0.00    -0.203 F 
ATOM     83  F   UNL A   1      39.613  24.674  27.230  1.00  0.00    -0.200 F 
ATOM     84  C   UNL A   1      40.915  26.344  26.184  1.00  0.00     0.200 A 
ATOM     85  F   UNL A   1      42.201  28.049  25.179  1.00  0.00    -0.200 F 
ATOM     86  F   UNL A   1      41.045  25.580  25.090  1.00  0.00    -0.200 F 
ENDBRANCH  52  76
BRANCH  64  87
ATOM     87  C   UNL A   1      44.031  28.265  34.581  1.00  0.00     0.064 A 
ATOM     88  C   UNL A   1      43.778  27.093  35.312  1.00  0.00     0.173 A 
ATOM     89  C   UNL A   1      45.354  28.720  34.509  1.00  0.00     0.173 A 
ATOM     90  F   UNL A   1      42.527  26.620  35.422  1.00  0.00    -0.203 F 
ATOM     91  C   UNL A   1      44.804  26.421  35.970  1.00  0.00     0.198 A 
ATOM     92  C   UNL A   1      46.384  28.024  35.137  1.00  0.00     0.198 A 
ATOM     93  F   UNL A   1      45.651  29.829  33.815  1.00  0.00    -0.203 F 
ATOM     94  F   UNL A   1      44.529  25.335  36.705  1.00  0.00    -0.200 F 
ATOM     95  C   UNL A   1      46.107  26.885  35.878  1.00  0.00     0.200 A 
ATOM     96  F   UNL A   1      47.647  28.458  35.026  1.00  0.00    -0.200 F 
ATOM     97  F   UNL A   1      47.095  26.234  36.506  1.00  0.00    -0.200 F 
ENDBRANCH  64  87
ENDBRANCH  38  39
ENDBRANCH  30  33
ENDBRANCH  28  29
ENDBRANCH  27  28
ENDBRANCH  26  27
ENDBRANCH   1  26
TORSDOF 15
ENDMDL
