MODEL 1
REMARK VINA RESULT:     -12.3      0.000      0.000
REMARK SMILES O=C(NCCCCNC(=O)[C@@H]1CNc2ccccc2C1)c1ccc(-c2c3nc(c(-c4c(F)c(F)c(F)c(F)c4F)c4ccc([nH]4)c(-c4c(F)c(F)c(F)c(F)c4F)c4nc(c(-c5c(F)c(F)c(F)c(F)c5F)c5ccc2[nH]5)C=C4)C=C3)cc1
REMARK SMILES IDX 4 1 3 2 1 3 2 4 21 6 22 7 83 8 23 9 82 10 24 11 25 12 26 13
REMARK SMILES IDX 76 14 27 15 81 16 75 17 77 18 28 19 80 20 74 21 73 22 29 24
REMARK SMILES IDX 61 25 41 26 60 27 42 28 45 29 59 30 78 31 43 32 44 33 58 35
REMARK SMILES IDX 79 36 46 37 30 38 31 39 39 40 32 41 33 42 37 43 40 44 34 45
REMARK SMILES IDX 35 46 38 47 36 48 62 49 63 50 71 51 64 52 65 53 69 54 72 55
REMARK SMILES IDX 66 56 67 57 70 58 68 59 47 60 48 61 56 62 49 63 50 64 54 65
REMARK SMILES IDX 57 66 51 67 52 68 55 69 53 70 5 71 6 72 7 73 8 74 9 75 10 77
REMARK SMILES IDX 11 78 12 79 20 80 13 81 19 82 14 83 18 85 15 86 17 87 16 88
REMARK H PARENT 3 5 77 23 45 34 8 76 13 84
REMARK Flexibility Score: inf
ROOT
ATOM      1  C   UNL A   1      32.585  32.909  27.266  1.00  0.00     0.116 C 
ENDROOT
BRANCH   1   2
ATOM      2  N   UNL A   1      32.377  34.278  27.714  1.00  0.00    -0.352 N 
ATOM      3  O   UNL A   1      32.613  36.076  29.054  1.00  0.00    -0.269 OA
ATOM      4  C   UNL A   1      33.036  34.981  28.689  1.00  0.00     0.251 C 
ATOM      5  H   UNL A   1      31.660  34.768  27.249  1.00  0.00     0.163 HD
BRANCH   4   6
ATOM      6  C   UNL A   1      34.241  34.409  29.320  1.00  0.00     0.039 A 
ATOM      7  C   UNL A   1      35.512  34.656  28.791  1.00  0.00     0.014 A 
ATOM      8  C   UNL A   1      34.093  33.621  30.463  1.00  0.00     0.014 A 
ATOM      9  C   UNL A   1      36.622  34.015  29.329  1.00  0.00     0.010 A 
ATOM     10  C   UNL A   1      35.217  33.040  31.049  1.00  0.00     0.010 A 
ATOM     11  C   UNL A   1      36.487  33.211  30.471  1.00  0.00    -0.014 A 
BRANCH  11  12
ATOM     12  C   UNL A   1      37.678  32.587  31.095  1.00  0.00     0.031 A 
ATOM     13  C   UNL A   1      38.395  31.458  30.414  1.00  0.00     0.074 A 
ATOM     14  C   UNL A   1      38.080  33.012  32.307  1.00  0.00     0.049 A 
ATOM     15  N   UNL A   1      39.376  30.713  30.857  1.00  0.00    -0.248 NA
ATOM     16  C   UNL A   1      37.940  31.113  29.060  1.00  0.00     0.031 C 
ATOM     17  C   UNL A   1      37.462  34.101  33.062  1.00  0.00     0.029 A 
ATOM     18  N   UNL A   1      39.088  32.566  33.125  1.00  0.00    -0.354 N 
ATOM     19  C   UNL A   1      39.639  29.795  29.849  1.00  0.00     0.074 A 
ATOM     20  C   UNL A   1      38.696  30.060  28.783  1.00  0.00     0.031 C 
ATOM     21  C   UNL A   1      38.101  34.240  34.233  1.00  0.00     0.029 A 
ATOM     22  C   UNL A   1      39.127  33.207  34.337  1.00  0.00     0.049 A 
ATOM     23  H   UNL A   1      39.721  31.857  32.866  1.00  0.00     0.167 HD
ATOM     24  C   UNL A   1      40.584  28.823  29.821  1.00  0.00     0.037 A 
ATOM     25  C   UNL A   1      39.873  32.966  35.431  1.00  0.00     0.037 A 
ATOM     26  C   UNL A   1      41.514  28.571  30.892  1.00  0.00     0.049 A 
ATOM     27  C   UNL A   1      40.878  31.850  35.399  1.00  0.00     0.074 A 
ATOM     28  C   UNL A   1      42.536  27.640  30.946  1.00  0.00     0.029 A 
ATOM     29  N   UNL A   1      41.522  29.244  32.107  1.00  0.00    -0.354 N 
ATOM     30  N   UNL A   1      41.147  31.011  34.429  1.00  0.00    -0.248 NA
ATOM     31  C   UNL A   1      41.685  31.649  36.609  1.00  0.00     0.031 C 
ATOM     32  C   UNL A   1      43.117  27.702  32.217  1.00  0.00     0.029 A 
ATOM     33  C   UNL A   1      42.510  28.725  32.930  1.00  0.00     0.049 A 
ATOM     34  H   UNL A   1      40.917  29.981  32.348  1.00  0.00     0.167 HD
ATOM     35  C   UNL A   1      42.174  30.203  34.897  1.00  0.00     0.074 A 
ATOM     36  C   UNL A   1      42.478  30.652  36.240  1.00  0.00     0.031 C 
ATOM     37  C   UNL A   1      42.811  29.188  34.262  1.00  0.00     0.037 A 
BRANCH  24  38
ATOM     38  C   UNL A   1      40.624  27.931  28.610  1.00  0.00     0.064 A 
ATOM     39  C   UNL A   1      41.378  28.254  27.471  1.00  0.00     0.173 A 
ATOM     40  C   UNL A   1      39.902  26.727  28.594  1.00  0.00     0.173 A 
ATOM     41  F   UNL A   1      42.083  29.395  27.429  1.00  0.00    -0.203 F 
ATOM     42  C   UNL A   1      41.367  27.432  26.346  1.00  0.00     0.198 A 
ATOM     43  C   UNL A   1      39.923  25.890  27.482  1.00  0.00     0.198 A 
ATOM     44  F   UNL A   1      39.173  26.360  29.659  1.00  0.00    -0.203 F 
ATOM     45  F   UNL A   1      42.037  27.798  25.245  1.00  0.00    -0.200 F 
ATOM     46  C   UNL A   1      40.642  26.251  26.353  1.00  0.00     0.200 A 
ATOM     47  F   UNL A   1      39.235  24.740  27.498  1.00  0.00    -0.200 F 
ATOM     48  F   UNL A   1      40.629  25.463  25.268  1.00  0.00    -0.200 F 
ENDBRANCH  24  38
BRANCH  25  49
ATOM     49  C   UNL A   1      39.670  33.800  36.641  1.00  0.00     0.064 A 
ATOM     50  C   UNL A   1      40.263  35.063  36.755  1.00  0.00     0.173 A 
ATOM     51  C   UNL A   1      38.826  33.376  37.680  1.00  0.00     0.173 A 
ATOM     52  F   UNL A   1      41.087  35.505  35.795  1.00  0.00    -0.203 F 
ATOM     53  C   UNL A   1      40.023  35.870  37.865  1.00  0.00     0.198 A 
ATOM     54  C   UNL A   1      38.564  34.196  38.774  1.00  0.00     0.198 A 
ATOM     55  F   UNL A   1      38.226  32.178  37.611  1.00  0.00    -0.203 F 
ATOM     56  F   UNL A   1      40.622  37.065  37.963  1.00  0.00    -0.200 F 
ATOM     57  C   UNL A   1      39.165  35.441  38.868  1.00  0.00     0.200 A 
ATOM     58  F   UNL A   1      37.717  33.785  39.729  1.00  0.00    -0.200 F 
ATOM     59  F   UNL A   1      38.918  36.228  39.923  1.00  0.00    -0.200 F 
ENDBRANCH  25  49
BRANCH  37  60
ATOM     60  C   UNL A   1      43.945  28.518  34.983  1.00  0.00     0.064 A 
ATOM     61  C   UNL A   1      43.749  27.390  35.792  1.00  0.00     0.173 A 
ATOM     62  C   UNL A   1      45.261  28.968  34.791  1.00  0.00     0.173 A 
ATOM     63  F   UNL A   1      42.509  26.932  36.022  1.00  0.00    -0.203 F 
ATOM     64  C   UNL A   1      44.828  26.741  36.387  1.00  0.00     0.198 A 
ATOM     65  C   UNL A   1      46.340  28.299  35.361  1.00  0.00     0.198 A 
ATOM     66  F   UNL A   1      45.503  30.042  34.023  1.00  0.00    -0.203 F 
ATOM     67  F   UNL A   1      44.616  25.682  37.181  1.00  0.00    -0.200 F 
ATOM     68  C   UNL A   1      46.122  27.187  36.161  1.00  0.00     0.200 A 
ATOM     69  F   UNL A   1      47.589  28.723  35.128  1.00  0.00    -0.200 F 
ATOM     70  F   UNL A   1      47.160  26.547  36.715  1.00  0.00    -0.200 F 
ENDBRANCH  37  60
ENDBRANCH  11  12
ENDBRANCH   4   6
ENDBRANCH   1   2
BRANCH   1  71
ATOM     71  C   UNL A   1      31.336  32.305  26.635  1.00  0.00     0.023 C 
BRANCH  71  72
ATOM     72  C   UNL A   1      31.563  30.983  25.898  1.00  0.00     0.023 C 
BRANCH  72  73
ATOM     73  C   UNL A   1      32.813  30.222  26.335  1.00  0.00     0.116 C 
BRANCH  73  74
ATOM     74  N   UNL A   1      32.523  29.297  27.415  1.00  0.00    -0.356 N 
ATOM     75  C   UNL A   1      32.001  28.033  27.357  1.00  0.00     0.225 C 
ATOM     76  H   UNL A   1      32.729  29.626  28.320  1.00  0.00     0.163 HD
ATOM     77  O   UNL A   1      31.672  27.506  28.417  1.00  0.00    -0.275 OA
BRANCH  75  78
ATOM     78  C   UNL A   1      31.825  27.382  25.991  1.00  0.00     0.102 C 
ATOM     79  C   UNL A   1      30.581  26.506  25.922  1.00  0.00     0.126 C 
ATOM     80  C   UNL A   1      33.081  26.610  25.560  1.00  0.00     0.053 C 
ATOM     81  N   UNL A   1      30.755  25.212  26.547  1.00  0.00    -0.384 N 
ATOM     82  C   UNL A   1      33.127  25.185  26.044  1.00  0.00    -0.024 A 
ATOM     83  C   UNL A   1      31.970  24.559  26.526  1.00  0.00     0.037 A 
ATOM     84  H   UNL A   1      29.989  24.787  26.997  1.00  0.00     0.160 HD
ATOM     85  C   UNL A   1      34.338  24.474  25.984  1.00  0.00     0.006 A 
ATOM     86  C   UNL A   1      32.045  23.222  26.929  1.00  0.00     0.026 A 
ATOM     87  C   UNL A   1      34.398  23.146  26.399  1.00  0.00     0.000 A 
ATOM     88  C   UNL A   1      33.250  22.518  26.869  1.00  0.00     0.002 A 
ENDBRANCH  75  78
ENDBRANCH  73  74
ENDBRANCH  72  73
ENDBRANCH  71  72
ENDBRANCH   1  71
TORSDOF 11
ENDMDL
MODEL 2
REMARK VINA RESULT:     -12.3      0.201      2.029
REMARK SMILES O=C(NCCCCNC(=O)[C@@H]1CNc2ccccc2C1)c1ccc(-c2c3nc(c(-c4c(F)c(F)c(F)c(F)c4F)c4ccc([nH]4)c(-c4c(F)c(F)c(F)c(F)c4F)c4nc(c(-c5c(F)c(F)c(F)c(F)c5F)c5ccc2[nH]5)C=C4)C=C3)cc1
REMARK SMILES IDX 4 1 3 2 1 3 2 4 21 6 22 7 83 8 23 9 82 10 24 11 25 12 26 13
REMARK SMILES IDX 76 14 27 15 81 16 75 17 77 18 28 19 80 20 74 21 73 22 29 24
REMARK SMILES IDX 61 25 41 26 60 27 42 28 45 29 59 30 78 31 43 32 44 33 58 35
REMARK SMILES IDX 79 36 46 37 30 38 31 39 39 40 32 41 33 42 37 43 40 44 34 45
REMARK SMILES IDX 35 46 38 47 36 48 62 49 63 50 71 51 64 52 65 53 69 54 72 55
REMARK SMILES IDX 66 56 67 57 70 58 68 59 47 60 48 61 56 62 49 63 50 64 54 65
REMARK SMILES IDX 57 66 51 67 52 68 55 69 53 70 5 71 6 72 7 73 8 74 9 75 10 77
REMARK SMILES IDX 11 78 12 79 20 80 13 81 19 82 14 83 18 85 15 86 17 87 16 88
REMARK H PARENT 3 5 77 23 45 34 8 76 13 84
REMARK Flexibility Score: inf
ROOT
ATOM      1  C   UNL A   1      32.465  32.896  27.247  1.00  0.00     0.116 C 
ENDROOT
BRANCH   1   2
ATOM      2  N   UNL A   1      32.270  34.280  27.652  1.00  0.00    -0.352 N 
ATOM      3  O   UNL A   1      32.529  36.118  28.933  1.00  0.00    -0.269 OA
ATOM      4  C   UNL A   1      32.941  35.009  28.600  1.00  0.00     0.251 C 
ATOM      5  H   UNL A   1      31.554  34.761  27.177  1.00  0.00     0.163 HD
BRANCH   4   6
ATOM      6  C   UNL A   1      34.147  34.448  29.241  1.00  0.00     0.039 A 
ATOM      7  C   UNL A   1      35.415  34.669  28.697  1.00  0.00     0.014 A 
ATOM      8  C   UNL A   1      34.000  33.698  30.409  1.00  0.00     0.014 A 
ATOM      9  C   UNL A   1      36.524  34.037  29.248  1.00  0.00     0.010 A 
ATOM     10  C   UNL A   1      35.124  33.127  31.006  1.00  0.00     0.010 A 
ATOM     11  C   UNL A   1      36.391  33.270  30.416  1.00  0.00    -0.014 A 
BRANCH  11  12
ATOM     12  C   UNL A   1      37.581  32.657  31.052  1.00  0.00     0.031 A 
ATOM     13  C   UNL A   1      38.305  31.524  30.386  1.00  0.00     0.074 A 
ATOM     14  C   UNL A   1      37.977  33.097  32.260  1.00  0.00     0.049 A 
ATOM     15  N   UNL A   1      39.287  30.787  30.841  1.00  0.00    -0.248 NA
ATOM     16  C   UNL A   1      37.857  31.163  29.033  1.00  0.00     0.031 C 
ATOM     17  C   UNL A   1      37.351  34.193  33.000  1.00  0.00     0.029 A 
ATOM     18  N   UNL A   1      38.983  32.664  33.087  1.00  0.00    -0.354 N 
ATOM     19  C   UNL A   1      39.557  29.859  29.844  1.00  0.00     0.074 A 
ATOM     20  C   UNL A   1      38.618  30.109  28.771  1.00  0.00     0.031 C 
ATOM     21  C   UNL A   1      37.985  34.346  34.172  1.00  0.00     0.029 A 
ATOM     22  C   UNL A   1      39.014  33.319  34.293  1.00  0.00     0.049 A 
ATOM     23  H   UNL A   1      39.619  31.954  32.839  1.00  0.00     0.167 HD
ATOM     24  C   UNL A   1      40.506  28.890  29.830  1.00  0.00     0.037 A 
ATOM     25  C   UNL A   1      39.756  33.092  35.392  1.00  0.00     0.037 A 
ATOM     26  C   UNL A   1      41.432  28.654  30.908  1.00  0.00     0.049 A 
ATOM     27  C   UNL A   1      40.766  31.980  35.376  1.00  0.00     0.074 A 
ATOM     28  C   UNL A   1      42.458  27.727  30.976  1.00  0.00     0.029 A 
ATOM     29  N   UNL A   1      41.433  29.340  32.116  1.00  0.00    -0.354 N 
ATOM     30  N   UNL A   1      41.042  31.131  34.417  1.00  0.00    -0.248 NA
ATOM     31  C   UNL A   1      41.568  31.795  36.592  1.00  0.00     0.031 C 
ATOM     32  C   UNL A   1      43.033  27.805  32.249  1.00  0.00     0.029 A 
ATOM     33  C   UNL A   1      42.419  28.833  32.948  1.00  0.00     0.049 A 
ATOM     34  H   UNL A   1      40.824  30.078  32.346  1.00  0.00     0.167 HD
ATOM     35  C   UNL A   1      42.069  30.331  34.898  1.00  0.00     0.074 A 
ATOM     36  C   UNL A   1      42.366  30.796  36.237  1.00  0.00     0.031 C 
ATOM     37  C   UNL A   1      42.713  29.312  34.277  1.00  0.00     0.037 A 
BRANCH  24  38
ATOM     38  C   UNL A   1      40.555  27.986  28.630  1.00  0.00     0.064 A 
ATOM     39  C   UNL A   1      39.860  26.766  28.586  1.00  0.00     0.173 A 
ATOM     40  C   UNL A   1      41.303  28.350  27.499  1.00  0.00     0.173 A 
ATOM     41  F   UNL A   1      39.134  26.365  29.641  1.00  0.00    -0.203 F 
ATOM     42  C   UNL A   1      39.954  25.926  27.479  1.00  0.00     0.198 A 
ATOM     43  C   UNL A   1      41.364  27.524  26.380  1.00  0.00     0.198 A 
ATOM     44  F   UNL A   1      41.978  29.510  27.478  1.00  0.00    -0.203 F 
ATOM     45  F   UNL A   1      39.340  24.735  27.491  1.00  0.00    -0.200 F 
ATOM     46  C   UNL A   1      40.702  26.306  26.377  1.00  0.00     0.200 A 
ATOM     47  F   UNL A   1      42.074  27.903  25.308  1.00  0.00    -0.200 F 
ATOM     48  F   UNL A   1      40.795  25.494  25.314  1.00  0.00    -0.200 F 
ENDBRANCH  24  38
BRANCH  25  49
ATOM     49  C   UNL A   1      39.545  33.938  36.592  1.00  0.00     0.064 A 
ATOM     50  C   UNL A   1      38.734  33.505  37.647  1.00  0.00     0.173 A 
ATOM     51  C   UNL A   1      40.202  35.171  36.734  1.00  0.00     0.173 A 
ATOM     52  F   UNL A   1      38.075  32.341  37.552  1.00  0.00    -0.203 F 
ATOM     53  C   UNL A   1      38.584  34.274  38.800  1.00  0.00     0.198 A 
ATOM     54  C   UNL A   1      40.076  35.924  37.897  1.00  0.00     0.198 A 
ATOM     55  F   UNL A   1      40.999  35.624  35.754  1.00  0.00    -0.203 F 
ATOM     56  F   UNL A   1      37.783  33.849  39.786  1.00  0.00    -0.200 F 
ATOM     57  C   UNL A   1      39.263  35.477  38.928  1.00  0.00     0.200 A 
ATOM     58  F   UNL A   1      40.751  37.074  38.026  1.00  0.00    -0.200 F 
ATOM     59  F   UNL A   1      39.136  36.205  40.046  1.00  0.00    -0.200 F 
ENDBRANCH  25  49
BRANCH  37  60
ATOM     60  C   UNL A   1      43.846  28.654  35.010  1.00  0.00     0.064 A 
ATOM     61  C   UNL A   1      45.163  29.126  34.920  1.00  0.00     0.173 A 
ATOM     62  C   UNL A   1      43.589  27.585  35.883  1.00  0.00     0.173 A 
ATOM     63  F   UNL A   1      45.464  30.133  34.087  1.00  0.00    -0.203 F 
ATOM     64  C   UNL A   1      46.182  28.546  35.671  1.00  0.00     0.198 A 
ATOM     65  C   UNL A   1      44.604  27.029  36.655  1.00  0.00     0.198 A 
ATOM     66  F   UNL A   1      42.345  27.099  36.008  1.00  0.00    -0.203 F 
ATOM     67  F   UNL A   1      47.441  28.991  35.547  1.00  0.00    -0.200 F 
ATOM     68  C   UNL A   1      45.901  27.508  36.547  1.00  0.00     0.200 A 
ATOM     69  F   UNL A   1      44.325  26.037  37.512  1.00  0.00    -0.200 F 
ATOM     70  F   UNL A   1      46.879  26.968  37.286  1.00  0.00    -0.200 F 
ENDBRANCH  37  60
ENDBRANCH  11  12
ENDBRANCH   4   6
ENDBRANCH   1   2
BRANCH   1  71
ATOM     71  C   UNL A   1      31.265  32.333  26.495  1.00  0.00     0.023 C 
BRANCH  71  72
ATOM     72  C   UNL A   1      31.478  30.944  25.892  1.00  0.00     0.023 C 
BRANCH  72  73
ATOM     73  C   UNL A   1      32.760  30.247  26.344  1.00  0.00     0.116 C 
BRANCH  73  74
ATOM     74  N   UNL A   1      32.502  29.304  27.416  1.00  0.00    -0.356 N 
ATOM     75  C   UNL A   1      32.026  28.022  27.347  1.00  0.00     0.225 C 
ATOM     76  H   UNL A   1      32.697  29.632  28.323  1.00  0.00     0.163 HD
ATOM     77  O   UNL A   1      31.716  27.475  28.403  1.00  0.00    -0.275 OA
BRANCH  75  78
ATOM     78  C   UNL A   1      31.873  27.377  25.976  1.00  0.00     0.102 C 
ATOM     79  C   UNL A   1      30.599  26.548  25.864  1.00  0.00     0.126 C 
ATOM     80  C   UNL A   1      33.112  26.558  25.587  1.00  0.00     0.053 C 
ATOM     81  N   UNL A   1      30.703  25.249  26.493  1.00  0.00    -0.384 N 
ATOM     82  C   UNL A   1      33.088  25.132  26.073  1.00  0.00    -0.024 A 
ATOM     83  C   UNL A   1      31.892  24.551  26.514  1.00  0.00     0.037 A 
ATOM     84  H   UNL A   1      29.906  24.855  26.916  1.00  0.00     0.160 HD
ATOM     85  C   UNL A   1      34.272  24.376  26.054  1.00  0.00     0.006 A 
ATOM     86  C   UNL A   1      31.902  23.213  26.919  1.00  0.00     0.026 A 
ATOM     87  C   UNL A   1      34.267  23.047  26.470  1.00  0.00     0.000 A 
ATOM     88  C   UNL A   1      33.081  22.463  26.900  1.00  0.00     0.002 A 
ENDBRANCH  75  78
ENDBRANCH  73  74
ENDBRANCH  72  73
ENDBRANCH  71  72
ENDBRANCH   1  71
TORSDOF 11
ENDMDL
MODEL 3
REMARK VINA RESULT:     -12.2      5.048      9.868
REMARK SMILES O=C(NCCCCNC(=O)[C@@H]1CNc2ccccc2C1)c1ccc(-c2c3nc(c(-c4c(F)c(F)c(F)c(F)c4F)c4ccc([nH]4)c(-c4c(F)c(F)c(F)c(F)c4F)c4nc(c(-c5c(F)c(F)c(F)c(F)c5F)c5ccc2[nH]5)C=C4)C=C3)cc1
REMARK SMILES IDX 4 1 3 2 1 3 2 4 21 6 22 7 83 8 23 9 82 10 24 11 25 12 26 13
REMARK SMILES IDX 76 14 27 15 81 16 75 17 77 18 28 19 80 20 74 21 73 22 29 24
REMARK SMILES IDX 61 25 41 26 60 27 42 28 45 29 59 30 78 31 43 32 44 33 58 35
REMARK SMILES IDX 79 36 46 37 30 38 31 39 39 40 32 41 33 42 37 43 40 44 34 45
REMARK SMILES IDX 35 46 38 47 36 48 62 49 63 50 71 51 64 52 65 53 69 54 72 55
REMARK SMILES IDX 66 56 67 57 70 58 68 59 47 60 48 61 56 62 49 63 50 64 54 65
REMARK SMILES IDX 57 66 51 67 52 68 55 69 53 70 5 71 6 72 7 73 8 74 9 75 10 77
REMARK SMILES IDX 11 78 12 79 20 80 13 81 19 82 14 83 18 85 15 86 17 87 16 88
REMARK H PARENT 3 5 77 23 45 34 8 76 13 84
REMARK Flexibility Score: inf
ROOT
ATOM      1  C   UNL A   1      40.970  21.836  26.321  1.00  0.00     0.116 C 
ENDROOT
BRANCH   1   2
ATOM      2  N   UNL A   1      39.594  22.037  25.894  1.00  0.00    -0.352 N 
ATOM      3  O   UNL A   1      37.561  23.013  25.853  1.00  0.00    -0.269 OA
ATOM      4  C   UNL A   1      38.751  23.088  26.151  1.00  0.00     0.251 C 
ATOM      5  H   UNL A   1      39.214  21.315  25.342  1.00  0.00     0.163 HD
BRANCH   4   6
ATOM      6  C   UNL A   1      39.271  24.302  26.810  1.00  0.00     0.039 A 
ATOM      7  C   UNL A   1      39.054  24.525  28.173  1.00  0.00     0.014 A 
ATOM      8  C   UNL A   1      39.994  25.223  26.050  1.00  0.00     0.014 A 
ATOM      9  C   UNL A   1      39.451  25.727  28.750  1.00  0.00     0.010 A 
ATOM     10  C   UNL A   1      40.458  26.395  26.647  1.00  0.00     0.010 A 
ATOM     11  C   UNL A   1      40.169  26.667  27.994  1.00  0.00    -0.014 A 
BRANCH  11  12
ATOM     12  C   UNL A   1      40.661  27.917  28.623  1.00  0.00     0.031 A 
ATOM     13  C   UNL A   1      42.088  28.036  29.071  1.00  0.00     0.074 A 
ATOM     14  C   UNL A   1      39.798  28.928  28.833  1.00  0.00     0.049 A 
ATOM     15  N   UNL A   1      42.667  28.999  29.744  1.00  0.00    -0.248 NA
ATOM     16  C   UNL A   1      42.980  26.918  28.729  1.00  0.00     0.031 C 
ATOM     17  C   UNL A   1      38.390  28.924  28.438  1.00  0.00     0.029 A 
ATOM     18  N   UNL A   1      39.972  30.141  29.449  1.00  0.00    -0.354 N 
ATOM     19  C   UNL A   1      43.982  28.593  29.928  1.00  0.00     0.074 A 
ATOM     20  C   UNL A   1      44.108  27.285  29.320  1.00  0.00     0.031 C 
ATOM     21  C   UNL A   1      37.825  30.078  28.822  1.00  0.00     0.029 A 
ATOM     22  C   UNL A   1      38.813  30.871  29.547  1.00  0.00     0.049 A 
ATOM     23  H   UNL A   1      40.841  30.457  29.787  1.00  0.00     0.167 HD
ATOM     24  C   UNL A   1      44.989  29.257  30.548  1.00  0.00     0.037 A 
ATOM     25  C   UNL A   1      38.560  32.027  30.186  1.00  0.00     0.037 A 
ATOM     26  C   UNL A   1      44.846  30.558  31.150  1.00  0.00     0.049 A 
ATOM     27  C   UNL A   1      39.677  32.722  30.912  1.00  0.00     0.074 A 
ATOM     28  C   UNL A   1      45.813  31.335  31.765  1.00  0.00     0.029 A 
ATOM     29  N   UNL A   1      43.655  31.267  31.228  1.00  0.00    -0.354 N 
ATOM     30  N   UNL A   1      40.925  32.352  31.050  1.00  0.00    -0.248 NA
ATOM     31  C   UNL A   1      39.350  33.995  31.567  1.00  0.00     0.031 C 
ATOM     32  C   UNL A   1      45.192  32.480  32.275  1.00  0.00     0.029 A 
ATOM     33  C   UNL A   1      43.855  32.456  31.912  1.00  0.00     0.049 A 
ATOM     34  H   UNL A   1      42.795  30.969  30.853  1.00  0.00     0.167 HD
ATOM     35  C   UNL A   1      41.544  33.358  31.779  1.00  0.00     0.074 A 
ATOM     36  C   UNL A   1      40.530  34.354  32.057  1.00  0.00     0.031 C 
ATOM     37  C   UNL A   1      42.839  33.448  32.172  1.00  0.00     0.037 A 
BRANCH  24  38
ATOM     38  C   UNL A   1      46.320  28.563  30.645  1.00  0.00     0.064 A 
ATOM     39  C   UNL A   1      47.326  28.742  29.682  1.00  0.00     0.173 A 
ATOM     40  C   UNL A   1      46.597  27.710  31.726  1.00  0.00     0.173 A 
ATOM     41  F   UNL A   1      47.115  29.540  28.625  1.00  0.00    -0.203 F 
ATOM     42  C   UNL A   1      48.535  28.056  29.772  1.00  0.00     0.198 A 
ATOM     43  C   UNL A   1      47.820  27.056  31.832  1.00  0.00     0.198 A 
ATOM     44  F   UNL A   1      45.678  27.511  32.684  1.00  0.00    -0.203 F 
ATOM     45  F   UNL A   1      49.452  28.188  28.803  1.00  0.00    -0.200 F 
ATOM     46  C   UNL A   1      48.783  27.217  30.847  1.00  0.00     0.200 A 
ATOM     47  F   UNL A   1      48.063  26.259  32.881  1.00  0.00    -0.200 F 
ATOM     48  F   UNL A   1      49.945  26.554  30.929  1.00  0.00    -0.200 F 
ENDBRANCH  24  38
BRANCH  25  49
ATOM     49  C   UNL A   1      37.181  32.575  30.166  1.00  0.00     0.064 A 
ATOM     50  C   UNL A   1      36.279  32.298  31.201  1.00  0.00     0.173 A 
ATOM     51  C   UNL A   1      36.759  33.438  29.143  1.00  0.00     0.173 A 
ATOM     52  F   UNL A   1      36.633  31.469  32.193  1.00  0.00    -0.203 F 
ATOM     53  C   UNL A   1      35.005  32.861  31.212  1.00  0.00     0.198 A 
ATOM     54  C   UNL A   1      35.496  34.024  29.170  1.00  0.00     0.198 A 
ATOM     55  F   UNL A   1      37.591  33.743  28.135  1.00  0.00    -0.203 F 
ATOM     56  F   UNL A   1      34.152  32.562  32.201  1.00  0.00    -0.200 F 
ATOM     57  C   UNL A   1      34.618  33.732  30.203  1.00  0.00     0.200 A 
ATOM     58  F   UNL A   1      35.136  34.881  28.205  1.00  0.00    -0.200 F 
ATOM     59  F   UNL A   1      33.401  34.290  30.227  1.00  0.00    -0.200 F 
ENDBRANCH  25  49
BRANCH  37  60
ATOM     60  C   UNL A   1      43.261  34.691  32.900  1.00  0.00     0.064 A 
ATOM     61  C   UNL A   1      43.619  35.864  32.222  1.00  0.00     0.173 A 
ATOM     62  C   UNL A   1      43.225  34.728  34.303  1.00  0.00     0.173 A 
ATOM     63  F   UNL A   1      43.686  35.875  30.882  1.00  0.00    -0.203 F 
ATOM     64  C   UNL A   1      43.932  37.027  32.922  1.00  0.00     0.198 A 
ATOM     65  C   UNL A   1      43.508  35.900  34.998  1.00  0.00     0.198 A 
ATOM     66  F   UNL A   1      42.885  33.632  35.000  1.00  0.00    -0.203 F 
ATOM     67  F   UNL A   1      44.301  38.130  32.256  1.00  0.00    -0.200 F 
ATOM     68  C   UNL A   1      43.863  37.047  34.307  1.00  0.00     0.200 A 
ATOM     69  F   UNL A   1      43.424  35.920  36.336  1.00  0.00    -0.200 F 
ATOM     70  F   UNL A   1      44.141  38.174  34.977  1.00  0.00    -0.200 F 
ENDBRANCH  37  60
ENDBRANCH  11  12
ENDBRANCH   4   6
ENDBRANCH   1   2
BRANCH   1  71
ATOM     71  C   UNL A   1      41.100  20.748  27.380  1.00  0.00     0.023 C 
BRANCH  71  72
ATOM     72  C   UNL A   1      42.192  19.712  27.107  1.00  0.00     0.023 C 
BRANCH  72  73
ATOM     73  C   UNL A   1      42.741  19.732  25.682  1.00  0.00     0.116 C 
BRANCH  73  74
ATOM     74  N   UNL A   1      44.191  19.783  25.672  1.00  0.00    -0.356 N 
ATOM     75  C   UNL A   1      45.019  20.841  25.410  1.00  0.00     0.225 C 
ATOM     76  H   UNL A   1      44.645  18.935  25.882  1.00  0.00     0.163 HD
ATOM     77  O   UNL A   1      46.219  20.603  25.282  1.00  0.00    -0.275 OA
BRANCH  75  78
ATOM     78  C   UNL A   1      44.403  22.225  25.257  1.00  0.00     0.102 C 
ATOM     79  C   UNL A   1      45.074  23.040  24.158  1.00  0.00     0.126 C 
ATOM     80  C   UNL A   1      44.378  22.991  26.588  1.00  0.00     0.053 C 
ATOM     81  N   UNL A   1      46.338  23.617  24.562  1.00  0.00    -0.384 N 
ATOM     82  C   UNL A   1      45.635  23.769  26.878  1.00  0.00    -0.024 A 
ATOM     83  C   UNL A   1      46.558  24.033  25.859  1.00  0.00     0.037 A 
ATOM     84  H   UNL A   1      47.057  23.716  23.896  1.00  0.00     0.160 HD
ATOM     85  C   UNL A   1      45.863  24.254  28.177  1.00  0.00     0.006 A 
ATOM     86  C   UNL A   1      47.694  24.793  26.158  1.00  0.00     0.026 A 
ATOM     87  C   UNL A   1      47.003  25.001  28.461  1.00  0.00     0.000 A 
ATOM     88  C   UNL A   1      47.918  25.274  27.450  1.00  0.00     0.002 A 
ENDBRANCH  75  78
ENDBRANCH  73  74
ENDBRANCH  72  73
ENDBRANCH  71  72
ENDBRANCH   1  71
TORSDOF 11
ENDMDL
