MODEL 1
REMARK VINA RESULT:     -11.3      0.000      0.000
REMARK SMILES Cc1cc(Oc2ccnc(C(=O)NCCCCNC(=O)c3ccc(-c4c5nc(c(-c6c(F)c(F)c(F)c(F)c6F)c6ccc([nH]6)c(-c6c(F)c(F)c(F)c(F)c6F)c6nc(c(-c7c(F)c(F)c(F)c(F)c7F)c7ccc4[nH]7)C=C6)C=C5)cc3)c2)cc(C)c1Cl
REMARK SMILES IDX 15 1 14 2 13 3 11 4 12 5 10 7 6 8 7 9 84 10 8 11 9 12 5 13
REMARK SMILES IDX 4 14 1 15 2 16 3 17 88 18 86 19 89 20 85 21 87 22 16 23
REMARK SMILES IDX 17 24 18 25 19 26 20 28 21 29 22 30 83 31 23 32 82 33 24 34
REMARK SMILES IDX 25 35 26 36 76 37 27 38 81 39 75 40 77 41 28 42 80 43 74 44
REMARK SMILES IDX 73 45 29 47 61 48 41 49 60 50 42 51 45 52 59 53 78 54 43 55
REMARK SMILES IDX 44 56 58 58 79 59 46 60 30 61 31 62 39 63 32 64 33 65 37 66
REMARK SMILES IDX 40 67 34 68 35 69 38 70 36 71 62 72 63 73 71 74 64 75 65 76
REMARK SMILES IDX 69 77 72 78 66 79 67 80 70 81 68 82 47 83 48 84 56 85 49 86
REMARK SMILES IDX 50 87 54 88 57 89 51 90 52 91 55 92 53 93
REMARK H PARENT 13 6 18 27 77 46 45 57
REMARK Flexibility Score: inf
ROOT
ATOM      1  C   UNL A   1      34.206  36.023  28.853  1.00  0.00     0.023 C 
ENDROOT
BRANCH   1   2
ATOM      2  C   UNL A   1      32.762  35.863  29.335  1.00  0.00     0.116 C 
BRANCH   2   3
ATOM      3  N   UNL A   1      32.531  36.665  30.518  1.00  0.00    -0.351 N 
ATOM      4  C   UNL A   1      32.947  36.565  31.827  1.00  0.00     0.270 C 
ATOM      5  O   UNL A   1      32.528  37.446  32.583  1.00  0.00    -0.268 OA
ATOM      6  H   UNL A   1      31.956  37.447  30.351  1.00  0.00     0.163 HD
BRANCH   4   7
ATOM      7  C   UNL A   1      33.877  35.503  32.359  1.00  0.00     0.131 A 
ATOM      8  C   UNL A   1      35.915  34.639  33.245  1.00  0.00     0.131 A 
ATOM      9  C   UNL A   1      35.319  33.402  33.433  1.00  0.00     0.067 A 
ATOM     10  C   UNL A   1      35.207  35.702  32.686  1.00  0.00     0.081 A 
ATOM     11  C   UNL A   1      34.013  33.266  33.019  1.00  0.00     0.116 A 
ATOM     12  N   UNL A   1      33.288  34.281  32.502  1.00  0.00    -0.251 NA
BRANCH   8  13
ATOM     13  O   UNL A   1      37.178  34.872  33.727  1.00  0.00    -0.457 OA
BRANCH  13  14
ATOM     14  C   UNL A   1      38.254  34.657  32.894  1.00  0.00     0.128 A 
ATOM     15  C   UNL A   1      42.035  34.340  32.815  1.00  0.00     0.046 C 
ATOM     16  C   UNL A   1      40.607  34.387  32.343  1.00  0.00    -0.028 A 
ATOM     17  C   UNL A   1      39.588  34.577  33.292  1.00  0.00     0.052 A 
ATOM     18  C   UNL A   1      40.266  34.267  30.981  1.00  0.00     0.047 A 
ATOM     19  C   UNL A   1      38.921  34.330  30.571  1.00  0.00    -0.028 A 
ATOM     20  Cl  UNL A   1      41.516  34.054  29.797  1.00  0.00    -0.084 Cl
ATOM     21  C   UNL A   1      37.928  34.537  31.541  1.00  0.00     0.052 A 
ATOM     22  C   UNL A   1      38.517  34.209  29.127  1.00  0.00     0.046 C 
ENDBRANCH  13  14
ENDBRANCH   8  13
ENDBRANCH   4   7
ENDBRANCH   2   3
ENDBRANCH   1   2
BRANCH   1  23
ATOM     23  C   UNL A   1      34.898  34.700  28.500  1.00  0.00     0.023 C 
BRANCH  23  24
ATOM     24  C   UNL A   1      34.216  33.446  29.039  1.00  0.00     0.116 C 
BRANCH  24  25
ATOM     25  N   UNL A   1      33.649  32.601  27.999  1.00  0.00    -0.352 N 
ATOM     26  C   UNL A   1      34.120  31.398  27.527  1.00  0.00     0.251 C 
ATOM     27  H   UNL A   1      32.822  32.932  27.581  1.00  0.00     0.163 HD
ATOM     28  O   UNL A   1      33.577  30.841  26.583  1.00  0.00    -0.269 OA
BRANCH  26  29
ATOM     29  C   UNL A   1      35.323  30.809  28.146  1.00  0.00     0.039 A 
ATOM     30  C   UNL A   1      36.558  31.432  27.942  1.00  0.00     0.014 A 
ATOM     31  C   UNL A   1      35.224  29.679  28.961  1.00  0.00     0.014 A 
ATOM     32  C   UNL A   1      37.685  30.964  28.618  1.00  0.00     0.010 A 
ATOM     33  C   UNL A   1      36.334  29.251  29.680  1.00  0.00     0.010 A 
ATOM     34  C   UNL A   1      37.572  29.895  29.522  1.00  0.00    -0.014 A 
BRANCH  34  35
ATOM     35  C   UNL A   1      38.731  29.436  30.324  1.00  0.00     0.031 A 
ATOM     36  C   UNL A   1      38.941  29.969  31.712  1.00  0.00     0.074 A 
ATOM     37  C   UNL A   1      39.636  28.605  29.771  1.00  0.00     0.049 A 
ATOM     38  N   UNL A   1      39.945  29.779  32.529  1.00  0.00    -0.248 NA
ATOM     39  C   UNL A   1      37.894  30.857  32.238  1.00  0.00     0.031 C 
ATOM     40  C   UNL A   1      39.562  28.053  28.418  1.00  0.00     0.029 A 
ATOM     41  N   UNL A   1      40.806  28.094  30.275  1.00  0.00    -0.354 N 
ATOM     42  C   UNL A   1      39.660  30.538  33.655  1.00  0.00     0.074 A 
ATOM     43  C   UNL A   1      38.414  31.227  33.399  1.00  0.00     0.031 C 
ATOM     44  C   UNL A   1      40.629  27.266  28.205  1.00  0.00     0.029 A 
ATOM     45  C   UNL A   1      41.481  27.288  29.391  1.00  0.00     0.049 A 
ATOM     46  H   UNL A   1      41.130  28.287  31.184  1.00  0.00     0.167 HD
ATOM     47  C   UNL A   1      40.365  30.634  34.808  1.00  0.00     0.037 A 
ATOM     48  C   UNL A   1      42.657  26.648  29.522  1.00  0.00     0.037 A 
ATOM     49  C   UNL A   1      41.589  29.924  35.069  1.00  0.00     0.049 A 
ATOM     50  C   UNL A   1      43.423  26.775  30.810  1.00  0.00     0.074 A 
ATOM     51  C   UNL A   1      42.350  29.910  36.225  1.00  0.00     0.029 A 
ATOM     52  N   UNL A   1      42.229  29.098  34.157  1.00  0.00    -0.354 N 
ATOM     53  N   UNL A   1      43.117  27.451  31.891  1.00  0.00    -0.248 NA
ATOM     54  C   UNL A   1      44.697  26.048  30.899  1.00  0.00     0.031 C 
ATOM     55  C   UNL A   1      43.470  29.103  36.000  1.00  0.00     0.029 A 
ATOM     56  C   UNL A   1      43.386  28.581  34.719  1.00  0.00     0.049 A 
ATOM     57  H   UNL A   1      41.911  28.908  33.245  1.00  0.00     0.167 HD
ATOM     58  C   UNL A   1      44.141  27.208  32.796  1.00  0.00     0.074 A 
ATOM     59  C   UNL A   1      45.075  26.315  32.140  1.00  0.00     0.031 C 
ATOM     60  C   UNL A   1      44.294  27.681  34.056  1.00  0.00     0.037 A 
BRANCH  47  61
ATOM     61  C   UNL A   1      39.822  31.538  35.875  1.00  0.00     0.064 A 
ATOM     62  C   UNL A   1      38.664  31.208  36.596  1.00  0.00     0.173 A 
ATOM     63  C   UNL A   1      40.475  32.737  36.195  1.00  0.00     0.173 A 
ATOM     64  F   UNL A   1      37.996  30.078  36.318  1.00  0.00    -0.203 F 
ATOM     65  C   UNL A   1      38.163  32.059  37.576  1.00  0.00     0.198 A 
ATOM     66  C   UNL A   1      39.987  33.573  37.196  1.00  0.00     0.198 A 
ATOM     67  F   UNL A   1      41.588  33.097  35.539  1.00  0.00    -0.203 F 
ATOM     68  F   UNL A   1      37.027  31.748  38.215  1.00  0.00    -0.200 F 
ATOM     69  C   UNL A   1      38.828  33.238  37.880  1.00  0.00     0.200 A 
ATOM     70  F   UNL A   1      40.636  34.707  37.495  1.00  0.00    -0.200 F 
ATOM     71  F   UNL A   1      38.346  34.057  38.826  1.00  0.00    -0.200 F 
ENDBRANCH  47  61
BRANCH  48  72
ATOM     72  C   UNL A   1      43.169  25.804  28.412  1.00  0.00     0.064 A 
ATOM     73  C   UNL A   1      44.079  26.323  27.482  1.00  0.00     0.173 A 
ATOM     74  C   UNL A   1      42.765  24.470  28.259  1.00  0.00     0.173 A 
ATOM     75  F   UNL A   1      44.478  27.600  27.577  1.00  0.00    -0.203 F 
ATOM     76  C   UNL A   1      44.554  25.546  26.427  1.00  0.00     0.198 A 
ATOM     77  C   UNL A   1      43.260  23.686  27.218  1.00  0.00     0.198 A 
ATOM     78  F   UNL A   1      41.900  23.925  29.126  1.00  0.00    -0.203 F 
ATOM     79  F   UNL A   1      45.393  26.079  25.530  1.00  0.00    -0.200 F 
ATOM     80  C   UNL A   1      44.148  24.226  26.300  1.00  0.00     0.200 A 
ATOM     81  F   UNL A   1      42.875  22.407  27.104  1.00  0.00    -0.200 F 
ATOM     82  F   UNL A   1      44.608  23.477  25.288  1.00  0.00    -0.200 F 
ENDBRANCH  48  72
BRANCH  60  83
ATOM     83  C   UNL A   1      45.491  27.211  34.827  1.00  0.00     0.064 A 
ATOM     84  C   UNL A   1      45.459  26.036  35.590  1.00  0.00     0.173 A 
ATOM     85  C   UNL A   1      46.699  27.921  34.758  1.00  0.00     0.173 A 
ATOM     86  F   UNL A   1      44.323  25.333  35.699  1.00  0.00    -0.203 F 
ATOM     87  C   UNL A   1      46.591  25.596  36.270  1.00  0.00     0.198 A 
ATOM     88  C   UNL A   1      47.836  27.465  35.419  1.00  0.00     0.198 A 
ATOM     89  F   UNL A   1      46.780  29.049  34.037  1.00  0.00    -0.203 F 
ATOM     90  F   UNL A   1      46.530  24.489  37.024  1.00  0.00    -0.200 F 
ATOM     91  C   UNL A   1      47.780  26.307  36.178  1.00  0.00     0.200 A 
ATOM     92  F   UNL A   1      48.986  28.146  35.319  1.00  0.00    -0.200 F 
ATOM     93  F   UNL A   1      48.871  25.875  36.825  1.00  0.00    -0.200 F 
ENDBRANCH  60  83
ENDBRANCH  34  35
ENDBRANCH  26  29
ENDBRANCH  24  25
ENDBRANCH  23  24
ENDBRANCH   1  23
TORSDOF 13
ENDMDL
MODEL 2
REMARK VINA RESULT:     -11.2      0.312      7.236
REMARK SMILES Cc1cc(Oc2ccnc(C(=O)NCCCCNC(=O)c3ccc(-c4c5nc(c(-c6c(F)c(F)c(F)c(F)c6F)c6ccc([nH]6)c(-c6c(F)c(F)c(F)c(F)c6F)c6nc(c(-c7c(F)c(F)c(F)c(F)c7F)c7ccc4[nH]7)C=C6)C=C5)cc3)c2)cc(C)c1Cl
REMARK SMILES IDX 15 1 14 2 13 3 11 4 12 5 10 7 6 8 7 9 84 10 8 11 9 12 5 13
REMARK SMILES IDX 4 14 1 15 2 16 3 17 88 18 86 19 89 20 85 21 87 22 16 23
REMARK SMILES IDX 17 24 18 25 19 26 20 28 21 29 22 30 83 31 23 32 82 33 24 34
REMARK SMILES IDX 25 35 26 36 76 37 27 38 81 39 75 40 77 41 28 42 80 43 74 44
REMARK SMILES IDX 73 45 29 47 61 48 41 49 60 50 42 51 45 52 59 53 78 54 43 55
REMARK SMILES IDX 44 56 58 58 79 59 46 60 30 61 31 62 39 63 32 64 33 65 37 66
REMARK SMILES IDX 40 67 34 68 35 69 38 70 36 71 62 72 63 73 71 74 64 75 65 76
REMARK SMILES IDX 69 77 72 78 66 79 67 80 70 81 68 82 47 83 48 84 56 85 49 86
REMARK SMILES IDX 50 87 54 88 57 89 51 90 52 91 55 92 53 93
REMARK H PARENT 13 6 18 27 77 46 45 57
REMARK Flexibility Score: inf
ROOT
ATOM      1  C   UNL A   1      34.102  35.782  28.766  1.00  0.00     0.023 C 
ENDROOT
BRANCH   1   2
ATOM      2  C   UNL A   1      32.705  35.609  29.367  1.00  0.00     0.116 C 
BRANCH   2   3
ATOM      3  N   UNL A   1      32.512  36.527  30.470  1.00  0.00    -0.351 N 
ATOM      4  C   UNL A   1      32.944  36.544  31.777  1.00  0.00     0.270 C 
ATOM      5  O   UNL A   1      32.559  37.504  32.450  1.00  0.00    -0.268 OA
ATOM      6  H   UNL A   1      31.956  37.305  30.235  1.00  0.00     0.163 HD
BRANCH   4   7
ATOM      7  C   UNL A   1      33.855  35.513  32.399  1.00  0.00     0.131 A 
ATOM      8  C   UNL A   1      35.871  34.693  33.370  1.00  0.00     0.131 A 
ATOM      9  C   UNL A   1      35.257  33.481  33.644  1.00  0.00     0.067 A 
ATOM     10  C   UNL A   1      35.183  35.719  32.725  1.00  0.00     0.081 A 
ATOM     11  C   UNL A   1      33.954  33.331  33.227  1.00  0.00     0.116 A 
ATOM     12  N   UNL A   1      33.248  34.313  32.627  1.00  0.00    -0.251 NA
BRANCH   8  13
ATOM     13  O   UNL A   1      37.132  34.945  33.847  1.00  0.00    -0.457 OA
BRANCH  13  14
ATOM     14  C   UNL A   1      38.211  34.710  33.024  1.00  0.00     0.128 A 
ATOM     15  C   UNL A   1      41.985  34.303  32.979  1.00  0.00     0.046 C 
ATOM     16  C   UNL A   1      40.562  34.386  32.494  1.00  0.00    -0.028 A 
ATOM     17  C   UNL A   1      39.539  34.596  33.434  1.00  0.00     0.052 A 
ATOM     18  C   UNL A   1      40.232  34.284  31.128  1.00  0.00     0.047 A 
ATOM     19  C   UNL A   1      38.894  34.381  30.705  1.00  0.00    -0.028 A 
ATOM     20  Cl  UNL A   1      41.488  34.048  29.955  1.00  0.00    -0.084 Cl
ATOM     21  C   UNL A   1      37.896  34.606  31.667  1.00  0.00     0.052 A 
ATOM     22  C   UNL A   1      38.501  34.279  29.257  1.00  0.00     0.046 C 
ENDBRANCH  13  14
ENDBRANCH   8  13
ENDBRANCH   4   7
ENDBRANCH   2   3
ENDBRANCH   1   2
BRANCH   1  23
ATOM     23  C   UNL A   1      34.756  34.470  28.315  1.00  0.00     0.023 C 
BRANCH  23  24
ATOM     24  C   UNL A   1      34.119  33.201  28.874  1.00  0.00     0.116 C 
BRANCH  24  25
ATOM     25  N   UNL A   1      33.653  32.283  27.845  1.00  0.00    -0.352 N 
ATOM     26  C   UNL A   1      34.243  31.118  27.411  1.00  0.00     0.251 C 
ATOM     27  H   UNL A   1      32.809  32.527  27.403  1.00  0.00     0.163 HD
ATOM     28  O   UNL A   1      33.773  30.491  26.472  1.00  0.00    -0.269 OA
BRANCH  26  29
ATOM     29  C   UNL A   1      35.482  30.657  28.068  1.00  0.00     0.039 A 
ATOM     30  C   UNL A   1      36.676  31.331  27.797  1.00  0.00     0.014 A 
ATOM     31  C   UNL A   1      35.454  29.599  28.978  1.00  0.00     0.014 A 
ATOM     32  C   UNL A   1      37.832  30.991  28.500  1.00  0.00     0.010 A 
ATOM     33  C   UNL A   1      36.591  29.302  29.721  1.00  0.00     0.010 A 
ATOM     34  C   UNL A   1      37.788  30.001  29.495  1.00  0.00    -0.014 A 
BRANCH  34  35
ATOM     35  C   UNL A   1      38.976  29.683  30.322  1.00  0.00     0.031 A 
ATOM     36  C   UNL A   1      40.019  28.736  29.803  1.00  0.00     0.074 A 
ATOM     37  C   UNL A   1      39.072  30.181  31.570  1.00  0.00     0.049 A 
ATOM     38  N   UNL A   1      41.068  28.245  30.411  1.00  0.00    -0.248 NA
ATOM     39  C   UNL A   1      39.840  28.254  28.425  1.00  0.00     0.031 C 
ATOM     40  C   UNL A   1      38.101  31.078  32.199  1.00  0.00     0.029 A 
ATOM     41  N   UNL A   1      40.024  29.988  32.539  1.00  0.00    -0.354 N 
ATOM     42  C   UNL A   1      41.662  27.385  29.498  1.00  0.00     0.074 A 
ATOM     43  C   UNL A   1      40.832  27.384  28.313  1.00  0.00     0.031 C 
ATOM     44  C   UNL A   1      38.517  31.373  33.442  1.00  0.00     0.029 A 
ATOM     45  C   UNL A   1      39.761  30.657  33.710  1.00  0.00     0.049 A 
ATOM     46  H   UNL A   1      40.820  29.424  32.407  1.00  0.00     0.167 HD
ATOM     47  C   UNL A   1      42.809  26.675  29.630  1.00  0.00     0.037 A 
ATOM     48  C   UNL A   1      40.444  30.680  34.870  1.00  0.00     0.037 A 
ATOM     49  C   UNL A   1      43.646  26.702  30.800  1.00  0.00     0.049 A 
ATOM     50  C   UNL A   1      41.711  29.880  34.992  1.00  0.00     0.074 A 
ATOM     51  C   UNL A   1      44.855  26.063  31.012  1.00  0.00     0.029 A 
ATOM     52  N   UNL A   1      43.358  27.410  31.958  1.00  0.00    -0.354 N 
ATOM     53  N   UNL A   1      42.295  29.113  34.103  1.00  0.00    -0.248 NA
ATOM     54  C   UNL A   1      42.418  29.950  36.279  1.00  0.00     0.031 C 
ATOM     55  C   UNL A   1      45.283  26.357  32.311  1.00  0.00     0.029 A 
ATOM     56  C   UNL A   1      44.361  27.211  32.894  1.00  0.00     0.049 A 
ATOM     57  H   UNL A   1      42.560  27.969  32.095  1.00  0.00     0.167 HD
ATOM     58  C   UNL A   1      43.447  28.634  34.709  1.00  0.00     0.074 A 
ATOM     59  C   UNL A   1      43.487  29.204  36.041  1.00  0.00     0.031 C 
ATOM     60  C   UNL A   1      44.390  27.800  34.208  1.00  0.00     0.037 A 
BRANCH  47  61
ATOM     61  C   UNL A   1      43.224  25.815  28.474  1.00  0.00     0.064 A 
ATOM     62  C   UNL A   1      42.847  24.466  28.392  1.00  0.00     0.173 A 
ATOM     63  C   UNL A   1      43.987  26.347  27.425  1.00  0.00     0.173 A 
ATOM     64  F   UNL A   1      42.127  23.905  29.376  1.00  0.00    -0.203 F 
ATOM     65  C   UNL A   1      43.246  23.673  27.319  1.00  0.00     0.198 A 
ATOM     66  C   UNL A   1      44.361  25.560  26.339  1.00  0.00     0.198 A 
ATOM     67  F   UNL A   1      44.371  27.633  27.452  1.00  0.00    -0.203 F 
ATOM     68  F   UNL A   1      42.918  22.375  27.289  1.00  0.00    -0.200 F 
ATOM     69  C   UNL A   1      43.997  24.223  26.291  1.00  0.00     0.200 A 
ATOM     70  F   UNL A   1      45.079  26.094  25.341  1.00  0.00    -0.200 F 
ATOM     71  F   UNL A   1      44.379  23.459  25.257  1.00  0.00    -0.200 F 
ENDBRANCH  47  61
BRANCH  48  72
ATOM     72  C   UNL A   1      39.958  31.514  35.999  1.00  0.00     0.064 A 
ATOM     73  C   UNL A   1      40.672  32.651  36.404  1.00  0.00     0.173 A 
ATOM     74  C   UNL A   1      38.782  31.198  36.692  1.00  0.00     0.173 A 
ATOM     75  F   UNL A   1      41.814  32.980  35.784  1.00  0.00    -0.203 F 
ATOM     76  C   UNL A   1      40.235  33.432  37.472  1.00  0.00     0.198 A 
ATOM     77  C   UNL A   1      38.333  31.995  37.744  1.00  0.00     0.198 A 
ATOM     78  F   UNL A   1      38.061  30.124  36.339  1.00  0.00    -0.203 F 
ATOM     79  F   UNL A   1      40.956  34.491  37.863  1.00  0.00    -0.200 F 
ATOM     80  C   UNL A   1      39.063  33.106  38.137  1.00  0.00     0.200 A 
ATOM     81  F   UNL A   1      37.193  31.684  38.377  1.00  0.00    -0.200 F 
ATOM     82  F   UNL A   1      38.641  33.860  39.162  1.00  0.00    -0.200 F 
ENDBRANCH  48  72
BRANCH  60  83
ATOM     83  C   UNL A   1      45.564  27.483  35.084  1.00  0.00     0.064 A 
ATOM     84  C   UNL A   1      45.573  26.362  35.926  1.00  0.00     0.173 A 
ATOM     85  C   UNL A   1      46.716  28.284  35.041  1.00  0.00     0.173 A 
ATOM     86  F   UNL A   1      44.489  25.577  36.013  1.00  0.00    -0.203 F 
ATOM     87  C   UNL A   1      46.686  26.064  36.705  1.00  0.00     0.198 A 
ATOM     88  C   UNL A   1      47.836  27.968  35.802  1.00  0.00     0.198 A 
ATOM     89  F   UNL A   1      46.758  29.365  34.246  1.00  0.00    -0.203 F 
ATOM     90  F   UNL A   1      46.660  25.008  37.531  1.00  0.00    -0.200 F 
ATOM     91  C   UNL A   1      47.820  26.862  36.637  1.00  0.00     0.200 A 
ATOM     92  F   UNL A   1      48.934  28.733  35.726  1.00  0.00    -0.200 F 
ATOM     93  F   UNL A   1      48.894  26.566  37.381  1.00  0.00    -0.200 F 
ENDBRANCH  60  83
ENDBRANCH  34  35
ENDBRANCH  26  29
ENDBRANCH  24  25
ENDBRANCH  23  24
ENDBRANCH   1  23
TORSDOF 13
ENDMDL
MODEL 3
REMARK VINA RESULT:     -11.2      3.770      6.896
REMARK SMILES Cc1cc(Oc2ccnc(C(=O)NCCCCNC(=O)c3ccc(-c4c5nc(c(-c6c(F)c(F)c(F)c(F)c6F)c6ccc([nH]6)c(-c6c(F)c(F)c(F)c(F)c6F)c6nc(c(-c7c(F)c(F)c(F)c(F)c7F)c7ccc4[nH]7)C=C6)C=C5)cc3)c2)cc(C)c1Cl
REMARK SMILES IDX 15 1 14 2 13 3 11 4 12 5 10 7 6 8 7 9 84 10 8 11 9 12 5 13
REMARK SMILES IDX 4 14 1 15 2 16 3 17 88 18 86 19 89 20 85 21 87 22 16 23
REMARK SMILES IDX 17 24 18 25 19 26 20 28 21 29 22 30 83 31 23 32 82 33 24 34
REMARK SMILES IDX 25 35 26 36 76 37 27 38 81 39 75 40 77 41 28 42 80 43 74 44
REMARK SMILES IDX 73 45 29 47 61 48 41 49 60 50 42 51 45 52 59 53 78 54 43 55
REMARK SMILES IDX 44 56 58 58 79 59 46 60 30 61 31 62 39 63 32 64 33 65 37 66
REMARK SMILES IDX 40 67 34 68 35 69 38 70 36 71 62 72 63 73 71 74 64 75 65 76
REMARK SMILES IDX 69 77 72 78 66 79 67 80 70 81 68 82 47 83 48 84 56 85 49 86
REMARK SMILES IDX 50 87 54 88 57 89 51 90 52 91 55 92 53 93
REMARK H PARENT 13 6 18 27 77 46 45 57
REMARK Flexibility Score: inf
ROOT
ATOM      1  C   UNL A   1      31.271  28.667  24.678  1.00  0.00     0.023 C 
ENDROOT
BRANCH   1   2
ATOM      2  C   UNL A   1      31.167  28.162  23.237  1.00  0.00     0.116 C 
BRANCH   2   3
ATOM      3  N   UNL A   1      32.400  28.417  22.522  1.00  0.00    -0.351 N 
ATOM      4  C   UNL A   1      33.463  27.624  22.150  1.00  0.00     0.270 C 
ATOM      5  O   UNL A   1      34.371  28.204  21.548  1.00  0.00    -0.268 OA
ATOM      6  H   UNL A   1      32.499  29.356  22.242  1.00  0.00     0.163 HD
BRANCH   4   7
ATOM      7  C   UNL A   1      33.559  26.138  22.395  1.00  0.00     0.131 A 
ATOM      8  C   UNL A   1      33.939  24.164  23.676  1.00  0.00     0.131 A 
ATOM      9  C   UNL A   1      33.518  23.382  22.611  1.00  0.00     0.067 A 
ATOM     10  C   UNL A   1      33.984  25.553  23.575  1.00  0.00     0.081 A 
ATOM     11  C   UNL A   1      33.177  24.037  21.449  1.00  0.00     0.116 A 
ATOM     12  N   UNL A   1      33.179  25.381  21.326  1.00  0.00    -0.251 NA
BRANCH   8  13
ATOM     13  O   UNL A   1      34.195  23.584  24.892  1.00  0.00    -0.457 OA
BRANCH  13  14
ATOM     14  C   UNL A   1      35.430  23.011  25.104  1.00  0.00     0.128 A 
ATOM     15  C   UNL A   1      37.394  19.781  24.764  1.00  0.00     0.046 C 
ATOM     16  C   UNL A   1      37.069  21.214  25.087  1.00  0.00    -0.028 A 
ATOM     17  C   UNL A   1      35.782  21.698  24.793  1.00  0.00     0.052 A 
ATOM     18  C   UNL A   1      38.006  22.074  25.694  1.00  0.00     0.047 A 
ATOM     19  C   UNL A   1      37.666  23.405  25.997  1.00  0.00    -0.028 A 
ATOM     20  Cl  UNL A   1      39.590  21.483  26.083  1.00  0.00    -0.084 Cl
ATOM     21  C   UNL A   1      36.368  23.854  25.705  1.00  0.00     0.052 A 
ATOM     22  C   UNL A   1      38.636  24.353  26.646  1.00  0.00     0.046 C 
ENDBRANCH  13  14
ENDBRANCH   8  13
ENDBRANCH   4   7
ENDBRANCH   2   3
ENDBRANCH   1   2
BRANCH   1  23
ATOM     23  C   UNL A   1      32.575  29.413  24.987  1.00  0.00     0.023 C 
BRANCH  23  24
ATOM     24  C   UNL A   1      32.787  29.770  26.456  1.00  0.00     0.116 C 
BRANCH  24  25
ATOM     25  N   UNL A   1      32.642  31.190  26.736  1.00  0.00    -0.352 N 
ATOM     26  C   UNL A   1      33.483  32.009  27.452  1.00  0.00     0.251 C 
ATOM     27  H   UNL A   1      31.838  31.620  26.366  1.00  0.00     0.163 HD
ATOM     28  O   UNL A   1      33.183  33.173  27.676  1.00  0.00    -0.269 OA
BRANCH  26  29
ATOM     29  C   UNL A   1      34.739  31.448  27.990  1.00  0.00     0.039 A 
ATOM     30  C   UNL A   1      35.872  32.265  28.042  1.00  0.00     0.014 A 
ATOM     31  C   UNL A   1      34.781  30.142  28.482  1.00  0.00     0.014 A 
ATOM     32  C   UNL A   1      37.031  31.794  28.658  1.00  0.00     0.010 A 
ATOM     33  C   UNL A   1      35.916  29.696  29.149  1.00  0.00     0.010 A 
ATOM     34  C   UNL A   1      37.048  30.521  29.251  1.00  0.00    -0.014 A 
BRANCH  34  35
ATOM     35  C   UNL A   1      38.233  30.031  29.995  1.00  0.00     0.031 A 
ATOM     36  C   UNL A   1      38.501  30.522  31.387  1.00  0.00     0.074 A 
ATOM     37  C   UNL A   1      39.109  29.209  29.384  1.00  0.00     0.049 A 
ATOM     38  N   UNL A   1      39.534  30.302  32.159  1.00  0.00    -0.248 NA
ATOM     39  C   UNL A   1      37.483  31.403  31.979  1.00  0.00     0.031 C 
ATOM     40  C   UNL A   1      38.977  28.696  28.019  1.00  0.00     0.029 A 
ATOM     41  N   UNL A   1      40.293  28.675  29.827  1.00  0.00    -0.354 N 
ATOM     42  C   UNL A   1      39.300  31.030  33.317  1.00  0.00     0.074 A 
ATOM     43  C   UNL A   1      38.051  31.736  33.129  1.00  0.00     0.031 C 
ATOM     44  C   UNL A   1      40.029  27.908  27.743  1.00  0.00     0.029 A 
ATOM     45  C   UNL A   1      40.926  27.890  28.895  1.00  0.00     0.049 A 
ATOM     46  H   UNL A   1      40.654  28.840  30.728  1.00  0.00     0.167 HD
ATOM     47  C   UNL A   1      40.050  31.088  34.443  1.00  0.00     0.037 A 
ATOM     48  C   UNL A   1      42.101  27.237  28.961  1.00  0.00     0.037 A 
ATOM     49  C   UNL A   1      41.277  30.362  34.637  1.00  0.00     0.049 A 
ATOM     50  C   UNL A   1      42.917  27.321  30.222  1.00  0.00     0.074 A 
ATOM     51  C   UNL A   1      42.083  30.309  35.761  1.00  0.00     0.029 A 
ATOM     52  N   UNL A   1      41.874  29.557  33.677  1.00  0.00    -0.354 N 
ATOM     53  N   UNL A   1      42.659  27.969  31.333  1.00  0.00    -0.248 NA
ATOM     54  C   UNL A   1      44.187  26.582  30.240  1.00  0.00     0.031 C 
ATOM     55  C   UNL A   1      43.186  29.500  35.470  1.00  0.00     0.029 A 
ATOM     56  C   UNL A   1      43.047  29.016  34.179  1.00  0.00     0.049 A 
ATOM     57  H   UNL A   1      41.519  29.396  32.773  1.00  0.00     0.167 HD
ATOM     58  C   UNL A   1      43.715  27.693  32.190  1.00  0.00     0.074 A 
ATOM     59  C   UNL A   1      44.616  26.812  31.473  1.00  0.00     0.031 C 
ATOM     60  C   UNL A   1      43.921  28.128  33.456  1.00  0.00     0.037 A 
BRANCH  47  61
ATOM     61  C   UNL A   1      39.557  31.966  35.555  1.00  0.00     0.064 A 
ATOM     62  C   UNL A   1      40.001  33.289  35.697  1.00  0.00     0.173 A 
ATOM     63  C   UNL A   1      38.614  31.488  36.477  1.00  0.00     0.173 A 
ATOM     64  F   UNL A   1      40.913  33.789  34.848  1.00  0.00    -0.203 F 
ATOM     65  C   UNL A   1      39.545  34.092  36.738  1.00  0.00     0.198 A 
ATOM     66  C   UNL A   1      38.137  32.302  37.501  1.00  0.00     0.198 A 
ATOM     67  F   UNL A   1      38.153  30.232  36.384  1.00  0.00    -0.203 F 
ATOM     68  F   UNL A   1      40.023  35.334  36.884  1.00  0.00    -0.200 F 
ATOM     69  C   UNL A   1      38.608  33.599  37.636  1.00  0.00     0.200 A 
ATOM     70  F   UNL A   1      37.225  31.829  38.362  1.00  0.00    -0.200 F 
ATOM     71  F   UNL A   1      38.167  34.374  38.638  1.00  0.00    -0.200 F 
ENDBRANCH  47  61
BRANCH  48  72
ATOM     72  C   UNL A   1      42.562  26.421  27.810  1.00  0.00     0.064 A 
ATOM     73  C   UNL A   1      43.378  26.983  26.818  1.00  0.00     0.173 A 
ATOM     74  C   UNL A   1      42.203  25.073  27.675  1.00  0.00     0.173 A 
ATOM     75  F   UNL A   1      43.730  28.275  26.894  1.00  0.00    -0.203 F 
ATOM     76  C   UNL A   1      43.803  26.232  25.724  1.00  0.00     0.198 A 
ATOM     77  C   UNL A   1      42.650  24.316  26.593  1.00  0.00     0.198 A 
ATOM     78  F   UNL A   1      41.428  24.488  28.599  1.00  0.00    -0.203 F 
ATOM     79  F   UNL A   1      44.550  26.804  24.771  1.00  0.00    -0.200 F 
ATOM     80  C   UNL A   1      43.443  24.897  25.616  1.00  0.00     0.200 A 
ATOM     81  F   UNL A   1      42.310  23.023  26.498  1.00  0.00    -0.200 F 
ATOM     82  F   UNL A   1      43.856  24.173  24.566  1.00  0.00    -0.200 F 
ENDBRANCH  48  72
BRANCH  60  83
ATOM     83  C   UNL A   1      45.143  27.628  34.166  1.00  0.00     0.064 A 
ATOM     84  C   UNL A   1      46.352  28.337  34.138  1.00  0.00     0.173 A 
ATOM     85  C   UNL A   1      45.088  26.449  34.925  1.00  0.00     0.173 A 
ATOM     86  F   UNL A   1      46.457  29.460  33.413  1.00  0.00    -0.203 F 
ATOM     87  C   UNL A   1      47.466  27.876  34.832  1.00  0.00     0.198 A 
ATOM     88  C   UNL A   1      46.196  26.004  35.639  1.00  0.00     0.198 A 
ATOM     89  F   UNL A   1      43.952  25.737  34.987  1.00  0.00    -0.203 F 
ATOM     90  F   UNL A   1      48.623  28.550  34.763  1.00  0.00    -0.200 F 
ATOM     91  C   UNL A   1      47.385  26.715  35.588  1.00  0.00     0.200 A 
ATOM     92  F   UNL A   1      46.113  24.889  36.377  1.00  0.00    -0.200 F 
ATOM     93  F   UNL A   1      48.457  26.279  36.264  1.00  0.00    -0.200 F 
ENDBRANCH  60  83
ENDBRANCH  34  35
ENDBRANCH  26  29
ENDBRANCH  24  25
ENDBRANCH  23  24
ENDBRANCH   1  23
TORSDOF 13
ENDMDL
