MODEL 1
REMARK VINA RESULT:     -12.3      0.000      0.000
REMARK SMILES CN(C)c1ccc(CCC(=O)N2C[C@@H](C(=O)NCCCCNC(=O)c3ccc(-c4c5nc(c(-c6c(F)c(F)c(F)c(F)c6F)c6ccc([nH]6)c(-c6c(F)c(F)c(F)c(F)c6F)c6nc(c(-c7c(F)c(F)c(F)c(F)c7F)c7ccc4[nH]7)C=C6)C=C5)cc3)[C@H](c3cccnc3)C2)cc1
REMARK SMILES IDX 18 1 17 2 15 3 16 4 14 6 12 7 13 8 95 9 88 10 10 11 11 12
REMARK SMILES IDX 9 13 8 14 7 15 4 16 5 17 97 18 6 19 96 20 2 21 1 22 3 23
REMARK SMILES IDX 89 24 90 25 94 26 91 27 93 28 92 29 19 30 20 31 21 32 22 33
REMARK SMILES IDX 23 34 24 36 25 37 26 38 87 39 27 40 86 41 28 42 29 43 30 44
REMARK SMILES IDX 80 45 31 46 85 47 79 48 81 49 32 50 84 51 78 52 77 53 33 55
REMARK SMILES IDX 65 56 45 57 64 58 46 59 49 60 63 61 82 62 47 63 48 64 62 66
REMARK SMILES IDX 83 67 50 68 34 69 35 70 43 71 36 72 37 73 41 74 44 75 38 76
REMARK SMILES IDX 39 77 42 78 40 79 66 80 67 81 75 82 68 83 69 84 73 85 76 86
REMARK SMILES IDX 70 87 71 88 74 89 72 90 51 91 52 92 60 93 53 94 54 95 58 96
REMARK SMILES IDX 61 97 55 98 56 99 59 100 57 101
REMARK H PARENT 17 5 22 35 81 54 49 65
REMARK Flexibility Score: inf
ROOT
ATOM      1  C   UNL A   1      33.179  21.416  25.868  1.00  0.00     0.116 C 
ENDROOT
BRANCH   1   2
ATOM      2  N   UNL A   1      32.107  22.054  26.605  1.00  0.00    -0.356 N 
ATOM      3  C   UNL A   1      31.570  23.292  26.619  1.00  0.00     0.225 C 
ATOM      4  O   UNL A   1      30.756  23.469  27.537  1.00  0.00    -0.275 OA
ATOM      5  H   UNL A   1      31.669  21.443  27.241  1.00  0.00     0.163 HD
BRANCH   3   6
ATOM      6  C   UNL A   1      31.805  24.447  25.641  1.00  0.00     0.107 C 
ATOM      7  N   UNL A   1      32.910  24.830  23.558  1.00  0.00    -0.341 N 
ATOM      8  C   UNL A   1      31.704  24.308  24.140  1.00  0.00     0.133 C 
ATOM      9  C   UNL A   1      33.929  24.973  24.579  1.00  0.00     0.128 C 
ATOM     10  C   UNL A   1      33.159  25.173  25.908  1.00  0.00     0.054 C 
BRANCH   7  11
ATOM     11  C   UNL A   1      33.185  24.830  22.204  1.00  0.00     0.222 C 
ATOM     12  O   UNL A   1      33.678  23.840  21.658  1.00  0.00    -0.275 OA
BRANCH  11  13
ATOM     13  C   UNL A   1      33.010  26.140  21.414  1.00  0.00     0.105 C 
BRANCH  13  14
ATOM     14  C   UNL A   1      33.202  27.491  22.127  1.00  0.00     0.045 C 
BRANCH  14  15
ATOM     15  C   UNL A   1      31.936  28.000  22.787  1.00  0.00    -0.047 A 
ATOM     16  C   UNL A   1      29.628  29.501  23.425  1.00  0.00     0.036 A 
ATOM     17  C   UNL A   1      30.874  29.810  23.966  1.00  0.00     0.026 A 
ATOM     18  C   UNL A   1      29.522  28.325  22.687  1.00  0.00     0.026 A 
ATOM     19  C   UNL A   1      32.010  29.038  23.710  1.00  0.00     0.006 A 
ATOM     20  C   UNL A   1      30.666  27.579  22.364  1.00  0.00     0.006 A 
BRANCH  16  21
ATOM     21  N   UNL A   1      28.556  30.394  23.515  1.00  0.00    -0.378 N 
ATOM     22  C   UNL A   1      28.850  31.787  23.208  1.00  0.00     0.143 C 
ATOM     23  C   UNL A   1      27.301  29.867  22.974  1.00  0.00     0.143 C 
ENDBRANCH  16  21
ENDBRANCH  14  15
ENDBRANCH  13  14
ENDBRANCH  11  13
ENDBRANCH   7  11
BRANCH  10  24
ATOM     24  C   UNL A   1      32.929  26.598  26.412  1.00  0.00    -0.024 A 
ATOM     25  C   UNL A   1      33.983  27.530  26.369  1.00  0.00     0.007 A 
ATOM     26  C   UNL A   1      31.713  27.089  26.875  1.00  0.00     0.115 A 
ATOM     27  C   UNL A   1      33.813  28.835  26.822  1.00  0.00     0.020 A 
ATOM     28  N   UNL A   1      31.511  28.360  27.309  1.00  0.00    -0.264 NA
ATOM     29  C   UNL A   1      32.565  29.201  27.279  1.00  0.00     0.111 A 
ENDBRANCH  10  24
ENDBRANCH   3   6
ENDBRANCH   1   2
BRANCH   1  30
ATOM     30  C   UNL A   1      34.569  21.756  26.422  1.00  0.00     0.023 C 
BRANCH  30  31
ATOM     31  C   UNL A   1      35.625  22.199  25.397  1.00  0.00     0.023 C 
BRANCH  31  32
ATOM     32  C   UNL A   1      36.829  22.973  25.930  1.00  0.00     0.116 C 
BRANCH  32  33
ATOM     33  N   UNL A   1      38.047  22.195  26.037  1.00  0.00    -0.352 N 
ATOM     34  C   UNL A   1      39.316  22.568  26.421  1.00  0.00     0.251 C 
ATOM     35  H   UNL A   1      37.953  21.245  25.798  1.00  0.00     0.163 HD
ATOM     36  O   UNL A   1      40.234  21.768  26.352  1.00  0.00    -0.269 OA
BRANCH  34  37
ATOM     37  C   UNL A   1      39.583  23.953  26.874  1.00  0.00     0.039 A 
ATOM     38  C   UNL A   1      39.316  24.276  28.207  1.00  0.00     0.014 A 
ATOM     39  C   UNL A   1      40.070  24.929  26.002  1.00  0.00     0.014 A 
ATOM     40  C   UNL A   1      39.622  25.552  28.689  1.00  0.00     0.010 A 
ATOM     41  C   UNL A   1      40.437  26.182  26.499  1.00  0.00     0.010 A 
ATOM     42  C   UNL A   1      40.229  26.501  27.851  1.00  0.00    -0.014 A 
BRANCH  42  43
ATOM     43  C   UNL A   1      40.675  27.819  28.380  1.00  0.00     0.031 A 
ATOM     44  C   UNL A   1      42.125  28.068  28.688  1.00  0.00     0.074 A 
ATOM     45  C   UNL A   1      39.761  28.776  28.637  1.00  0.00     0.049 A 
ATOM     46  N   UNL A   1      42.688  29.118  29.232  1.00  0.00    -0.248 NA
ATOM     47  C   UNL A   1      43.064  26.985  28.362  1.00  0.00     0.031 C 
ATOM     48  C   UNL A   1      38.320  28.653  28.412  1.00  0.00     0.029 A 
ATOM     49  N   UNL A   1      39.906  30.041  29.154  1.00  0.00    -0.354 N 
ATOM     50  C   UNL A   1      44.042  28.822  29.317  1.00  0.00     0.074 A 
ATOM     51  C   UNL A   1      44.209  27.471  28.821  1.00  0.00     0.031 C 
ATOM     52  C   UNL A   1      37.718  29.799  28.767  1.00  0.00     0.029 A 
ATOM     53  C   UNL A   1      38.721  30.723  29.285  1.00  0.00     0.049 A 
ATOM     54  H   UNL A   1      40.777  30.421  29.407  1.00  0.00     0.167 HD
ATOM     55  C   UNL A   1      45.057  29.610  29.746  1.00  0.00     0.037 A 
ATOM     56  C   UNL A   1      38.470  31.953  29.776  1.00  0.00     0.037 A 
ATOM     57  C   UNL A   1      44.896  30.958  30.226  1.00  0.00     0.049 A 
ATOM     58  C   UNL A   1      39.614  32.793  30.278  1.00  0.00     0.074 A 
ATOM     59  C   UNL A   1      45.868  31.844  30.658  1.00  0.00     0.029 A 
ATOM     60  N   UNL A   1      43.679  31.617  30.333  1.00  0.00    -0.354 N 
ATOM     61  N   UNL A   1      40.894  32.517  30.309  1.00  0.00    -0.248 NA
ATOM     62  C   UNL A   1      39.276  34.121  30.811  1.00  0.00     0.031 C 
ATOM     63  C   UNL A   1      45.237  33.026  31.062  1.00  0.00     0.029 A 
ATOM     64  C   UNL A   1      43.877  32.894  30.837  1.00  0.00     0.049 A 
ATOM     65  H   UNL A   1      42.806  31.235  30.088  1.00  0.00     0.167 HD
ATOM     66  C   UNL A   1      41.516  33.646  30.826  1.00  0.00     0.074 A 
ATOM     67  C   UNL A   1      40.474  34.616  31.086  1.00  0.00     0.031 C 
ATOM     68  C   UNL A   1      42.833  33.858  31.067  1.00  0.00     0.037 A 
BRANCH  55  69
ATOM     69  C   UNL A   1      46.444  29.037  29.705  1.00  0.00     0.064 A 
ATOM     70  C   UNL A   1      46.982  28.347  30.802  1.00  0.00     0.173 A 
ATOM     71  C   UNL A   1      47.228  29.137  28.546  1.00  0.00     0.173 A 
ATOM     72  F   UNL A   1      46.278  28.231  31.938  1.00  0.00    -0.203 F 
ATOM     73  C   UNL A   1      48.263  27.804  30.750  1.00  0.00     0.198 A 
ATOM     74  C   UNL A   1      48.497  28.566  28.486  1.00  0.00     0.198 A 
ATOM     75  F   UNL A   1      46.759  29.779  27.465  1.00  0.00    -0.203 F 
ATOM     76  F   UNL A   1      48.774  27.191  31.827  1.00  0.00    -0.200 F 
ATOM     77  C   UNL A   1      49.016  27.907  29.591  1.00  0.00     0.200 A 
ATOM     78  F   UNL A   1      49.219  28.655  27.359  1.00  0.00    -0.200 F 
ATOM     79  F   UNL A   1      50.246  27.376  29.539  1.00  0.00    -0.200 F 
ENDBRANCH  55  69
BRANCH  56  80
ATOM     80  C   UNL A   1      37.081  32.481  29.804  1.00  0.00     0.064 A 
ATOM     81  C   UNL A   1      36.587  33.260  28.747  1.00  0.00     0.173 A 
ATOM     82  C   UNL A   1      36.229  32.250  30.894  1.00  0.00     0.173 A 
ATOM     83  F   UNL A   1      37.371  33.529  27.692  1.00  0.00    -0.203 F 
ATOM     84  C   UNL A   1      35.309  33.813  28.794  1.00  0.00     0.198 A 
ATOM     85  C   UNL A   1      34.940  32.777  30.926  1.00  0.00     0.198 A 
ATOM     86  F   UNL A   1      36.650  31.507  31.929  1.00  0.00    -0.203 F 
ATOM     87  F   UNL A   1      34.887  34.602  27.797  1.00  0.00    -0.200 F 
ATOM     88  C   UNL A   1      34.485  33.568  29.881  1.00  0.00     0.200 A 
ATOM     89  F   UNL A   1      34.142  32.527  31.972  1.00  0.00    -0.200 F 
ATOM     90  F   UNL A   1      33.257  34.102  29.927  1.00  0.00    -0.200 F 
ENDBRANCH  56  80
BRANCH  68  91
ATOM     91  C   UNL A   1      43.229  35.210  31.586  1.00  0.00     0.064 A 
ATOM     92  C   UNL A   1      43.621  36.245  30.727  1.00  0.00     0.173 A 
ATOM     93  C   UNL A   1      43.179  35.481  32.962  1.00  0.00     0.173 A 
ATOM     94  F   UNL A   1      43.702  36.031  29.405  1.00  0.00    -0.203 F 
ATOM     95  C   UNL A   1      43.972  37.496  31.228  1.00  0.00     0.198 A 
ATOM     96  C   UNL A   1      43.501  36.741  33.457  1.00  0.00     0.198 A 
ATOM     97  F   UNL A   1      42.804  34.526  33.827  1.00  0.00    -0.203 F 
ATOM     98  F   UNL A   1      44.390  38.458  30.391  1.00  0.00    -0.200 F 
ATOM     99  C   UNL A   1      43.906  37.746  32.591  1.00  0.00     0.200 A 
ATOM    100  F   UNL A   1      43.423  36.984  34.773  1.00  0.00    -0.200 F 
ATOM    101  F   UNL A   1      44.237  38.952  33.069  1.00  0.00    -0.200 F 
ENDBRANCH  68  91
ENDBRANCH  42  43
ENDBRANCH  34  37
ENDBRANCH  32  33
ENDBRANCH  31  32
ENDBRANCH  30  31
ENDBRANCH   1  30
TORSDOF 17
ENDMDL
MODEL 2
REMARK VINA RESULT:     -12.1      4.091      9.261
REMARK SMILES CN(C)c1ccc(CCC(=O)N2C[C@@H](C(=O)NCCCCNC(=O)c3ccc(-c4c5nc(c(-c6c(F)c(F)c(F)c(F)c6F)c6ccc([nH]6)c(-c6c(F)c(F)c(F)c(F)c6F)c6nc(c(-c7c(F)c(F)c(F)c(F)c7F)c7ccc4[nH]7)C=C6)C=C5)cc3)[C@H](c3cccnc3)C2)cc1
REMARK SMILES IDX 18 1 17 2 15 3 16 4 14 6 12 7 13 8 95 9 88 10 10 11 11 12
REMARK SMILES IDX 9 13 8 14 7 15 4 16 5 17 97 18 6 19 96 20 2 21 1 22 3 23
REMARK SMILES IDX 89 24 90 25 94 26 91 27 93 28 92 29 19 30 20 31 21 32 22 33
REMARK SMILES IDX 23 34 24 36 25 37 26 38 87 39 27 40 86 41 28 42 29 43 30 44
REMARK SMILES IDX 80 45 31 46 85 47 79 48 81 49 32 50 84 51 78 52 77 53 33 55
REMARK SMILES IDX 65 56 45 57 64 58 46 59 49 60 63 61 82 62 47 63 48 64 62 66
REMARK SMILES IDX 83 67 50 68 34 69 35 70 43 71 36 72 37 73 41 74 44 75 38 76
REMARK SMILES IDX 39 77 42 78 40 79 66 80 67 81 75 82 68 83 69 84 73 85 76 86
REMARK SMILES IDX 70 87 71 88 74 89 72 90 51 91 52 92 60 93 53 94 54 95 58 96
REMARK SMILES IDX 61 97 55 98 56 99 59 100 57 101
REMARK H PARENT 17 5 22 35 81 54 49 65
REMARK Flexibility Score: inf
ROOT
ATOM      1  C   UNL A   1      32.885  30.090  26.458  1.00  0.00     0.116 C 
ENDROOT
BRANCH   1   2
ATOM      2  N   UNL A   1      33.500  29.756  25.190  1.00  0.00    -0.356 N 
ATOM      3  C   UNL A   1      33.246  28.852  24.220  1.00  0.00     0.225 C 
ATOM      4  O   UNL A   1      34.134  28.789  23.356  1.00  0.00    -0.275 OA
ATOM      5  H   UNL A   1      34.283  30.318  24.988  1.00  0.00     0.163 HD
BRANCH   3   6
ATOM      6  C   UNL A   1      32.013  27.962  24.041  1.00  0.00     0.107 C 
ATOM      7  N   UNL A   1      31.470  25.820  23.134  1.00  0.00    -0.341 N 
ATOM      8  C   UNL A   1      32.010  26.473  24.294  1.00  0.00     0.133 C 
ATOM      9  C   UNL A   1      31.450  26.741  22.015  1.00  0.00     0.128 C 
ATOM     10  C   UNL A   1      31.352  28.154  22.641  1.00  0.00     0.054 C 
BRANCH   7  11
ATOM     11  C   UNL A   1      31.353  24.450  22.993  1.00  0.00     0.222 C 
ATOM     12  O   UNL A   1      30.387  23.846  23.465  1.00  0.00    -0.275 OA
BRANCH  11  13
ATOM     13  C   UNL A   1      32.524  23.668  22.372  1.00  0.00     0.105 C 
BRANCH  13  14
ATOM     14  C   UNL A   1      33.709  23.239  23.257  1.00  0.00     0.045 C 
BRANCH  14  15
ATOM     15  C   UNL A   1      33.508  21.882  23.902  1.00  0.00    -0.047 A 
ATOM     16  C   UNL A   1      33.561  19.112  24.456  1.00  0.00     0.036 A 
ATOM     17  C   UNL A   1      32.543  19.686  23.699  1.00  0.00     0.026 A 
ATOM     18  C   UNL A   1      34.467  19.971  25.073  1.00  0.00     0.026 A 
ATOM     19  C   UNL A   1      32.469  21.062  23.472  1.00  0.00     0.006 A 
ATOM     20  C   UNL A   1      34.447  21.347  24.796  1.00  0.00     0.006 A 
BRANCH  16  21
ATOM     21  N   UNL A   1      33.742  17.726  24.498  1.00  0.00    -0.378 N 
ATOM     22  C   UNL A   1      33.055  17.019  25.572  1.00  0.00     0.143 C 
ATOM     23  C   UNL A   1      33.707  17.085  23.182  1.00  0.00     0.143 C 
ENDBRANCH  16  21
ENDBRANCH  14  15
ENDBRANCH  13  14
ENDBRANCH  11  13
ENDBRANCH   7  11
BRANCH  10  24
ATOM     24  C   UNL A   1      29.974  28.803  22.769  1.00  0.00    -0.024 A 
ATOM     25  C   UNL A   1      28.852  28.005  23.061  1.00  0.00     0.007 A 
ATOM     26  C   UNL A   1      29.728  30.169  22.671  1.00  0.00     0.115 A 
ATOM     27  C   UNL A   1      27.582  28.560  23.182  1.00  0.00     0.020 A 
ATOM     28  N   UNL A   1      28.504  30.742  22.798  1.00  0.00    -0.264 NA
ATOM     29  C   UNL A   1      27.459  29.926  23.043  1.00  0.00     0.111 A 
ENDBRANCH  10  24
ENDBRANCH   3   6
ENDBRANCH   1   2
BRANCH   1  30
ATOM     30  C   UNL A   1      31.494  30.718  26.300  1.00  0.00     0.023 C 
BRANCH  30  31
ATOM     31  C   UNL A   1      31.395  32.232  26.548  1.00  0.00     0.023 C 
BRANCH  31  32
ATOM     32  C   UNL A   1      32.608  32.915  27.176  1.00  0.00     0.116 C 
BRANCH  32  33
ATOM     33  N   UNL A   1      32.362  34.259  27.659  1.00  0.00    -0.352 N 
ATOM     34  C   UNL A   1      32.994  34.985  28.643  1.00  0.00     0.251 C 
ATOM     35  H   UNL A   1      31.623  34.730  27.210  1.00  0.00     0.163 HD
ATOM     36  O   UNL A   1      32.565  36.083  28.962  1.00  0.00    -0.269 OA
BRANCH  34  37
ATOM     37  C   UNL A   1      34.167  34.423  29.351  1.00  0.00     0.039 A 
ATOM     38  C   UNL A   1      33.949  33.725  30.542  1.00  0.00     0.014 A 
ATOM     39  C   UNL A   1      35.466  34.592  28.867  1.00  0.00     0.014 A 
ATOM     40  C   UNL A   1      35.022  33.119  31.200  1.00  0.00     0.010 A 
ATOM     41  C   UNL A   1      36.528  33.931  29.489  1.00  0.00     0.010 A 
ATOM     42  C   UNL A   1      36.314  33.177  30.654  1.00  0.00    -0.014 A 
BRANCH  42  43
ATOM     43  C   UNL A   1      37.445  32.433  31.275  1.00  0.00     0.031 A 
ATOM     44  C   UNL A   1      37.953  32.814  32.638  1.00  0.00     0.074 A 
ATOM     45  C   UNL A   1      38.053  31.449  30.585  1.00  0.00     0.049 A 
ATOM     46  N   UNL A   1      38.977  32.341  33.302  1.00  0.00    -0.248 NA
ATOM     47  C   UNL A   1      37.226  33.884  33.338  1.00  0.00     0.031 C 
ATOM     48  C   UNL A   1      37.678  31.000  29.242  1.00  0.00     0.029 A 
ATOM     49  N   UNL A   1      39.122  30.650  30.912  1.00  0.00    -0.354 N 
ATOM     50  C   UNL A   1      39.021  33.056  34.493  1.00  0.00     0.074 A 
ATOM     51  C   UNL A   1      37.955  34.034  34.435  1.00  0.00     0.031 C 
ATOM     52  C   UNL A   1      38.488  29.996  28.870  1.00  0.00     0.029 A 
ATOM     53  C   UNL A   1      39.466  29.756  29.927  1.00  0.00     0.049 A 
ATOM     54  H   UNL A   1      39.597  30.714  31.771  1.00  0.00     0.167 HD
ATOM     55  C   UNL A   1      39.857  32.896  35.547  1.00  0.00     0.037 A 
ATOM     56  C   UNL A   1      40.463  28.851  29.876  1.00  0.00     0.037 A 
ATOM     57  C   UNL A   1      40.909  31.915  35.612  1.00  0.00     0.049 A 
ATOM     58  C   UNL A   1      41.398  28.720  31.049  1.00  0.00     0.074 A 
ATOM     59  C   UNL A   1      41.791  31.661  36.648  1.00  0.00     0.029 A 
ATOM     60  N   UNL A   1      41.218  31.021  34.597  1.00  0.00    -0.354 N 
ATOM     61  N   UNL A   1      41.399  29.372  32.186  1.00  0.00    -0.248 NA
ATOM     62  C   UNL A   1      42.473  27.723  30.931  1.00  0.00     0.031 C 
ATOM     63  C   UNL A   1      42.658  30.639  36.247  1.00  0.00     0.029 A 
ATOM     64  C   UNL A   1      42.286  30.223  34.979  1.00  0.00     0.049 A 
ATOM     65  H   UNL A   1      40.749  30.961  33.733  1.00  0.00     0.167 HD
ATOM     66  C   UNL A   1      42.443  28.839  32.931  1.00  0.00     0.074 A 
ATOM     67  C   UNL A   1      43.048  27.803  32.121  1.00  0.00     0.031 C 
ATOM     68  C   UNL A   1      42.863  29.179  34.173  1.00  0.00     0.037 A 
BRANCH  55  69
ATOM     69  C   UNL A   1      39.661  33.801  36.729  1.00  0.00     0.064 A 
ATOM     70  C   UNL A   1      38.863  33.418  37.817  1.00  0.00     0.173 A 
ATOM     71  C   UNL A   1      40.310  35.043  36.798  1.00  0.00     0.173 A 
ATOM     72  F   UNL A   1      38.213  32.245  37.798  1.00  0.00    -0.203 F 
ATOM     73  C   UNL A   1      38.700  34.256  38.917  1.00  0.00     0.198 A 
ATOM     74  C   UNL A   1      40.170  35.865  37.913  1.00  0.00     0.198 A 
ATOM     75  F   UNL A   1      41.092  35.454  35.788  1.00  0.00    -0.203 F 
ATOM     76  F   UNL A   1      37.894  33.889  39.924  1.00  0.00    -0.200 F 
ATOM     77  C   UNL A   1      39.358  35.475  38.968  1.00  0.00     0.200 A 
ATOM     78  F   UNL A   1      40.819  37.038  37.966  1.00  0.00    -0.200 F 
ATOM     79  F   UNL A   1      39.207  36.277  40.031  1.00  0.00    -0.200 F 
ENDBRANCH  55  69
BRANCH  56  80
ATOM     80  C   UNL A   1      40.626  27.979  28.684  1.00  0.00     0.064 A 
ATOM     81  C   UNL A   1      41.402  28.393  27.592  1.00  0.00     0.173 A 
ATOM     82  C   UNL A   1      39.986  26.734  28.593  1.00  0.00     0.173 A 
ATOM     83  F   UNL A   1      42.015  29.586  27.621  1.00  0.00    -0.203 F 
ATOM     84  C   UNL A   1      41.508  27.611  26.444  1.00  0.00     0.198 A 
ATOM     85  C   UNL A   1      40.118  25.939  27.457  1.00  0.00     0.198 A 
ATOM     86  F   UNL A   1      39.236  26.288  29.611  1.00  0.00    -0.203 F 
ATOM     87  F   UNL A   1      42.208  28.059  25.393  1.00  0.00    -0.200 F 
ATOM     88  C   UNL A   1      40.869  26.383  26.378  1.00  0.00     0.200 A 
ATOM     89  F   UNL A   1      39.510  24.746  27.402  1.00  0.00    -0.200 F 
ATOM     90  F   UNL A   1      40.968  25.632  25.273  1.00  0.00    -0.200 F 
ENDBRANCH  56  80
BRANCH  68  91
ATOM     91  C   UNL A   1      43.997  28.388  34.758  1.00  0.00     0.064 A 
ATOM     92  C   UNL A   1      45.331  28.793  34.615  1.00  0.00     0.173 A 
ATOM     93  C   UNL A   1      43.738  27.228  35.505  1.00  0.00     0.173 A 
ATOM     94  F   UNL A   1      45.632  29.885  33.896  1.00  0.00    -0.203 F 
ATOM     95  C   UNL A   1      46.368  28.052  35.177  1.00  0.00     0.198 A 
ATOM     96  C   UNL A   1      44.774  26.507  36.091  1.00  0.00     0.198 A 
ATOM     97  F   UNL A   1      42.479  26.802  35.677  1.00  0.00    -0.203 F 
ATOM     98  F   UNL A   1      47.640  28.431  34.986  1.00  0.00    -0.200 F 
ATOM     99  C   UNL A   1      46.089  26.914  35.920  1.00  0.00     0.200 A 
ATOM    100  F   UNL A   1      44.502  25.415  36.820  1.00  0.00    -0.200 F 
ATOM    101  F   UNL A   1      47.087  26.207  36.466  1.00  0.00    -0.200 F 
ENDBRANCH  68  91
ENDBRANCH  42  43
ENDBRANCH  34  37
ENDBRANCH  32  33
ENDBRANCH  31  32
ENDBRANCH  30  31
ENDBRANCH   1  30
TORSDOF 17
ENDMDL
MODEL 3
REMARK VINA RESULT:     -12.1      2.570      4.756
REMARK SMILES CN(C)c1ccc(CCC(=O)N2C[C@@H](C(=O)NCCCCNC(=O)c3ccc(-c4c5nc(c(-c6c(F)c(F)c(F)c(F)c6F)c6ccc([nH]6)c(-c6c(F)c(F)c(F)c(F)c6F)c6nc(c(-c7c(F)c(F)c(F)c(F)c7F)c7ccc4[nH]7)C=C6)C=C5)cc3)[C@H](c3cccnc3)C2)cc1
REMARK SMILES IDX 18 1 17 2 15 3 16 4 14 6 12 7 13 8 95 9 88 10 10 11 11 12
REMARK SMILES IDX 9 13 8 14 7 15 4 16 5 17 97 18 6 19 96 20 2 21 1 22 3 23
REMARK SMILES IDX 89 24 90 25 94 26 91 27 93 28 92 29 19 30 20 31 21 32 22 33
REMARK SMILES IDX 23 34 24 36 25 37 26 38 87 39 27 40 86 41 28 42 29 43 30 44
REMARK SMILES IDX 80 45 31 46 85 47 79 48 81 49 32 50 84 51 78 52 77 53 33 55
REMARK SMILES IDX 65 56 45 57 64 58 46 59 49 60 63 61 82 62 47 63 48 64 62 66
REMARK SMILES IDX 83 67 50 68 34 69 35 70 43 71 36 72 37 73 41 74 44 75 38 76
REMARK SMILES IDX 39 77 42 78 40 79 66 80 67 81 75 82 68 83 69 84 73 85 76 86
REMARK SMILES IDX 70 87 71 88 74 89 72 90 51 91 52 92 60 93 53 94 54 95 58 96
REMARK SMILES IDX 61 97 55 98 56 99 59 100 57 101
REMARK H PARENT 17 5 22 35 81 54 49 65
REMARK Flexibility Score: inf
ROOT
ATOM      1  C   UNL A   1      37.716  23.180  25.857  1.00  0.00     0.116 C 
ENDROOT
BRANCH   1   2
ATOM      2  N   UNL A   1      37.374  23.188  24.449  1.00  0.00    -0.356 N 
ATOM      3  C   UNL A   1      36.274  22.863  23.737  1.00  0.00     0.225 C 
ATOM      4  O   UNL A   1      36.460  22.861  22.511  1.00  0.00    -0.275 OA
ATOM      5  H   UNL A   1      38.114  23.503  23.881  1.00  0.00     0.163 HD
BRANCH   3   6
ATOM      6  C   UNL A   1      34.863  22.555  24.245  1.00  0.00     0.107 C 
ATOM      7  N   UNL A   1      33.360  23.335  25.930  1.00  0.00    -0.341 N 
ATOM      8  C   UNL A   1      33.853  23.619  24.611  1.00  0.00     0.133 C 
ATOM      9  C   UNL A   1      34.226  22.376  26.586  1.00  0.00     0.128 C 
ATOM     10  C   UNL A   1      34.878  21.558  25.444  1.00  0.00     0.054 C 
BRANCH   7  11
ATOM     11  C   UNL A   1      32.448  24.123  26.607  1.00  0.00     0.222 C 
ATOM     12  O   UNL A   1      31.737  23.647  27.495  1.00  0.00    -0.275 OA
BRANCH  11  13
ATOM     13  C   UNL A   1      32.223  25.569  26.131  1.00  0.00     0.105 C 
BRANCH  13  14
ATOM     14  C   UNL A   1      30.788  26.099  25.954  1.00  0.00     0.045 C 
BRANCH  14  15
ATOM     15  C   UNL A   1      30.673  27.151  24.868  1.00  0.00    -0.047 A 
ATOM     16  C   UNL A   1      29.824  29.339  23.295  1.00  0.00     0.036 A 
ATOM     17  C   UNL A   1      29.339  28.052  23.080  1.00  0.00     0.026 A 
ATOM     18  C   UNL A   1      30.869  29.488  24.205  1.00  0.00     0.026 A 
ATOM     19  C   UNL A   1      29.797  26.951  23.806  1.00  0.00     0.006 A 
ATOM     20  C   UNL A   1      31.290  28.405  24.991  1.00  0.00     0.006 A 
BRANCH  16  21
ATOM     21  N   UNL A   1      29.211  30.454  22.716  1.00  0.00    -0.378 N 
ATOM     22  C   UNL A   1      28.194  30.178  21.709  1.00  0.00     0.143 C 
ATOM     23  C   UNL A   1      28.898  31.520  23.670  1.00  0.00     0.143 C 
ENDBRANCH  16  21
ENDBRANCH  14  15
ENDBRANCH  13  14
ENDBRANCH  11  13
ENDBRANCH   7  11
BRANCH  10  24
ATOM     24  C   UNL A   1      34.250  20.220  25.052  1.00  0.00    -0.024 A 
ATOM     25  C   UNL A   1      35.079  19.135  24.711  1.00  0.00     0.007 A 
ATOM     26  C   UNL A   1      32.885  19.953  25.055  1.00  0.00     0.115 A 
ATOM     27  C   UNL A   1      34.544  17.903  24.347  1.00  0.00     0.020 A 
ATOM     28  N   UNL A   1      32.333  18.758  24.719  1.00  0.00    -0.264 NA
ATOM     29  C   UNL A   1      33.172  17.765  24.366  1.00  0.00     0.111 A 
ENDBRANCH  10  24
ENDBRANCH   3   6
ENDBRANCH   1   2
BRANCH   1  30
ATOM     30  C   UNL A   1      39.049  22.476  26.143  1.00  0.00     0.023 C 
BRANCH  30  31
ATOM     31  C   UNL A   1      39.289  21.142  25.419  1.00  0.00     0.023 C 
BRANCH  31  32
ATOM     32  C   UNL A   1      39.400  19.889  26.285  1.00  0.00     0.116 C 
BRANCH  32  33
ATOM     33  N   UNL A   1      40.533  19.040  25.977  1.00  0.00    -0.352 N 
ATOM     34  C   UNL A   1      41.883  19.311  25.988  1.00  0.00     0.251 C 
ATOM     35  H   UNL A   1      40.301  18.119  25.717  1.00  0.00     0.163 HD
ATOM     36  O   UNL A   1      42.678  18.470  25.600  1.00  0.00    -0.269 OA
BRANCH  34  37
ATOM     37  C   UNL A   1      42.375  20.637  26.427  1.00  0.00     0.039 A 
ATOM     38  C   UNL A   1      42.891  21.505  25.461  1.00  0.00     0.014 A 
ATOM     39  C   UNL A   1      42.351  21.021  27.770  1.00  0.00     0.014 A 
ATOM     40  C   UNL A   1      43.299  22.791  25.825  1.00  0.00     0.010 A 
ATOM     41  C   UNL A   1      42.697  22.328  28.123  1.00  0.00     0.010 A 
ATOM     42  C   UNL A   1      43.161  23.230  27.152  1.00  0.00    -0.014 A 
BRANCH  42  43
ATOM     43  C   UNL A   1      43.473  24.635  27.532  1.00  0.00     0.031 A 
ATOM     44  C   UNL A   1      44.899  25.098  27.643  1.00  0.00     0.074 A 
ATOM     45  C   UNL A   1      42.469  25.481  27.835  1.00  0.00     0.049 A 
ATOM     46  N   UNL A   1      45.366  26.255  28.042  1.00  0.00    -0.248 NA
ATOM     47  C   UNL A   1      45.939  24.124  27.278  1.00  0.00     0.031 C 
ATOM     48  C   UNL A   1      41.043  25.151  27.797  1.00  0.00     0.029 A 
ATOM     49  N   UNL A   1      42.492  26.793  28.244  1.00  0.00    -0.354 N 
ATOM     50  C   UNL A   1      46.750  26.147  27.980  1.00  0.00     0.074 A 
ATOM     51  C   UNL A   1      47.048  24.794  27.560  1.00  0.00     0.031 C 
ATOM     52  C   UNL A   1      40.329  26.233  28.145  1.00  0.00     0.029 A 
ATOM     53  C   UNL A   1      41.245  27.322  28.473  1.00  0.00     0.049 A 
ATOM     54  H   UNL A   1      43.324  27.304  28.362  1.00  0.00     0.167 HD
ATOM     55  C   UNL A   1      47.685  27.095  28.227  1.00  0.00     0.037 A 
ATOM     56  C   UNL A   1      40.879  28.545  28.907  1.00  0.00     0.037 A 
ATOM     57  C   UNL A   1      47.391  28.445  28.631  1.00  0.00     0.049 A 
ATOM     58  C   UNL A   1      41.943  29.567  29.207  1.00  0.00     0.074 A 
ATOM     59  C   UNL A   1      48.271  29.485  28.881  1.00  0.00     0.029 A 
ATOM     60  N   UNL A   1      46.114  28.945  28.843  1.00  0.00    -0.354 N 
ATOM     61  N   UNL A   1      43.245  29.465  29.100  1.00  0.00    -0.248 NA
ATOM     62  C   UNL A   1      41.484  30.879  29.687  1.00  0.00     0.031 C 
ATOM     63  C   UNL A   1      47.530  30.603  29.278  1.00  0.00     0.029 A 
ATOM     64  C   UNL A   1      46.185  30.275  29.231  1.00  0.00     0.049 A 
ATOM     65  H   UNL A   1      45.281  28.432  28.733  1.00  0.00     0.167 HD
ATOM     66  C   UNL A   1      43.756  30.705  29.460  1.00  0.00     0.074 A 
ATOM     67  C   UNL A   1      42.624  31.548  29.779  1.00  0.00     0.031 C 
ATOM     68  C   UNL A   1      45.049  31.109  29.522  1.00  0.00     0.037 A 
BRANCH  55  69
ATOM     69  C   UNL A   1      49.126  26.708  28.055  1.00  0.00     0.064 A 
ATOM     70  C   UNL A   1      49.732  26.690  26.790  1.00  0.00     0.173 A 
ATOM     71  C   UNL A   1      49.922  26.393  29.167  1.00  0.00     0.173 A 
ATOM     72  F   UNL A   1      49.013  26.973  25.694  1.00  0.00    -0.203 F 
ATOM     73  C   UNL A   1      51.073  26.346  26.641  1.00  0.00     0.198 A 
ATOM     74  C   UNL A   1      51.270  26.079  29.018  1.00  0.00     0.198 A 
ATOM     75  F   UNL A   1      49.395  26.403  30.401  1.00  0.00    -0.203 F 
ATOM     76  F   UNL A   1      51.617  26.290  25.417  1.00  0.00    -0.200 F 
ATOM     77  C   UNL A   1      51.842  26.048  27.755  1.00  0.00     0.200 A 
ATOM     78  F   UNL A   1      52.017  25.806  30.098  1.00  0.00    -0.200 F 
ATOM     79  F   UNL A   1      53.136  25.725  27.611  1.00  0.00    -0.200 F 
ENDBRANCH  55  69
BRANCH  56  80
ATOM     80  C   UNL A   1      39.442  28.885  29.069  1.00  0.00     0.064 A 
ATOM     81  C   UNL A   1      38.695  29.379  27.989  1.00  0.00     0.173 A 
ATOM     82  C   UNL A   1      38.793  28.759  30.306  1.00  0.00     0.173 A 
ATOM     83  F   UNL A   1      39.277  29.540  26.792  1.00  0.00    -0.203 F 
ATOM     84  C   UNL A   1      37.365  29.762  28.149  1.00  0.00     0.198 A 
ATOM     85  C   UNL A   1      37.454  29.113  30.456  1.00  0.00     0.198 A 
ATOM     86  F   UNL A   1      39.460  28.287  31.370  1.00  0.00    -0.203 F 
ATOM     87  F   UNL A   1      36.693  30.285  27.114  1.00  0.00    -0.200 F 
ATOM     88  C   UNL A   1      36.744  29.625  29.380  1.00  0.00     0.200 A 
ATOM     89  F   UNL A   1      36.853  28.966  31.645  1.00  0.00    -0.200 F 
ATOM     90  F   UNL A   1      35.466  29.996  29.533  1.00  0.00    -0.200 F 
ENDBRANCH  56  80
BRANCH  68  91
ATOM     91  C   UNL A   1      45.307  32.539  29.897  1.00  0.00     0.064 A 
ATOM     92  C   UNL A   1      45.337  33.560  28.937  1.00  0.00     0.173 A 
ATOM     93  C   UNL A   1      45.489  32.896  31.242  1.00  0.00     0.173 A 
ATOM     94  F   UNL A   1      45.185  33.268  27.636  1.00  0.00    -0.203 F 
ATOM     95  C   UNL A   1      45.565  34.883  29.307  1.00  0.00     0.198 A 
ATOM     96  C   UNL A   1      45.686  34.223  31.612  1.00  0.00     0.198 A 
ATOM     97  F   UNL A   1      45.463  31.957  32.200  1.00  0.00    -0.203 F 
ATOM     98  F   UNL A   1      45.637  35.837  28.367  1.00  0.00    -0.200 F 
ATOM     99  C   UNL A   1      45.732  35.215  30.643  1.00  0.00     0.200 A 
ATOM    100  F   UNL A   1      45.835  34.543  32.905  1.00  0.00    -0.200 F 
ATOM    101  F   UNL A   1      45.944  36.489  30.998  1.00  0.00    -0.200 F 
ENDBRANCH  68  91
ENDBRANCH  42  43
ENDBRANCH  34  37
ENDBRANCH  32  33
ENDBRANCH  31  32
ENDBRANCH  30  31
ENDBRANCH   1  30
TORSDOF 17
ENDMDL
