MODEL 1
REMARK VINA RESULT:     -12.0      0.000      0.000
REMARK SMILES O=C(NCCCCNC(=O)C1CCN(S(=O)(=O)c2ccc3nc(O)sc3c2)CC1)c1ccc(-c2c3nc(c(-c4c(F)c(F)c(F)c(F)c4F)c4ccc([nH]4)c(-c4c(F)c(F)c(F)c(F)c4F)c4nc(c(-c5c(F)c(F)c(F)c(F)c5F)c5ccc2[nH]5)C=C4)C=C3)cc1
REMARK SMILES IDX 6 1 5 2 4 3 3 4 1 5 2 6 30 8 31 9 92 10 32 11 91 12 33 13
REMARK SMILES IDX 34 14 35 15 85 16 36 17 90 18 84 19 86 20 37 21 89 22 83 23
REMARK SMILES IDX 82 24 38 26 70 27 50 28 69 29 51 30 54 31 68 32 87 33 52 34
REMARK SMILES IDX 53 35 67 37 88 38 55 39 39 40 40 41 48 42 41 43 42 44 46 45
REMARK SMILES IDX 49 46 43 47 44 48 47 49 45 50 71 51 72 52 80 53 73 54 74 55
REMARK SMILES IDX 78 56 81 57 75 58 76 59 79 60 77 61 56 62 57 63 65 64 58 65
REMARK SMILES IDX 59 66 63 67 66 68 60 69 61 70 64 71 62 72 7 73 8 74 9 75
REMARK SMILES IDX 10 77 11 78 12 79 29 80 13 81 28 82 14 83 15 84 16 85 17 86
REMARK SMILES IDX 18 87 19 88 27 89 20 90 26 91 21 92 25 93 22 94 23 95 24 96
REMARK H PARENT 3 7 86 25 54 36 8 76 24 97
REMARK Flexibility Score: inf
ROOT
ATOM      1  C   UNL A   1      44.167  32.052  26.856  1.00  0.00     0.023 C 
ENDROOT
BRANCH   1   2
ATOM      2  C   UNL A   1      44.858  32.958  25.823  1.00  0.00     0.023 C 
BRANCH   2   3
ATOM      3  C   UNL A   1      44.011  34.095  25.219  1.00  0.00     0.116 C 
BRANCH   3   4
ATOM      4  N   UNL A   1      44.404  35.387  25.751  1.00  0.00    -0.352 N 
ATOM      5  O   UNL A   1      44.268  37.262  26.940  1.00  0.00    -0.269 OA
ATOM      6  C   UNL A   1      44.039  36.054  26.886  1.00  0.00     0.251 C 
ATOM      7  H   UNL A   1      45.054  35.872  25.192  1.00  0.00     0.163 HD
BRANCH   6   8
ATOM      8  C   UNL A   1      43.440  35.393  28.065  1.00  0.00     0.039 A 
ATOM      9  C   UNL A   1      44.322  34.802  28.982  1.00  0.00     0.014 A 
ATOM     10  C   UNL A   1      42.069  35.141  28.160  1.00  0.00     0.014 A 
ATOM     11  C   UNL A   1      43.843  33.944  29.970  1.00  0.00     0.010 A 
ATOM     12  C   UNL A   1      41.590  34.278  29.153  1.00  0.00     0.010 A 
ATOM     13  C   UNL A   1      42.475  33.664  30.052  1.00  0.00    -0.014 A 
BRANCH  13  14
ATOM     14  C   UNL A   1      42.028  32.773  31.143  1.00  0.00     0.031 A 
ATOM     15  C   UNL A   1      40.589  32.939  31.525  1.00  0.00     0.074 A 
ATOM     16  C   UNL A   1      42.621  31.578  31.367  1.00  0.00     0.049 A 
ATOM     17  N   UNL A   1      39.616  32.422  30.831  1.00  0.00    -0.248 NA
ATOM     18  C   UNL A   1      40.144  33.915  32.520  1.00  0.00     0.031 C 
ATOM     19  C   UNL A   1      43.238  30.754  30.320  1.00  0.00     0.029 A 
ATOM     20  N   UNL A   1      42.655  30.773  32.486  1.00  0.00    -0.354 N 
ATOM     21  C   UNL A   1      38.441  33.012  31.256  1.00  0.00     0.074 A 
ATOM     22  C   UNL A   1      38.817  33.929  32.310  1.00  0.00     0.031 C 
ATOM     23  C   UNL A   1      43.430  29.509  30.800  1.00  0.00     0.029 A 
ATOM     24  C   UNL A   1      43.088  29.471  32.221  1.00  0.00     0.049 A 
ATOM     25  H   UNL A   1      42.397  31.085  33.383  1.00  0.00     0.167 HD
ATOM     26  C   UNL A   1      37.230  32.701  30.719  1.00  0.00     0.037 A 
ATOM     27  C   UNL A   1      42.601  28.361  32.850  1.00  0.00     0.037 A 
ATOM     28  C   UNL A   1      37.246  31.692  29.700  1.00  0.00     0.049 A 
ATOM     29  C   UNL A   1      41.189  28.322  32.305  1.00  0.00     0.074 A 
ATOM     30  C   UNL A   1      37.161  31.601  28.329  1.00  0.00     0.029 A 
ATOM     31  N   UNL A   1      37.377  30.389  30.117  1.00  0.00    -0.354 N 
ATOM     32  N   UNL A   1      40.825  27.918  31.115  1.00  0.00    -0.248 NA
ATOM     33  C   UNL A   1      40.189  29.123  33.011  1.00  0.00     0.031 C 
ATOM     34  C   UNL A   1      37.732  30.326  27.999  1.00  0.00     0.029 A 
ATOM     35  C   UNL A   1      38.150  29.741  29.193  1.00  0.00     0.049 A 
ATOM     36  H   UNL A   1      36.987  29.995  30.930  1.00  0.00     0.167 HD
ATOM     37  C   UNL A   1      39.662  28.636  30.820  1.00  0.00     0.074 A 
ATOM     38  C   UNL A   1      39.327  29.354  32.032  1.00  0.00     0.031 C 
ATOM     39  C   UNL A   1      39.131  28.746  29.567  1.00  0.00     0.037 A 
BRANCH  26  40
ATOM     40  C   UNL A   1      35.927  33.114  31.275  1.00  0.00     0.064 A 
ATOM     41  C   UNL A   1      35.210  34.085  30.558  1.00  0.00     0.173 A 
ATOM     42  C   UNL A   1      35.497  32.789  32.562  1.00  0.00     0.173 A 
ATOM     43  F   UNL A   1      35.602  34.429  29.319  1.00  0.00    -0.203 F 
ATOM     44  C   UNL A   1      34.137  34.756  31.129  1.00  0.00     0.198 A 
ATOM     45  C   UNL A   1      34.405  33.451  33.128  1.00  0.00     0.198 A 
ATOM     46  F   UNL A   1      36.157  31.875  33.290  1.00  0.00    -0.203 F 
ATOM     47  F   UNL A   1      33.520  35.727  30.442  1.00  0.00    -0.200 F 
ATOM     48  C   UNL A   1      33.741  34.447  32.419  1.00  0.00     0.200 A 
ATOM     49  F   UNL A   1      34.015  33.157  34.376  1.00  0.00    -0.200 F 
ATOM     50  F   UNL A   1      32.728  35.118  32.983  1.00  0.00    -0.200 F 
ENDBRANCH  26  40
BRANCH  27  51
ATOM     51  C   UNL A   1      42.919  28.248  34.315  1.00  0.00     0.064 A 
ATOM     52  C   UNL A   1      42.250  27.267  35.077  1.00  0.00     0.173 A 
ATOM     53  C   UNL A   1      43.849  29.033  35.015  1.00  0.00     0.173 A 
ATOM     54  F   UNL A   1      41.245  26.562  34.533  1.00  0.00    -0.203 F 
ATOM     55  C   UNL A   1      42.610  26.978  36.394  1.00  0.00     0.198 A 
ATOM     56  C   UNL A   1      44.234  28.723  36.323  1.00  0.00     0.198 A 
ATOM     57  F   UNL A   1      44.424  30.101  34.445  1.00  0.00    -0.203 F 
ATOM     58  F   UNL A   1      41.983  25.995  37.056  1.00  0.00    -0.200 F 
ATOM     59  C   UNL A   1      43.632  27.678  37.002  1.00  0.00     0.200 A 
ATOM     60  F   UNL A   1      45.215  29.422  36.911  1.00  0.00    -0.200 F 
ATOM     61  F   UNL A   1      44.036  27.352  38.237  1.00  0.00    -0.200 F 
ENDBRANCH  27  51
BRANCH  39  62
ATOM     62  C   UNL A   1      39.766  27.908  28.512  1.00  0.00     0.064 A 
ATOM     63  C   UNL A   1      39.428  26.555  28.393  1.00  0.00     0.173 A 
ATOM     64  C   UNL A   1      40.651  28.453  27.568  1.00  0.00     0.173 A 
ATOM     65  F   UNL A   1      38.571  25.991  29.260  1.00  0.00    -0.203 F 
ATOM     66  C   UNL A   1      39.938  25.780  27.356  1.00  0.00     0.198 A 
ATOM     67  C   UNL A   1      41.135  27.682  26.515  1.00  0.00     0.198 A 
ATOM     68  F   UNL A   1      41.028  29.740  27.641  1.00  0.00    -0.203 F 
ATOM     69  F   UNL A   1      39.592  24.489  27.255  1.00  0.00    -0.200 F 
ATOM     70  C   UNL A   1      40.777  26.348  26.408  1.00  0.00     0.200 A 
ATOM     71  F   UNL A   1      41.929  28.238  25.588  1.00  0.00    -0.200 F 
ATOM     72  F   UNL A   1      41.226  25.612  25.383  1.00  0.00    -0.200 F 
ENDBRANCH  39  62
ENDBRANCH  13  14
ENDBRANCH   6   8
ENDBRANCH   3   4
ENDBRANCH   2   3
ENDBRANCH   1   2
BRANCH   1  73
ATOM     73  C   UNL A   1      44.368  30.551  26.678  1.00  0.00     0.116 C 
BRANCH  73  74
ATOM     74  N   UNL A   1      45.673  30.160  26.179  1.00  0.00    -0.356 N 
ATOM     75  C   UNL A   1      46.485  29.094  26.407  1.00  0.00     0.223 C 
ATOM     76  H   UNL A   1      46.050  30.805  25.537  1.00  0.00     0.163 HD
ATOM     77  O   UNL A   1      47.387  28.945  25.571  1.00  0.00    -0.275 OA
BRANCH  75  78
ATOM     78  C   UNL A   1      46.462  28.154  27.635  1.00  0.00     0.081 C 
ATOM     79  C   UNL A   1      47.452  26.989  27.448  1.00  0.00     0.030 C 
ATOM     80  C   UNL A   1      45.185  27.510  28.128  1.00  0.00     0.030 C 
ATOM     81  C   UNL A   1      46.959  25.989  26.404  1.00  0.00     0.103 C 
ATOM     82  C   UNL A   1      44.609  26.564  27.097  1.00  0.00     0.103 C 
ATOM     83  N   UNL A   1      45.542  25.513  26.632  1.00  0.00    -0.198 NA
BRANCH  83  84
ATOM     84  S   UNL A   1      44.977  24.715  25.177  1.00  0.00     0.243 S 
ATOM     85  O   UNL A   1      43.923  25.536  24.623  1.00  0.00    -0.207 OA
ATOM     86  O   UNL A   1      46.146  24.372  24.389  1.00  0.00    -0.207 OA
BRANCH  84  87
ATOM     87  C   UNL A   1      44.193  23.201  25.718  1.00  0.00     0.084 A 
ATOM     88  C   UNL A   1      43.086  23.294  26.574  1.00  0.00     0.024 A 
ATOM     89  C   UNL A   1      44.589  21.973  25.179  1.00  0.00     0.043 A 
ATOM     90  C   UNL A   1      42.399  22.147  26.976  1.00  0.00     0.031 A 
ATOM     91  C   UNL A   1      43.852  20.834  25.557  1.00  0.00     0.059 A 
ATOM     92  C   UNL A   1      42.778  20.896  26.453  1.00  0.00     0.085 A 
ATOM     93  S   UNL A   1      44.039  19.194  25.045  1.00  0.00    -0.077 S 
ATOM     94  N   UNL A   1      42.157  19.691  26.733  1.00  0.00    -0.203 NA
ATOM     95  C   UNL A   1      42.733  18.752  26.035  1.00  0.00     0.271 A 
BRANCH  95  96
ATOM     96  O   UNL A   1      42.279  17.518  26.129  1.00  0.00    -0.486 OA
ATOM     97  H   UNL A   1      42.438  17.018  26.906  1.00  0.00     0.296 HD
ENDBRANCH  95  96
ENDBRANCH  84  87
ENDBRANCH  83  84
ENDBRANCH  75  78
ENDBRANCH  73  74
ENDBRANCH   1  73
TORSDOF 14
ENDMDL
MODEL 2
REMARK VINA RESULT:     -11.8      5.802     10.458
REMARK SMILES O=C(NCCCCNC(=O)C1CCN(S(=O)(=O)c2ccc3nc(O)sc3c2)CC1)c1ccc(-c2c3nc(c(-c4c(F)c(F)c(F)c(F)c4F)c4ccc([nH]4)c(-c4c(F)c(F)c(F)c(F)c4F)c4nc(c(-c5c(F)c(F)c(F)c(F)c5F)c5ccc2[nH]5)C=C4)C=C3)cc1
REMARK SMILES IDX 6 1 5 2 4 3 3 4 1 5 2 6 30 8 31 9 92 10 32 11 91 12 33 13
REMARK SMILES IDX 34 14 35 15 85 16 36 17 90 18 84 19 86 20 37 21 89 22 83 23
REMARK SMILES IDX 82 24 38 26 70 27 50 28 69 29 51 30 54 31 68 32 87 33 52 34
REMARK SMILES IDX 53 35 67 37 88 38 55 39 39 40 40 41 48 42 41 43 42 44 46 45
REMARK SMILES IDX 49 46 43 47 44 48 47 49 45 50 71 51 72 52 80 53 73 54 74 55
REMARK SMILES IDX 78 56 81 57 75 58 76 59 79 60 77 61 56 62 57 63 65 64 58 65
REMARK SMILES IDX 59 66 63 67 66 68 60 69 61 70 64 71 62 72 7 73 8 74 9 75
REMARK SMILES IDX 10 77 11 78 12 79 29 80 13 81 28 82 14 83 15 84 16 85 17 86
REMARK SMILES IDX 18 87 19 88 27 89 20 90 26 91 21 92 25 93 22 94 23 95 24 96
REMARK H PARENT 3 7 86 25 54 36 8 76 24 97
REMARK Flexibility Score: inf
ROOT
ATOM      1  C   UNL A   1      36.372  21.303  25.388  1.00  0.00     0.023 C 
ENDROOT
BRANCH   1   2
ATOM      2  C   UNL A   1      37.733  21.878  24.963  1.00  0.00     0.023 C 
BRANCH   2   3
ATOM      3  C   UNL A   1      38.473  22.749  25.996  1.00  0.00     0.116 C 
BRANCH   3   4
ATOM      4  N   UNL A   1      39.265  21.938  26.902  1.00  0.00    -0.352 N 
ATOM      5  O   UNL A   1      41.065  21.206  27.985  1.00  0.00    -0.269 OA
ATOM      6  C   UNL A   1      40.455  22.173  27.532  1.00  0.00     0.251 C 
ATOM      7  H   UNL A   1      38.874  21.056  27.099  1.00  0.00     0.163 HD
BRANCH   6   8
ATOM      8  C   UNL A   1      41.012  23.526  27.745  1.00  0.00     0.039 A 
ATOM      9  C   UNL A   1      40.166  24.480  28.327  1.00  0.00     0.014 A 
ATOM     10  C   UNL A   1      42.227  23.927  27.184  1.00  0.00     0.014 A 
ATOM     11  C   UNL A   1      40.515  25.829  28.325  1.00  0.00     0.010 A 
ATOM     12  C   UNL A   1      42.576  25.283  27.182  1.00  0.00     0.010 A 
ATOM     13  C   UNL A   1      41.716  26.241  27.738  1.00  0.00    -0.014 A 
BRANCH  13  14
ATOM     14  C   UNL A   1      42.044  27.681  27.800  1.00  0.00     0.031 A 
ATOM     15  C   UNL A   1      40.865  28.590  27.641  1.00  0.00     0.074 A 
ATOM     16  C   UNL A   1      43.117  28.131  28.490  1.00  0.00     0.049 A 
ATOM     17  N   UNL A   1      40.031  28.834  28.611  1.00  0.00    -0.248 NA
ATOM     18  C   UNL A   1      40.390  29.044  26.333  1.00  0.00     0.031 C 
ATOM     19  C   UNL A   1      43.659  27.480  29.689  1.00  0.00     0.029 A 
ATOM     20  N   UNL A   1      43.829  29.309  28.401  1.00  0.00    -0.354 N 
ATOM     21  C   UNL A   1      38.915  29.435  28.061  1.00  0.00     0.074 A 
ATOM     22  C   UNL A   1      39.184  29.549  26.643  1.00  0.00     0.031 C 
ATOM     23  C   UNL A   1      44.490  28.338  30.315  1.00  0.00     0.029 A 
ATOM     24  C   UNL A   1      44.658  29.543  29.503  1.00  0.00     0.049 A 
ATOM     25  H   UNL A   1      43.759  29.925  27.637  1.00  0.00     0.167 HD
ATOM     26  C   UNL A   1      37.841  29.808  28.809  1.00  0.00     0.037 A 
ATOM     27  C   UNL A   1      44.898  30.779  30.028  1.00  0.00     0.037 A 
ATOM     28  C   UNL A   1      37.956  29.568  30.218  1.00  0.00     0.049 A 
ATOM     29  C   UNL A   1      43.538  31.114  30.602  1.00  0.00     0.074 A 
ATOM     30  C   UNL A   1      37.493  28.676  31.159  1.00  0.00     0.029 A 
ATOM     31  N   UNL A   1      38.738  30.439  30.936  1.00  0.00    -0.354 N 
ATOM     32  N   UNL A   1      43.023  30.644  31.710  1.00  0.00    -0.248 NA
ATOM     33  C   UNL A   1      42.570  31.724  29.689  1.00  0.00     0.031 C 
ATOM     34  C   UNL A   1      38.407  28.780  32.261  1.00  0.00     0.029 A 
ATOM     35  C   UNL A   1      39.381  29.712  31.901  1.00  0.00     0.049 A 
ATOM     36  H   UNL A   1      38.823  31.408  30.784  1.00  0.00     0.167 HD
ATOM     37  C   UNL A   1      41.639  30.661  31.511  1.00  0.00     0.074 A 
ATOM     38  C   UNL A   1      41.432  31.342  30.250  1.00  0.00     0.031 C 
ATOM     39  C   UNL A   1      40.748  29.978  32.288  1.00  0.00     0.037 A 
BRANCH  26  40
ATOM     40  C   UNL A   1      36.730  30.653  28.331  1.00  0.00     0.064 A 
ATOM     41  C   UNL A   1      36.867  32.040  28.502  1.00  0.00     0.173 A 
ATOM     42  C   UNL A   1      35.481  30.152  27.961  1.00  0.00     0.173 A 
ATOM     43  F   UNL A   1      38.054  32.555  28.868  1.00  0.00    -0.203 F 
ATOM     44  C   UNL A   1      35.782  32.894  28.369  1.00  0.00     0.198 A 
ATOM     45  C   UNL A   1      34.394  31.015  27.808  1.00  0.00     0.198 A 
ATOM     46  F   UNL A   1      35.298  28.833  27.797  1.00  0.00    -0.203 F 
ATOM     47  F   UNL A   1      35.933  34.203  28.608  1.00  0.00    -0.200 F 
ATOM     48  C   UNL A   1      34.541  32.380  28.033  1.00  0.00     0.200 A 
ATOM     49  F   UNL A   1      33.189  30.525  27.482  1.00  0.00    -0.200 F 
ATOM     50  F   UNL A   1      33.485  33.199  27.938  1.00  0.00    -0.200 F 
ENDBRANCH  26  40
BRANCH  27  51
ATOM     51  C   UNL A   1      45.674  31.723  29.151  1.00  0.00     0.064 A 
ATOM     52  C   UNL A   1      46.942  32.160  29.587  1.00  0.00     0.173 A 
ATOM     53  C   UNL A   1      45.256  32.212  27.904  1.00  0.00     0.173 A 
ATOM     54  F   UNL A   1      47.369  31.861  30.824  1.00  0.00    -0.203 F 
ATOM     55  C   UNL A   1      47.798  32.891  28.763  1.00  0.00     0.198 A 
ATOM     56  C   UNL A   1      46.124  32.915  27.064  1.00  0.00     0.198 A 
ATOM     57  F   UNL A   1      44.009  32.004  27.458  1.00  0.00    -0.203 F 
ATOM     58  F   UNL A   1      49.017  33.233  29.202  1.00  0.00    -0.200 F 
ATOM     59  C   UNL A   1      47.405  33.231  27.483  1.00  0.00     0.200 A 
ATOM     60  F   UNL A   1      45.725  33.256  25.830  1.00  0.00    -0.200 F 
ATOM     61  F   UNL A   1      48.251  33.861  26.659  1.00  0.00    -0.200 F 
ENDBRANCH  27  51
BRANCH  39  62
ATOM     62  C   UNL A   1      41.309  29.319  33.500  1.00  0.00     0.064 A 
ATOM     63  C   UNL A   1      41.847  28.029  33.412  1.00  0.00     0.173 A 
ATOM     64  C   UNL A   1      41.386  29.983  34.735  1.00  0.00     0.173 A 
ATOM     65  F   UNL A   1      41.815  27.359  32.248  1.00  0.00    -0.203 F 
ATOM     66  C   UNL A   1      42.461  27.434  34.509  1.00  0.00     0.198 A 
ATOM     67  C   UNL A   1      42.027  29.395  35.822  1.00  0.00     0.198 A 
ATOM     68  F   UNL A   1      40.870  31.213  34.888  1.00  0.00    -0.203 F 
ATOM     69  F   UNL A   1      42.980  26.203  34.398  1.00  0.00    -0.200 F 
ATOM     70  C   UNL A   1      42.566  28.124  35.708  1.00  0.00     0.200 A 
ATOM     71  F   UNL A   1      42.146  30.072  36.974  1.00  0.00    -0.200 F 
ATOM     72  F   UNL A   1      43.201  27.568  36.749  1.00  0.00    -0.200 F 
ENDBRANCH  39  62
ENDBRANCH  13  14
ENDBRANCH   6   8
ENDBRANCH   3   4
ENDBRANCH   2   3
ENDBRANCH   1   2
BRANCH   1  73
ATOM     73  C   UNL A   1      35.205  21.560  24.442  1.00  0.00     0.116 C 
BRANCH  73  74
ATOM     74  N   UNL A   1      33.917  21.084  24.910  1.00  0.00    -0.356 N 
ATOM     75  C   UNL A   1      32.916  21.645  25.641  1.00  0.00     0.223 C 
ATOM     76  H   UNL A   1      33.727  20.156  24.641  1.00  0.00     0.163 HD
ATOM     77  O   UNL A   1      31.836  21.041  25.584  1.00  0.00    -0.275 OA
BRANCH  75  78
ATOM     78  C   UNL A   1      33.030  22.857  26.595  1.00  0.00     0.081 C 
ATOM     79  C   UNL A   1      31.639  23.446  26.895  1.00  0.00     0.030 C 
ATOM     80  C   UNL A   1      33.903  24.050  26.277  1.00  0.00     0.030 C 
ATOM     81  C   UNL A   1      31.064  24.181  25.685  1.00  0.00     0.103 C 
ATOM     82  C   UNL A   1      33.422  24.772  25.037  1.00  0.00     0.103 C 
ATOM     83  N   UNL A   1      32.005  25.198  25.080  1.00  0.00    -0.198 NA
BRANCH  83  84
ATOM     84  S   UNL A   1      31.397  25.654  23.500  1.00  0.00     0.243 S 
ATOM     85  O   UNL A   1      32.540  25.773  22.622  1.00  0.00    -0.207 OA
ATOM     86  O   UNL A   1      30.302  24.757  23.182  1.00  0.00    -0.207 OA
BRANCH  84  87
ATOM     87  C   UNL A   1      30.741  27.308  23.684  1.00  0.00     0.084 A 
ATOM     88  C   UNL A   1      31.431  28.210  24.506  1.00  0.00     0.024 A 
ATOM     89  C   UNL A   1      29.653  27.723  22.910  1.00  0.00     0.043 A 
ATOM     90  C   UNL A   1      30.997  29.532  24.635  1.00  0.00     0.031 A 
ATOM     91  C   UNL A   1      29.261  29.071  23.015  1.00  0.00     0.059 A 
ATOM     92  C   UNL A   1      29.902  29.976  23.871  1.00  0.00     0.085 A 
ATOM     93  S   UNL A   1      28.008  29.913  22.174  1.00  0.00    -0.077 S 
ATOM     94  N   UNL A   1      29.398  31.265  23.870  1.00  0.00    -0.203 NA
ATOM     95  C   UNL A   1      28.423  31.332  23.008  1.00  0.00     0.271 A 
BRANCH  95  96
ATOM     96  O   UNL A   1      27.812  32.486  22.825  1.00  0.00    -0.486 OA
ATOM     97  H   UNL A   1      28.166  33.269  23.200  1.00  0.00     0.296 HD
ENDBRANCH  95  96
ENDBRANCH  84  87
ENDBRANCH  83  84
ENDBRANCH  75  78
ENDBRANCH  73  74
ENDBRANCH   1  73
TORSDOF 14
ENDMDL
MODEL 3
REMARK VINA RESULT:     -11.7      5.257      9.295
REMARK SMILES O=C(NCCCCNC(=O)C1CCN(S(=O)(=O)c2ccc3nc(O)sc3c2)CC1)c1ccc(-c2c3nc(c(-c4c(F)c(F)c(F)c(F)c4F)c4ccc([nH]4)c(-c4c(F)c(F)c(F)c(F)c4F)c4nc(c(-c5c(F)c(F)c(F)c(F)c5F)c5ccc2[nH]5)C=C4)C=C3)cc1
REMARK SMILES IDX 6 1 5 2 4 3 3 4 1 5 2 6 30 8 31 9 92 10 32 11 91 12 33 13
REMARK SMILES IDX 34 14 35 15 85 16 36 17 90 18 84 19 86 20 37 21 89 22 83 23
REMARK SMILES IDX 82 24 38 26 70 27 50 28 69 29 51 30 54 31 68 32 87 33 52 34
REMARK SMILES IDX 53 35 67 37 88 38 55 39 39 40 40 41 48 42 41 43 42 44 46 45
REMARK SMILES IDX 49 46 43 47 44 48 47 49 45 50 71 51 72 52 80 53 73 54 74 55
REMARK SMILES IDX 78 56 81 57 75 58 76 59 79 60 77 61 56 62 57 63 65 64 58 65
REMARK SMILES IDX 59 66 63 67 66 68 60 69 61 70 64 71 62 72 7 73 8 74 9 75
REMARK SMILES IDX 10 77 11 78 12 79 29 80 13 81 28 82 14 83 15 84 16 85 17 86
REMARK SMILES IDX 18 87 19 88 27 89 20 90 26 91 21 92 25 93 22 94 23 95 24 96
REMARK H PARENT 3 7 86 25 54 36 8 76 24 97
REMARK Flexibility Score: inf
ROOT
ATOM      1  C   UNL A   1      32.133  29.643  25.988  1.00  0.00     0.023 C 
ENDROOT
BRANCH   1   2
ATOM      2  C   UNL A   1      33.616  29.501  26.372  1.00  0.00     0.023 C 
BRANCH   2   3
ATOM      3  C   UNL A   1      34.079  30.241  27.641  1.00  0.00     0.116 C 
BRANCH   3   4
ATOM      4  N   UNL A   1      34.572  31.570  27.328  1.00  0.00    -0.352 N 
ATOM      5  O   UNL A   1      35.609  33.515  27.628  1.00  0.00    -0.269 OA
ATOM      6  C   UNL A   1      35.604  32.304  27.841  1.00  0.00     0.251 C 
ATOM      7  H   UNL A   1      34.071  32.027  26.614  1.00  0.00     0.163 HD
BRANCH   6   8
ATOM      8  C   UNL A   1      36.738  31.710  28.583  1.00  0.00     0.039 A 
ATOM      9  C   UNL A   1      37.499  30.739  27.917  1.00  0.00     0.014 A 
ATOM     10  C   UNL A   1      36.912  31.908  29.955  1.00  0.00     0.014 A 
ATOM     11  C   UNL A   1      38.408  29.951  28.618  1.00  0.00     0.010 A 
ATOM     12  C   UNL A   1      37.826  31.114  30.659  1.00  0.00     0.010 A 
ATOM     13  C   UNL A   1      38.566  30.122  29.998  1.00  0.00    -0.014 A 
BRANCH  13  14
ATOM     14  C   UNL A   1      39.572  29.278  30.677  1.00  0.00     0.031 A 
ATOM     15  C   UNL A   1      39.608  27.859  30.202  1.00  0.00     0.074 A 
ATOM     16  C   UNL A   1      40.697  29.810  31.207  1.00  0.00     0.049 A 
ATOM     17  N   UNL A   1      40.195  27.504  29.095  1.00  0.00    -0.248 NA
ATOM     18  C   UNL A   1      38.759  26.813  30.774  1.00  0.00     0.031 C 
ATOM     19  C   UNL A   1      41.372  31.004  30.683  1.00  0.00     0.029 A 
ATOM     20  N   UNL A   1      41.561  29.337  32.171  1.00  0.00    -0.354 N 
ATOM     21  C   UNL A   1      39.781  26.220  28.796  1.00  0.00     0.074 A 
ATOM     22  C   UNL A   1      38.893  25.829  29.870  1.00  0.00     0.031 C 
ATOM     23  C   UNL A   1      42.612  31.071  31.207  1.00  0.00     0.029 A 
ATOM     24  C   UNL A   1      42.782  30.018  32.207  1.00  0.00     0.049 A 
ATOM     25  H   UNL A   1      41.341  28.591  32.775  1.00  0.00     0.167 HD
ATOM     26  C   UNL A   1      40.203  25.555  27.686  1.00  0.00     0.037 A 
ATOM     27  C   UNL A   1      43.980  29.424  32.481  1.00  0.00     0.037 A 
ATOM     28  C   UNL A   1      41.136  26.262  26.858  1.00  0.00     0.049 A 
ATOM     29  C   UNL A   1      44.157  28.560  31.250  1.00  0.00     0.074 A 
ATOM     30  C   UNL A   1      41.149  26.953  25.667  1.00  0.00     0.029 A 
ATOM     31  N   UNL A   1      42.436  26.321  27.297  1.00  0.00    -0.354 N 
ATOM     32  N   UNL A   1      44.526  28.964  30.061  1.00  0.00    -0.248 NA
ATOM     33  C   UNL A   1      43.530  27.238  31.278  1.00  0.00     0.031 C 
ATOM     34  C   UNL A   1      42.321  27.781  25.724  1.00  0.00     0.029 A 
ATOM     35  C   UNL A   1      42.926  27.554  26.960  1.00  0.00     0.049 A 
ATOM     36  H   UNL A   1      42.926  25.609  27.767  1.00  0.00     0.167 HD
ATOM     37  C   UNL A   1      43.938  28.066  29.165  1.00  0.00     0.074 A 
ATOM     38  C   UNL A   1      43.345  27.029  29.983  1.00  0.00     0.031 C 
ATOM     39  C   UNL A   1      43.815  28.296  27.826  1.00  0.00     0.037 A 
BRANCH  26  40
ATOM     40  C   UNL A   1      39.988  24.118  27.428  1.00  0.00     0.064 A 
ATOM     41  C   UNL A   1      40.963  23.233  27.916  1.00  0.00     0.173 A 
ATOM     42  C   UNL A   1      39.033  23.626  26.538  1.00  0.00     0.173 A 
ATOM     43  F   UNL A   1      41.903  23.676  28.768  1.00  0.00    -0.203 F 
ATOM     44  C   UNL A   1      41.022  21.915  27.483  1.00  0.00     0.198 A 
ATOM     45  C   UNL A   1      39.082  22.294  26.118  1.00  0.00     0.198 A 
ATOM     46  F   UNL A   1      38.089  24.435  26.035  1.00  0.00    -0.203 F 
ATOM     47  F   UNL A   1      42.007  21.118  27.916  1.00  0.00    -0.200 F 
ATOM     48  C   UNL A   1      40.087  21.448  26.575  1.00  0.00     0.200 A 
ATOM     49  F   UNL A   1      38.180  21.834  25.239  1.00  0.00    -0.200 F 
ATOM     50  F   UNL A   1      40.164  20.187  26.130  1.00  0.00    -0.200 F 
ENDBRANCH  26  40
BRANCH  27  51
ATOM     51  C   UNL A   1      44.146  28.901  33.881  1.00  0.00     0.064 A 
ATOM     52  C   UNL A   1      43.521  29.595  34.938  1.00  0.00     0.173 A 
ATOM     53  C   UNL A   1      44.869  27.755  34.247  1.00  0.00     0.173 A 
ATOM     54  F   UNL A   1      42.925  30.776  34.710  1.00  0.00    -0.203 F 
ATOM     55  C   UNL A   1      43.477  29.085  36.236  1.00  0.00     0.198 A 
ATOM     56  C   UNL A   1      44.799  27.226  35.539  1.00  0.00     0.198 A 
ATOM     57  F   UNL A   1      45.640  27.109  33.363  1.00  0.00    -0.203 F 
ATOM     58  F   UNL A   1      42.819  29.752  37.194  1.00  0.00    -0.200 F 
ATOM     59  C   UNL A   1      44.080  27.877  36.526  1.00  0.00     0.200 A 
ATOM     60  F   UNL A   1      45.404  26.061  35.814  1.00  0.00    -0.200 F 
ATOM     61  F   UNL A   1      43.973  27.342  37.750  1.00  0.00    -0.200 F 
ENDBRANCH  27  51
BRANCH  39  62
ATOM     62  C   UNL A   1      44.500  29.512  27.305  1.00  0.00     0.064 A 
ATOM     63  C   UNL A   1      43.809  30.727  27.226  1.00  0.00     0.173 A 
ATOM     64  C   UNL A   1      45.859  29.502  26.953  1.00  0.00     0.173 A 
ATOM     65  F   UNL A   1      42.512  30.793  27.569  1.00  0.00    -0.203 F 
ATOM     66  C   UNL A   1      44.457  31.893  26.832  1.00  0.00     0.198 A 
ATOM     67  C   UNL A   1      46.511  30.676  26.589  1.00  0.00     0.198 A 
ATOM     68  F   UNL A   1      46.571  28.363  26.990  1.00  0.00    -0.203 F 
ATOM     69  F   UNL A   1      43.779  33.048  26.775  1.00  0.00    -0.200 F 
ATOM     70  C   UNL A   1      45.812  31.871  26.531  1.00  0.00     0.200 A 
ATOM     71  F   UNL A   1      47.825  30.656  26.318  1.00  0.00    -0.200 F 
ATOM     72  F   UNL A   1      46.444  33.004  26.201  1.00  0.00    -0.200 F 
ENDBRANCH  39  62
ENDBRANCH  13  14
ENDBRANCH   6   8
ENDBRANCH   3   4
ENDBRANCH   2   3
ENDBRANCH   1   2
BRANCH   1  73
ATOM     73  C   UNL A   1      31.415  28.360  25.585  1.00  0.00     0.116 C 
BRANCH  73  74
ATOM     74  N   UNL A   1      31.072  28.264  24.178  1.00  0.00    -0.356 N 
ATOM     75  C   UNL A   1      31.634  27.629  23.115  1.00  0.00     0.223 C 
ATOM     76  H   UNL A   1      30.258  28.766  23.944  1.00  0.00     0.163 HD
ATOM     77  O   UNL A   1      30.893  27.521  22.128  1.00  0.00    -0.275 OA
BRANCH  75  78
ATOM     78  C   UNL A   1      33.099  27.150  22.987  1.00  0.00     0.081 C 
ATOM     79  C   UNL A   1      33.207  25.991  21.978  1.00  0.00     0.030 C 
ATOM     80  C   UNL A   1      33.905  26.705  24.187  1.00  0.00     0.030 C 
ATOM     81  C   UNL A   1      32.608  24.700  22.534  1.00  0.00     0.103 C 
ATOM     82  C   UNL A   1      33.310  25.469  24.825  1.00  0.00     0.103 C 
ATOM     83  N   UNL A   1      33.125  24.324  23.904  1.00  0.00    -0.198 NA
BRANCH  83  84
ATOM     84  S   UNL A   1      32.081  23.087  24.578  1.00  0.00     0.243 S 
ATOM     85  O   UNL A   1      31.914  23.390  25.982  1.00  0.00    -0.207 OA
ATOM     86  O   UNL A   1      30.934  22.964  23.700  1.00  0.00    -0.207 OA
BRANCH  84  87
ATOM     87  C   UNL A   1      33.016  21.564  24.509  1.00  0.00     0.084 A 
ATOM     88  C   UNL A   1      34.375  21.600  24.850  1.00  0.00     0.024 A 
ATOM     89  C   UNL A   1      32.365  20.351  24.262  1.00  0.00     0.043 A 
ATOM     90  C   UNL A   1      35.135  20.429  24.874  1.00  0.00     0.031 A 
ATOM     91  C   UNL A   1      33.137  19.175  24.339  1.00  0.00     0.059 A 
ATOM     92  C   UNL A   1      34.508  19.194  24.625  1.00  0.00     0.085 A 
ATOM     93  S   UNL A   1      32.644  17.531  24.144  1.00  0.00    -0.077 S 
ATOM     94  N   UNL A   1      35.131  17.959  24.660  1.00  0.00    -0.203 NA
ATOM     95  C   UNL A   1      34.240  17.034  24.437  1.00  0.00     0.271 A 
BRANCH  95  96
ATOM     96  O   UNL A   1      34.615  15.770  24.451  1.00  0.00    -0.486 OA
ATOM     97  H   UNL A   1      35.031  15.413  25.212  1.00  0.00     0.296 HD
ENDBRANCH  95  96
ENDBRANCH  84  87
ENDBRANCH  83  84
ENDBRANCH  75  78
ENDBRANCH  73  74
ENDBRANCH   1  73
TORSDOF 14
ENDMDL
