MODEL 1
REMARK VINA RESULT:     -12.2      0.000      0.000
REMARK SMILES C[C@@H]1C[C@@H]1NC(=O)Cn1cccc1C(=O)NCCCCNC(=O)c1ccc(-c2c3nc(c(-c4c(F)c(F)c(F)c(F)c4F)c4ccc([nH]4)c(-c4c(F)c(F)c(F)c(F)c4F)c4nc(c(-c5c(F)c(F)c(F)c(F)c5F)c5ccc2[nH]5)C=C4)C=C3)cc1
REMARK SMILES IDX 18 1 17 2 16 3 14 4 15 5 13 7 9 8 10 9 11 10 12 11 8 12 6 13
REMARK SMILES IDX 5 14 7 16 4 17 1 18 2 19 3 20 19 21 20 22 21 23 22 24 23 26
REMARK SMILES IDX 24 27 25 28 86 29 26 30 85 31 27 32 28 33 29 34 79 35 30 36
REMARK SMILES IDX 84 37 78 38 80 39 31 40 83 41 77 42 76 43 32 45 64 46 44 47
REMARK SMILES IDX 63 48 45 49 48 50 62 51 81 52 46 53 47 54 61 56 82 57 49 58
REMARK SMILES IDX 33 59 34 60 42 61 35 62 36 63 40 64 43 65 37 66 38 67 41 68
REMARK SMILES IDX 39 69 65 70 66 71 74 72 67 73 68 74 72 75 75 76 69 77 70 78
REMARK SMILES IDX 73 79 71 80 50 81 51 82 59 83 52 84 53 85 57 86 60 87 54 88
REMARK SMILES IDX 55 89 58 90 56 91
REMARK H PARENT 16 6 5 15 21 25 80 44 48 55
REMARK Flexibility Score: inf
ROOT
ATOM      1  C   UNL A   1      32.503  27.666  26.744  1.00  0.00     0.023 C 
ENDROOT
BRANCH   1   2
ATOM      2  C   UNL A   1      32.759  26.250  26.240  1.00  0.00     0.116 C 
BRANCH   2   3
ATOM      3  N   UNL A   1      31.748  25.305  26.645  1.00  0.00    -0.351 N 
ATOM      4  C   UNL A   1      31.332  24.035  26.368  1.00  0.00     0.267 C 
ATOM      5  O   UNL A   1      30.514  23.648  27.217  1.00  0.00    -0.268 OA
ATOM      6  H   UNL A   1      31.176  25.702  27.341  1.00  0.00     0.163 HD
BRANCH   4   7
ATOM      7  C   UNL A   1      31.687  23.153  25.256  1.00  0.00     0.107 A 
ATOM      8  N   UNL A   1      32.477  22.017  25.082  1.00  0.00    -0.334 N 
ATOM      9  C   UNL A   1      32.585  21.714  23.740  1.00  0.00     0.087 A 
ATOM     10  C   UNL A   1      31.752  22.539  23.034  1.00  0.00     0.020 A 
ATOM     11  C   UNL A   1      31.193  23.422  23.970  1.00  0.00     0.033 A 
BRANCH   8  12
ATOM     12  C   UNL A   1      33.071  21.200  26.124  1.00  0.00     0.222 C 
BRANCH  12  13
ATOM     13  C   UNL A   1      34.170  21.801  26.966  1.00  0.00     0.240 C 
ATOM     14  N   UNL A   1      35.475  21.537  26.620  1.00  0.00    -0.352 N 
ATOM     15  H   UNL A   1      36.154  21.685  27.317  1.00  0.00     0.163 HD
ATOM     16  O   UNL A   1      33.930  22.446  27.989  1.00  0.00    -0.273 OA
BRANCH  14  17
ATOM     17  C   UNL A   1      35.951  21.068  25.358  1.00  0.00     0.085 C 
ATOM     18  C   UNL A   1      38.550  21.589  25.638  1.00  0.00     0.010 C 
ATOM     19  C   UNL A   1      37.381  21.079  24.869  1.00  0.00     0.010 C 
ATOM     20  C   UNL A   1      36.394  22.069  24.322  1.00  0.00     0.030 C 
ENDBRANCH  14  17
ENDBRANCH  12  13
ENDBRANCH   8  12
ENDBRANCH   4   7
ENDBRANCH   2   3
ENDBRANCH   1   2
BRANCH   1  21
ATOM     21  C   UNL A   1      33.471  28.705  26.160  1.00  0.00     0.023 C 
BRANCH  21  22
ATOM     22  C   UNL A   1      34.807  28.824  26.903  1.00  0.00     0.116 C 
BRANCH  22  23
ATOM     23  N   UNL A   1      35.179  30.207  27.140  1.00  0.00    -0.352 N 
ATOM     24  C   UNL A   1      36.229  30.698  27.876  1.00  0.00     0.251 C 
ATOM     25  H   UNL A   1      34.601  30.883  26.717  1.00  0.00     0.163 HD
ATOM     26  O   UNL A   1      36.190  31.839  28.315  1.00  0.00    -0.269 OA
BRANCH  24  27
ATOM     27  C   UNL A   1      37.410  29.858  28.156  1.00  0.00     0.039 A 
ATOM     28  C   UNL A   1      38.425  29.798  27.193  1.00  0.00     0.014 A 
ATOM     29  C   UNL A   1      37.478  29.068  29.310  1.00  0.00     0.014 A 
ATOM     30  C   UNL A   1      39.537  28.996  27.415  1.00  0.00     0.010 A 
ATOM     31  C   UNL A   1      38.596  28.274  29.544  1.00  0.00     0.010 A 
ATOM     32  C   UNL A   1      39.636  28.257  28.603  1.00  0.00    -0.014 A 
BRANCH  32  33
ATOM     33  C   UNL A   1      40.936  27.626  28.928  1.00  0.00     0.031 A 
ATOM     34  C   UNL A   1      41.004  26.174  28.374  1.00  0.00     0.074 A 
ATOM     35  C   UNL A   1      41.816  28.386  29.652  1.00  0.00     0.049 A 
ATOM     36  N   UNL A   1      41.705  25.146  28.755  1.00  0.00    -0.248 NA
ATOM     37  C   UNL A   1      40.111  25.802  27.238  1.00  0.00     0.031 C 
ATOM     38  C   UNL A   1      41.603  29.805  30.022  1.00  0.00     0.029 A 
ATOM     39  N   UNL A   1      43.048  28.147  30.228  1.00  0.00    -0.354 N 
ATOM     40  C   UNL A   1      41.501  24.107  27.810  1.00  0.00     0.074 A 
ATOM     41  C   UNL A   1      40.425  24.533  26.971  1.00  0.00     0.031 C 
ATOM     42  C   UNL A   1      42.601  30.261  30.810  1.00  0.00     0.029 A 
ATOM     43  C   UNL A   1      43.562  29.203  31.039  1.00  0.00     0.049 A 
ATOM     44  H   UNL A   1      43.540  27.305  30.089  1.00  0.00     0.167 HD
ATOM     45  C   UNL A   1      42.325  23.022  27.692  1.00  0.00     0.037 A 
ATOM     46  C   UNL A   1      44.652  29.197  31.873  1.00  0.00     0.037 A 
ATOM     47  C   UNL A   1      43.319  23.063  28.708  1.00  0.00     0.049 A 
ATOM     48  C   UNL A   1      45.291  27.902  31.621  1.00  0.00     0.074 A 
ATOM     49  C   UNL A   1      43.283  22.793  30.047  1.00  0.00     0.029 A 
ATOM     50  N   UNL A   1      44.471  23.744  28.415  1.00  0.00    -0.354 N 
ATOM     51  N   UNL A   1      45.974  27.622  30.554  1.00  0.00    -0.248 NA
ATOM     52  C   UNL A   1      45.070  26.807  32.572  1.00  0.00     0.031 C 
ATOM     53  C   UNL A   1      44.180  23.734  30.592  1.00  0.00     0.029 A 
ATOM     54  C   UNL A   1      44.866  24.384  29.560  1.00  0.00     0.049 A 
ATOM     55  H   UNL A   1      44.931  23.767  27.543  1.00  0.00     0.167 HD
ATOM     56  C   UNL A   1      45.966  26.250  30.559  1.00  0.00     0.074 A 
ATOM     57  C   UNL A   1      45.707  25.839  31.920  1.00  0.00     0.031 C 
ATOM     58  C   UNL A   1      45.657  25.581  29.421  1.00  0.00     0.037 A 
BRANCH  45  59
ATOM     59  C   UNL A   1      42.531  21.989  26.609  1.00  0.00     0.064 A 
ATOM     60  C   UNL A   1      42.034  20.675  26.835  1.00  0.00     0.173 A 
ATOM     61  C   UNL A   1      43.491  22.112  25.598  1.00  0.00     0.173 A 
ATOM     62  F   UNL A   1      41.059  20.454  27.731  1.00  0.00    -0.203 F 
ATOM     63  C   UNL A   1      42.588  19.554  26.220  1.00  0.00     0.198 A 
ATOM     64  C   UNL A   1      44.007  20.985  24.943  1.00  0.00     0.198 A 
ATOM     65  F   UNL A   1      44.025  23.300  25.291  1.00  0.00    -0.203 F 
ATOM     66  F   UNL A   1      42.196  18.326  26.590  1.00  0.00    -0.200 F 
ATOM     67  C   UNL A   1      43.593  19.708  25.290  1.00  0.00     0.200 A 
ATOM     68  F   UNL A   1      44.972  21.139  24.025  1.00  0.00    -0.200 F 
ATOM     69  F   UNL A   1      44.187  18.634  24.754  1.00  0.00    -0.200 F 
ENDBRANCH  45  59
BRANCH  46  70
ATOM     70  C   UNL A   1      45.289  30.044  32.961  1.00  0.00     0.064 A 
ATOM     71  C   UNL A   1      46.468  30.789  32.851  1.00  0.00     0.173 A 
ATOM     72  C   UNL A   1      44.625  30.201  34.217  1.00  0.00     0.173 A 
ATOM     73  F   UNL A   1      47.275  30.649  31.796  1.00  0.00    -0.203 F 
ATOM     74  C   UNL A   1      46.868  31.706  33.848  1.00  0.00     0.198 A 
ATOM     75  C   UNL A   1      44.989  31.144  35.178  1.00  0.00     0.198 A 
ATOM     76  F   UNL A   1      43.579  29.438  34.564  1.00  0.00    -0.203 F 
ATOM     77  F   UNL A   1      48.001  32.406  33.691  1.00  0.00    -0.200 F 
ATOM     78  C   UNL A   1      46.105  31.917  34.984  1.00  0.00     0.200 A 
ATOM     79  F   UNL A   1      44.229  31.304  36.273  1.00  0.00    -0.200 F 
ATOM     80  F   UNL A   1      46.447  32.844  35.890  1.00  0.00    -0.200 F 
ENDBRANCH  46  70
BRANCH  58  81
ATOM     81  C   UNL A   1      45.837  26.409  28.156  1.00  0.00     0.064 A 
ATOM     82  C   UNL A   1      47.122  26.814  27.763  1.00  0.00     0.173 A 
ATOM     83  C   UNL A   1      44.775  26.936  27.400  1.00  0.00     0.173 A 
ATOM     84  F   UNL A   1      48.197  26.343  28.413  1.00  0.00    -0.203 F 
ATOM     85  C   UNL A   1      47.323  27.709  26.706  1.00  0.00     0.198 A 
ATOM     86  C   UNL A   1      44.969  27.826  26.342  1.00  0.00     0.198 A 
ATOM     87  F   UNL A   1      43.518  26.594  27.666  1.00  0.00    -0.203 F 
ATOM     88  F   UNL A   1      48.567  28.076  26.372  1.00  0.00    -0.200 F 
ATOM     89  C   UNL A   1      46.247  28.219  26.000  1.00  0.00     0.200 A 
ATOM     90  F   UNL A   1      43.914  28.295  25.656  1.00  0.00    -0.200 F 
ATOM     91  F   UNL A   1      46.440  29.072  24.983  1.00  0.00    -0.200 F 
ENDBRANCH  58  81
ENDBRANCH  32  33
ENDBRANCH  24  27
ENDBRANCH  22  23
ENDBRANCH  21  22
ENDBRANCH   1  21
TORSDOF 14
ENDMDL
MODEL 2
REMARK VINA RESULT:     -12.1      1.681      3.139
REMARK SMILES C[C@@H]1C[C@@H]1NC(=O)Cn1cccc1C(=O)NCCCCNC(=O)c1ccc(-c2c3nc(c(-c4c(F)c(F)c(F)c(F)c4F)c4ccc([nH]4)c(-c4c(F)c(F)c(F)c(F)c4F)c4nc(c(-c5c(F)c(F)c(F)c(F)c5F)c5ccc2[nH]5)C=C4)C=C3)cc1
REMARK SMILES IDX 18 1 17 2 16 3 14 4 15 5 13 7 9 8 10 9 11 10 12 11 8 12 6 13
REMARK SMILES IDX 5 14 7 16 4 17 1 18 2 19 3 20 19 21 20 22 21 23 22 24 23 26
REMARK SMILES IDX 24 27 25 28 86 29 26 30 85 31 27 32 28 33 29 34 79 35 30 36
REMARK SMILES IDX 84 37 78 38 80 39 31 40 83 41 77 42 76 43 32 45 64 46 44 47
REMARK SMILES IDX 63 48 45 49 48 50 62 51 81 52 46 53 47 54 61 56 82 57 49 58
REMARK SMILES IDX 33 59 34 60 42 61 35 62 36 63 40 64 43 65 37 66 38 67 41 68
REMARK SMILES IDX 39 69 65 70 66 71 74 72 67 73 68 74 72 75 75 76 69 77 70 78
REMARK SMILES IDX 73 79 71 80 50 81 51 82 59 83 52 84 53 85 57 86 60 87 54 88
REMARK SMILES IDX 55 89 58 90 56 91
REMARK H PARENT 16 6 5 15 21 25 80 44 48 55
REMARK Flexibility Score: inf
ROOT
ATOM      1  C   UNL A   1      32.267  28.976  26.920  1.00  0.00     0.023 C 
ENDROOT
BRANCH   1   2
ATOM      2  C   UNL A   1      31.842  27.710  27.658  1.00  0.00     0.116 C 
BRANCH   2   3
ATOM      3  N   UNL A   1      31.106  26.784  26.832  1.00  0.00    -0.351 N 
ATOM      4  C   UNL A   1      31.326  25.764  25.954  1.00  0.00     0.267 C 
ATOM      5  O   UNL A   1      30.269  25.162  25.709  1.00  0.00    -0.268 OA
ATOM      6  H   UNL A   1      30.139  26.938  26.934  1.00  0.00     0.163 HD
BRANCH   4   7
ATOM      7  C   UNL A   1      32.563  25.344  25.292  1.00  0.00     0.107 A 
ATOM      8  N   UNL A   1      32.940  24.974  24.002  1.00  0.00    -0.334 N 
ATOM      9  C   UNL A   1      34.233  24.490  24.006  1.00  0.00     0.087 A 
ATOM     10  C   UNL A   1      34.770  24.679  25.250  1.00  0.00     0.020 A 
ATOM     11  C   UNL A   1      33.741  25.213  26.042  1.00  0.00     0.033 A 
BRANCH   8  12
ATOM     12  C   UNL A   1      32.155  25.111  22.790  1.00  0.00     0.222 C 
BRANCH  12  13
ATOM     13  C   UNL A   1      32.456  26.270  21.869  1.00  0.00     0.240 C 
ATOM     14  N   UNL A   1      31.504  27.252  21.726  1.00  0.00    -0.352 N 
ATOM     15  H   UNL A   1      31.583  27.830  20.932  1.00  0.00     0.163 HD
ATOM     16  O   UNL A   1      33.484  26.314  21.191  1.00  0.00    -0.273 OA
BRANCH  14  17
ATOM     17  C   UNL A   1      30.411  27.524  22.604  1.00  0.00     0.085 C 
ATOM     18  C   UNL A   1      29.768  29.973  21.774  1.00  0.00     0.010 C 
ATOM     19  C   UNL A   1      29.580  28.785  22.651  1.00  0.00     0.010 C 
ATOM     20  C   UNL A   1      30.596  28.516  23.723  1.00  0.00     0.030 C 
ENDBRANCH  14  17
ENDBRANCH  12  13
ENDBRANCH   8  12
ENDBRANCH   4   7
ENDBRANCH   2   3
ENDBRANCH   1   2
BRANCH   1  21
ATOM     21  C   UNL A   1      33.557  28.803  26.106  1.00  0.00     0.023 C 
BRANCH  21  22
ATOM     22  C   UNL A   1      34.849  28.902  26.926  1.00  0.00     0.116 C 
BRANCH  22  23
ATOM     23  N   UNL A   1      35.226  30.281  27.183  1.00  0.00    -0.352 N 
ATOM     24  C   UNL A   1      36.275  30.756  27.932  1.00  0.00     0.251 C 
ATOM     25  H   UNL A   1      34.654  30.966  26.767  1.00  0.00     0.163 HD
ATOM     26  O   UNL A   1      36.239  31.892  28.386  1.00  0.00    -0.269 OA
BRANCH  24  27
ATOM     27  C   UNL A   1      37.450  29.907  28.207  1.00  0.00     0.039 A 
ATOM     28  C   UNL A   1      38.463  29.844  27.242  1.00  0.00     0.014 A 
ATOM     29  C   UNL A   1      37.513  29.111  29.357  1.00  0.00     0.014 A 
ATOM     30  C   UNL A   1      39.571  29.033  27.459  1.00  0.00     0.010 A 
ATOM     31  C   UNL A   1      38.627  28.309  29.586  1.00  0.00     0.010 A 
ATOM     32  C   UNL A   1      39.665  28.289  28.643  1.00  0.00    -0.014 A 
BRANCH  32  33
ATOM     33  C   UNL A   1      40.962  27.646  28.964  1.00  0.00     0.031 A 
ATOM     34  C   UNL A   1      41.018  26.196  28.406  1.00  0.00     0.074 A 
ATOM     35  C   UNL A   1      41.848  28.398  29.688  1.00  0.00     0.049 A 
ATOM     36  N   UNL A   1      41.712  25.162  28.783  1.00  0.00    -0.248 NA
ATOM     37  C   UNL A   1      40.119  25.833  27.271  1.00  0.00     0.031 C 
ATOM     38  C   UNL A   1      41.647  29.817  30.063  1.00  0.00     0.029 A 
ATOM     39  N   UNL A   1      43.080  28.148  30.261  1.00  0.00    -0.354 N 
ATOM     40  C   UNL A   1      41.497  24.127  27.836  1.00  0.00     0.074 A 
ATOM     41  C   UNL A   1      40.423  24.562  27.000  1.00  0.00     0.031 C 
ATOM     42  C   UNL A   1      42.650  30.264  30.850  1.00  0.00     0.029 A 
ATOM     43  C   UNL A   1      43.604  29.198  31.074  1.00  0.00     0.049 A 
ATOM     44  H   UNL A   1      43.565  27.303  30.119  1.00  0.00     0.167 HD
ATOM     45  C   UNL A   1      42.313  23.035  27.714  1.00  0.00     0.037 A 
ATOM     46  C   UNL A   1      44.695  29.182  31.906  1.00  0.00     0.037 A 
ATOM     47  C   UNL A   1      43.309  23.067  28.727  1.00  0.00     0.049 A 
ATOM     48  C   UNL A   1      45.324  27.883  31.649  1.00  0.00     0.074 A 
ATOM     49  C   UNL A   1      43.274  22.793  30.066  1.00  0.00     0.029 A 
ATOM     50  N   UNL A   1      44.466  23.740  28.433  1.00  0.00    -0.354 N 
ATOM     51  N   UNL A   1      46.003  27.600  30.579  1.00  0.00    -0.248 NA
ATOM     52  C   UNL A   1      45.097  26.787  32.598  1.00  0.00     0.031 C 
ATOM     53  C   UNL A   1      44.179  23.726  30.612  1.00  0.00     0.029 A 
ATOM     54  C   UNL A   1      44.868  24.374  29.579  1.00  0.00     0.049 A 
ATOM     55  H   UNL A   1      44.924  23.762  27.561  1.00  0.00     0.167 HD
ATOM     56  C   UNL A   1      45.984  26.228  30.581  1.00  0.00     0.074 A 
ATOM     57  C   UNL A   1      45.725  25.816  31.942  1.00  0.00     0.031 C 
ATOM     58  C   UNL A   1      45.667  25.565  29.441  1.00  0.00     0.037 A 
BRANCH  45  59
ATOM     59  C   UNL A   1      42.509  22.004  26.628  1.00  0.00     0.064 A 
ATOM     60  C   UNL A   1      42.012  20.690  26.855  1.00  0.00     0.173 A 
ATOM     61  C   UNL A   1      43.460  22.127  25.608  1.00  0.00     0.173 A 
ATOM     62  F   UNL A   1      41.045  20.468  27.760  1.00  0.00    -0.203 F 
ATOM     63  C   UNL A   1      42.560  19.569  26.235  1.00  0.00     0.198 A 
ATOM     64  C   UNL A   1      43.969  21.001  24.947  1.00  0.00     0.198 A 
ATOM     65  F   UNL A   1      43.993  23.316  25.299  1.00  0.00    -0.203 F 
ATOM     66  F   UNL A   1      42.171  18.342  26.606  1.00  0.00    -0.200 F 
ATOM     67  C   UNL A   1      43.558  19.724  25.296  1.00  0.00     0.200 A 
ATOM     68  F   UNL A   1      44.927  21.155  24.021  1.00  0.00    -0.200 F 
ATOM     69  F   UNL A   1      44.146  18.650  24.754  1.00  0.00    -0.200 F 
ENDBRANCH  45  59
BRANCH  46  70
ATOM     70  C   UNL A   1      45.340  30.021  32.994  1.00  0.00     0.064 A 
ATOM     71  C   UNL A   1      44.882  30.173  34.308  1.00  0.00     0.173 A 
ATOM     72  C   UNL A   1      46.583  30.680  32.740  1.00  0.00     0.173 A 
ATOM     73  F   UNL A   1      43.673  29.734  34.671  1.00  0.00    -0.203 F 
ATOM     74  C   UNL A   1      45.659  30.806  35.302  1.00  0.00     0.198 A 
ATOM     75  C   UNL A   1      47.376  31.258  33.731  1.00  0.00     0.198 A 
ATOM     76  F   UNL A   1      47.086  30.786  31.502  1.00  0.00    -0.203 F 
ATOM     77  F   UNL A   1      45.181  30.918  36.550  1.00  0.00    -0.200 F 
ATOM     78  C   UNL A   1      46.922  31.303  35.024  1.00  0.00     0.200 A 
ATOM     79  F   UNL A   1      48.587  31.743  33.415  1.00  0.00    -0.200 F 
ATOM     80  F   UNL A   1      47.688  31.833  35.988  1.00  0.00    -0.200 F 
ENDBRANCH  46  70
BRANCH  58  81
ATOM     81  C   UNL A   1      45.851  26.395  28.179  1.00  0.00     0.064 A 
ATOM     82  C   UNL A   1      47.138  26.796  27.787  1.00  0.00     0.173 A 
ATOM     83  C   UNL A   1      44.792  26.927  27.424  1.00  0.00     0.173 A 
ATOM     84  F   UNL A   1      48.211  26.320  28.437  1.00  0.00    -0.203 F 
ATOM     85  C   UNL A   1      47.343  27.692  26.733  1.00  0.00     0.198 A 
ATOM     86  C   UNL A   1      44.989  27.819  26.367  1.00  0.00     0.198 A 
ATOM     87  F   UNL A   1      43.533  26.589  27.688  1.00  0.00    -0.203 F 
ATOM     88  F   UNL A   1      48.588  28.056  26.399  1.00  0.00    -0.200 F 
ATOM     89  C   UNL A   1      46.268  28.208  26.027  1.00  0.00     0.200 A 
ATOM     90  F   UNL A   1      43.937  28.292  25.682  1.00  0.00    -0.200 F 
ATOM     91  F   UNL A   1      46.465  29.062  25.012  1.00  0.00    -0.200 F 
ENDBRANCH  58  81
ENDBRANCH  32  33
ENDBRANCH  24  27
ENDBRANCH  22  23
ENDBRANCH  21  22
ENDBRANCH   1  21
TORSDOF 14
ENDMDL
MODEL 3
REMARK VINA RESULT:     -12.1      1.151      2.159
REMARK SMILES C[C@@H]1C[C@@H]1NC(=O)Cn1cccc1C(=O)NCCCCNC(=O)c1ccc(-c2c3nc(c(-c4c(F)c(F)c(F)c(F)c4F)c4ccc([nH]4)c(-c4c(F)c(F)c(F)c(F)c4F)c4nc(c(-c5c(F)c(F)c(F)c(F)c5F)c5ccc2[nH]5)C=C4)C=C3)cc1
REMARK SMILES IDX 18 1 17 2 16 3 14 4 15 5 13 7 9 8 10 9 11 10 12 11 8 12 6 13
REMARK SMILES IDX 5 14 7 16 4 17 1 18 2 19 3 20 19 21 20 22 21 23 22 24 23 26
REMARK SMILES IDX 24 27 25 28 86 29 26 30 85 31 27 32 28 33 29 34 79 35 30 36
REMARK SMILES IDX 84 37 78 38 80 39 31 40 83 41 77 42 76 43 32 45 64 46 44 47
REMARK SMILES IDX 63 48 45 49 48 50 62 51 81 52 46 53 47 54 61 56 82 57 49 58
REMARK SMILES IDX 33 59 34 60 42 61 35 62 36 63 40 64 43 65 37 66 38 67 41 68
REMARK SMILES IDX 39 69 65 70 66 71 74 72 67 73 68 74 72 75 75 76 69 77 70 78
REMARK SMILES IDX 73 79 71 80 50 81 51 82 59 83 52 84 53 85 57 86 60 87 54 88
REMARK SMILES IDX 55 89 58 90 56 91
REMARK H PARENT 16 6 5 15 21 25 80 44 48 55
REMARK Flexibility Score: inf
ROOT
ATOM      1  C   UNL A   1      32.953  26.964  26.143  1.00  0.00     0.023 C 
ENDROOT
BRANCH   1   2
ATOM      2  C   UNL A   1      31.445  26.742  26.181  1.00  0.00     0.116 C 
BRANCH   2   3
ATOM      3  N   UNL A   1      31.067  25.456  26.716  1.00  0.00    -0.351 N 
ATOM      4  C   UNL A   1      31.197  24.128  26.434  1.00  0.00     0.267 C 
ATOM      5  O   UNL A   1      30.845  23.439  27.404  1.00  0.00    -0.268 OA
ATOM      6  H   UNL A   1      30.553  25.575  27.547  1.00  0.00     0.163 HD
BRANCH   4   7
ATOM      7  C   UNL A   1      31.640  23.467  25.206  1.00  0.00     0.107 A 
ATOM      8  N   UNL A   1      32.549  22.464  24.872  1.00  0.00    -0.334 N 
ATOM      9  C   UNL A   1      32.681  22.380  23.501  1.00  0.00     0.087 A 
ATOM     10  C   UNL A   1      31.760  23.206  22.918  1.00  0.00     0.020 A 
ATOM     11  C   UNL A   1      31.112  23.872  23.970  1.00  0.00     0.033 A 
BRANCH   8  12
ATOM     12  C   UNL A   1      33.235  21.569  25.785  1.00  0.00     0.222 C 
BRANCH  12  13
ATOM     13  C   UNL A   1      34.453  20.831  25.284  1.00  0.00     0.240 C 
ATOM     14  N   UNL A   1      34.330  19.491  24.996  1.00  0.00    -0.352 N 
ATOM     15  H   UNL A   1      35.165  18.972  24.951  1.00  0.00     0.163 HD
ATOM     16  O   UNL A   1      35.558  21.371  25.207  1.00  0.00    -0.273 OA
BRANCH  14  17
ATOM     17  C   UNL A   1      33.120  18.772  24.755  1.00  0.00     0.085 C 
ATOM     18  C   UNL A   1      34.088  16.721  23.356  1.00  0.00     0.010 C 
ATOM     19  C   UNL A   1      32.974  17.476  23.993  1.00  0.00     0.010 C 
ATOM     20  C   UNL A   1      32.531  18.767  23.368  1.00  0.00     0.030 C 
ENDBRANCH  14  17
ENDBRANCH  12  13
ENDBRANCH   8  12
ENDBRANCH   4   7
ENDBRANCH   2   3
ENDBRANCH   1   2
BRANCH   1  21
ATOM     21  C   UNL A   1      33.361  28.423  26.395  1.00  0.00     0.023 C 
BRANCH  21  22
ATOM     22  C   UNL A   1      34.771  28.603  26.968  1.00  0.00     0.116 C 
BRANCH  22  23
ATOM     23  N   UNL A   1      35.144  30.003  27.069  1.00  0.00    -0.352 N 
ATOM     24  C   UNL A   1      36.238  30.556  27.689  1.00  0.00     0.251 C 
ATOM     25  H   UNL A   1      34.531  30.641  26.635  1.00  0.00     0.163 HD
ATOM     26  O   UNL A   1      36.217  31.728  28.038  1.00  0.00    -0.269 OA
BRANCH  24  27
ATOM     27  C   UNL A   1      37.444  29.747  27.950  1.00  0.00     0.039 A 
ATOM     28  C   UNL A   1      38.439  29.703  26.966  1.00  0.00     0.014 A 
ATOM     29  C   UNL A   1      37.554  28.968  29.109  1.00  0.00     0.014 A 
ATOM     30  C   UNL A   1      39.575  28.929  27.171  1.00  0.00     0.010 A 
ATOM     31  C   UNL A   1      38.697  28.203  29.325  1.00  0.00     0.010 A 
ATOM     32  C   UNL A   1      39.716  28.203  28.362  1.00  0.00    -0.014 A 
BRANCH  32  33
ATOM     33  C   UNL A   1      41.038  27.605  28.665  1.00  0.00     0.031 A 
ATOM     34  C   UNL A   1      41.103  26.126  28.188  1.00  0.00     0.074 A 
ATOM     35  C   UNL A   1      41.937  28.414  29.307  1.00  0.00     0.049 A 
ATOM     36  N   UNL A   1      41.833  25.129  28.593  1.00  0.00    -0.248 NA
ATOM     37  C   UNL A   1      40.167  25.682  27.113  1.00  0.00     0.031 C 
ATOM     38  C   UNL A   1      41.720  29.848  29.609  1.00  0.00     0.029 A 
ATOM     39  N   UNL A   1      43.196  28.221  29.842  1.00  0.00    -0.354 N 
ATOM     40  C   UNL A   1      41.603  24.037  27.716  1.00  0.00     0.074 A 
ATOM     41  C   UNL A   1      40.487  24.404  26.902  1.00  0.00     0.031 C 
ATOM     42  C   UNL A   1      42.744  30.359  30.328  1.00  0.00     0.029 A 
ATOM     43  C   UNL A   1      43.729  29.325  30.572  1.00  0.00     0.049 A 
ATOM     44  H   UNL A   1      43.693  27.379  29.728  1.00  0.00     0.167 HD
ATOM     45  C   UNL A   1      42.437  22.957  27.622  1.00  0.00     0.037 A 
ATOM     46  C   UNL A   1      44.853  29.378  31.357  1.00  0.00     0.037 A 
ATOM     47  C   UNL A   1      43.472  23.066  28.590  1.00  0.00     0.049 A 
ATOM     48  C   UNL A   1      45.499  28.079  31.149  1.00  0.00     0.074 A 
ATOM     49  C   UNL A   1      43.496  22.868  29.942  1.00  0.00     0.029 A 
ATOM     50  N   UNL A   1      44.602  23.742  28.211  1.00  0.00    -0.354 N 
ATOM     51  N   UNL A   1      46.140  27.748  30.069  1.00  0.00    -0.248 NA
ATOM     52  C   UNL A   1      45.334  27.035  32.166  1.00  0.00     0.031 C 
ATOM     53  C   UNL A   1      44.403  23.848  30.396  1.00  0.00     0.029 A 
ATOM     54  C   UNL A   1      45.035  24.449  29.301  1.00  0.00     0.049 A 
ATOM     55  H   UNL A   1      45.023  23.723  27.320  1.00  0.00     0.167 HD
ATOM     56  C   UNL A   1      46.151  26.379  30.149  1.00  0.00     0.074 A 
ATOM     57  C   UNL A   1      45.956  26.040  31.541  1.00  0.00     0.031 C 
ATOM     58  C   UNL A   1      45.803  25.645  29.063  1.00  0.00     0.037 A 
BRANCH  45  59
ATOM     59  C   UNL A   1      42.611  21.868  26.589  1.00  0.00     0.064 A 
ATOM     60  C   UNL A   1      42.131  20.566  26.902  1.00  0.00     0.173 A 
ATOM     61  C   UNL A   1      43.533  21.942  25.538  1.00  0.00     0.173 A 
ATOM     62  F   UNL A   1      41.191  20.388  27.844  1.00  0.00    -0.203 F 
ATOM     63  C   UNL A   1      42.671  19.417  26.328  1.00  0.00     0.198 A 
ATOM     64  C   UNL A   1      44.032  20.785  24.926  1.00  0.00     0.198 A 
ATOM     65  F   UNL A   1      44.047  23.115  25.149  1.00  0.00    -0.203 F 
ATOM     66  F   UNL A   1      42.301  18.209  26.776  1.00  0.00    -0.200 F 
ATOM     67  C   UNL A   1      43.641  19.526  25.355  1.00  0.00     0.200 A 
ATOM     68  F   UNL A   1      44.963  20.894  23.966  1.00  0.00    -0.200 F 
ATOM     69  F   UNL A   1      44.222  18.428  24.856  1.00  0.00    -0.200 F 
ENDBRANCH  45  59
BRANCH  46  70
ATOM     70  C   UNL A   1      45.524  30.291  32.369  1.00  0.00     0.064 A 
ATOM     71  C   UNL A   1      45.038  30.622  33.639  1.00  0.00     0.173 A 
ATOM     72  C   UNL A   1      46.817  30.831  32.090  1.00  0.00     0.173 A 
ATOM     73  F   UNL A   1      43.791  30.310  34.002  1.00  0.00    -0.203 F 
ATOM     74  C   UNL A   1      45.828  31.311  34.585  1.00  0.00     0.198 A 
ATOM     75  C   UNL A   1      47.619  31.464  33.040  1.00  0.00     0.198 A 
ATOM     76  F   UNL A   1      47.364  30.761  30.868  1.00  0.00    -0.203 F 
ATOM     77  F   UNL A   1      45.321  31.596  35.793  1.00  0.00    -0.200 F 
ATOM     78  C   UNL A   1      47.131  31.686  34.302  1.00  0.00     0.200 A 
ATOM     79  F   UNL A   1      48.871  31.826  32.718  1.00  0.00    -0.200 F 
ATOM     80  F   UNL A   1      47.904  32.270  35.228  1.00  0.00    -0.200 F 
ENDBRANCH  46  70
BRANCH  58  81
ATOM     81  C   UNL A   1      45.918  26.404  27.749  1.00  0.00     0.064 A 
ATOM     82  C   UNL A   1      44.765  26.681  26.999  1.00  0.00     0.173 A 
ATOM     83  C   UNL A   1      47.138  26.740  27.137  1.00  0.00     0.173 A 
ATOM     84  F   UNL A   1      43.555  26.414  27.513  1.00  0.00    -0.203 F 
ATOM     85  C   UNL A   1      44.835  27.227  25.712  1.00  0.00     0.198 A 
ATOM     86  C   UNL A   1      47.215  27.289  25.855  1.00  0.00     0.198 A 
ATOM     87  F   UNL A   1      48.291  26.550  27.771  1.00  0.00    -0.203 F 
ATOM     88  F   UNL A   1      43.709  27.466  25.027  1.00  0.00    -0.200 F 
ATOM     89  C   UNL A   1      46.060  27.526  25.139  1.00  0.00     0.200 A 
ATOM     90  F   UNL A   1      48.410  27.591  25.324  1.00  0.00    -0.200 F 
ATOM     91  F   UNL A   1      46.127  28.055  23.908  1.00  0.00    -0.200 F 
ENDBRANCH  58  81
ENDBRANCH  32  33
ENDBRANCH  24  27
ENDBRANCH  22  23
ENDBRANCH  21  22
ENDBRANCH   1  21
TORSDOF 14
ENDMDL
