MODEL 1
REMARK VINA RESULT:     -13.6      0.000      0.000
REMARK SMILES Cc1ccc(C(=O)Nc2cccc(C(=O)NCCCCNC(=O)c3ccc(-c4c5nc(c(-c6c(F)c(F)c(F)c(F)c6F)c6ccc([nH]6)c(-c6c(F)c(F)c(F)c(F)c6F)c6nc(c(-c7c(F)c(F)c(F)c(F)c7F)c7ccc4[nH]7)C=C6)C=C5)cc3)c2)cc1C
REMARK SMILES IDX 18 1 17 2 16 3 14 4 15 5 13 7 9 8 10 9 87 10 11 11 12 12
REMARK SMILES IDX 8 13 6 14 7 15 5 17 1 18 2 19 3 20 89 21 4 22 88 23 90 24
REMARK SMILES IDX 19 25 20 26 21 27 22 28 23 30 24 31 25 32 86 33 26 34 85 35
REMARK SMILES IDX 27 36 28 37 29 38 79 39 30 40 84 41 78 42 80 43 31 44 83 45
REMARK SMILES IDX 77 46 76 47 32 49 64 50 44 51 63 52 45 53 48 54 62 55 81 56
REMARK SMILES IDX 46 57 47 58 61 60 82 61 49 62 33 63 34 64 42 65 35 66 36 67
REMARK SMILES IDX 40 68 43 69 37 70 38 71 41 72 39 73 65 74 66 75 74 76 67 77
REMARK SMILES IDX 68 78 72 79 75 80 69 81 70 82 73 83 71 84 50 85 51 86 59 87
REMARK SMILES IDX 52 88 53 89 57 90 60 91 54 92 55 93 58 94 56 95
REMARK H PARENT 16 6 8 16 21 29 80 48 48 59
REMARK Flexibility Score: inf
ROOT
ATOM      1  C   UNL A   1      32.113  30.242  26.999  1.00  0.00     0.023 C 
ENDROOT
BRANCH   1   2
ATOM      2  C   UNL A   1      33.506  29.799  26.547  1.00  0.00     0.116 C 
BRANCH   2   3
ATOM      3  N   UNL A   1      33.584  29.722  25.103  1.00  0.00    -0.352 N 
ATOM      4  C   UNL A   1      32.980  28.913  24.176  1.00  0.00     0.251 C 
ATOM      5  O   UNL A   1      33.264  29.126  22.995  1.00  0.00    -0.269 OA
ATOM      6  H   UNL A   1      34.194  30.385  24.708  1.00  0.00     0.163 HD
BRANCH   4   7
ATOM      7  C   UNL A   1      31.983  27.844  24.493  1.00  0.00     0.041 A 
ATOM      8  C   UNL A   1      31.169  25.870  25.660  1.00  0.00     0.042 A 
ATOM      9  C   UNL A   1      29.933  25.978  25.025  1.00  0.00     0.026 A 
ATOM     10  C   UNL A   1      32.212  26.739  25.316  1.00  0.00     0.040 A 
ATOM     11  C   UNL A   1      29.698  27.043  24.161  1.00  0.00     0.003 A 
ATOM     12  C   UNL A   1      30.706  27.982  23.921  1.00  0.00     0.014 A 
BRANCH   8  13
ATOM     13  N   UNL A   1      31.307  24.915  26.677  1.00  0.00    -0.322 N 
ATOM     14  C   UNL A   1      32.040  23.742  26.699  1.00  0.00     0.255 C 
ATOM     15  O   UNL A   1      31.804  22.913  27.579  1.00  0.00    -0.269 OA
ATOM     16  H   UNL A   1      30.806  25.110  27.502  1.00  0.00     0.170 HD
BRANCH  14  17
ATOM     17  C   UNL A   1      33.181  23.490  25.760  1.00  0.00     0.040 A 
ATOM     18  C   UNL A   1      36.556  22.644  23.176  1.00  0.00     0.044 C 
ATOM     19  C   UNL A   1      35.414  22.991  24.090  1.00  0.00    -0.048 A 
ATOM     20  C   UNL A   1      34.105  22.845  23.610  1.00  0.00     0.004 A 
ATOM     21  C   UNL A   1      35.608  23.503  25.386  1.00  0.00    -0.047 A 
ATOM     22  C   UNL A   1      33.005  23.134  24.421  1.00  0.00     0.014 A 
ATOM     23  C   UNL A   1      34.487  23.718  26.217  1.00  0.00     0.017 A 
ATOM     24  C   UNL A   1      36.958  23.915  25.909  1.00  0.00     0.044 C 
ENDBRANCH  14  17
ENDBRANCH   8  13
ENDBRANCH   4   7
ENDBRANCH   2   3
ENDBRANCH   1   2
BRANCH   1  25
ATOM     25  C   UNL A   1      31.863  31.740  26.825  1.00  0.00     0.023 C 
BRANCH  25  26
ATOM     26  C   UNL A   1      32.920  32.632  27.466  1.00  0.00     0.116 C 
BRANCH  26  27
ATOM     27  N   UNL A   1      32.473  33.999  27.690  1.00  0.00    -0.352 N 
ATOM     28  C   UNL A   1      32.994  34.914  28.576  1.00  0.00     0.251 C 
ATOM     29  H   UNL A   1      31.712  34.303  27.146  1.00  0.00     0.163 HD
ATOM     30  O   UNL A   1      32.485  36.014  28.732  1.00  0.00    -0.269 OA
BRANCH  28  31
ATOM     31  C   UNL A   1      34.172  34.516  29.370  1.00  0.00     0.039 A 
ATOM     32  C   UNL A   1      33.979  33.911  30.614  1.00  0.00     0.014 A 
ATOM     33  C   UNL A   1      35.453  34.665  28.834  1.00  0.00     0.014 A 
ATOM     34  C   UNL A   1      35.078  33.385  31.296  1.00  0.00     0.010 A 
ATOM     35  C   UNL A   1      36.535  34.088  29.486  1.00  0.00     0.010 A 
ATOM     36  C   UNL A   1      36.356  33.439  30.719  1.00  0.00    -0.014 A 
BRANCH  36  37
ATOM     37  C   UNL A   1      37.539  32.839  31.381  1.00  0.00     0.031 A 
ATOM     38  C   UNL A   1      38.246  31.691  30.721  1.00  0.00     0.074 A 
ATOM     39  C   UNL A   1      37.905  33.249  32.609  1.00  0.00     0.049 A 
ATOM     40  N   UNL A   1      39.175  30.903  31.197  1.00  0.00    -0.248 NA
ATOM     41  C   UNL A   1      37.822  31.363  29.350  1.00  0.00     0.031 C 
ATOM     42  C   UNL A   1      37.275  34.332  33.366  1.00  0.00     0.029 A 
ATOM     43  N   UNL A   1      38.885  32.782  33.450  1.00  0.00    -0.354 N 
ATOM     44  C   UNL A   1      39.421  29.969  30.201  1.00  0.00     0.074 A 
ATOM     45  C   UNL A   1      38.520  30.264  29.108  1.00  0.00     0.031 C 
ATOM     46  C   UNL A   1      37.888  34.451  34.555  1.00  0.00     0.029 A 
ATOM     47  C   UNL A   1      38.925  33.428  34.662  1.00  0.00     0.049 A 
ATOM     48  H   UNL A   1      39.501  32.053  33.208  1.00  0.00     0.167 HD
ATOM     49  C   UNL A   1      40.327  28.964  30.195  1.00  0.00     0.037 A 
ATOM     50  C   UNL A   1      39.699  33.207  35.740  1.00  0.00     0.037 A 
ATOM     51  C   UNL A   1      41.251  28.703  31.267  1.00  0.00     0.049 A 
ATOM     52  C   UNL A   1      40.713  32.095  35.701  1.00  0.00     0.074 A 
ATOM     53  C   UNL A   1      42.244  27.744  31.336  1.00  0.00     0.029 A 
ATOM     54  N   UNL A   1      41.295  29.415  32.456  1.00  0.00    -0.354 N 
ATOM     55  N   UNL A   1      40.965  31.240  34.740  1.00  0.00    -0.248 NA
ATOM     56  C   UNL A   1      41.552  31.918  36.895  1.00  0.00     0.031 C 
ATOM     57  C   UNL A   1      42.875  27.858  32.580  1.00  0.00     0.029 A 
ATOM     58  C   UNL A   1      42.297  28.913  33.269  1.00  0.00     0.049 A 
ATOM     59  H   UNL A   1      40.702  30.166  32.688  1.00  0.00     0.167 HD
ATOM     60  C   UNL A   1      42.010  30.449  35.196  1.00  0.00     0.074 A 
ATOM     61  C   UNL A   1      42.347  30.925  36.521  1.00  0.00     0.031 C 
ATOM     62  C   UNL A   1      42.635  29.422  34.572  1.00  0.00     0.037 A 
BRANCH  49  63
ATOM     63  C   UNL A   1      40.363  28.074  28.989  1.00  0.00     0.064 A 
ATOM     64  C   UNL A   1      41.093  28.419  27.842  1.00  0.00     0.173 A 
ATOM     65  C   UNL A   1      39.675  26.851  28.988  1.00  0.00     0.173 A 
ATOM     66  F   UNL A   1      41.754  29.585  27.789  1.00  0.00    -0.203 F 
ATOM     67  C   UNL A   1      41.109  27.587  26.726  1.00  0.00     0.198 A 
ATOM     68  C   UNL A   1      39.716  26.008  27.880  1.00  0.00     0.198 A 
ATOM     69  F   UNL A   1      38.963  26.473  30.061  1.00  0.00    -0.203 F 
ATOM     70  F   UNL A   1      41.770  27.963  25.623  1.00  0.00    -0.200 F 
ATOM     71  C   UNL A   1      40.425  26.380  26.748  1.00  0.00     0.200 A 
ATOM     72  F   UNL A   1      39.063  24.838  27.906  1.00  0.00    -0.200 F 
ATOM     73  F   UNL A   1      40.442  25.579  25.674  1.00  0.00    -0.200 F 
ENDBRANCH  49  63
BRANCH  50  74
ATOM     74  C   UNL A   1      39.563  34.070  36.941  1.00  0.00     0.064 A 
ATOM     75  C   UNL A   1      38.778  33.663  38.029  1.00  0.00     0.173 A 
ATOM     76  C   UNL A   1      40.209  35.311  37.029  1.00  0.00     0.173 A 
ATOM     77  F   UNL A   1      38.125  32.493  37.981  1.00  0.00    -0.203 F 
ATOM     78  C   UNL A   1      38.631  34.472  39.153  1.00  0.00     0.198 A 
ATOM     79  C   UNL A   1      40.080  36.109  38.164  1.00  0.00     0.198 A 
ATOM     80  F   UNL A   1      40.975  35.743  36.016  1.00  0.00    -0.203 F 
ATOM     81  F   UNL A   1      37.844  34.076  40.162  1.00  0.00    -0.200 F 
ATOM     82  C   UNL A   1      39.287  35.693  39.222  1.00  0.00     0.200 A 
ATOM     83  F   UNL A   1      40.725  37.283  38.232  1.00  0.00    -0.200 F 
ATOM     84  F   UNL A   1      39.148  36.470  40.305  1.00  0.00    -0.200 F 
ENDBRANCH  50  74
BRANCH  62  85
ATOM     85  C   UNL A   1      43.785  28.777  35.285  1.00  0.00     0.064 A 
ATOM     86  C   UNL A   1      45.104  29.215  35.101  1.00  0.00     0.173 A 
ATOM     87  C   UNL A   1      43.551  27.753  36.216  1.00  0.00     0.173 A 
ATOM     88  F   UNL A   1      45.376  30.181  34.210  1.00  0.00    -0.203 F 
ATOM     89  C   UNL A   1      46.151  28.642  35.817  1.00  0.00     0.198 A 
ATOM     90  C   UNL A   1      44.598  27.200  36.946  1.00  0.00     0.198 A 
ATOM     91  F   UNL A   1      42.305  27.306  36.429  1.00  0.00    -0.203 F 
ATOM     92  F   UNL A   1      47.408  29.055  35.606  1.00  0.00    -0.200 F 
ATOM     93  C   UNL A   1      45.896  27.642  36.744  1.00  0.00     0.200 A 
ATOM     94  F   UNL A   1      44.349  26.242  37.849  1.00  0.00    -0.200 F 
ATOM     95  F   UNL A   1      46.905  27.103  37.444  1.00  0.00    -0.200 F 
ENDBRANCH  62  85
ENDBRANCH  36  37
ENDBRANCH  28  31
ENDBRANCH  26  27
ENDBRANCH  25  26
ENDBRANCH   1  25
TORSDOF 13
ENDMDL
MODEL 2
REMARK VINA RESULT:     -13.6      0.591      7.376
REMARK SMILES Cc1ccc(C(=O)Nc2cccc(C(=O)NCCCCNC(=O)c3ccc(-c4c5nc(c(-c6c(F)c(F)c(F)c(F)c6F)c6ccc([nH]6)c(-c6c(F)c(F)c(F)c(F)c6F)c6nc(c(-c7c(F)c(F)c(F)c(F)c7F)c7ccc4[nH]7)C=C6)C=C5)cc3)c2)cc1C
REMARK SMILES IDX 18 1 17 2 16 3 14 4 15 5 13 7 9 8 10 9 87 10 11 11 12 12
REMARK SMILES IDX 8 13 6 14 7 15 5 17 1 18 2 19 3 20 89 21 4 22 88 23 90 24
REMARK SMILES IDX 19 25 20 26 21 27 22 28 23 30 24 31 25 32 86 33 26 34 85 35
REMARK SMILES IDX 27 36 28 37 29 38 79 39 30 40 84 41 78 42 80 43 31 44 83 45
REMARK SMILES IDX 77 46 76 47 32 49 64 50 44 51 63 52 45 53 48 54 62 55 81 56
REMARK SMILES IDX 46 57 47 58 61 60 82 61 49 62 33 63 34 64 42 65 35 66 36 67
REMARK SMILES IDX 40 68 43 69 37 70 38 71 41 72 39 73 65 74 66 75 74 76 67 77
REMARK SMILES IDX 68 78 72 79 75 80 69 81 70 82 73 83 71 84 50 85 51 86 59 87
REMARK SMILES IDX 52 88 53 89 57 90 60 91 54 92 55 93 58 94 56 95
REMARK H PARENT 16 6 8 16 21 29 80 48 48 59
REMARK Flexibility Score: inf
ROOT
ATOM      1  C   UNL A   1      31.651  30.629  26.568  1.00  0.00     0.023 C 
ENDROOT
BRANCH   1   2
ATOM      2  C   UNL A   1      33.074  30.127  26.318  1.00  0.00     0.116 C 
BRANCH   2   3
ATOM      3  N   UNL A   1      33.301  29.891  24.907  1.00  0.00    -0.352 N 
ATOM      4  C   UNL A   1      32.835  28.947  24.029  1.00  0.00     0.251 C 
ATOM      5  O   UNL A   1      33.225  29.042  22.864  1.00  0.00    -0.269 OA
ATOM      6  H   UNL A   1      33.915  30.541  24.496  1.00  0.00     0.163 HD
BRANCH   4   7
ATOM      7  C   UNL A   1      31.865  27.861  24.376  1.00  0.00     0.041 A 
ATOM      8  C   UNL A   1      31.101  25.900  25.595  1.00  0.00     0.042 A 
ATOM      9  C   UNL A   1      29.863  25.960  24.959  1.00  0.00     0.026 A 
ATOM     10  C   UNL A   1      32.121  26.786  25.228  1.00  0.00     0.040 A 
ATOM     11  C   UNL A   1      29.601  26.995  24.067  1.00  0.00     0.003 A 
ATOM     12  C   UNL A   1      30.585  27.952  23.801  1.00  0.00     0.014 A 
BRANCH   8  13
ATOM     13  N   UNL A   1      31.264  24.976  26.638  1.00  0.00    -0.322 N 
ATOM     14  C   UNL A   1      32.021  23.820  26.689  1.00  0.00     0.255 C 
ATOM     15  O   UNL A   1      31.806  23.010  27.592  1.00  0.00    -0.269 OA
ATOM     16  H   UNL A   1      30.761  25.183  27.459  1.00  0.00     0.170 HD
BRANCH  14  17
ATOM     17  C   UNL A   1      33.164  23.567  25.752  1.00  0.00     0.040 A 
ATOM     18  C   UNL A   1      36.541  22.713  23.173  1.00  0.00     0.044 C 
ATOM     19  C   UNL A   1      35.399  23.062  24.086  1.00  0.00    -0.048 A 
ATOM     20  C   UNL A   1      34.090  22.938  23.598  1.00  0.00     0.004 A 
ATOM     21  C   UNL A   1      35.592  23.556  25.389  1.00  0.00    -0.047 A 
ATOM     22  C   UNL A   1      32.990  23.230  24.408  1.00  0.00     0.014 A 
ATOM     23  C   UNL A   1      34.470  23.774  26.218  1.00  0.00     0.017 A 
ATOM     24  C   UNL A   1      36.944  23.946  25.924  1.00  0.00     0.044 C 
ENDBRANCH  14  17
ENDBRANCH   8  13
ENDBRANCH   4   7
ENDBRANCH   2   3
ENDBRANCH   1   2
BRANCH   1  25
ATOM     25  C   UNL A   1      31.544  32.154  26.628  1.00  0.00     0.023 C 
BRANCH  25  26
ATOM     26  C   UNL A   1      32.687  32.835  27.372  1.00  0.00     0.116 C 
BRANCH  26  27
ATOM     27  N   UNL A   1      32.432  34.234  27.679  1.00  0.00    -0.352 N 
ATOM     28  C   UNL A   1      33.066  35.014  28.619  1.00  0.00     0.251 C 
ATOM     29  H   UNL A   1      31.725  34.674  27.154  1.00  0.00     0.163 HD
ATOM     30  O   UNL A   1      32.713  36.162  28.842  1.00  0.00    -0.269 OA
BRANCH  28  31
ATOM     31  C   UNL A   1      34.170  34.409  29.389  1.00  0.00     0.039 A 
ATOM     32  C   UNL A   1      33.873  33.651  30.523  1.00  0.00     0.014 A 
ATOM     33  C   UNL A   1      35.483  34.524  28.926  1.00  0.00     0.014 A 
ATOM     34  C   UNL A   1      34.893  32.943  31.160  1.00  0.00     0.010 A 
ATOM     35  C   UNL A   1      36.485  33.771  29.525  1.00  0.00     0.010 A 
ATOM     36  C   UNL A   1      36.197  32.970  30.642  1.00  0.00    -0.014 A 
BRANCH  36  37
ATOM     37  C   UNL A   1      37.297  32.184  31.251  1.00  0.00     0.031 A 
ATOM     38  C   UNL A   1      37.788  32.549  32.622  1.00  0.00     0.074 A 
ATOM     39  C   UNL A   1      37.919  31.228  30.537  1.00  0.00     0.049 A 
ATOM     40  N   UNL A   1      38.845  32.125  33.265  1.00  0.00    -0.248 NA
ATOM     41  C   UNL A   1      37.000  33.555  33.352  1.00  0.00     0.031 C 
ATOM     42  C   UNL A   1      37.554  30.807  29.183  1.00  0.00     0.029 A 
ATOM     43  N   UNL A   1      39.009  30.452  30.844  1.00  0.00    -0.354 N 
ATOM     44  C   UNL A   1      38.868  32.837  34.457  1.00  0.00     0.074 A 
ATOM     45  C   UNL A   1      37.741  33.744  34.433  1.00  0.00     0.031 C 
ATOM     46  C   UNL A   1      38.401  29.845  28.779  1.00  0.00     0.029 A 
ATOM     47  C   UNL A   1      39.391  29.611  29.827  1.00  0.00     0.049 A 
ATOM     48  H   UNL A   1      39.473  30.495  31.711  1.00  0.00     0.167 HD
ATOM     49  C   UNL A   1      39.744  32.731  35.483  1.00  0.00     0.037 A 
ATOM     50  C   UNL A   1      40.432  28.762  29.745  1.00  0.00     0.037 A 
ATOM     51  C   UNL A   1      40.837  31.796  35.519  1.00  0.00     0.049 A 
ATOM     52  C   UNL A   1      41.381  28.649  30.909  1.00  0.00     0.074 A 
ATOM     53  C   UNL A   1      41.748  31.572  36.534  1.00  0.00     0.029 A 
ATOM     54  N   UNL A   1      41.157  30.922  34.490  1.00  0.00    -0.354 N 
ATOM     55  N   UNL A   1      41.372  29.297  32.048  1.00  0.00    -0.248 NA
ATOM     56  C   UNL A   1      42.482  27.684  30.777  1.00  0.00     0.031 C 
ATOM     57  C   UNL A   1      42.639  30.580  36.111  1.00  0.00     0.029 A 
ATOM     58  C   UNL A   1      42.258  30.161  34.845  1.00  0.00     0.049 A 
ATOM     59  H   UNL A   1      40.674  30.855  33.635  1.00  0.00     0.167 HD
ATOM     60  C   UNL A   1      42.440  28.798  32.780  1.00  0.00     0.074 A 
ATOM     61  C   UNL A   1      43.076  27.790  31.957  1.00  0.00     0.031 C 
ATOM     62  C   UNL A   1      42.855  29.142  34.022  1.00  0.00     0.037 A 
BRANCH  49  63
ATOM     63  C   UNL A   1      39.552  33.651  36.652  1.00  0.00     0.064 A 
ATOM     64  C   UNL A   1      38.789  33.273  37.766  1.00  0.00     0.173 A 
ATOM     65  C   UNL A   1      40.156  34.917  36.666  1.00  0.00     0.173 A 
ATOM     66  F   UNL A   1      38.179  32.078  37.793  1.00  0.00    -0.203 F 
ATOM     67  C   UNL A   1      38.611  34.142  38.839  1.00  0.00     0.198 A 
ATOM     68  C   UNL A   1      39.999  35.772  37.753  1.00  0.00     0.198 A 
ATOM     69  F   UNL A   1      40.897  35.325  35.625  1.00  0.00    -0.203 F 
ATOM     70  F   UNL A   1      37.835  33.780  39.870  1.00  0.00    -0.200 F 
ATOM     71  C   UNL A   1      39.221  35.388  38.834  1.00  0.00     0.200 A 
ATOM     72  F   UNL A   1      40.596  36.972  37.751  1.00  0.00    -0.200 F 
ATOM     73  F   UNL A   1      39.051  36.222  39.870  1.00  0.00    -0.200 F 
ENDBRANCH  49  63
BRANCH  50  74
ATOM     74  C   UNL A   1      40.620  27.934  28.527  1.00  0.00     0.064 A 
ATOM     75  C   UNL A   1      41.353  28.422  27.437  1.00  0.00     0.173 A 
ATOM     76  C   UNL A   1      40.077  26.645  28.426  1.00  0.00     0.173 A 
ATOM     77  F   UNL A   1      41.872  29.658  27.480  1.00  0.00    -0.203 F 
ATOM     78  C   UNL A   1      41.522  27.660  26.283  1.00  0.00     0.198 A 
ATOM     79  C   UNL A   1      40.267  25.874  27.281  1.00  0.00     0.198 A 
ATOM     80  F   UNL A   1      39.372  26.131  29.444  1.00  0.00    -0.203 F 
ATOM     81  F   UNL A   1      42.193  28.166  25.240  1.00  0.00    -0.200 F 
ATOM     82  C   UNL A   1      40.983  26.384  26.208  1.00  0.00     0.200 A 
ATOM     83  F   UNL A   1      39.754  24.637  27.216  1.00  0.00    -0.200 F 
ATOM     84  F   UNL A   1      41.148  25.649  25.100  1.00  0.00    -0.200 F 
ENDBRANCH  50  74
BRANCH  62  85
ATOM     85  C   UNL A   1      44.015  28.388  34.597  1.00  0.00     0.064 A 
ATOM     86  C   UNL A   1      45.333  28.844  34.454  1.00  0.00     0.173 A 
ATOM     87  C   UNL A   1      43.795  27.232  35.362  1.00  0.00     0.173 A 
ATOM     88  F   UNL A   1      45.593  29.936  33.719  1.00  0.00    -0.203 F 
ATOM     89  C   UNL A   1      46.392  28.162  35.047  1.00  0.00     0.198 A 
ATOM     90  C   UNL A   1      44.853  26.567  35.972  1.00  0.00     0.198 A 
ATOM     91  F   UNL A   1      42.550  26.762  35.531  1.00  0.00    -0.203 F 
ATOM     92  F   UNL A   1      47.647  28.597  34.874  1.00  0.00    -0.200 F 
ATOM     93  C   UNL A   1      46.150  27.030  35.812  1.00  0.00     0.200 A 
ATOM     94  F   UNL A   1      44.617  25.480  36.720  1.00  0.00    -0.200 F 
ATOM     95  F   UNL A   1      47.170  26.384  36.395  1.00  0.00    -0.200 F 
ENDBRANCH  62  85
ENDBRANCH  36  37
ENDBRANCH  28  31
ENDBRANCH  26  27
ENDBRANCH  25  26
ENDBRANCH   1  25
TORSDOF 13
ENDMDL
MODEL 3
REMARK VINA RESULT:     -13.6      0.173      1.593
REMARK SMILES Cc1ccc(C(=O)Nc2cccc(C(=O)NCCCCNC(=O)c3ccc(-c4c5nc(c(-c6c(F)c(F)c(F)c(F)c6F)c6ccc([nH]6)c(-c6c(F)c(F)c(F)c(F)c6F)c6nc(c(-c7c(F)c(F)c(F)c(F)c7F)c7ccc4[nH]7)C=C6)C=C5)cc3)c2)cc1C
REMARK SMILES IDX 18 1 17 2 16 3 14 4 15 5 13 7 9 8 10 9 87 10 11 11 12 12
REMARK SMILES IDX 8 13 6 14 7 15 5 17 1 18 2 19 3 20 89 21 4 22 88 23 90 24
REMARK SMILES IDX 19 25 20 26 21 27 22 28 23 30 24 31 25 32 86 33 26 34 85 35
REMARK SMILES IDX 27 36 28 37 29 38 79 39 30 40 84 41 78 42 80 43 31 44 83 45
REMARK SMILES IDX 77 46 76 47 32 49 64 50 44 51 63 52 45 53 48 54 62 55 81 56
REMARK SMILES IDX 46 57 47 58 61 60 82 61 49 62 33 63 34 64 42 65 35 66 36 67
REMARK SMILES IDX 40 68 43 69 37 70 38 71 41 72 39 73 65 74 66 75 74 76 67 77
REMARK SMILES IDX 68 78 72 79 75 80 69 81 70 82 73 83 71 84 50 85 51 86 59 87
REMARK SMILES IDX 52 88 53 89 57 90 60 91 54 92 55 93 58 94 56 95
REMARK H PARENT 16 6 8 16 21 29 80 48 48 59
REMARK Flexibility Score: inf
ROOT
ATOM      1  C   UNL A   1      32.122  30.194  26.957  1.00  0.00     0.023 C 
ENDROOT
BRANCH   1   2
ATOM      2  C   UNL A   1      33.439  29.737  26.326  1.00  0.00     0.116 C 
BRANCH   2   3
ATOM      3  N   UNL A   1      33.349  29.734  24.881  1.00  0.00    -0.352 N 
ATOM      4  C   UNL A   1      32.663  28.952  23.987  1.00  0.00     0.251 C 
ATOM      5  O   UNL A   1      32.801  29.234  22.794  1.00  0.00    -0.269 OA
ATOM      6  H   UNL A   1      33.889  30.437  24.453  1.00  0.00     0.163 HD
BRANCH   4   7
ATOM      7  C   UNL A   1      31.742  27.834  24.359  1.00  0.00     0.041 A 
ATOM      8  C   UNL A   1      31.069  25.863  25.617  1.00  0.00     0.042 A 
ATOM      9  C   UNL A   1      29.824  25.863  24.992  1.00  0.00     0.026 A 
ATOM     10  C   UNL A   1      32.050  26.783  25.226  1.00  0.00     0.040 A 
ATOM     11  C   UNL A   1      29.512  26.872  24.087  1.00  0.00     0.003 A 
ATOM     12  C   UNL A   1      30.454  27.864  23.796  1.00  0.00     0.014 A 
BRANCH   8  13
ATOM     13  N   UNL A   1      31.279  24.964  26.672  1.00  0.00    -0.322 N 
ATOM     14  C   UNL A   1      32.060  23.823  26.724  1.00  0.00     0.255 C 
ATOM     15  O   UNL A   1      31.886  23.028  27.648  1.00  0.00    -0.269 OA
ATOM     16  H   UNL A   1      30.795  25.177  27.503  1.00  0.00     0.170 HD
BRANCH  14  17
ATOM     17  C   UNL A   1      33.181  23.573  25.760  1.00  0.00     0.040 A 
ATOM     18  C   UNL A   1      36.497  22.727  23.101  1.00  0.00     0.044 C 
ATOM     19  C   UNL A   1      35.377  23.073  24.042  1.00  0.00    -0.048 A 
ATOM     20  C   UNL A   1      34.058  22.970  23.579  1.00  0.00     0.004 A 
ATOM     21  C   UNL A   1      35.601  23.545  25.349  1.00  0.00    -0.047 A 
ATOM     22  C   UNL A   1      32.977  23.259  24.415  1.00  0.00     0.014 A 
ATOM     23  C   UNL A   1      34.499  23.760  26.203  1.00  0.00     0.017 A 
ATOM     24  C   UNL A   1      36.968  23.913  25.862  1.00  0.00     0.044 C 
ENDBRANCH  14  17
ENDBRANCH   8  13
ENDBRANCH   4   7
ENDBRANCH   2   3
ENDBRANCH   1   2
BRANCH   1  25
ATOM     25  C   UNL A   1      31.856  31.692  26.795  1.00  0.00     0.023 C 
BRANCH  25  26
ATOM     26  C   UNL A   1      32.915  32.589  27.424  1.00  0.00     0.116 C 
BRANCH  26  27
ATOM     27  N   UNL A   1      32.465  33.956  27.645  1.00  0.00    -0.352 N 
ATOM     28  C   UNL A   1      32.984  34.874  28.529  1.00  0.00     0.251 C 
ATOM     29  H   UNL A   1      31.704  34.258  27.099  1.00  0.00     0.163 HD
ATOM     30  O   UNL A   1      32.473  35.973  28.682  1.00  0.00    -0.269 OA
BRANCH  28  31
ATOM     31  C   UNL A   1      34.162  34.480  29.325  1.00  0.00     0.039 A 
ATOM     32  C   UNL A   1      33.971  33.829  30.545  1.00  0.00     0.014 A 
ATOM     33  C   UNL A   1      35.445  34.679  28.810  1.00  0.00     0.014 A 
ATOM     34  C   UNL A   1      35.074  33.309  31.224  1.00  0.00     0.010 A 
ATOM     35  C   UNL A   1      36.535  34.109  29.456  1.00  0.00     0.010 A 
ATOM     36  C   UNL A   1      36.357  33.414  30.664  1.00  0.00    -0.014 A 
BRANCH  36  37
ATOM     37  C   UNL A   1      37.548  32.823  31.321  1.00  0.00     0.031 A 
ATOM     38  C   UNL A   1      38.269  31.690  30.651  1.00  0.00     0.074 A 
ATOM     39  C   UNL A   1      37.909  33.227  32.553  1.00  0.00     0.049 A 
ATOM     40  N   UNL A   1      39.208  30.910  31.121  1.00  0.00    -0.248 NA
ATOM     41  C   UNL A   1      37.849  31.370  29.278  1.00  0.00     0.031 C 
ATOM     42  C   UNL A   1      37.266  34.295  33.319  1.00  0.00     0.029 A 
ATOM     43  N   UNL A   1      38.894  32.764  33.390  1.00  0.00    -0.354 N 
ATOM     44  C   UNL A   1      39.465  29.987  30.116  1.00  0.00     0.074 A 
ATOM     45  C   UNL A   1      38.560  30.281  29.026  1.00  0.00     0.031 C 
ATOM     46  C   UNL A   1      37.877  34.411  34.510  1.00  0.00     0.029 A 
ATOM     47  C   UNL A   1      38.926  33.400  34.607  1.00  0.00     0.049 A 
ATOM     48  H   UNL A   1      39.519  32.045  33.142  1.00  0.00     0.167 HD
ATOM     49  C   UNL A   1      40.384  28.993  30.101  1.00  0.00     0.037 A 
ATOM     50  C   UNL A   1      39.702  33.178  35.684  1.00  0.00     0.037 A 
ATOM     51  C   UNL A   1      41.310  28.734  31.171  1.00  0.00     0.049 A 
ATOM     52  C   UNL A   1      40.730  32.079  35.635  1.00  0.00     0.074 A 
ATOM     53  C   UNL A   1      42.315  27.787  31.232  1.00  0.00     0.029 A 
ATOM     54  N   UNL A   1      41.346  29.437  32.367  1.00  0.00    -0.354 N 
ATOM     55  N   UNL A   1      40.993  31.237  34.666  1.00  0.00    -0.248 NA
ATOM     56  C   UNL A   1      41.571  31.902  36.828  1.00  0.00     0.031 C 
ATOM     57  C   UNL A   1      42.944  27.897  32.476  1.00  0.00     0.029 A 
ATOM     58  C   UNL A   1      42.354  28.939  33.175  1.00  0.00     0.049 A 
ATOM     59  H   UNL A   1      40.744  30.178  32.605  1.00  0.00     0.167 HD
ATOM     60  C   UNL A   1      42.048  30.455  35.115  1.00  0.00     0.074 A 
ATOM     61  C   UNL A   1      42.378  30.923  36.445  1.00  0.00     0.031 C 
ATOM     62  C   UNL A   1      42.685  29.441  34.483  1.00  0.00     0.037 A 
BRANCH  49  63
ATOM     63  C   UNL A   1      40.430  28.115  28.887  1.00  0.00     0.064 A 
ATOM     64  C   UNL A   1      41.164  28.474  27.748  1.00  0.00     0.173 A 
ATOM     65  C   UNL A   1      39.749  26.889  28.871  1.00  0.00     0.173 A 
ATOM     66  F   UNL A   1      41.820  29.644  27.709  1.00  0.00    -0.203 F 
ATOM     67  C   UNL A   1      41.191  27.653  26.624  1.00  0.00     0.198 A 
ATOM     68  C   UNL A   1      39.800  26.056  27.756  1.00  0.00     0.198 A 
ATOM     69  F   UNL A   1      39.034  26.497  29.937  1.00  0.00    -0.203 F 
ATOM     70  F   UNL A   1      41.856  28.042  25.528  1.00  0.00    -0.200 F 
ATOM     71  C   UNL A   1      40.513  26.442  26.632  1.00  0.00     0.200 A 
ATOM     72  F   UNL A   1      39.153  24.883  27.768  1.00  0.00    -0.200 F 
ATOM     73  F   UNL A   1      40.541  25.652  25.550  1.00  0.00    -0.200 F 
ENDBRANCH  49  63
BRANCH  50  74
ATOM     74  C   UNL A   1      39.556  34.029  36.893  1.00  0.00     0.064 A 
ATOM     75  C   UNL A   1      40.207  35.267  36.980  1.00  0.00     0.173 A 
ATOM     76  C   UNL A   1      38.768  33.627  37.981  1.00  0.00     0.173 A 
ATOM     77  F   UNL A   1      40.988  35.683  35.972  1.00  0.00    -0.203 F 
ATOM     78  C   UNL A   1      40.089  36.065  38.115  1.00  0.00     0.198 A 
ATOM     79  C   UNL A   1      38.632  34.436  39.107  1.00  0.00     0.198 A 
ATOM     80  F   UNL A   1      38.121  32.452  37.945  1.00  0.00    -0.203 F 
ATOM     81  F   UNL A   1      40.754  37.226  38.188  1.00  0.00    -0.200 F 
ATOM     82  C   UNL A   1      39.298  35.651  39.177  1.00  0.00     0.200 A 
ATOM     83  F   UNL A   1      37.857  34.038  40.126  1.00  0.00    -0.200 F 
ATOM     84  F   UNL A   1      39.182  36.420  40.268  1.00  0.00    -0.200 F 
ENDBRANCH  50  74
BRANCH  62  85
ATOM     85  C   UNL A   1      43.842  28.803  35.190  1.00  0.00     0.064 A 
ATOM     86  C   UNL A   1      43.669  27.703  36.041  1.00  0.00     0.173 A 
ATOM     87  C   UNL A   1      45.149  29.258  34.954  1.00  0.00     0.173 A 
ATOM     88  F   UNL A   1      42.438  27.243  36.307  1.00  0.00    -0.203 F 
ATOM     89  C   UNL A   1      44.764  27.087  36.641  1.00  0.00     0.198 A 
ATOM     90  C   UNL A   1      46.241  28.625  35.537  1.00  0.00     0.198 A 
ATOM     91  F   UNL A   1      45.363  30.304  34.143  1.00  0.00    -0.203 F 
ATOM     92  F   UNL A   1      44.576  26.055  37.474  1.00  0.00    -0.200 F 
ATOM     93  C   UNL A   1      46.049  27.543  36.382  1.00  0.00     0.200 A 
ATOM     94  F   UNL A   1      47.483  29.060  35.277  1.00  0.00    -0.200 F 
ATOM     95  F   UNL A   1      47.103  26.938  36.949  1.00  0.00    -0.200 F 
ENDBRANCH  62  85
ENDBRANCH  36  37
ENDBRANCH  28  31
ENDBRANCH  26  27
ENDBRANCH  25  26
ENDBRANCH   1  25
TORSDOF 13
ENDMDL
