MODEL 1
REMARK VINA RESULT:     -14.8      0.000      0.000
REMARK SMILES CC(C)[C@@H]1C(=O)Nc2ccccc2N1C(=O)N[C@H](Cc1ccccc1)C(=O)NCCCCNC(=O)c1ccc(-c2c3nc(c(-c4c(F)c(F)c(F)c(F)c4F)c4ccc([nH]4)c(-c4c(F)c(F)c(F)c(F)c4F)c4nc(c(-c5c(F)c(F)c(F)c(F)c5F)c5ccc2[nH]5)C=C4)C=C3)cc1
REMARK SMILES IDX 30 1 29 2 28 3 26 4 27 5 18 7 17 8 15 9 16 10 14 12 4 13
REMARK SMILES IDX 5 14 6 15 7 16 13 17 8 18 12 20 9 21 11 22 10 23 2 24 1 25
REMARK SMILES IDX 3 26 19 27 20 28 21 29 25 30 22 31 24 32 23 33 31 34 32 35
REMARK SMILES IDX 33 36 34 37 35 39 36 40 37 41 98 42 38 43 97 44 39 45 40 46
REMARK SMILES IDX 41 47 91 48 42 49 96 50 90 51 92 52 43 53 95 54 89 55 88 56
REMARK SMILES IDX 44 58 76 59 56 60 75 61 57 62 60 63 74 64 93 65 58 66 59 67
REMARK SMILES IDX 73 69 94 70 61 71 45 72 46 73 54 74 47 75 48 76 52 77 55 78
REMARK SMILES IDX 49 79 50 80 53 81 51 82 77 83 78 84 86 85 79 86 80 87 84 88
REMARK SMILES IDX 87 89 81 90 82 91 85 92 83 93 62 94 63 95 71 96 64 97 65 98
REMARK SMILES IDX 69 99 72 100 66 101 67 102 70 103 68 104
REMARK H PARENT 28 6 17 11 7 19 33 38 92 57 60 68
REMARK Flexibility Score: inf
ROOT
ATOM      1  C   UNL A   1      35.388  31.147  27.750  1.00  0.00     0.023 C 
ENDROOT
BRANCH   1   2
ATOM      2  C   UNL A   1      34.729  29.620  27.510  1.00  0.00     0.116 C 
BRANCH   2   3
ATOM      3  N   UNL A   1      32.837  28.789  27.639  1.00  0.00    -0.354 N 
ATOM      4  C   UNL A   1      31.977  27.524  27.257  1.00  0.00     0.242 C 
ATOM      5  O   UNL A   1      30.791  27.591  27.620  1.00  0.00    -0.273 OA
ATOM      6  H   UNL A   1      32.256  29.422  28.119  1.00  0.00     0.163 HD
BRANCH   4   7
ATOM      7  C   UNL A   1      32.516  26.046  26.314  1.00  0.00     0.177 C 
BRANCH   7   8
ATOM      8  N   UNL A   1      31.909  25.017  27.082  1.00  0.00    -0.326 N 
ATOM      9  C   UNL A   1      30.859  24.381  26.492  1.00  0.00     0.323 C 
ATOM     10  O   UNL A   1      30.147  23.646  27.170  1.00  0.00    -0.248 OA
ATOM     11  H   UNL A   1      32.228  24.779  27.982  1.00  0.00     0.166 HD
BRANCH   9  12
ATOM     12  N   UNL A   1      30.856  24.440  25.101  1.00  0.00    -0.280 N 
ATOM     13  C   UNL A   1      30.918  25.885  23.748  1.00  0.00     0.184 C 
ATOM     14  C   UNL A   1      31.771  25.427  22.020  1.00  0.00     0.247 C 
ATOM     15  O   UNL A   1      31.954  26.222  21.105  1.00  0.00    -0.272 OA
ATOM     16  N   UNL A   1      32.271  23.787  21.831  1.00  0.00    -0.322 N 
ATOM     17  C   UNL A   1      31.633  22.833  24.597  1.00  0.00     0.070 A 
ATOM     18  C   UNL A   1      32.197  22.535  23.046  1.00  0.00     0.065 A 
ATOM     19  H   UNL A   1      32.633  23.532  20.952  1.00  0.00     0.170 HD
ATOM     20  C   UNL A   1      31.853  21.792  25.484  1.00  0.00     0.028 A 
ATOM     21  C   UNL A   1      32.407  21.232  22.631  1.00  0.00     0.028 A 
ATOM     22  C   UNL A   1      32.222  20.521  24.973  1.00  0.00     0.002 A 
ATOM     23  C   UNL A   1      32.361  20.230  23.596  1.00  0.00     0.002 A 
BRANCH  13  24
ATOM     24  C   UNL A   1      29.875  27.006  23.481  1.00  0.00     0.015 C 
ATOM     25  C   UNL A   1      28.458  26.620  23.870  1.00  0.00     0.010 C 
ATOM     26  C   UNL A   1      30.492  28.430  23.772  1.00  0.00     0.010 C 
ENDBRANCH  13  24
ENDBRANCH   9  12
ENDBRANCH   7   8
BRANCH   7  27
ATOM     27  C   UNL A   1      34.007  25.443  26.020  1.00  0.00     0.070 C 
BRANCH  27  28
ATOM     28  C   UNL A   1      34.809  24.272  25.386  1.00  0.00    -0.045 A 
ATOM     29  C   UNL A   1      35.072  23.160  26.260  1.00  0.00     0.004 A 
ATOM     30  C   UNL A   1      35.164  24.058  24.062  1.00  0.00     0.004 A 
ATOM     31  C   UNL A   1      35.584  21.921  25.865  1.00  0.00     0.000 A 
ATOM     32  C   UNL A   1      35.727  22.810  23.656  1.00  0.00     0.000 A 
ATOM     33  C   UNL A   1      35.918  21.743  24.543  1.00  0.00     0.000 A 
ENDBRANCH  27  28
ENDBRANCH   7  27
ENDBRANCH   4   7
ENDBRANCH   2   3
ENDBRANCH   1   2
BRANCH   1  34
ATOM     34  C   UNL A   1      34.822  32.556  27.556  1.00  0.00     0.023 C 
BRANCH  34  35
ATOM     35  C   UNL A   1      33.345  32.761  27.787  1.00  0.00     0.116 C 
BRANCH  35  36
ATOM     36  N   UNL A   1      33.012  34.108  28.198  1.00  0.00    -0.352 N 
ATOM     37  C   UNL A   1      33.587  34.842  29.197  1.00  0.00     0.251 C 
ATOM     38  H   UNL A   1      32.285  34.547  27.699  1.00  0.00     0.163 HD
ATOM     39  O   UNL A   1      33.117  35.922  29.534  1.00  0.00    -0.269 OA
BRANCH  37  40
ATOM     40  C   UNL A   1      34.751  34.294  29.906  1.00  0.00     0.039 A 
ATOM     41  C   UNL A   1      34.526  33.470  31.004  1.00  0.00     0.014 A 
ATOM     42  C   UNL A   1      36.052  34.589  29.494  1.00  0.00     0.014 A 
ATOM     43  C   UNL A   1      35.614  32.939  31.684  1.00  0.00     0.010 A 
ATOM     44  C   UNL A   1      37.141  34.063  30.160  1.00  0.00     0.010 A 
ATOM     45  C   UNL A   1      36.921  33.236  31.260  1.00  0.00    -0.014 A 
BRANCH  45  46
ATOM     46  C   UNL A   1      38.075  32.585  31.893  1.00  0.00     0.031 A 
ATOM     47  C   UNL A   1      38.618  33.098  33.185  1.00  0.00     0.074 A 
ATOM     48  C   UNL A   1      38.635  31.559  31.235  1.00  0.00     0.049 A 
ATOM     49  N   UNL A   1      39.554  32.585  33.936  1.00  0.00    -0.248 NA
ATOM     50  C   UNL A   1      38.060  34.362  33.690  1.00  0.00     0.031 C 
ATOM     51  C   UNL A   1      38.215  31.081  29.914  1.00  0.00     0.029 A 
ATOM     52  N   UNL A   1      39.659  30.726  31.583  1.00  0.00    -0.354 N 
ATOM     53  C   UNL A   1      39.678  33.444  35.017  1.00  0.00     0.074 A 
ATOM     54  C   UNL A   1      38.781  34.555  34.786  1.00  0.00     0.031 C 
ATOM     55  C   UNL A   1      38.937  30.000  29.590  1.00  0.00     0.029 A 
ATOM     56  C   UNL A   1      39.887  29.735  30.664  1.00  0.00     0.049 A 
ATOM     57  H   UNL A   1      40.182  30.829  32.410  1.00  0.00     0.167 HD
ATOM     58  C   UNL A   1      40.457  33.289  36.113  1.00  0.00     0.037 A 
ATOM     59  C   UNL A   1      40.760  28.715  30.705  1.00  0.00     0.037 A 
ATOM     60  C   UNL A   1      41.358  32.179  36.287  1.00  0.00     0.049 A 
ATOM     61  C   UNL A   1      41.616  28.572  31.932  1.00  0.00     0.074 A 
ATOM     62  C   UNL A   1      42.171  31.885  37.366  1.00  0.00     0.029 A 
ATOM     63  N   UNL A   1      41.578  31.187  35.338  1.00  0.00    -0.354 N 
ATOM     64  N   UNL A   1      41.653  29.323  33.008  1.00  0.00    -0.248 NA
ATOM     65  C   UNL A   1      42.535  27.432  31.960  1.00  0.00     0.031 C 
ATOM     66  C   UNL A   1      42.934  30.759  37.039  1.00  0.00     0.029 A 
ATOM     67  C   UNL A   1      42.536  30.297  35.794  1.00  0.00     0.049 A 
ATOM     68  H   UNL A   1      41.119  31.126  34.469  1.00  0.00     0.167 HD
ATOM     69  C   UNL A   1      42.576  28.730  33.856  1.00  0.00     0.074 A 
ATOM     70  C   UNL A   1      43.055  27.543  33.174  1.00  0.00     0.031 C 
ATOM     71  C   UNL A   1      42.991  29.125  35.086  1.00  0.00     0.037 A 
BRANCH  58  72
ATOM     72  C   UNL A   1      40.369  34.337  37.185  1.00  0.00     0.064 A 
ATOM     73  C   UNL A   1      39.429  34.253  38.226  1.00  0.00     0.173 A 
ATOM     74  C   UNL A   1      41.252  35.428  37.192  1.00  0.00     0.173 A 
ATOM     75  F   UNL A   1      38.553  33.238  38.265  1.00  0.00    -0.203 F 
ATOM     76  C   UNL A   1      39.354  35.236  39.209  1.00  0.00     0.198 A 
ATOM     77  C   UNL A   1      41.199  36.389  38.198  1.00  0.00     0.198 A 
ATOM     78  F   UNL A   1      42.172  35.561  36.223  1.00  0.00    -0.203 F 
ATOM     79  F   UNL A   1      38.410  35.162  40.158  1.00  0.00    -0.200 F 
ATOM     80  C   UNL A   1      40.245  36.299  39.199  1.00  0.00     0.200 A 
ATOM     81  F   UNL A   1      42.069  37.409  38.194  1.00  0.00    -0.200 F 
ATOM     82  F   UNL A   1      40.177  37.240  40.151  1.00  0.00    -0.200 F 
ENDBRANCH  58  72
BRANCH  59  83
ATOM     83  C   UNL A   1      40.827  27.747  29.582  1.00  0.00     0.064 A 
ATOM     84  C   UNL A   1      41.857  27.803  28.632  1.00  0.00     0.173 A 
ATOM     85  C   UNL A   1      39.864  26.736  29.438  1.00  0.00     0.173 A 
ATOM     86  F   UNL A   1      42.802  28.749  28.726  1.00  0.00    -0.203 F 
ATOM     87  C   UNL A   1      41.898  26.914  27.561  1.00  0.00     0.198 A 
ATOM     88  C   UNL A   1      39.927  25.824  28.387  1.00  0.00     0.198 A 
ATOM     89  F   UNL A   1      38.870  26.623  30.331  1.00  0.00    -0.203 F 
ATOM     90  F   UNL A   1      42.860  27.028  26.636  1.00  0.00    -0.200 F 
ATOM     91  C   UNL A   1      40.935  25.923  27.442  1.00  0.00     0.200 A 
ATOM     92  F   UNL A   1      39.010  24.852  28.293  1.00  0.00    -0.200 F 
ATOM     93  F   UNL A   1      40.976  25.066  26.412  1.00  0.00    -0.200 F 
ENDBRANCH  59  83
BRANCH  71  94
ATOM     94  C   UNL A   1      43.978  28.232  35.785  1.00  0.00     0.064 A 
ATOM     95  C   UNL A   1      45.362  28.367  35.602  1.00  0.00     0.173 A 
ATOM     96  C   UNL A   1      43.525  27.237  36.665  1.00  0.00     0.173 A 
ATOM     97  F   UNL A   1      45.847  29.295  34.763  1.00  0.00    -0.203 F 
ATOM     98  C   UNL A   1      46.253  27.505  36.236  1.00  0.00     0.198 A 
ATOM     99  C   UNL A   1      44.420  26.408  37.333  1.00  0.00     0.198 A 
ATOM    100  F   UNL A   1      42.211  27.073  36.885  1.00  0.00    -0.203 F 
ATOM    101  F   UNL A   1      47.566  27.601  35.986  1.00  0.00    -0.200 F 
ATOM    102  C   UNL A   1      45.783  26.532  37.106  1.00  0.00     0.200 A 
ATOM    103  F   UNL A   1      43.964  25.486  38.190  1.00  0.00    -0.200 F 
ATOM    104  F   UNL A   1      46.642  25.707  37.718  1.00  0.00    -0.200 F 
ENDBRANCH  71  94
ENDBRANCH  45  46
ENDBRANCH  37  40
ENDBRANCH  35  36
ENDBRANCH  34  35
ENDBRANCH   1  34
TORSDOF 16
ENDMDL
MODEL 2
REMARK VINA RESULT:     -14.6      4.484      8.751
REMARK SMILES CC(C)[C@@H]1C(=O)Nc2ccccc2N1C(=O)N[C@H](Cc1ccccc1)C(=O)NCCCCNC(=O)c1ccc(-c2c3nc(c(-c4c(F)c(F)c(F)c(F)c4F)c4ccc([nH]4)c(-c4c(F)c(F)c(F)c(F)c4F)c4nc(c(-c5c(F)c(F)c(F)c(F)c5F)c5ccc2[nH]5)C=C4)C=C3)cc1
REMARK SMILES IDX 30 1 29 2 28 3 26 4 27 5 18 7 17 8 15 9 16 10 14 12 4 13
REMARK SMILES IDX 5 14 6 15 7 16 13 17 8 18 12 20 9 21 11 22 10 23 2 24 1 25
REMARK SMILES IDX 3 26 19 27 20 28 21 29 25 30 22 31 24 32 23 33 31 34 32 35
REMARK SMILES IDX 33 36 34 37 35 39 36 40 37 41 98 42 38 43 97 44 39 45 40 46
REMARK SMILES IDX 41 47 91 48 42 49 96 50 90 51 92 52 43 53 95 54 89 55 88 56
REMARK SMILES IDX 44 58 76 59 56 60 75 61 57 62 60 63 74 64 93 65 58 66 59 67
REMARK SMILES IDX 73 69 94 70 61 71 45 72 46 73 54 74 47 75 48 76 52 77 55 78
REMARK SMILES IDX 49 79 50 80 53 81 51 82 77 83 78 84 86 85 79 86 80 87 84 88
REMARK SMILES IDX 87 89 81 90 82 91 85 92 83 93 62 94 63 95 71 96 64 97 65 98
REMARK SMILES IDX 69 99 72 100 66 101 67 102 70 103 68 104
REMARK H PARENT 28 6 17 11 7 19 33 38 92 57 60 68
REMARK Flexibility Score: inf
ROOT
ATOM      1  C   UNL A   1      35.543  31.123  28.022  1.00  0.00     0.023 C 
ENDROOT
BRANCH   1   2
ATOM      2  C   UNL A   1      34.804  29.711  27.490  1.00  0.00     0.116 C 
BRANCH   2   3
ATOM      3  N   UNL A   1      32.910  28.888  27.634  1.00  0.00    -0.354 N 
ATOM      4  C   UNL A   1      32.039  27.630  27.255  1.00  0.00     0.242 C 
ATOM      5  O   UNL A   1      30.857  27.700  27.631  1.00  0.00    -0.273 OA
ATOM      6  H   UNL A   1      32.337  29.520  28.125  1.00  0.00     0.163 HD
BRANCH   4   7
ATOM      7  C   UNL A   1      32.560  26.154  26.297  1.00  0.00     0.177 C 
BRANCH   7   8
ATOM      8  N   UNL A   1      31.976  25.123  27.077  1.00  0.00    -0.326 N 
ATOM      9  C   UNL A   1      30.926  24.471  26.504  1.00  0.00     0.323 C 
ATOM     10  O   UNL A   1      30.231  23.731  27.194  1.00  0.00    -0.248 OA
ATOM     11  H   UNL A   1      32.308  24.892  27.974  1.00  0.00     0.166 HD
BRANCH   9  12
ATOM     12  N   UNL A   1      30.905  24.523  25.112  1.00  0.00    -0.280 N 
ATOM     13  C   UNL A   1      30.955  25.961  23.751  1.00  0.00     0.184 C 
ATOM     14  C   UNL A   1      31.784  25.490  22.015  1.00  0.00     0.247 C 
ATOM     15  O   UNL A   1      31.958  26.281  21.093  1.00  0.00    -0.272 OA
ATOM     16  N   UNL A   1      32.275  23.848  21.828  1.00  0.00    -0.322 N 
ATOM     17  C   UNL A   1      31.669  22.910  24.606  1.00  0.00     0.070 A 
ATOM     18  C   UNL A   1      32.212  22.603  23.050  1.00  0.00     0.065 A 
ATOM     19  H   UNL A   1      32.625  23.587  20.945  1.00  0.00     0.170 HD
ATOM     20  C   UNL A   1      31.897  21.873  25.496  1.00  0.00     0.028 A 
ATOM     21  C   UNL A   1      32.412  21.297  22.639  1.00  0.00     0.028 A 
ATOM     22  C   UNL A   1      32.255  20.598  24.987  1.00  0.00     0.002 A 
ATOM     23  C   UNL A   1      32.374  20.300  23.610  1.00  0.00     0.002 A 
BRANCH  13  24
ATOM     24  C   UNL A   1      29.913  27.085  23.492  1.00  0.00     0.015 C 
ATOM     25  C   UNL A   1      28.489  26.681  23.835  1.00  0.00     0.010 C 
ATOM     26  C   UNL A   1      30.516  28.502  23.839  1.00  0.00     0.010 C 
ENDBRANCH  13  24
ENDBRANCH   9  12
ENDBRANCH   7   8
BRANCH   7  27
ATOM     27  C   UNL A   1      34.046  25.557  25.967  1.00  0.00     0.070 C 
BRANCH  27  28
ATOM     28  C   UNL A   1      34.838  24.350  25.390  1.00  0.00    -0.045 A 
ATOM     29  C   UNL A   1      35.077  23.272  26.311  1.00  0.00     0.004 A 
ATOM     30  C   UNL A   1      35.204  24.077  24.080  1.00  0.00     0.004 A 
ATOM     31  C   UNL A   1      35.575  22.010  25.973  1.00  0.00     0.000 A 
ATOM     32  C   UNL A   1      35.753  22.806  23.732  1.00  0.00     0.000 A 
ATOM     33  C   UNL A   1      35.920  21.773  24.663  1.00  0.00     0.000 A 
ENDBRANCH  27  28
ENDBRANCH   7  27
ENDBRANCH   4   7
ENDBRANCH   2   3
ENDBRANCH   1   2
BRANCH   1  34
ATOM     34  C   UNL A   1      35.087  32.227  28.979  1.00  0.00     0.023 C 
BRANCH  34  35
ATOM     35  C   UNL A   1      35.099  31.928  30.458  1.00  0.00     0.116 C 
BRANCH  35  36
ATOM     36  N   UNL A   1      35.481  33.064  31.269  1.00  0.00    -0.352 N 
ATOM     37  C   UNL A   1      36.731  33.390  31.714  1.00  0.00     0.251 C 
ATOM     38  H   UNL A   1      34.753  33.674  31.530  1.00  0.00     0.163 HD
ATOM     39  O   UNL A   1      36.896  34.306  32.510  1.00  0.00    -0.269 OA
BRANCH  37  40
ATOM     40  C   UNL A   1      37.879  32.588  31.268  1.00  0.00     0.039 A 
ATOM     41  C   UNL A   1      38.395  32.827  29.998  1.00  0.00     0.014 A 
ATOM     42  C   UNL A   1      38.441  31.613  32.093  1.00  0.00     0.014 A 
ATOM     43  C   UNL A   1      39.483  32.082  29.562  1.00  0.00     0.010 A 
ATOM     44  C   UNL A   1      39.526  30.870  31.670  1.00  0.00     0.010 A 
ATOM     45  C   UNL A   1      40.048  31.104  30.400  1.00  0.00    -0.014 A 
BRANCH  45  46
ATOM     46  C   UNL A   1      41.271  30.398  30.000  1.00  0.00     0.031 A 
ATOM     47  C   UNL A   1      41.198  29.018  29.436  1.00  0.00     0.074 A 
ATOM     48  C   UNL A   1      42.438  31.025  30.212  1.00  0.00     0.049 A 
ATOM     49  N   UNL A   1      42.157  28.291  28.931  1.00  0.00    -0.248 NA
ATOM     50  C   UNL A   1      39.885  28.354  29.462  1.00  0.00     0.031 C 
ATOM     51  C   UNL A   1      42.579  32.332  30.861  1.00  0.00     0.029 A 
ATOM     52  N   UNL A   1      43.716  30.665  29.898  1.00  0.00    -0.354 N 
ATOM     53  C   UNL A   1      41.563  27.097  28.554  1.00  0.00     0.074 A 
ATOM     54  C   UNL A   1      40.176  27.163  28.959  1.00  0.00     0.031 C 
ATOM     55  C   UNL A   1      43.870  32.692  30.843  1.00  0.00     0.029 A 
ATOM     56  C   UNL A   1      44.642  31.628  30.213  1.00  0.00     0.049 A 
ATOM     57  H   UNL A   1      43.950  29.801  29.490  1.00  0.00     0.167 HD
ATOM     58  C   UNL A   1      42.132  26.059  27.898  1.00  0.00     0.037 A 
ATOM     59  C   UNL A   1      45.967  31.643  29.992  1.00  0.00     0.037 A 
ATOM     60  C   UNL A   1      43.527  26.026  27.538  1.00  0.00     0.049 A 
ATOM     61  C   UNL A   1      46.572  30.474  29.269  1.00  0.00     0.074 A 
ATOM     62  C   UNL A   1      44.218  25.054  26.840  1.00  0.00     0.029 A 
ATOM     63  N   UNL A   1      44.450  27.012  27.873  1.00  0.00    -0.354 N 
ATOM     64  N   UNL A   1      45.988  29.392  28.808  1.00  0.00    -0.248 NA
ATOM     65  C   UNL A   1      48.014  30.535  29.015  1.00  0.00     0.031 C 
ATOM     66  C   UNL A   1      45.570  25.415  26.817  1.00  0.00     0.029 A 
ATOM     67  C   UNL A   1      45.710  26.655  27.422  1.00  0.00     0.049 A 
ATOM     68  H   UNL A   1      44.238  27.841  28.359  1.00  0.00     0.167 HD
ATOM     69  C   UNL A   1      46.985  28.657  28.183  1.00  0.00     0.074 A 
ATOM     70  C   UNL A   1      48.204  29.433  28.305  1.00  0.00     0.031 C 
ATOM     71  C   UNL A   1      46.904  27.453  27.563  1.00  0.00     0.037 A 
BRANCH  58  72
ATOM     72  C   UNL A   1      41.257  24.892  27.543  1.00  0.00     0.064 A 
ATOM     73  C   UNL A   1      41.407  23.640  28.162  1.00  0.00     0.173 A 
ATOM     74  C   UNL A   1      40.235  25.029  26.591  1.00  0.00     0.173 A 
ATOM     75  F   UNL A   1      42.375  23.448  29.071  1.00  0.00    -0.203 F 
ATOM     76  C   UNL A   1      40.593  22.565  27.817  1.00  0.00     0.198 A 
ATOM     77  C   UNL A   1      39.398  23.962  26.277  1.00  0.00     0.198 A 
ATOM     78  F   UNL A   1      40.043  26.202  25.968  1.00  0.00    -0.203 F 
ATOM     79  F   UNL A   1      40.796  21.365  28.381  1.00  0.00    -0.200 F 
ATOM     80  C   UNL A   1      39.583  22.728  26.881  1.00  0.00     0.200 A 
ATOM     81  F   UNL A   1      38.414  24.126  25.382  1.00  0.00    -0.200 F 
ATOM     82  F   UNL A   1      38.795  21.694  26.556  1.00  0.00    -0.200 F 
ENDBRANCH  58  72
BRANCH  59  83
ATOM     83  C   UNL A   1      46.778  32.810  30.420  1.00  0.00     0.064 A 
ATOM     84  C   UNL A   1      46.986  33.904  29.567  1.00  0.00     0.173 A 
ATOM     85  C   UNL A   1      47.357  32.863  31.697  1.00  0.00     0.173 A 
ATOM     86  F   UNL A   1      46.453  33.903  28.336  1.00  0.00    -0.203 F 
ATOM     87  C   UNL A   1      47.775  34.982  29.959  1.00  0.00     0.198 A 
ATOM     88  C   UNL A   1      48.114  33.958  32.101  1.00  0.00     0.198 A 
ATOM     89  F   UNL A   1      47.171  31.854  32.561  1.00  0.00    -0.203 F 
ATOM     90  F   UNL A   1      48.005  35.986  29.102  1.00  0.00    -0.200 F 
ATOM     91  C   UNL A   1      48.335  35.011  31.227  1.00  0.00     0.200 A 
ATOM     92  F   UNL A   1      48.631  33.993  33.337  1.00  0.00    -0.200 F 
ATOM     93  F   UNL A   1      49.092  36.050  31.605  1.00  0.00    -0.200 F 
ENDBRANCH  59  83
BRANCH  71  94
ATOM     94  C   UNL A   1      48.164  26.933  26.929  1.00  0.00     0.064 A 
ATOM     95  C   UNL A   1      48.467  27.165  25.579  1.00  0.00     0.173 A 
ATOM     96  C   UNL A   1      49.087  26.205  27.694  1.00  0.00     0.173 A 
ATOM     97  F   UNL A   1      47.613  27.846  24.800  1.00  0.00    -0.203 F 
ATOM     98  C   UNL A   1      49.625  26.644  25.008  1.00  0.00     0.198 A 
ATOM     99  C   UNL A   1      50.266  25.726  27.132  1.00  0.00     0.198 A 
ATOM    100  F   UNL A   1      48.852  25.964  28.993  1.00  0.00    -0.203 F 
ATOM    101  F   UNL A   1      49.856  26.810  23.698  1.00  0.00    -0.200 F 
ATOM    102  C   UNL A   1      50.526  25.932  25.786  1.00  0.00     0.200 A 
ATOM    103  F   UNL A   1      51.145  25.059  27.891  1.00  0.00    -0.200 F 
ATOM    104  F   UNL A   1      51.641  25.435  25.235  1.00  0.00    -0.200 F 
ENDBRANCH  71  94
ENDBRANCH  45  46
ENDBRANCH  37  40
ENDBRANCH  35  36
ENDBRANCH  34  35
ENDBRANCH   1  34
TORSDOF 16
ENDMDL
MODEL 3
REMARK VINA RESULT:     -14.5      4.711      9.172
REMARK SMILES CC(C)[C@@H]1C(=O)Nc2ccccc2N1C(=O)N[C@H](Cc1ccccc1)C(=O)NCCCCNC(=O)c1ccc(-c2c3nc(c(-c4c(F)c(F)c(F)c(F)c4F)c4ccc([nH]4)c(-c4c(F)c(F)c(F)c(F)c4F)c4nc(c(-c5c(F)c(F)c(F)c(F)c5F)c5ccc2[nH]5)C=C4)C=C3)cc1
REMARK SMILES IDX 30 1 29 2 28 3 26 4 27 5 18 7 17 8 15 9 16 10 14 12 4 13
REMARK SMILES IDX 5 14 6 15 7 16 13 17 8 18 12 20 9 21 11 22 10 23 2 24 1 25
REMARK SMILES IDX 3 26 19 27 20 28 21 29 25 30 22 31 24 32 23 33 31 34 32 35
REMARK SMILES IDX 33 36 34 37 35 39 36 40 37 41 98 42 38 43 97 44 39 45 40 46
REMARK SMILES IDX 41 47 91 48 42 49 96 50 90 51 92 52 43 53 95 54 89 55 88 56
REMARK SMILES IDX 44 58 76 59 56 60 75 61 57 62 60 63 74 64 93 65 58 66 59 67
REMARK SMILES IDX 73 69 94 70 61 71 45 72 46 73 54 74 47 75 48 76 52 77 55 78
REMARK SMILES IDX 49 79 50 80 53 81 51 82 77 83 78 84 86 85 79 86 80 87 84 88
REMARK SMILES IDX 87 89 81 90 82 91 85 92 83 93 62 94 63 95 71 96 64 97 65 98
REMARK SMILES IDX 69 99 72 100 66 101 67 102 70 103 68 104
REMARK H PARENT 28 6 17 11 7 19 33 38 92 57 60 68
REMARK Flexibility Score: inf
ROOT
ATOM      1  C   UNL A   1      35.743  30.706  28.449  1.00  0.00     0.023 C 
ENDROOT
BRANCH   1   2
ATOM      2  C   UNL A   1      34.787  29.721  27.481  1.00  0.00     0.116 C 
BRANCH   2   3
ATOM      3  N   UNL A   1      32.894  28.895  27.626  1.00  0.00    -0.354 N 
ATOM      4  C   UNL A   1      32.028  27.631  27.255  1.00  0.00     0.242 C 
ATOM      5  O   UNL A   1      30.845  27.701  27.626  1.00  0.00    -0.273 OA
ATOM      6  H   UNL A   1      32.318  29.530  28.109  1.00  0.00     0.163 HD
BRANCH   4   7
ATOM      7  C   UNL A   1      32.557  26.148  26.312  1.00  0.00     0.177 C 
BRANCH   7   8
ATOM      8  N   UNL A   1      31.956  25.123  27.089  1.00  0.00    -0.326 N 
ATOM      9  C   UNL A   1      30.895  24.491  26.514  1.00  0.00     0.323 C 
ATOM     10  O   UNL A   1      30.188  23.760  27.201  1.00  0.00    -0.248 OA
ATOM     11  H   UNL A   1      32.285  24.884  27.985  1.00  0.00     0.166 HD
BRANCH   9  12
ATOM     12  N   UNL A   1      30.874  24.548  25.122  1.00  0.00    -0.280 N 
ATOM     13  C   UNL A   1      30.915  25.992  23.768  1.00  0.00     0.184 C 
ATOM     14  C   UNL A   1      31.748  25.534  22.030  1.00  0.00     0.247 C 
ATOM     15  O   UNL A   1      31.917  26.329  21.111  1.00  0.00    -0.272 OA
ATOM     16  N   UNL A   1      32.251  23.896  21.836  1.00  0.00    -0.322 N 
ATOM     17  C   UNL A   1      31.650  22.943  24.611  1.00  0.00     0.070 A 
ATOM     18  C   UNL A   1      32.196  22.646  23.053  1.00  0.00     0.065 A 
ATOM     19  H   UNL A   1      32.602  23.641  20.952  1.00  0.00     0.170 HD
ATOM     20  C   UNL A   1      31.885  21.903  25.496  1.00  0.00     0.028 A 
ATOM     21  C   UNL A   1      32.405  21.342  22.637  1.00  0.00     0.028 A 
ATOM     22  C   UNL A   1      32.252  20.633  24.982  1.00  0.00     0.002 A 
ATOM     23  C   UNL A   1      32.374  20.341  23.603  1.00  0.00     0.002 A 
BRANCH  13  24
ATOM     24  C   UNL A   1      29.865  27.110  23.512  1.00  0.00     0.015 C 
ATOM     25  C   UNL A   1      28.448  26.703  23.876  1.00  0.00     0.010 C 
ATOM     26  C   UNL A   1      30.466  28.532  23.840  1.00  0.00     0.010 C 
ENDBRANCH  13  24
ENDBRANCH   9  12
ENDBRANCH   7   8
BRANCH   7  27
ATOM     27  C   UNL A   1      34.044  25.542  26.007  1.00  0.00     0.070 C 
BRANCH  27  28
ATOM     28  C   UNL A   1      34.839  24.365  25.376  1.00  0.00    -0.045 A 
ATOM     29  C   UNL A   1      35.125  23.268  26.261  1.00  0.00     0.004 A 
ATOM     30  C   UNL A   1      35.169  24.132  24.048  1.00  0.00     0.004 A 
ATOM     31  C   UNL A   1      35.635  22.025  25.875  1.00  0.00     0.000 A 
ATOM     32  C   UNL A   1      35.729  22.881  23.651  1.00  0.00     0.000 A 
ATOM     33  C   UNL A   1      35.943  21.828  24.550  1.00  0.00     0.000 A 
ENDBRANCH  27  28
ENDBRANCH   7  27
ENDBRANCH   4   7
ENDBRANCH   2   3
ENDBRANCH   1   2
BRANCH   1  34
ATOM     34  C   UNL A   1      35.405  31.691  29.570  1.00  0.00     0.023 C 
BRANCH  34  35
ATOM     35  C   UNL A   1      35.528  31.209  30.995  1.00  0.00     0.116 C 
BRANCH  35  36
ATOM     36  N   UNL A   1      35.796  32.273  31.938  1.00  0.00    -0.352 N 
ATOM     37  C   UNL A   1      37.013  32.735  32.353  1.00  0.00     0.251 C 
ATOM     38  H   UNL A   1      35.007  32.717  32.327  1.00  0.00     0.163 HD
ATOM     39  O   UNL A   1      37.100  33.551  33.262  1.00  0.00    -0.269 OA
BRANCH  37  40
ATOM     40  C   UNL A   1      38.231  32.197  31.730  1.00  0.00     0.039 A 
ATOM     41  C   UNL A   1      38.968  31.250  32.433  1.00  0.00     0.014 A 
ATOM     42  C   UNL A   1      38.642  32.622  30.465  1.00  0.00     0.014 A 
ATOM     43  C   UNL A   1      40.119  30.727  31.858  1.00  0.00     0.010 A 
ATOM     44  C   UNL A   1      39.782  32.105  29.882  1.00  0.00     0.010 A 
ATOM     45  C   UNL A   1      40.524  31.155  30.581  1.00  0.00    -0.014 A 
BRANCH  45  46
ATOM     46  C   UNL A   1      41.667  30.523  29.913  1.00  0.00     0.031 A 
ATOM     47  C   UNL A   1      41.544  29.154  29.333  1.00  0.00     0.074 A 
ATOM     48  C   UNL A   1      42.822  31.207  29.899  1.00  0.00     0.049 A 
ATOM     49  N   UNL A   1      42.410  28.490  28.617  1.00  0.00    -0.248 NA
ATOM     50  C   UNL A   1      40.298  28.421  29.610  1.00  0.00     0.031 C 
ATOM     51  C   UNL A   1      43.035  32.505  30.546  1.00  0.00     0.029 A 
ATOM     52  N   UNL A   1      44.023  30.922  29.315  1.00  0.00    -0.354 N 
ATOM     53  C   UNL A   1      41.806  27.275  28.333  1.00  0.00     0.074 A 
ATOM     54  C   UNL A   1      40.533  27.258  29.019  1.00  0.00     0.031 C 
ATOM     55  C   UNL A   1      44.275  32.933  30.271  1.00  0.00     0.029 A 
ATOM     56  C   UNL A   1      44.947  31.924  29.461  1.00  0.00     0.049 A 
ATOM     57  H   UNL A   1      44.207  30.080  28.839  1.00  0.00     0.167 HD
ATOM     58  C   UNL A   1      42.275  26.282  27.540  1.00  0.00     0.037 A 
ATOM     59  C   UNL A   1      46.194  32.014  28.971  1.00  0.00     0.037 A 
ATOM     60  C   UNL A   1      43.564  26.331  26.898  1.00  0.00     0.049 A 
ATOM     61  C   UNL A   1      46.690  30.895  28.100  1.00  0.00     0.074 A 
ATOM     62  C   UNL A   1      44.138  25.412  26.041  1.00  0.00     0.029 A 
ATOM     63  N   UNL A   1      44.488  27.356  27.065  1.00  0.00    -0.354 N 
ATOM     64  N   UNL A   1      46.074  29.794  27.737  1.00  0.00    -0.248 NA
ATOM     65  C   UNL A   1      48.042  31.038  27.555  1.00  0.00     0.031 C 
ATOM     66  C   UNL A   1      45.436  25.845  25.749  1.00  0.00     0.029 A 
ATOM     67  C   UNL A   1      45.642  27.076  26.351  1.00  0.00     0.049 A 
ATOM     68  H   UNL A   1      44.344  28.163  27.611  1.00  0.00     0.167 HD
ATOM     69  C   UNL A   1      46.951  29.126  26.895  1.00  0.00     0.074 A 
ATOM     70  C   UNL A   1      48.131  29.963  26.786  1.00  0.00     0.031 C 
ATOM     71  C   UNL A   1      46.800  27.933  26.266  1.00  0.00     0.037 A 
BRANCH  58  72
ATOM     72  C   UNL A   1      41.400  25.079  27.337  1.00  0.00     0.064 A 
ATOM     73  C   UNL A   1      41.656  23.861  27.990  1.00  0.00     0.173 A 
ATOM     74  C   UNL A   1      40.275  25.146  26.501  1.00  0.00     0.173 A 
ATOM     75  F   UNL A   1      42.723  23.736  28.793  1.00  0.00    -0.203 F 
ATOM     76  C   UNL A   1      40.841  22.751  27.787  1.00  0.00     0.198 A 
ATOM     77  C   UNL A   1      39.441  24.044  26.330  1.00  0.00     0.198 A 
ATOM     78  F   UNL A   1      39.981  26.282  25.852  1.00  0.00    -0.203 F 
ATOM     79  F   UNL A   1      41.141  21.585  28.376  1.00  0.00    -0.200 F 
ATOM     80  C   UNL A   1      39.729  22.845  26.964  1.00  0.00     0.200 A 
ATOM     81  F   UNL A   1      38.359  24.141  25.544  1.00  0.00    -0.200 F 
ATOM     82  F   UNL A   1      38.940  21.778  26.775  1.00  0.00    -0.200 F 
ENDBRANCH  58  72
BRANCH  59  83
ATOM     83  C   UNL A   1      47.021  33.214  29.258  1.00  0.00     0.064 A 
ATOM     84  C   UNL A   1      46.981  34.342  28.426  1.00  0.00     0.173 A 
ATOM     85  C   UNL A   1      47.864  33.262  30.378  1.00  0.00     0.173 A 
ATOM     86  F   UNL A   1      46.190  34.346  27.343  1.00  0.00    -0.203 F 
ATOM     87  C   UNL A   1      47.782  35.452  28.679  1.00  0.00     0.198 A 
ATOM     88  C   UNL A   1      48.637  34.388  30.651  1.00  0.00     0.198 A 
ATOM     89  F   UNL A   1      47.923  32.219  31.220  1.00  0.00    -0.203 F 
ATOM     90  F   UNL A   1      47.768  36.492  27.835  1.00  0.00    -0.200 F 
ATOM     91  C   UNL A   1      48.607  35.476  29.794  1.00  0.00     0.200 A 
ATOM     92  F   UNL A   1      49.411  34.416  31.745  1.00  0.00    -0.200 F 
ATOM     93  F   UNL A   1      49.376  36.545  30.039  1.00  0.00    -0.200 F 
ENDBRANCH  59  83
BRANCH  71  94
ATOM     94  C   UNL A   1      47.922  27.495  25.369  1.00  0.00     0.064 A 
ATOM     95  C   UNL A   1      49.062  26.845  25.866  1.00  0.00     0.173 A 
ATOM     96  C   UNL A   1      47.844  27.715  23.985  1.00  0.00     0.173 A 
ATOM     97  F   UNL A   1      49.193  26.620  27.183  1.00  0.00    -0.203 F 
ATOM     98  C   UNL A   1      50.103  26.479  25.018  1.00  0.00     0.198 A 
ATOM     99  C   UNL A   1      48.865  27.306  23.134  1.00  0.00     0.198 A 
ATOM    100  F   UNL A   1      46.771  28.323  23.455  1.00  0.00    -0.203 F 
ATOM    101  F   UNL A   1      51.216  25.932  25.525  1.00  0.00    -0.200 F 
ATOM    102  C   UNL A   1      50.001  26.703  23.652  1.00  0.00     0.200 A 
ATOM    103  F   UNL A   1      48.752  27.502  21.814  1.00  0.00    -0.200 F 
ATOM    104  F   UNL A   1      51.001  26.346  22.837  1.00  0.00    -0.200 F 
ENDBRANCH  71  94
ENDBRANCH  45  46
ENDBRANCH  37  40
ENDBRANCH  35  36
ENDBRANCH  34  35
ENDBRANCH   1  34
TORSDOF 16
ENDMDL
