MODEL 1
REMARK VINA RESULT:     -12.0      0.000      0.000
REMARK SMILES CCCc1cc(OC(F)(F)F)cc2c1O[C@@H](C(F)(F)F)C(C(=O)NCCCCNC(=O)c1ccc(-c3c4nc(c(-c5c(F)c(F)c(F)c(F)c5F)c5ccc([nH]5)c(-c5c(F)c(F)c(F)c(F)c5F)c5nc(c(-c6c(F)c(F)c(F)c(F)c6F)c6ccc3[nH]6)C=C5)C=C4)cc1)=C2
REMARK SMILES IDX 26 1 25 2 24 3 22 4 23 5 21 7 4 8 5 9 14 10 6 11 13 12 15 13
REMARK SMILES IDX 12 14 95 15 16 16 3 17 2 18 1 19 7 20 8 21 9 22 10 23 11 24
REMARK SMILES IDX 17 25 18 26 19 27 20 28 27 29 28 30 29 31 30 32 31 34 32 35
REMARK SMILES IDX 33 36 94 37 34 38 93 39 35 40 36 41 37 42 87 43 38 44 92 45
REMARK SMILES IDX 86 46 88 47 39 48 91 49 85 50 84 51 40 53 72 54 52 55 71 56
REMARK SMILES IDX 53 57 56 58 70 59 89 60 54 61 55 62 69 64 90 65 57 66 41 67
REMARK SMILES IDX 42 68 50 69 43 70 44 71 48 72 51 73 45 74 46 75 49 76 47 77
REMARK SMILES IDX 73 78 74 79 82 80 75 81 76 82 80 83 83 84 77 85 78 86 81 87
REMARK SMILES IDX 79 88 58 89 59 90 67 91 60 92 61 93 65 94 68 95 62 96 63 97
REMARK SMILES IDX 66 98 64 99
REMARK H PARENT 24 6 29 33 88 52 56 63
REMARK Flexibility Score: inf
ROOT
ATOM      1  C   UNL A   1      37.260  21.183  24.460  1.00  0.00     0.023 C 
ENDROOT
BRANCH   1   2
ATOM      2  C   UNL A   1      36.701  22.092  25.564  1.00  0.00     0.116 C 
BRANCH   2   3
ATOM      3  N   UNL A   1      35.623  21.412  26.263  1.00  0.00    -0.352 N 
ATOM      4  C   UNL A   1      34.365  21.798  26.612  1.00  0.00     0.251 C 
ATOM      5  O   UNL A   1      33.736  21.068  27.373  1.00  0.00    -0.270 OA
ATOM      6  H   UNL A   1      35.847  20.495  26.538  1.00  0.00     0.163 HD
BRANCH   4   7
ATOM      7  C   UNL A   1      33.706  23.007  26.047  1.00  0.00     0.067 C 
ATOM      8  C   UNL A   1      32.254  26.323  23.892  1.00  0.00    -0.002 A 
ATOM      9  C   UNL A   1      32.774  27.588  24.229  1.00  0.00     0.054 A 
ATOM     10  C   UNL A   1      32.648  25.210  24.656  1.00  0.00     0.131 A 
ATOM     11  C   UNL A   1      33.564  27.775  25.360  1.00  0.00     0.130 A 
ATOM     12  C   UNL A   1      33.466  25.388  25.770  1.00  0.00     0.021 A 
ATOM     13  O   UNL A   1      32.280  23.970  24.221  1.00  0.00    -0.475 OA
ATOM     14  C   UNL A   1      33.904  26.668  26.129  1.00  0.00     0.058 A 
ATOM     15  C   UNL A   1      33.982  24.241  26.489  1.00  0.00     0.025 C 
ATOM     16  C   UNL A   1      32.590  22.794  25.030  1.00  0.00     0.314 C 
BRANCH   8  17
ATOM     17  C   UNL A   1      31.333  26.196  22.695  1.00  0.00     0.039 C 
BRANCH  17  18
ATOM     18  C   UNL A   1      30.543  27.470  22.347  1.00  0.00     0.001 C 
ATOM     19  C   UNL A   1      29.303  27.715  23.200  1.00  0.00     0.004 C 
ENDBRANCH  17  18
ENDBRANCH   8  17
BRANCH  11  20
ATOM     20  O   UNL A   1      34.091  28.958  25.788  1.00  0.00    -0.406 OA
BRANCH  20  21
ATOM     21  C   UNL A   1      33.209  29.861  26.436  1.00  0.00     0.573 C 
ATOM     22  F   UNL A   1      32.306  30.362  25.566  1.00  0.00    -0.132 F 
ATOM     23  F   UNL A   1      32.566  29.266  27.464  1.00  0.00    -0.132 F 
ATOM     24  F   UNL A   1      33.931  30.890  26.931  1.00  0.00    -0.132 F 
ENDBRANCH  20  21
ENDBRANCH  11  20
BRANCH  16  25
ATOM     25  C   UNL A   1      32.737  21.596  24.062  1.00  0.00     0.429 C 
ATOM     26  F   UNL A   1      32.364  20.422  24.618  1.00  0.00    -0.167 F 
ATOM     27  F   UNL A   1      31.930  21.750  22.977  1.00  0.00    -0.167 F 
ATOM     28  F   UNL A   1      34.000  21.464  23.593  1.00  0.00    -0.167 F 
ENDBRANCH  16  25
ENDBRANCH   4   7
ENDBRANCH   2   3
ENDBRANCH   1   2
BRANCH   1  29
ATOM     29  C   UNL A   1      37.996  19.949  24.985  1.00  0.00     0.023 C 
BRANCH  29  30
ATOM     30  C   UNL A   1      39.131  20.253  25.953  1.00  0.00     0.116 C 
BRANCH  30  31
ATOM     31  N   UNL A   1      40.198  19.266  25.907  1.00  0.00    -0.352 N 
ATOM     32  C   UNL A   1      41.545  19.450  26.078  1.00  0.00     0.251 C 
ATOM     33  H   UNL A   1      39.913  18.340  25.730  1.00  0.00     0.163 HD
ATOM     34  O   UNL A   1      42.325  18.525  25.875  1.00  0.00    -0.269 OA
BRANCH  32  35
ATOM     35  C   UNL A   1      42.056  20.777  26.475  1.00  0.00     0.039 A 
ATOM     36  C   UNL A   1      42.384  21.694  25.474  1.00  0.00     0.014 A 
ATOM     37  C   UNL A   1      42.204  21.118  27.821  1.00  0.00     0.014 A 
ATOM     38  C   UNL A   1      42.824  22.968  25.828  1.00  0.00     0.010 A 
ATOM     39  C   UNL A   1      42.558  22.416  28.172  1.00  0.00     0.010 A 
ATOM     40  C   UNL A   1      42.891  23.349  27.179  1.00  0.00    -0.014 A 
BRANCH  40  41
ATOM     41  C   UNL A   1      43.333  24.713  27.560  1.00  0.00     0.031 A 
ATOM     42  C   UNL A   1      42.319  25.766  27.911  1.00  0.00     0.074 A 
ATOM     43  C   UNL A   1      44.647  25.006  27.564  1.00  0.00     0.049 A 
ATOM     44  N   UNL A   1      42.510  27.007  28.279  1.00  0.00    -0.248 NA
ATOM     45  C   UNL A   1      40.902  25.384  27.809  1.00  0.00     0.031 C 
ATOM     46  C   UNL A   1      45.720  24.084  27.186  1.00  0.00     0.029 A 
ATOM     47  N   UNL A   1      45.305  26.161  27.901  1.00  0.00    -0.354 N 
ATOM     48  C   UNL A   1      41.243  27.551  28.446  1.00  0.00     0.074 A 
ATOM     49  C   UNL A   1      40.291  26.530  28.071  1.00  0.00     0.031 C 
ATOM     50  C   UNL A   1      46.903  24.697  27.349  1.00  0.00     0.029 A 
ATOM     51  C   UNL A   1      46.672  26.063  27.807  1.00  0.00     0.049 A 
ATOM     52  H   UNL A   1      44.841  26.982  28.183  1.00  0.00     0.167 HD
ATOM     53  C   UNL A   1      40.903  28.781  28.900  1.00  0.00     0.037 A 
ATOM     54  C   UNL A   1      47.629  26.973  28.067  1.00  0.00     0.037 A 
ATOM     55  C   UNL A   1      41.856  29.788  29.287  1.00  0.00     0.049 A 
ATOM     56  C   UNL A   1      47.224  28.334  28.567  1.00  0.00     0.074 A 
ATOM     57  C   UNL A   1      41.618  31.045  29.814  1.00  0.00     0.029 A 
ATOM     58  N   UNL A   1      43.234  29.653  29.183  1.00  0.00    -0.354 N 
ATOM     59  N   UNL A   1      46.024  28.809  28.802  1.00  0.00    -0.248 NA
ATOM     60  C   UNL A   1      48.309  29.281  28.852  1.00  0.00     0.031 C 
ATOM     61  C   UNL A   1      42.849  31.693  29.973  1.00  0.00     0.029 A 
ATOM     62  C   UNL A   1      43.858  30.815  29.609  1.00  0.00     0.049 A 
ATOM     63  H   UNL A   1      43.699  28.850  28.855  1.00  0.00     0.167 HD
ATOM     64  C   UNL A   1      46.211  30.097  29.284  1.00  0.00     0.074 A 
ATOM     65  C   UNL A   1      47.642  30.318  29.335  1.00  0.00     0.031 C 
ATOM     66  C   UNL A   1      45.284  31.019  29.649  1.00  0.00     0.037 A 
BRANCH  53  67
ATOM     67  C   UNL A   1      39.439  29.103  29.005  1.00  0.00     0.064 A 
ATOM     68  C   UNL A   1      38.680  29.461  27.880  1.00  0.00     0.173 A 
ATOM     69  C   UNL A   1      38.777  29.024  30.240  1.00  0.00     0.173 A 
ATOM     70  F   UNL A   1      39.263  29.564  26.676  1.00  0.00    -0.203 F 
ATOM     71  C   UNL A   1      37.324  29.762  27.993  1.00  0.00     0.198 A 
ATOM     72  C   UNL A   1      37.415  29.291  30.343  1.00  0.00     0.198 A 
ATOM     73  F   UNL A   1      39.452  28.683  31.348  1.00  0.00    -0.203 F 
ATOM     74  F   UNL A   1      36.635  30.158  26.914  1.00  0.00    -0.200 F 
ATOM     75  C   UNL A   1      36.691  29.669  29.222  1.00  0.00     0.200 A 
ATOM     76  F   UNL A   1      36.801  29.186  31.530  1.00  0.00    -0.200 F 
ATOM     77  F   UNL A   1      35.386  29.950  29.329  1.00  0.00    -0.200 F 
ENDBRANCH  53  67
BRANCH  54  78
ATOM     78  C   UNL A   1      49.062  26.620  27.889  1.00  0.00     0.064 A 
ATOM     79  C   UNL A   1      49.651  26.605  26.617  1.00  0.00     0.173 A 
ATOM     80  C   UNL A   1      49.869  26.275  28.984  1.00  0.00     0.173 A 
ATOM     81  F   UNL A   1      48.916  26.909  25.536  1.00  0.00    -0.203 F 
ATOM     82  C   UNL A   1      50.982  26.232  26.442  1.00  0.00     0.198 A 
ATOM     83  C   UNL A   1      51.209  25.935  28.812  1.00  0.00     0.198 A 
ATOM     84  F   UNL A   1      49.359  26.281  30.224  1.00  0.00    -0.203 F 
ATOM     85  F   UNL A   1      51.501  26.174  25.209  1.00  0.00    -0.200 F 
ATOM     86  C   UNL A   1      51.761  25.903  27.540  1.00  0.00     0.200 A 
ATOM     87  F   UNL A   1      51.964  25.635  29.877  1.00  0.00    -0.200 F 
ATOM     88  F   UNL A   1      53.042  25.547  27.371  1.00  0.00    -0.200 F 
ENDBRANCH  54  78
BRANCH  66  89
ATOM     89  C   UNL A   1      45.795  32.336  30.162  1.00  0.00     0.064 A 
ATOM     90  C   UNL A   1      46.007  33.429  29.309  1.00  0.00     0.173 A 
ATOM     91  C   UNL A   1      46.064  32.509  31.529  1.00  0.00     0.173 A 
ATOM     92  F   UNL A   1      45.776  33.313  27.992  1.00  0.00    -0.203 F 
ATOM     93  C   UNL A   1      46.511  34.631  29.797  1.00  0.00     0.198 A 
ATOM     94  C   UNL A   1      46.532  33.725  32.019  1.00  0.00     0.198 A 
ATOM     95  F   UNL A   1      45.869  31.500  32.391  1.00  0.00    -0.203 F 
ATOM     96  F   UNL A   1      46.772  35.638  28.952  1.00  0.00    -0.200 F 
ATOM     97  C   UNL A   1      46.769  34.780  31.152  1.00  0.00     0.200 A 
ATOM     98  F   UNL A   1      46.763  33.872  33.331  1.00  0.00    -0.200 F 
ATOM     99  F   UNL A   1      47.255  35.937  31.620  1.00  0.00    -0.200 F 
ENDBRANCH  66  89
ENDBRANCH  40  41
ENDBRANCH  32  35
ENDBRANCH  30  31
ENDBRANCH  29  30
ENDBRANCH   1  29
TORSDOF 16
ENDMDL
MODEL 2
REMARK VINA RESULT:     -12.0      0.920      7.110
REMARK SMILES CCCc1cc(OC(F)(F)F)cc2c1O[C@@H](C(F)(F)F)C(C(=O)NCCCCNC(=O)c1ccc(-c3c4nc(c(-c5c(F)c(F)c(F)c(F)c5F)c5ccc([nH]5)c(-c5c(F)c(F)c(F)c(F)c5F)c5nc(c(-c6c(F)c(F)c(F)c(F)c6F)c6ccc3[nH]6)C=C5)C=C4)cc1)=C2
REMARK SMILES IDX 26 1 25 2 24 3 22 4 23 5 21 7 4 8 5 9 14 10 6 11 13 12 15 13
REMARK SMILES IDX 12 14 95 15 16 16 3 17 2 18 1 19 7 20 8 21 9 22 10 23 11 24
REMARK SMILES IDX 17 25 18 26 19 27 20 28 27 29 28 30 29 31 30 32 31 34 32 35
REMARK SMILES IDX 33 36 94 37 34 38 93 39 35 40 36 41 37 42 87 43 38 44 92 45
REMARK SMILES IDX 86 46 88 47 39 48 91 49 85 50 84 51 40 53 72 54 52 55 71 56
REMARK SMILES IDX 53 57 56 58 70 59 89 60 54 61 55 62 69 64 90 65 57 66 41 67
REMARK SMILES IDX 42 68 50 69 43 70 44 71 48 72 51 73 45 74 46 75 49 76 47 77
REMARK SMILES IDX 73 78 74 79 82 80 75 81 76 82 80 83 83 84 77 85 78 86 81 87
REMARK SMILES IDX 79 88 58 89 59 90 67 91 60 92 61 93 65 94 68 95 62 96 63 97
REMARK SMILES IDX 66 98 64 99
REMARK H PARENT 24 6 29 33 88 52 56 63
REMARK Flexibility Score: inf
ROOT
ATOM      1  C   UNL A   1      37.242  21.254  24.500  1.00  0.00     0.023 C 
ENDROOT
BRANCH   1   2
ATOM      2  C   UNL A   1      36.681  22.093  25.656  1.00  0.00     0.116 C 
BRANCH   2   3
ATOM      3  N   UNL A   1      35.603  21.370  26.311  1.00  0.00    -0.352 N 
ATOM      4  C   UNL A   1      34.325  21.714  26.632  1.00  0.00     0.251 C 
ATOM      5  O   UNL A   1      33.696  20.952  27.360  1.00  0.00    -0.270 OA
ATOM      6  H   UNL A   1      35.845  20.453  26.574  1.00  0.00     0.163 HD
BRANCH   4   7
ATOM      7  C   UNL A   1      33.649  22.916  26.073  1.00  0.00     0.067 C 
ATOM      8  C   UNL A   1      32.113  26.192  23.914  1.00  0.00    -0.002 A 
ATOM      9  C   UNL A   1      32.667  27.458  24.184  1.00  0.00     0.054 A 
ATOM     10  C   UNL A   1      32.538  25.095  24.684  1.00  0.00     0.131 A 
ATOM     11  C   UNL A   1      33.524  27.665  25.262  1.00  0.00     0.130 A 
ATOM     12  C   UNL A   1      33.422  25.292  25.743  1.00  0.00     0.021 A 
ATOM     13  O   UNL A   1      32.131  23.848  24.306  1.00  0.00    -0.475 OA
ATOM     14  C   UNL A   1      33.896  26.575  26.040  1.00  0.00     0.058 A 
ATOM     15  C   UNL A   1      33.965  24.158  26.463  1.00  0.00     0.025 C 
ATOM     16  C   UNL A   1      32.473  22.691  25.128  1.00  0.00     0.314 C 
BRANCH   8  17
ATOM     17  C   UNL A   1      31.123  26.045  22.776  1.00  0.00     0.039 C 
BRANCH  17  18
ATOM     18  C   UNL A   1      31.719  26.238  21.370  1.00  0.00     0.001 C 
ATOM     19  C   UNL A   1      32.792  25.229  20.978  1.00  0.00     0.004 C 
ENDBRANCH  17  18
ENDBRANCH   8  17
BRANCH  11  20
ATOM     20  O   UNL A   1      34.090  28.852  25.626  1.00  0.00    -0.406 OA
BRANCH  20  21
ATOM     21  C   UNL A   1      33.606  29.460  26.813  1.00  0.00     0.573 C 
ATOM     22  F   UNL A   1      33.776  30.799  26.775  1.00  0.00    -0.132 F 
ATOM     23  F   UNL A   1      32.301  29.175  27.014  1.00  0.00    -0.132 F 
ATOM     24  F   UNL A   1      34.307  28.978  27.862  1.00  0.00    -0.132 F 
ENDBRANCH  20  21
ENDBRANCH  11  20
BRANCH  16  25
ATOM     25  C   UNL A   1      32.549  21.465  24.187  1.00  0.00     0.429 C 
ATOM     26  F   UNL A   1      31.837  21.629  23.051  1.00  0.00    -0.167 F 
ATOM     27  F   UNL A   1      33.829  21.250  23.778  1.00  0.00    -0.167 F 
ATOM     28  F   UNL A   1      32.136  20.326  24.789  1.00  0.00    -0.167 F 
ENDBRANCH  16  25
ENDBRANCH   4   7
ENDBRANCH   2   3
ENDBRANCH   1   2
BRANCH   1  29
ATOM     29  C   UNL A   1      37.963  19.981  24.947  1.00  0.00     0.023 C 
BRANCH  29  30
ATOM     30  C   UNL A   1      39.037  20.200  26.002  1.00  0.00     0.116 C 
BRANCH  30  31
ATOM     31  N   UNL A   1      40.135  19.252  25.901  1.00  0.00    -0.352 N 
ATOM     32  C   UNL A   1      41.482  19.485  26.008  1.00  0.00     0.251 C 
ATOM     33  H   UNL A   1      39.876  18.317  25.736  1.00  0.00     0.163 HD
ATOM     34  O   UNL A   1      42.284  18.588  25.764  1.00  0.00    -0.269 OA
BRANCH  32  35
ATOM     35  C   UNL A   1      41.963  20.828  26.384  1.00  0.00     0.039 A 
ATOM     36  C   UNL A   1      42.115  21.789  25.382  1.00  0.00     0.014 A 
ATOM     37  C   UNL A   1      42.256  21.142  27.713  1.00  0.00     0.014 A 
ATOM     38  C   UNL A   1      42.525  23.076  25.722  1.00  0.00     0.010 A 
ATOM     39  C   UNL A   1      42.579  22.449  28.061  1.00  0.00     0.010 A 
ATOM     40  C   UNL A   1      42.735  23.425  27.067  1.00  0.00    -0.014 A 
BRANCH  40  41
ATOM     41  C   UNL A   1      43.145  24.802  27.437  1.00  0.00     0.031 A 
ATOM     42  C   UNL A   1      44.562  25.253  27.214  1.00  0.00     0.074 A 
ATOM     43  C   UNL A   1      42.247  25.634  27.996  1.00  0.00     0.049 A 
ATOM     44  N   UNL A   1      45.107  26.418  27.461  1.00  0.00    -0.248 NA
ATOM     45  C   UNL A   1      45.499  24.260  26.669  1.00  0.00     0.031 C 
ATOM     46  C   UNL A   1      40.860  25.288  28.314  1.00  0.00     0.029 A 
ATOM     47  N   UNL A   1      42.363  26.941  28.393  1.00  0.00    -0.354 N 
ATOM     48  C   UNL A   1      46.444  26.293  27.107  1.00  0.00     0.074 A 
ATOM     49  C   UNL A   1      46.646  24.922  26.696  1.00  0.00     0.031 C 
ATOM     50  C   UNL A   1      40.244  26.368  28.820  1.00  0.00     0.029 A 
ATOM     51  C   UNL A   1      41.199  27.468  28.896  1.00  0.00     0.049 A 
ATOM     52  H   UNL A   1      43.201  27.453  28.323  1.00  0.00     0.167 HD
ATOM     53  C   UNL A   1      47.409  27.243  27.095  1.00  0.00     0.037 A 
ATOM     54  C   UNL A   1      40.934  28.703  29.362  1.00  0.00     0.037 A 
ATOM     55  C   UNL A   1      47.197  28.611  27.491  1.00  0.00     0.049 A 
ATOM     56  C   UNL A   1      42.026  29.739  29.342  1.00  0.00     0.074 A 
ATOM     57  C   UNL A   1      48.092  29.666  27.463  1.00  0.00     0.029 A 
ATOM     58  N   UNL A   1      46.004  29.112  27.992  1.00  0.00    -0.354 N 
ATOM     59  N   UNL A   1      43.265  29.632  28.925  1.00  0.00    -0.248 NA
ATOM     60  C   UNL A   1      41.677  31.074  29.846  1.00  0.00     0.031 C 
ATOM     61  C   UNL A   1      47.457  30.792  28.002  1.00  0.00     0.029 A 
ATOM     62  C   UNL A   1      46.147  30.454  28.304  1.00  0.00     0.049 A 
ATOM     63  H   UNL A   1      45.177  28.590  28.109  1.00  0.00     0.167 HD
ATOM     64  C   UNL A   1      43.834  30.887  29.092  1.00  0.00     0.074 A 
ATOM     65  C   UNL A   1      42.795  31.747  29.621  1.00  0.00     0.031 C 
ATOM     66  C   UNL A   1      45.103  31.294  28.834  1.00  0.00     0.037 A 
BRANCH  53  67
ATOM     67  C   UNL A   1      48.781  26.834  26.638  1.00  0.00     0.064 A 
ATOM     68  C   UNL A   1      49.187  26.976  25.302  1.00  0.00     0.173 A 
ATOM     69  C   UNL A   1      49.714  26.319  27.552  1.00  0.00     0.173 A 
ATOM     70  F   UNL A   1      48.332  27.451  24.383  1.00  0.00    -0.203 F 
ATOM     71  C   UNL A   1      50.460  26.587  24.892  1.00  0.00     0.198 A 
ATOM     72  C   UNL A   1      50.997  25.964  27.146  1.00  0.00     0.198 A 
ATOM     73  F   UNL A   1      49.381  26.164  28.843  1.00  0.00    -0.203 F 
ATOM     74  F   UNL A   1      50.803  26.679  23.600  1.00  0.00    -0.200 F 
ATOM     75  C   UNL A   1      51.367  26.090  25.815  1.00  0.00     0.200 A 
ATOM     76  F   UNL A   1      51.877  25.497  28.042  1.00  0.00    -0.200 F 
ATOM     77  F   UNL A   1      52.594  25.723  25.422  1.00  0.00    -0.200 F 
ENDBRANCH  53  67
BRANCH  54  78
ATOM     78  C   UNL A   1      39.573  29.037  29.858  1.00  0.00     0.064 A 
ATOM     79  C   UNL A   1      38.623  29.633  29.016  1.00  0.00     0.173 A 
ATOM     80  C   UNL A   1      39.198  28.783  31.186  1.00  0.00     0.173 A 
ATOM     81  F   UNL A   1      38.939  29.913  27.743  1.00  0.00    -0.203 F 
ATOM     82  C   UNL A   1      37.361  29.987  29.490  1.00  0.00     0.198 A 
ATOM     83  C   UNL A   1      37.924  29.106  31.649  1.00  0.00     0.198 A 
ATOM     84  F   UNL A   1      40.065  28.208  32.031  1.00  0.00    -0.203 F 
ATOM     85  F   UNL A   1      36.493  30.605  28.678  1.00  0.00    -0.200 F 
ATOM     86  C   UNL A   1      37.011  29.719  30.804  1.00  0.00     0.200 A 
ATOM     87  F   UNL A   1      37.584  28.829  32.915  1.00  0.00    -0.200 F 
ATOM     88  F   UNL A   1      35.797  30.057  31.258  1.00  0.00    -0.200 F 
ENDBRANCH  54  78
BRANCH  66  89
ATOM     89  C   UNL A   1      45.423  32.739  29.096  1.00  0.00     0.064 A 
ATOM     90  C   UNL A   1      45.948  33.169  30.324  1.00  0.00     0.173 A 
ATOM     91  C   UNL A   1      45.212  33.705  28.099  1.00  0.00     0.173 A 
ATOM     92  F   UNL A   1      46.157  32.289  31.315  1.00  0.00    -0.203 F 
ATOM     93  C   UNL A   1      46.208  34.516  30.559  1.00  0.00     0.198 A 
ATOM     94  C   UNL A   1      45.510  35.046  28.325  1.00  0.00     0.198 A 
ATOM     95  F   UNL A   1      44.723  33.348  26.902  1.00  0.00    -0.203 F 
ATOM     96  F   UNL A   1      46.643  34.912  31.764  1.00  0.00    -0.200 F 
ATOM     97  C   UNL A   1      45.994  35.452  29.559  1.00  0.00     0.200 A 
ATOM     98  F   UNL A   1      45.321  35.946  27.350  1.00  0.00    -0.200 F 
ATOM     99  F   UNL A   1      46.245  36.749  29.787  1.00  0.00    -0.200 F 
ENDBRANCH  66  89
ENDBRANCH  40  41
ENDBRANCH  32  35
ENDBRANCH  30  31
ENDBRANCH  29  30
ENDBRANCH   1  29
TORSDOF 16
ENDMDL
MODEL 3
REMARK VINA RESULT:     -11.9      4.936      9.217
REMARK SMILES CCCc1cc(OC(F)(F)F)cc2c1O[C@@H](C(F)(F)F)C(C(=O)NCCCCNC(=O)c1ccc(-c3c4nc(c(-c5c(F)c(F)c(F)c(F)c5F)c5ccc([nH]5)c(-c5c(F)c(F)c(F)c(F)c5F)c5nc(c(-c6c(F)c(F)c(F)c(F)c6F)c6ccc3[nH]6)C=C5)C=C4)cc1)=C2
REMARK SMILES IDX 26 1 25 2 24 3 22 4 23 5 21 7 4 8 5 9 14 10 6 11 13 12 15 13
REMARK SMILES IDX 12 14 95 15 16 16 3 17 2 18 1 19 7 20 8 21 9 22 10 23 11 24
REMARK SMILES IDX 17 25 18 26 19 27 20 28 27 29 28 30 29 31 30 32 31 34 32 35
REMARK SMILES IDX 33 36 94 37 34 38 93 39 35 40 36 41 37 42 87 43 38 44 92 45
REMARK SMILES IDX 86 46 88 47 39 48 91 49 85 50 84 51 40 53 72 54 52 55 71 56
REMARK SMILES IDX 53 57 56 58 70 59 89 60 54 61 55 62 69 64 90 65 57 66 41 67
REMARK SMILES IDX 42 68 50 69 43 70 44 71 48 72 51 73 45 74 46 75 49 76 47 77
REMARK SMILES IDX 73 78 74 79 82 80 75 81 76 82 80 83 83 84 77 85 78 86 81 87
REMARK SMILES IDX 79 88 58 89 59 90 67 91 60 92 61 93 65 94 68 95 62 96 63 97
REMARK SMILES IDX 66 98 64 99
REMARK H PARENT 24 6 29 33 88 52 56 63
REMARK Flexibility Score: inf
ROOT
ATOM      1  C   UNL A   1      31.769  30.078  26.806  1.00  0.00     0.023 C 
ENDROOT
BRANCH   1   2
ATOM      2  C   UNL A   1      32.996  29.539  26.058  1.00  0.00     0.116 C 
BRANCH   2   3
ATOM      3  N   UNL A   1      32.812  29.703  24.626  1.00  0.00    -0.352 N 
ATOM      4  C   UNL A   1      32.888  28.832  23.582  1.00  0.00     0.251 C 
ATOM      5  O   UNL A   1      32.868  29.300  22.447  1.00  0.00    -0.270 OA
ATOM      6  H   UNL A   1      32.588  30.623  24.359  1.00  0.00     0.163 HD
BRANCH   4   7
ATOM      7  C   UNL A   1      32.912  27.355  23.764  1.00  0.00     0.067 C 
ATOM      8  C   UNL A   1      32.629  23.301  24.875  1.00  0.00    -0.002 A 
ATOM      9  C   UNL A   1      33.760  22.718  25.478  1.00  0.00     0.054 A 
ATOM     10  C   UNL A   1      32.724  24.623  24.408  1.00  0.00     0.131 A 
ATOM     11  C   UNL A   1      34.989  23.373  25.512  1.00  0.00     0.130 A 
ATOM     12  C   UNL A   1      33.943  25.295  24.470  1.00  0.00     0.021 A 
ATOM     13  O   UNL A   1      31.581  25.239  23.985  1.00  0.00    -0.475 OA
ATOM     14  C   UNL A   1      35.073  24.664  25.002  1.00  0.00     0.058 A 
ATOM     15  C   UNL A   1      34.025  26.697  24.111  1.00  0.00     0.025 C 
ATOM     16  C   UNL A   1      31.647  26.579  23.408  1.00  0.00     0.314 C 
BRANCH   8  17
ATOM     17  C   UNL A   1      31.340  22.507  24.797  1.00  0.00     0.039 C 
BRANCH  17  18
ATOM     18  C   UNL A   1      30.681  22.207  26.156  1.00  0.00     0.001 C 
ATOM     19  C   UNL A   1      30.092  23.418  26.870  1.00  0.00     0.004 C 
ENDBRANCH  17  18
ENDBRANCH   8  17
BRANCH  11  20
ATOM     20  O   UNL A   1      36.147  22.887  26.043  1.00  0.00    -0.406 OA
BRANCH  20  21
ATOM     21  C   UNL A   1      36.858  21.929  25.275  1.00  0.00     0.573 C 
ATOM     22  F   UNL A   1      36.431  20.677  25.547  1.00  0.00    -0.132 F 
ATOM     23  F   UNL A   1      36.734  22.172  23.952  1.00  0.00    -0.132 F 
ATOM     24  F   UNL A   1      38.168  22.005  25.595  1.00  0.00    -0.132 F 
ENDBRANCH  20  21
ENDBRANCH  11  20
BRANCH  16  25
ATOM     25  C   UNL A   1      30.293  27.270  23.693  1.00  0.00     0.429 C 
ATOM     26  F   UNL A   1      29.252  26.408  23.690  1.00  0.00    -0.167 F 
ATOM     27  F   UNL A   1      30.288  27.831  24.932  1.00  0.00    -0.167 F 
ATOM     28  F   UNL A   1      30.026  28.264  22.814  1.00  0.00    -0.167 F 
ENDBRANCH  16  25
ENDBRANCH   4   7
ENDBRANCH   2   3
ENDBRANCH   1   2
BRANCH   1  29
ATOM     29  C   UNL A   1      31.558  31.586  26.650  1.00  0.00     0.023 C 
BRANCH  29  30
ATOM     30  C   UNL A   1      32.808  32.425  26.876  1.00  0.00     0.116 C 
BRANCH  30  31
ATOM     31  N   UNL A   1      32.515  33.752  27.395  1.00  0.00    -0.352 N 
ATOM     32  C   UNL A   1      33.118  34.420  28.429  1.00  0.00     0.251 C 
ATOM     33  H   UNL A   1      31.787  34.235  26.942  1.00  0.00     0.163 HD
ATOM     34  O   UNL A   1      32.658  35.487  28.825  1.00  0.00    -0.269 OA
BRANCH  32  35
ATOM     35  C   UNL A   1      34.302  33.833  29.086  1.00  0.00     0.039 A 
ATOM     36  C   UNL A   1      34.109  32.851  30.060  1.00  0.00     0.014 A 
ATOM     37  C   UNL A   1      35.593  34.242  28.742  1.00  0.00     0.014 A 
ATOM     38  C   UNL A   1      35.216  32.252  30.659  1.00  0.00     0.010 A 
ATOM     39  C   UNL A   1      36.694  33.582  29.275  1.00  0.00     0.010 A 
ATOM     40  C   UNL A   1      36.518  32.594  30.254  1.00  0.00    -0.014 A 
BRANCH  40  41
ATOM     41  C   UNL A   1      37.698  31.940  30.870  1.00  0.00     0.031 A 
ATOM     42  C   UNL A   1      38.140  32.328  32.254  1.00  0.00     0.074 A 
ATOM     43  C   UNL A   1      38.383  31.016  30.171  1.00  0.00     0.049 A 
ATOM     44  N   UNL A   1      39.137  31.863  32.963  1.00  0.00    -0.248 NA
ATOM     45  C   UNL A   1      37.382  33.398  32.918  1.00  0.00     0.031 C 
ATOM     46  C   UNL A   1      38.084  30.600  28.799  1.00  0.00     0.029 A 
ATOM     47  N   UNL A   1      39.471  30.257  30.518  1.00  0.00    -0.354 N 
ATOM     48  C   UNL A   1      39.126  32.586  34.150  1.00  0.00     0.074 A 
ATOM     49  C   UNL A   1      38.071  33.567  34.037  1.00  0.00     0.031 C 
ATOM     50  C   UNL A   1      38.942  29.635  28.436  1.00  0.00     0.029 A 
ATOM     51  C   UNL A   1      39.872  29.388  29.533  1.00  0.00     0.049 A 
ATOM     52  H   UNL A   1      39.921  30.327  31.391  1.00  0.00     0.167 HD
ATOM     53  C   UNL A   1      39.904  32.425  35.246  1.00  0.00     0.037 A 
ATOM     54  C   UNL A   1      40.877  28.492  29.520  1.00  0.00     0.037 A 
ATOM     55  C   UNL A   1      40.943  31.434  35.358  1.00  0.00     0.049 A 
ATOM     56  C   UNL A   1      41.729  28.336  30.750  1.00  0.00     0.074 A 
ATOM     57  C   UNL A   1      41.751  31.149  36.444  1.00  0.00     0.029 A 
ATOM     58  N   UNL A   1      41.320  30.567  34.341  1.00  0.00    -0.354 N 
ATOM     59  N   UNL A   1      41.655  28.967  31.898  1.00  0.00    -0.248 NA
ATOM     60  C   UNL A   1      42.799  27.331  30.688  1.00  0.00     0.031 C 
ATOM     61  C   UNL A   1      42.656  30.150  36.065  1.00  0.00     0.029 A 
ATOM     62  C   UNL A   1      42.369  29.767  34.765  1.00  0.00     0.049 A 
ATOM     63  H   UNL A   1      40.904  30.528  33.450  1.00  0.00     0.167 HD
ATOM     64  C   UNL A   1      42.648  28.419  32.700  1.00  0.00     0.074 A 
ATOM     65  C   UNL A   1      43.291  27.384  31.916  1.00  0.00     0.031 C 
ATOM     66  C   UNL A   1      43.000  28.744  33.970  1.00  0.00     0.037 A 
BRANCH  53  67
ATOM     67  C   UNL A   1      39.659  33.340  36.412  1.00  0.00     0.064 A 
ATOM     68  C   UNL A   1      40.266  34.603  36.499  1.00  0.00     0.173 A 
ATOM     69  C   UNL A   1      38.785  32.964  37.443  1.00  0.00     0.173 A 
ATOM     70  F   UNL A   1      41.121  35.009  35.547  1.00  0.00    -0.203 F 
ATOM     71  C   UNL A   1      40.034  35.439  37.589  1.00  0.00     0.198 A 
ATOM     72  C   UNL A   1      38.528  33.817  38.513  1.00  0.00     0.198 A 
ATOM     73  F   UNL A   1      38.175  31.770  37.411  1.00  0.00    -0.203 F 
ATOM     74  F   UNL A   1      40.670  36.615  37.676  1.00  0.00    -0.200 F 
ATOM     75  C   UNL A   1      39.159  35.049  38.591  1.00  0.00     0.200 A 
ATOM     76  F   UNL A   1      37.671  33.444  39.474  1.00  0.00    -0.200 F 
ATOM     77  F   UNL A   1      38.930  35.857  39.635  1.00  0.00    -0.200 F 
ENDBRANCH  53  67
BRANCH  54  78
ATOM     78  C   UNL A   1      41.112  27.652  28.316  1.00  0.00     0.064 A 
ATOM     79  C   UNL A   1      40.482  26.408  28.168  1.00  0.00     0.173 A 
ATOM     80  C   UNL A   1      41.981  28.066  27.296  1.00  0.00     0.173 A 
ATOM     81  F   UNL A   1      39.656  25.958  29.125  1.00  0.00    -0.203 F 
ATOM     82  C   UNL A   1      40.734  25.599  27.062  1.00  0.00     0.198 A 
ATOM     83  C   UNL A   1      42.206  27.272  26.174  1.00  0.00     0.198 A 
ATOM     84  F   UNL A   1      42.603  29.251  27.383  1.00  0.00    -0.203 F 
ATOM     85  F   UNL A   1      40.161  24.391  26.974  1.00  0.00    -0.200 F 
ATOM     86  C   UNL A   1      41.591  26.034  26.063  1.00  0.00     0.200 A 
ATOM     87  F   UNL A   1      43.021  27.704  25.203  1.00  0.00    -0.200 F 
ATOM     88  F   UNL A   1      41.830  25.257  24.999  1.00  0.00    -0.200 F 
ENDBRANCH  54  78
BRANCH  66  89
ATOM     89  C   UNL A   1      44.112  27.950  34.594  1.00  0.00     0.064 A 
ATOM     90  C   UNL A   1      45.449  28.372  34.530  1.00  0.00     0.173 A 
ATOM     91  C   UNL A   1      43.835  26.755  35.277  1.00  0.00     0.173 A 
ATOM     92  F   UNL A   1      45.770  29.501  33.879  1.00  0.00    -0.203 F 
ATOM     93  C   UNL A   1      46.470  27.607  35.086  1.00  0.00     0.198 A 
ATOM     94  C   UNL A   1      44.854  26.012  35.866  1.00  0.00     0.198 A 
ATOM     95  F   UNL A   1      42.574  26.310  35.379  1.00  0.00    -0.203 F 
ATOM     96  F   UNL A   1      47.745  27.995  34.951  1.00  0.00    -0.200 F 
ATOM     97  C   UNL A   1      46.171  26.431  35.758  1.00  0.00     0.200 A 
ATOM     98  F   UNL A   1      44.562  24.886  36.531  1.00  0.00    -0.200 F 
ATOM     99  F   UNL A   1      47.155  25.695  36.293  1.00  0.00    -0.200 F 
ENDBRANCH  66  89
ENDBRANCH  40  41
ENDBRANCH  32  35
ENDBRANCH  30  31
ENDBRANCH  29  30
ENDBRANCH   1  29
TORSDOF 16
ENDMDL
