MODEL 1
REMARK VINA RESULT:     -12.8      0.000      0.000
REMARK SMILES C[C@@H](C(=O)NCCCCNC(=O)c1ccc(-c2c3nc(c(-c4c(F)c(F)c(F)c(F)c4F)c4ccc([nH]4)c(-c4c(F)c(F)c(F)c(F)c4F)c4nc(c(-c5c(F)c(F)c(F)c(F)c5F)c5ccc2[nH]5)C=C4)C=C3)cc1)c1ccc(C[C@H]2CCCC2=O)cc1-c1ccc(F)cc1
REMARK SMILES IDX 7 1 6 2 5 3 3 4 4 5 2 7 1 8 76 9 77 10 88 11 78 12 87 13
REMARK SMILES IDX 79 14 89 15 90 16 95 17 91 18 94 19 92 20 93 21 80 22 81 23
REMARK SMILES IDX 82 24 85 25 83 26 84 27 86 28 8 29 9 30 10 31 11 32 12 34
REMARK SMILES IDX 13 35 14 36 75 37 15 38 74 39 16 40 17 41 18 42 68 43 19 44
REMARK SMILES IDX 73 45 67 46 69 47 20 48 72 49 66 50 65 51 21 53 53 54 33 55
REMARK SMILES IDX 52 56 34 57 37 58 51 59 70 60 35 61 36 62 50 64 71 65 38 66
REMARK SMILES IDX 22 67 23 68 31 69 24 70 25 71 29 72 32 73 26 74 27 75 30 76
REMARK SMILES IDX 28 77 54 78 55 79 63 80 56 81 57 82 61 83 64 84 58 85 59 86
REMARK SMILES IDX 62 87 60 88 39 89 40 90 48 91 41 92 42 93 46 94 49 95 43 96
REMARK SMILES IDX 44 97 47 98 45 99
REMARK H PARENT 5 6 10 33 69 52 37 63
REMARK Flexibility Score: inf
ROOT
ATOM      1  C   UNL A   1      39.230  22.393  26.273  1.00  0.00     0.023 C 
ENDROOT
BRANCH   1   2
ATOM      2  C   UNL A   1      38.128  23.251  25.656  1.00  0.00     0.116 C 
BRANCH   2   3
ATOM      3  N   UNL A   1      36.828  23.036  26.254  1.00  0.00    -0.356 N 
ATOM      4  C   UNL A   1      35.832  22.231  25.774  1.00  0.00     0.227 C 
ATOM      5  O   UNL A   1      35.280  21.509  26.608  1.00  0.00    -0.274 OA
ATOM      6  H   UNL A   1      36.642  23.518  27.092  1.00  0.00     0.163 HD
BRANCH   4   7
ATOM      7  C   UNL A   1      35.513  22.159  24.272  1.00  0.00     0.106 C 
ATOM      8  C   UNL A   1      36.541  22.754  23.300  1.00  0.00     0.023 C 
BRANCH   7   9
ATOM      9  C   UNL A   1      34.148  22.743  23.856  1.00  0.00    -0.028 A 
ATOM     10  C   UNL A   1      34.162  24.114  23.515  1.00  0.00     0.005 A 
ATOM     11  C   UNL A   1      32.900  22.067  23.895  1.00  0.00    -0.014 A 
ATOM     12  C   UNL A   1      32.990  24.821  23.258  1.00  0.00     0.004 A 
ATOM     13  C   UNL A   1      31.723  22.819  23.659  1.00  0.00     0.012 A 
ATOM     14  C   UNL A   1      31.753  24.189  23.363  1.00  0.00    -0.047 A 
BRANCH  11  15
ATOM     15  C   UNL A   1      32.736  20.611  24.086  1.00  0.00    -0.018 A 
ATOM     16  C   UNL A   1      32.529  19.790  22.957  1.00  0.00     0.012 A 
ATOM     17  C   UNL A   1      32.799  19.997  25.345  1.00  0.00     0.012 A 
ATOM     18  C   UNL A   1      32.448  18.401  23.075  1.00  0.00     0.040 A 
ATOM     19  C   UNL A   1      32.735  18.603  25.463  1.00  0.00     0.040 A 
ATOM     20  C   UNL A   1      32.568  17.820  24.327  1.00  0.00     0.123 A 
ATOM     21  F   UNL A   1      32.529  16.486  24.445  1.00  0.00    -0.207 F 
ENDBRANCH  11  15
BRANCH  14  22
ATOM     22  C   UNL A   1      30.475  24.968  23.159  1.00  0.00     0.047 C 
BRANCH  22  23
ATOM     23  C   UNL A   1      29.983  25.793  24.355  1.00  0.00     0.060 C 
ATOM     24  C   UNL A   1      30.299  25.231  25.744  1.00  0.00     0.012 C 
ATOM     25  C   UNL A   1      30.611  27.168  24.421  1.00  0.00     0.136 C 
ATOM     26  C   UNL A   1      31.546  25.962  26.227  1.00  0.00     0.009 C 
ATOM     27  C   UNL A   1      31.435  27.371  25.665  1.00  0.00     0.076 C 
ATOM     28  O   UNL A   1      30.453  28.031  23.566  1.00  0.00    -0.299 OA
ENDBRANCH  22  23
ENDBRANCH  14  22
ENDBRANCH   7   9
ENDBRANCH   4   7
ENDBRANCH   2   3
ENDBRANCH   1   2
BRANCH   1  29
ATOM     29  C   UNL A   1      39.368  20.983  25.695  1.00  0.00     0.023 C 
BRANCH  29  30
ATOM     30  C   UNL A   1      39.871  19.918  26.662  1.00  0.00     0.116 C 
BRANCH  30  31
ATOM     31  N   UNL A   1      40.955  19.114  26.122  1.00  0.00    -0.352 N 
ATOM     32  C   UNL A   1      42.247  19.481  25.823  1.00  0.00     0.251 C 
ATOM     33  H   UNL A   1      40.733  18.172  25.944  1.00  0.00     0.163 HD
ATOM     34  O   UNL A   1      43.002  18.688  25.276  1.00  0.00    -0.269 OA
BRANCH  32  35
ATOM     35  C   UNL A   1      42.707  20.852  26.128  1.00  0.00     0.039 A 
ATOM     36  C   UNL A   1      42.925  21.736  25.068  1.00  0.00     0.014 A 
ATOM     37  C   UNL A   1      42.904  21.271  27.446  1.00  0.00     0.014 A 
ATOM     38  C   UNL A   1      43.269  23.064  25.334  1.00  0.00     0.010 A 
ATOM     39  C   UNL A   1      43.175  22.610  27.712  1.00  0.00     0.010 A 
ATOM     40  C   UNL A   1      43.357  23.520  26.659  1.00  0.00    -0.014 A 
BRANCH  40  41
ATOM     41  C   UNL A   1      43.633  24.946  26.964  1.00  0.00     0.031 A 
ATOM     42  C   UNL A   1      45.010  25.511  26.750  1.00  0.00     0.074 A 
ATOM     43  C   UNL A   1      42.663  25.714  27.498  1.00  0.00     0.049 A 
ATOM     44  N   UNL A   1      45.467  26.706  27.027  1.00  0.00    -0.248 NA
ATOM     45  C   UNL A   1      46.013  24.602  26.174  1.00  0.00     0.031 C 
ATOM     46  C   UNL A   1      41.302  25.268  27.798  1.00  0.00     0.029 A 
ATOM     47  N   UNL A   1      42.677  27.027  27.897  1.00  0.00    -0.354 N 
ATOM     48  C   UNL A   1      46.810  26.686  26.674  1.00  0.00     0.074 A 
ATOM     49  C   UNL A   1      47.107  25.348  26.213  1.00  0.00     0.031 C 
ATOM     50  C   UNL A   1      40.606  26.293  28.315  1.00  0.00     0.029 A 
ATOM     51  C   UNL A   1      41.481  27.457  28.419  1.00  0.00     0.049 A 
ATOM     52  H   UNL A   1      43.469  27.606  27.817  1.00  0.00     0.167 HD
ATOM     53  C   UNL A   1      47.707  27.701  26.711  1.00  0.00     0.037 A 
ATOM     54  C   UNL A   1      41.133  28.653  28.932  1.00  0.00     0.037 A 
ATOM     55  C   UNL A   1      47.400  29.037  27.147  1.00  0.00     0.049 A 
ATOM     56  C   UNL A   1      42.151  29.762  28.963  1.00  0.00     0.074 A 
ATOM     57  C   UNL A   1      48.223  30.150  27.165  1.00  0.00     0.029 A 
ATOM     58  N   UNL A   1      46.170  29.441  27.646  1.00  0.00    -0.354 N 
ATOM     59  N   UNL A   1      43.398  29.752  28.560  1.00  0.00    -0.248 NA
ATOM     60  C   UNL A   1      41.709  31.050  29.513  1.00  0.00     0.031 C 
ATOM     61  C   UNL A   1      47.506  31.215  27.716  1.00  0.00     0.029 A 
ATOM     62  C   UNL A   1      46.219  30.782  27.993  1.00  0.00     0.049 A 
ATOM     63  H   UNL A   1      45.380  28.862  27.740  1.00  0.00     0.167 HD
ATOM     64  C   UNL A   1      43.880  31.036  28.777  1.00  0.00     0.074 A 
ATOM     65  C   UNL A   1      42.786  31.802  29.336  1.00  0.00     0.031 C 
ATOM     66  C   UNL A   1      45.116  31.535  28.535  1.00  0.00     0.037 A 
BRANCH  53  67
ATOM     67  C   UNL A   1      49.108  27.405  26.261  1.00  0.00     0.064 A 
ATOM     68  C   UNL A   1      49.474  27.466  24.908  1.00  0.00     0.173 A 
ATOM     69  C   UNL A   1      50.106  27.095  27.197  1.00  0.00     0.173 A 
ATOM     70  F   UNL A   1      48.556  27.746  23.972  1.00  0.00    -0.203 F 
ATOM     71  C   UNL A   1      50.781  27.200  24.506  1.00  0.00     0.198 A 
ATOM     72  C   UNL A   1      51.419  26.860  26.794  1.00  0.00     0.198 A 
ATOM     73  F   UNL A   1      49.812  27.029  28.504  1.00  0.00    -0.203 F 
ATOM     74  F   UNL A   1      51.096  27.218  23.203  1.00  0.00    -0.200 F 
ATOM     75  C   UNL A   1      51.753  26.906  25.450  1.00  0.00     0.200 A 
ATOM     76  F   UNL A   1      52.361  26.590  27.709  1.00  0.00    -0.200 F 
ATOM     77  F   UNL A   1      53.012  26.659  25.062  1.00  0.00    -0.200 F 
ENDBRANCH  53  67
BRANCH  54  78
ATOM     78  C   UNL A   1      39.752  28.875  29.434  1.00  0.00     0.064 A 
ATOM     79  C   UNL A   1      38.756  29.391  28.594  1.00  0.00     0.173 A 
ATOM     80  C   UNL A   1      39.401  28.583  30.759  1.00  0.00     0.173 A 
ATOM     81  F   UNL A   1      39.048  29.706  27.324  1.00  0.00    -0.203 F 
ATOM     82  C   UNL A   1      37.467  29.631  29.067  1.00  0.00     0.198 A 
ATOM     83  C   UNL A   1      38.104  28.795  31.223  1.00  0.00     0.198 A 
ATOM     84  F   UNL A   1      40.315  28.080  31.602  1.00  0.00    -0.203 F 
ATOM     85  F   UNL A   1      36.548  30.171  28.256  1.00  0.00    -0.200 F 
ATOM     86  C   UNL A   1      37.141  29.327  30.379  1.00  0.00     0.200 A 
ATOM     87  F   UNL A   1      37.788  28.485  32.489  1.00  0.00    -0.200 F 
ATOM     88  F   UNL A   1      35.901  29.554  30.833  1.00  0.00    -0.200 F 
ENDBRANCH  54  78
BRANCH  66  89
ATOM     89  C   UNL A   1      45.344  32.988  28.830  1.00  0.00     0.064 A 
ATOM     90  C   UNL A   1      45.851  33.421  30.065  1.00  0.00     0.173 A 
ATOM     91  C   UNL A   1      45.091  33.958  27.847  1.00  0.00     0.173 A 
ATOM     92  F   UNL A   1      46.094  32.535  31.042  1.00  0.00    -0.203 F 
ATOM     93  C   UNL A   1      46.075  34.773  30.312  1.00  0.00     0.198 A 
ATOM     94  C   UNL A   1      45.345  35.305  28.088  1.00  0.00     0.198 A 
ATOM     95  F   UNL A   1      44.612  33.596  26.648  1.00  0.00    -0.203 F 
ATOM     96  F   UNL A   1      46.516  35.168  31.514  1.00  0.00    -0.200 F 
ATOM     97  C   UNL A   1      45.830  35.712  29.321  1.00  0.00     0.200 A 
ATOM     98  F   UNL A   1      45.122  36.210  27.124  1.00  0.00    -0.200 F 
ATOM     99  F   UNL A   1      46.054  37.012  29.557  1.00  0.00    -0.200 F 
ENDBRANCH  66  89
ENDBRANCH  40  41
ENDBRANCH  32  35
ENDBRANCH  30  31
ENDBRANCH  29  30
ENDBRANCH   1  29
TORSDOF 15
ENDMDL
MODEL 2
REMARK VINA RESULT:     -12.8      0.586      7.113
REMARK SMILES C[C@@H](C(=O)NCCCCNC(=O)c1ccc(-c2c3nc(c(-c4c(F)c(F)c(F)c(F)c4F)c4ccc([nH]4)c(-c4c(F)c(F)c(F)c(F)c4F)c4nc(c(-c5c(F)c(F)c(F)c(F)c5F)c5ccc2[nH]5)C=C4)C=C3)cc1)c1ccc(C[C@H]2CCCC2=O)cc1-c1ccc(F)cc1
REMARK SMILES IDX 7 1 6 2 5 3 3 4 4 5 2 7 1 8 76 9 77 10 88 11 78 12 87 13
REMARK SMILES IDX 79 14 89 15 90 16 95 17 91 18 94 19 92 20 93 21 80 22 81 23
REMARK SMILES IDX 82 24 85 25 83 26 84 27 86 28 8 29 9 30 10 31 11 32 12 34
REMARK SMILES IDX 13 35 14 36 75 37 15 38 74 39 16 40 17 41 18 42 68 43 19 44
REMARK SMILES IDX 73 45 67 46 69 47 20 48 72 49 66 50 65 51 21 53 53 54 33 55
REMARK SMILES IDX 52 56 34 57 37 58 51 59 70 60 35 61 36 62 50 64 71 65 38 66
REMARK SMILES IDX 22 67 23 68 31 69 24 70 25 71 29 72 32 73 26 74 27 75 30 76
REMARK SMILES IDX 28 77 54 78 55 79 63 80 56 81 57 82 61 83 64 84 58 85 59 86
REMARK SMILES IDX 62 87 60 88 39 89 40 90 48 91 41 92 42 93 46 94 49 95 43 96
REMARK SMILES IDX 44 97 47 98 45 99
REMARK H PARENT 5 6 10 33 69 52 37 63
REMARK Flexibility Score: inf
ROOT
ATOM      1  C   UNL A   1      39.246  22.595  26.203  1.00  0.00     0.023 C 
ENDROOT
BRANCH   1   2
ATOM      2  C   UNL A   1      38.099  23.472  25.709  1.00  0.00     0.116 C 
BRANCH   2   3
ATOM      3  N   UNL A   1      36.817  23.122  26.283  1.00  0.00    -0.356 N 
ATOM      4  C   UNL A   1      35.901  22.251  25.762  1.00  0.00     0.227 C 
ATOM      5  O   UNL A   1      35.407  21.453  26.563  1.00  0.00    -0.274 OA
ATOM      6  H   UNL A   1      36.582  23.555  27.135  1.00  0.00     0.163 HD
BRANCH   4   7
ATOM      7  C   UNL A   1      35.604  22.207  24.255  1.00  0.00     0.106 C 
ATOM      8  C   UNL A   1      36.615  22.875  23.312  1.00  0.00     0.023 C 
BRANCH   7   9
ATOM      9  C   UNL A   1      34.219  22.739  23.836  1.00  0.00    -0.028 A 
ATOM     10  C   UNL A   1      34.184  24.106  23.481  1.00  0.00     0.005 A 
ATOM     11  C   UNL A   1      32.995  22.021  23.886  1.00  0.00    -0.014 A 
ATOM     12  C   UNL A   1      32.989  24.769  23.220  1.00  0.00     0.004 A 
ATOM     13  C   UNL A   1      31.792  22.730  23.645  1.00  0.00     0.012 A 
ATOM     14  C   UNL A   1      31.774  24.097  23.335  1.00  0.00    -0.047 A 
BRANCH  11  15
ATOM     15  C   UNL A   1      32.882  20.562  24.093  1.00  0.00    -0.018 A 
ATOM     16  C   UNL A   1      33.009  20.042  25.398  1.00  0.00     0.012 A 
ATOM     17  C   UNL A   1      32.629  19.663  23.047  1.00  0.00     0.012 A 
ATOM     18  C   UNL A   1      32.830  18.682  25.657  1.00  0.00     0.040 A 
ATOM     19  C   UNL A   1      32.434  18.302  23.306  1.00  0.00     0.040 A 
ATOM     20  C   UNL A   1      32.528  17.826  24.609  1.00  0.00     0.123 A 
ATOM     21  F   UNL A   1      32.319  16.526  24.854  1.00  0.00    -0.207 F 
ENDBRANCH  11  15
BRANCH  14  22
ATOM     22  C   UNL A   1      30.470  24.829  23.127  1.00  0.00     0.047 C 
BRANCH  22  23
ATOM     23  C   UNL A   1      29.971  25.679  24.303  1.00  0.00     0.060 C 
ATOM     24  C   UNL A   1      30.343  25.185  25.704  1.00  0.00     0.012 C 
ATOM     25  C   UNL A   1      30.541  27.080  24.301  1.00  0.00     0.136 C 
ATOM     26  C   UNL A   1      31.569  25.985  26.128  1.00  0.00     0.009 C 
ATOM     27  C   UNL A   1      31.385  27.365  25.515  1.00  0.00     0.076 C 
ATOM     28  O   UNL A   1      30.327  27.902  23.418  1.00  0.00    -0.299 OA
ENDBRANCH  22  23
ENDBRANCH  14  22
ENDBRANCH   7   9
ENDBRANCH   4   7
ENDBRANCH   2   3
ENDBRANCH   1   2
BRANCH   1  29
ATOM     29  C   UNL A   1      39.350  21.216  25.547  1.00  0.00     0.023 C 
BRANCH  29  30
ATOM     30  C   UNL A   1      39.368  20.028  26.501  1.00  0.00     0.116 C 
BRANCH  30  31
ATOM     31  N   UNL A   1      40.399  19.052  26.187  1.00  0.00    -0.352 N 
ATOM     32  C   UNL A   1      41.761  19.221  26.096  1.00  0.00     0.251 C 
ATOM     33  H   UNL A   1      40.075  18.138  26.014  1.00  0.00     0.163 HD
ATOM     34  O   UNL A   1      42.472  18.300  25.719  1.00  0.00    -0.269 OA
BRANCH  32  35
ATOM     35  C   UNL A   1      42.357  20.535  26.416  1.00  0.00     0.039 A 
ATOM     36  C   UNL A   1      42.902  21.294  25.376  1.00  0.00     0.014 A 
ATOM     37  C   UNL A   1      42.363  21.027  27.723  1.00  0.00     0.014 A 
ATOM     38  C   UNL A   1      43.387  22.577  25.636  1.00  0.00     0.010 A 
ATOM     39  C   UNL A   1      42.779  22.332  27.969  1.00  0.00     0.010 A 
ATOM     40  C   UNL A   1      43.292  23.121  26.928  1.00  0.00    -0.014 A 
BRANCH  40  41
ATOM     41  C   UNL A   1      43.718  24.515  27.208  1.00  0.00     0.031 A 
ATOM     42  C   UNL A   1      42.718  25.526  27.696  1.00  0.00     0.074 A 
ATOM     43  C   UNL A   1      44.988  24.888  26.955  1.00  0.00     0.049 A 
ATOM     44  N   UNL A   1      42.877  26.805  27.923  1.00  0.00    -0.248 NA
ATOM     45  C   UNL A   1      41.351  25.039  27.935  1.00  0.00     0.031 C 
ATOM     46  C   UNL A   1      46.038  24.012  26.434  1.00  0.00     0.029 A 
ATOM     47  N   UNL A   1      45.609  26.104  27.090  1.00  0.00    -0.354 N 
ATOM     48  C   UNL A   1      41.631  27.276  28.314  1.00  0.00     0.074 A 
ATOM     49  C   UNL A   1      40.715  26.159  28.244  1.00  0.00     0.031 C 
ATOM     50  C   UNL A   1      47.176  24.713  26.311  1.00  0.00     0.029 A 
ATOM     51  C   UNL A   1      46.928  26.095  26.709  1.00  0.00     0.049 A 
ATOM     52  H   UNL A   1      45.151  26.908  27.429  1.00  0.00     0.167 HD
ATOM     53  C   UNL A   1      41.288  28.523  28.718  1.00  0.00     0.037 A 
ATOM     54  C   UNL A   1      47.833  27.093  26.674  1.00  0.00     0.037 A 
ATOM     55  C   UNL A   1      42.209  29.625  28.809  1.00  0.00     0.049 A 
ATOM     56  C   UNL A   1      47.424  28.470  27.125  1.00  0.00     0.074 A 
ATOM     57  C   UNL A   1      41.973  30.911  29.264  1.00  0.00     0.029 A 
ATOM     58  N   UNL A   1      43.544  29.572  28.437  1.00  0.00    -0.354 N 
ATOM     59  N   UNL A   1      46.261  28.887  27.562  1.00  0.00    -0.248 NA
ATOM     60  C   UNL A   1      48.458  29.513  27.086  1.00  0.00     0.031 C 
ATOM     61  C   UNL A   1      43.153  31.648  29.124  1.00  0.00     0.029 A 
ATOM     62  C   UNL A   1      44.139  30.808  28.632  1.00  0.00     0.049 A 
ATOM     63  H   UNL A   1      44.001  28.774  28.086  1.00  0.00     0.167 HD
ATOM     64  C   UNL A   1      46.429  30.228  27.879  1.00  0.00     0.074 A 
ATOM     65  C   UNL A   1      47.812  30.552  27.596  1.00  0.00     0.031 C 
ATOM     66  C   UNL A   1      45.521  31.110  28.360  1.00  0.00     0.037 A 
BRANCH  53  67
ATOM     67  C   UNL A   1      39.855  28.761  29.096  1.00  0.00     0.064 A 
ATOM     68  C   UNL A   1      39.404  28.590  30.413  1.00  0.00     0.173 A 
ATOM     69  C   UNL A   1      38.930  29.204  28.139  1.00  0.00     0.173 A 
ATOM     70  F   UNL A   1      40.246  28.157  31.364  1.00  0.00    -0.203 F 
ATOM     71  C   UNL A   1      38.074  28.826  30.753  1.00  0.00     0.198 A 
ATOM     72  C   UNL A   1      37.608  29.468  28.489  1.00  0.00     0.198 A 
ATOM     73  F   UNL A   1      39.309  29.390  26.865  1.00  0.00    -0.203 F 
ATOM     74  F   UNL A   1      37.656  28.609  32.008  1.00  0.00    -0.200 F 
ATOM     75  C   UNL A   1      37.180  29.272  29.792  1.00  0.00     0.200 A 
ATOM     76  F   UNL A   1      36.748  29.914  27.562  1.00  0.00    -0.200 F 
ATOM     77  F   UNL A   1      35.903  29.508  30.122  1.00  0.00    -0.200 F 
ENDBRANCH  53  67
BRANCH  54  78
ATOM     78  C   UNL A   1      49.222  26.823  26.220  1.00  0.00     0.064 A 
ATOM     79  C   UNL A   1      49.584  26.989  24.876  1.00  0.00     0.173 A 
ATOM     80  C   UNL A   1      50.211  26.387  27.113  1.00  0.00     0.173 A 
ATOM     81  F   UNL A   1      48.668  27.384  23.980  1.00  0.00    -0.203 F 
ATOM     82  C   UNL A   1      50.876  26.706  24.437  1.00  0.00     0.198 A 
ATOM     83  C   UNL A   1      51.510  26.133  26.679  1.00  0.00     0.198 A 
ATOM     84  F   UNL A   1      49.918  26.218  28.411  1.00  0.00    -0.203 F 
ATOM     85  F   UNL A   1      51.182  26.828  23.139  1.00  0.00    -0.200 F 
ATOM     86  C   UNL A   1      51.840  26.285  25.340  1.00  0.00     0.200 A 
ATOM     87  F   UNL A   1      52.444  25.740  27.557  1.00  0.00    -0.200 F 
ATOM     88  F   UNL A   1      53.083  26.017  24.919  1.00  0.00    -0.200 F 
ENDBRANCH  54  78
BRANCH  66  89
ATOM     89  C   UNL A   1      46.001  32.501  28.656  1.00  0.00     0.064 A 
ATOM     90  C   UNL A   1      46.554  32.844  29.899  1.00  0.00     0.173 A 
ATOM     91  C   UNL A   1      45.944  33.494  27.665  1.00  0.00     0.173 A 
ATOM     92  F   UNL A   1      46.616  31.935  30.883  1.00  0.00    -0.203 F 
ATOM     93  C   UNL A   1      47.012  34.135  30.146  1.00  0.00     0.198 A 
ATOM     94  C   UNL A   1      46.431  34.776  27.906  1.00  0.00     0.198 A 
ATOM     95  F   UNL A   1      45.430  33.217  26.458  1.00  0.00    -0.203 F 
ATOM     96  F   UNL A   1      47.494  34.453  31.355  1.00  0.00    -0.200 F 
ATOM     97  C   UNL A   1      46.958  35.097  29.147  1.00  0.00     0.200 A 
ATOM     98  F   UNL A   1      46.391  35.699  26.935  1.00  0.00    -0.200 F 
ATOM     99  F   UNL A   1      47.407  36.337  29.385  1.00  0.00    -0.200 F 
ENDBRANCH  66  89
ENDBRANCH  40  41
ENDBRANCH  32  35
ENDBRANCH  30  31
ENDBRANCH  29  30
ENDBRANCH   1  29
TORSDOF 15
ENDMDL
MODEL 3
REMARK VINA RESULT:     -12.7      4.823      8.407
REMARK SMILES C[C@@H](C(=O)NCCCCNC(=O)c1ccc(-c2c3nc(c(-c4c(F)c(F)c(F)c(F)c4F)c4ccc([nH]4)c(-c4c(F)c(F)c(F)c(F)c4F)c4nc(c(-c5c(F)c(F)c(F)c(F)c5F)c5ccc2[nH]5)C=C4)C=C3)cc1)c1ccc(C[C@H]2CCCC2=O)cc1-c1ccc(F)cc1
REMARK SMILES IDX 7 1 6 2 5 3 3 4 4 5 2 7 1 8 76 9 77 10 88 11 78 12 87 13
REMARK SMILES IDX 79 14 89 15 90 16 95 17 91 18 94 19 92 20 93 21 80 22 81 23
REMARK SMILES IDX 82 24 85 25 83 26 84 27 86 28 8 29 9 30 10 31 11 32 12 34
REMARK SMILES IDX 13 35 14 36 75 37 15 38 74 39 16 40 17 41 18 42 68 43 19 44
REMARK SMILES IDX 73 45 67 46 69 47 20 48 72 49 66 50 65 51 21 53 53 54 33 55
REMARK SMILES IDX 52 56 34 57 37 58 51 59 70 60 35 61 36 62 50 64 71 65 38 66
REMARK SMILES IDX 22 67 23 68 31 69 24 70 25 71 29 72 32 73 26 74 27 75 30 76
REMARK SMILES IDX 28 77 54 78 55 79 63 80 56 81 57 82 61 83 64 84 58 85 59 86
REMARK SMILES IDX 62 87 60 88 39 89 40 90 48 91 41 92 42 93 46 94 49 95 43 96
REMARK SMILES IDX 44 97 47 98 45 99
REMARK H PARENT 5 6 10 33 69 52 37 63
REMARK Flexibility Score: inf
ROOT
ATOM      1  C   UNL A   1      33.499  27.127  24.432  1.00  0.00     0.023 C 
ENDROOT
BRANCH   1   2
ATOM      2  C   UNL A   1      33.214  26.708  22.992  1.00  0.00     0.116 C 
BRANCH   2   3
ATOM      3  N   UNL A   1      32.043  25.869  22.857  1.00  0.00    -0.356 N 
ATOM      4  C   UNL A   1      31.984  24.515  23.038  1.00  0.00     0.227 C 
ATOM      5  O   UNL A   1      31.030  24.105  23.703  1.00  0.00    -0.274 OA
ATOM      6  H   UNL A   1      31.203  26.320  22.612  1.00  0.00     0.163 HD
BRANCH   4   7
ATOM      7  C   UNL A   1      33.104  23.590  22.534  1.00  0.00     0.106 C 
ATOM      8  C   UNL A   1      33.277  23.447  21.016  1.00  0.00     0.023 C 
BRANCH   7   9
ATOM      9  C   UNL A   1      33.081  22.155  23.096  1.00  0.00    -0.028 A 
ATOM     10  C   UNL A   1      32.107  21.303  22.525  1.00  0.00     0.005 A 
ATOM     11  C   UNL A   1      33.854  21.667  24.182  1.00  0.00    -0.014 A 
ATOM     12  C   UNL A   1      31.864  20.026  23.022  1.00  0.00     0.004 A 
ATOM     13  C   UNL A   1      33.563  20.375  24.685  1.00  0.00     0.012 A 
ATOM     14  C   UNL A   1      32.565  19.560  24.133  1.00  0.00    -0.047 A 
BRANCH  11  15
ATOM     15  C   UNL A   1      35.003  22.375  24.783  1.00  0.00    -0.018 A 
ATOM     16  C   UNL A   1      36.269  21.750  24.786  1.00  0.00     0.012 A 
ATOM     17  C   UNL A   1      34.900  23.659  25.338  1.00  0.00     0.012 A 
ATOM     18  C   UNL A   1      37.401  22.409  25.269  1.00  0.00     0.040 A 
ATOM     19  C   UNL A   1      36.037  24.327  25.808  1.00  0.00     0.040 A 
ATOM     20  C   UNL A   1      37.277  23.699  25.761  1.00  0.00     0.123 A 
ATOM     21  F   UNL A   1      38.364  24.352  26.192  1.00  0.00    -0.207 F 
ENDBRANCH  11  15
BRANCH  14  22
ATOM     22  C   UNL A   1      32.252  18.205  24.723  1.00  0.00     0.047 C 
BRANCH  22  23
ATOM     23  C   UNL A   1      33.033  17.016  24.148  1.00  0.00     0.060 C 
ATOM     24  C   UNL A   1      34.403  17.333  23.541  1.00  0.00     0.012 C 
ATOM     25  C   UNL A   1      33.384  15.981  25.194  1.00  0.00     0.136 C 
ATOM     26  C   UNL A   1      35.433  17.012  24.618  1.00  0.00     0.009 C 
ATOM     27  C   UNL A   1      34.870  15.819  25.376  1.00  0.00     0.076 C 
ATOM     28  O   UNL A   1      32.551  15.330  25.815  1.00  0.00    -0.299 OA
ENDBRANCH  22  23
ENDBRANCH  14  22
ENDBRANCH   7   9
ENDBRANCH   4   7
ENDBRANCH   2   3
ENDBRANCH   1   2
BRANCH   1  29
ATOM     29  C   UNL A   1      33.305  28.614  24.736  1.00  0.00     0.023 C 
BRANCH  29  30
ATOM     30  C   UNL A   1      32.763  28.941  26.122  1.00  0.00     0.116 C 
BRANCH  30  31
ATOM     31  N   UNL A   1      32.481  30.355  26.312  1.00  0.00    -0.352 N 
ATOM     32  C   UNL A   1      33.197  31.301  27.009  1.00  0.00     0.251 C 
ATOM     33  H   UNL A   1      31.659  30.682  25.881  1.00  0.00     0.163 HD
ATOM     34  O   UNL A   1      32.753  32.432  27.147  1.00  0.00    -0.269 OA
BRANCH  32  35
ATOM     35  C   UNL A   1      34.489  30.932  27.626  1.00  0.00     0.039 A 
ATOM     36  C   UNL A   1      35.446  31.930  27.822  1.00  0.00     0.014 A 
ATOM     37  C   UNL A   1      34.749  29.619  28.027  1.00  0.00     0.014 A 
ATOM     38  C   UNL A   1      36.636  31.627  28.487  1.00  0.00     0.010 A 
ATOM     39  C   UNL A   1      35.901  29.334  28.753  1.00  0.00     0.010 A 
ATOM     40  C   UNL A   1      36.855  30.335  28.993  1.00  0.00    -0.014 A 
BRANCH  40  41
ATOM     41  C   UNL A   1      38.071  30.014  29.781  1.00  0.00     0.031 A 
ATOM     42  C   UNL A   1      39.086  29.044  29.241  1.00  0.00     0.074 A 
ATOM     43  C   UNL A   1      38.227  30.541  31.011  1.00  0.00     0.049 A 
ATOM     44  N   UNL A   1      40.169  28.578  29.808  1.00  0.00    -0.248 NA
ATOM     45  C   UNL A   1      38.833  28.507  27.895  1.00  0.00     0.031 C 
ATOM     46  C   UNL A   1      37.289  31.455  31.664  1.00  0.00     0.029 A 
ATOM     47  N   UNL A   1      39.226  30.373  31.938  1.00  0.00    -0.354 N 
ATOM     48  C   UNL A   1      40.716  27.684  28.897  1.00  0.00     0.074 A 
ATOM     49  C   UNL A   1      39.820  27.633  27.764  1.00  0.00     0.031 C 
ATOM     50  C   UNL A   1      37.765  31.782  32.876  1.00  0.00     0.029 A 
ATOM     51  C   UNL A   1      39.021  31.073  33.102  1.00  0.00     0.049 A 
ATOM     52  H   UNL A   1      40.014  29.805  31.783  1.00  0.00     0.167 HD
ATOM     53  C   UNL A   1      41.874  26.988  28.990  1.00  0.00     0.037 A 
ATOM     54  C   UNL A   1      39.758  31.128  34.228  1.00  0.00     0.037 A 
ATOM     55  C   UNL A   1      42.775  27.061  30.109  1.00  0.00     0.049 A 
ATOM     56  C   UNL A   1      41.039  30.341  34.304  1.00  0.00     0.074 A 
ATOM     57  C   UNL A   1      44.002  26.441  30.272  1.00  0.00     0.029 A 
ATOM     58  N   UNL A   1      42.546  27.800  31.260  1.00  0.00    -0.354 N 
ATOM     59  N   UNL A   1      41.583  29.555  33.408  1.00  0.00    -0.248 NA
ATOM     60  C   UNL A   1      41.813  30.457  35.548  1.00  0.00     0.031 C 
ATOM     61  C   UNL A   1      44.493  26.769  31.539  1.00  0.00     0.029 A 
ATOM     62  C   UNL A   1      43.599  27.635  32.146  1.00  0.00     0.049 A 
ATOM     63  H   UNL A   1      41.752  28.359  31.424  1.00  0.00     0.167 HD
ATOM     64  C   UNL A   1      42.774  29.108  33.964  1.00  0.00     0.074 A 
ATOM     65  C   UNL A   1      42.880  29.721  35.271  1.00  0.00     0.031 C 
ATOM     66  C   UNL A   1      43.696  28.266  33.438  1.00  0.00     0.037 A 
BRANCH  53  67
ATOM     67  C   UNL A   1      42.236  26.086  27.845  1.00  0.00     0.064 A 
ATOM     68  C   UNL A   1      41.640  24.827  27.685  1.00  0.00     0.173 A 
ATOM     69  C   UNL A   1      43.159  26.503  26.875  1.00  0.00     0.173 A 
ATOM     70  F   UNL A   1      40.759  24.376  28.590  1.00  0.00    -0.203 F 
ATOM     71  C   UNL A   1      41.976  24.005  26.611  1.00  0.00     0.198 A 
ATOM     72  C   UNL A   1      43.470  25.692  25.786  1.00  0.00     0.198 A 
ATOM     73  F   UNL A   1      43.755  27.701  26.976  1.00  0.00    -0.203 F 
ATOM     74  F   UNL A   1      41.429  22.786  26.506  1.00  0.00    -0.200 F 
ATOM     75  C   UNL A   1      42.884  24.442  25.659  1.00  0.00     0.200 A 
ATOM     76  F   UNL A   1      44.337  26.121  24.858  1.00  0.00    -0.200 F 
ATOM     77  F   UNL A   1      43.200  23.654  24.622  1.00  0.00    -0.200 F 
ENDBRANCH  53  67
BRANCH  54  78
ATOM     78  C   UNL A   1      39.319  31.978  35.364  1.00  0.00     0.064 A 
ATOM     79  C   UNL A   1      39.702  33.325  35.445  1.00  0.00     0.173 A 
ATOM     80  C   UNL A   1      38.516  31.466  36.393  1.00  0.00     0.173 A 
ATOM     81  F   UNL A   1      40.487  33.855  34.496  1.00  0.00    -0.203 F 
ATOM     82  C   UNL A   1      39.320  34.119  36.525  1.00  0.00     0.198 A 
ATOM     83  C   UNL A   1      38.110  32.270  37.456  1.00  0.00     0.198 A 
ATOM     84  F   UNL A   1      38.116  30.186  36.360  1.00  0.00    -0.203 F 
ATOM     85  F   UNL A   1      39.741  35.389  36.601  1.00  0.00    -0.200 F 
ATOM     86  C   UNL A   1      38.519  33.593  37.526  1.00  0.00     0.200 A 
ATOM     87  F   UNL A   1      37.323  31.762  38.416  1.00  0.00    -0.200 F 
ATOM     88  F   UNL A   1      38.149  34.357  38.562  1.00  0.00    -0.200 F 
ENDBRANCH  54  78
BRANCH  66  89
ATOM     89  C   UNL A   1      44.924  27.990  34.256  1.00  0.00     0.064 A 
ATOM     90  C   UNL A   1      44.993  26.908  35.146  1.00  0.00     0.173 A 
ATOM     91  C   UNL A   1      46.064  28.797  34.113  1.00  0.00     0.173 A 
ATOM     92  F   UNL A   1      43.925  26.117  35.328  1.00  0.00    -0.203 F 
ATOM     93  C   UNL A   1      46.149  26.658  35.880  1.00  0.00     0.198 A 
ATOM     94  C   UNL A   1      47.228  28.525  34.826  1.00  0.00     0.198 A 
ATOM     95  F   UNL A   1      46.053  29.841  33.271  1.00  0.00    -0.203 F 
ATOM     96  F   UNL A   1      46.176  25.646  36.758  1.00  0.00    -0.200 F 
ATOM     97  C   UNL A   1      47.268  27.461  35.713  1.00  0.00     0.200 A 
ATOM     98  F   UNL A   1      48.313  29.294  34.653  1.00  0.00    -0.200 F 
ATOM     99  F   UNL A   1      48.383  27.213  36.414  1.00  0.00    -0.200 F 
ENDBRANCH  66  89
ENDBRANCH  40  41
ENDBRANCH  32  35
ENDBRANCH  30  31
ENDBRANCH  29  30
ENDBRANCH   1  29
TORSDOF 15
ENDMDL
