MODEL 1
REMARK VINA RESULT:     -11.6      0.000      0.000
REMARK SMILES CSc1ccc(Cl)c(C(=O)N[C@@H](CO)C(=O)NCCCCNC(=O)c2ccc(-c3c4nc(c(-c5c(F)c(F)c(F)c(F)c5F)c5ccc([nH]5)c(-c5c(F)c(F)c(F)c(F)c5F)c5nc(c(-c6c(F)c(F)c(F)c(F)c6F)c6ccc3[nH]6)C=C5)C=C4)cc2)c1
REMARK SMILES IDX 19 1 18 2 17 3 15 4 16 5 12 7 11 8 9 9 10 10 8 12 3 13 4 14
REMARK SMILES IDX 88 15 5 16 6 17 7 18 2 19 1 20 13 21 14 22 20 24 21 25 22 26
REMARK SMILES IDX 23 27 24 29 25 30 26 31 87 32 27 33 86 34 28 35 29 36 30 37
REMARK SMILES IDX 80 38 31 39 85 40 79 41 81 42 32 43 84 44 78 45 77 46 33 48
REMARK SMILES IDX 65 49 45 50 64 51 46 52 49 53 63 54 82 55 47 56 48 57 62 59
REMARK SMILES IDX 83 60 50 61 34 62 35 63 43 64 36 65 37 66 41 67 44 68 38 69
REMARK SMILES IDX 39 70 42 71 40 72 66 73 67 74 75 75 68 76 69 77 73 78 76 79
REMARK SMILES IDX 70 80 71 81 74 82 72 83 51 84 52 85 60 86 53 87 54 88 58 89
REMARK SMILES IDX 61 90 55 91 56 92 59 93 57 94
REMARK H PARENT 17 6 11 11 14 23 22 28 81 47 49 58
REMARK Flexibility Score: inf
ROOT
ATOM      1  C   UNL A   1      31.652  30.500  26.765  1.00  0.00     0.023 C 
ENDROOT
BRANCH   1   2
ATOM      2  C   UNL A   1      32.131  29.985  25.413  1.00  0.00     0.116 C 
BRANCH   2   3
ATOM      3  N   UNL A   1      31.045  29.903  24.460  1.00  0.00    -0.354 N 
ATOM      4  C   UNL A   1      30.469  28.842  23.843  1.00  0.00     0.244 C 
ATOM      5  O   UNL A   1      29.472  29.090  23.152  1.00  0.00    -0.273 OA
ATOM      6  H   UNL A   1      30.654  30.772  24.217  1.00  0.00     0.163 HD
BRANCH   4   7
ATOM      7  C   UNL A   1      30.923  27.384  24.036  1.00  0.00     0.197 C 
BRANCH   7   8
ATOM      8  N   UNL A   1      30.318  26.652  25.147  1.00  0.00    -0.338 N 
ATOM      9  C   UNL A   1      30.636  25.510  25.830  1.00  0.00     0.253 C 
ATOM     10  O   UNL A   1      29.782  25.163  26.656  1.00  0.00    -0.269 OA
ATOM     11  H   UNL A   1      29.495  27.078  25.478  1.00  0.00     0.164 HD
BRANCH   9  12
ATOM     12  C   UNL A   1      31.910  24.713  25.765  1.00  0.00     0.059 A 
ATOM     13  C   UNL A   1      32.765  22.452  25.243  1.00  0.00     0.008 A 
ATOM     14  C   UNL A   1      34.046  22.842  25.606  1.00  0.00     0.016 A 
ATOM     15  C   UNL A   1      31.707  23.358  25.391  1.00  0.00     0.030 A 
ATOM     16  C   UNL A   1      34.283  24.167  25.943  1.00  0.00     0.022 A 
ATOM     17  C   UNL A   1      33.243  25.114  25.932  1.00  0.00     0.053 A 
ATOM     18  Cl  UNL A   1      33.837  26.729  25.878  1.00  0.00    -0.083 Cl
BRANCH  13  19
ATOM     19  S   UNL A   1      32.493  20.843  24.526  1.00  0.00    -0.130 SA
ATOM     20  C   UNL A   1      34.121  20.097  24.873  1.00  0.00     0.091 C 
ENDBRANCH  13  19
ENDBRANCH   9  12
ENDBRANCH   7   8
BRANCH   7  21
ATOM     21  C   UNL A   1      30.815  26.586  22.716  1.00  0.00     0.191 C 
BRANCH  21  22
ATOM     22  O   UNL A   1      31.168  27.336  21.553  1.00  0.00    -0.394 OA
ATOM     23  H   UNL A   1      31.631  26.760  20.924  1.00  0.00     0.210 HD
ENDBRANCH  21  22
ENDBRANCH   7  21
ENDBRANCH   4   7
ENDBRANCH   2   3
ENDBRANCH   1   2
BRANCH   1  24
ATOM     24  C   UNL A   1      31.446  32.011  26.841  1.00  0.00     0.023 C 
BRANCH  24  25
ATOM     25  C   UNL A   1      32.721  32.828  27.001  1.00  0.00     0.116 C 
BRANCH  25  26
ATOM     26  N   UNL A   1      32.481  34.149  27.557  1.00  0.00    -0.352 N 
ATOM     27  C   UNL A   1      33.110  34.768  28.609  1.00  0.00     0.251 C 
ATOM     28  H   UNL A   1      31.771  34.672  27.121  1.00  0.00     0.163 HD
ATOM     29  O   UNL A   1      32.692  35.835  29.047  1.00  0.00    -0.269 OA
BRANCH  27  30
ATOM     30  C   UNL A   1      34.283  34.121  29.228  1.00  0.00     0.039 A 
ATOM     31  C   UNL A   1      34.079  33.102  30.159  1.00  0.00     0.014 A 
ATOM     32  C   UNL A   1      35.578  34.508  28.870  1.00  0.00     0.014 A 
ATOM     33  C   UNL A   1      35.180  32.435  30.698  1.00  0.00     0.010 A 
ATOM     34  C   UNL A   1      36.666  33.781  29.336  1.00  0.00     0.010 A 
ATOM     35  C   UNL A   1      36.481  32.753  30.272  1.00  0.00    -0.014 A 
BRANCH  35  36
ATOM     36  C   UNL A   1      37.662  32.057  30.841  1.00  0.00     0.031 A 
ATOM     37  C   UNL A   1      38.141  32.413  32.223  1.00  0.00     0.074 A 
ATOM     38  C   UNL A   1      38.316  31.133  30.111  1.00  0.00     0.049 A 
ATOM     39  N   UNL A   1      39.168  31.951  32.891  1.00  0.00    -0.248 NA
ATOM     40  C   UNL A   1      37.380  33.450  32.941  1.00  0.00     0.031 C 
ATOM     41  C   UNL A   1      37.976  30.735  28.744  1.00  0.00     0.029 A 
ATOM     42  N   UNL A   1      39.406  30.359  30.421  1.00  0.00    -0.354 N 
ATOM     43  C   UNL A   1      39.172  32.640  34.097  1.00  0.00     0.074 A 
ATOM     44  C   UNL A   1      38.100  33.607  34.039  1.00  0.00     0.031 C 
ATOM     45  C   UNL A   1      38.817  29.766  28.347  1.00  0.00     0.029 A 
ATOM     46  C   UNL A   1      39.775  29.500  29.415  1.00  0.00     0.049 A 
ATOM     47  H   UNL A   1      39.879  30.414  31.282  1.00  0.00     0.167 HD
ATOM     48  C   UNL A   1      39.970  32.454  35.175  1.00  0.00     0.037 A 
ATOM     49  C   UNL A   1      40.773  28.597  29.367  1.00  0.00     0.037 A 
ATOM     50  C   UNL A   1      41.026  31.480  35.236  1.00  0.00     0.049 A 
ATOM     51  C   UNL A   1      41.659  28.427  30.575  1.00  0.00     0.074 A 
ATOM     52  C   UNL A   1      41.890  31.204  36.282  1.00  0.00     0.029 A 
ATOM     53  N   UNL A   1      41.355  30.612  34.206  1.00  0.00    -0.354 N 
ATOM     54  N   UNL A   1      41.620  29.047  31.729  1.00  0.00    -0.248 NA
ATOM     55  C   UNL A   1      42.719  27.415  30.476  1.00  0.00     0.031 C 
ATOM     56  C   UNL A   1      42.764  30.193  35.870  1.00  0.00     0.029 A 
ATOM     57  C   UNL A   1      42.409  29.801  34.590  1.00  0.00     0.049 A 
ATOM     58  H   UNL A   1      40.907  30.579  33.330  1.00  0.00     0.167 HD
ATOM     59  C   UNL A   1      42.613  28.467  32.508  1.00  0.00     0.074 A 
ATOM     60  C   UNL A   1      43.228  27.437  31.698  1.00  0.00     0.031 C 
ATOM     61  C   UNL A   1      42.985  28.759  33.779  1.00  0.00     0.037 A 
BRANCH  48  62
ATOM     62  C   UNL A   1      39.713  33.313  36.381  1.00  0.00     0.064 A 
ATOM     63  C   UNL A   1      40.338  34.562  36.533  1.00  0.00     0.173 A 
ATOM     64  C   UNL A   1      38.818  32.902  37.379  1.00  0.00     0.173 A 
ATOM     65  F   UNL A   1      41.215  34.995  35.615  1.00  0.00    -0.203 F 
ATOM     66  C   UNL A   1      40.098  35.352  37.655  1.00  0.00     0.198 A 
ATOM     67  C   UNL A   1      38.554  33.711  38.482  1.00  0.00     0.198 A 
ATOM     68  F   UNL A   1      38.192  31.720  37.282  1.00  0.00    -0.203 F 
ATOM     69  F   UNL A   1      40.748  36.515  37.804  1.00  0.00    -0.200 F 
ATOM     70  C   UNL A   1      39.201  34.931  38.623  1.00  0.00     0.200 A 
ATOM     71  F   UNL A   1      37.678  33.309  39.411  1.00  0.00    -0.200 F 
ATOM     72  F   UNL A   1      38.964  35.695  39.697  1.00  0.00    -0.200 F 
ENDBRANCH  48  62
BRANCH  49  73
ATOM     73  C   UNL A   1      40.975  27.754  28.159  1.00  0.00     0.064 A 
ATOM     74  C   UNL A   1      40.410  26.472  28.073  1.00  0.00     0.173 A 
ATOM     75  C   UNL A   1      41.774  28.184  27.090  1.00  0.00     0.173 A 
ATOM     76  F   UNL A   1      39.652  26.006  29.077  1.00  0.00    -0.203 F 
ATOM     77  C   UNL A   1      40.673  25.638  26.988  1.00  0.00     0.198 A 
ATOM     78  C   UNL A   1      42.009  27.362  25.989  1.00  0.00     0.198 A 
ATOM     79  F   UNL A   1      42.333  29.402  27.117  1.00  0.00    -0.203 F 
ATOM     80  F   UNL A   1      40.180  24.393  26.968  1.00  0.00    -0.200 F 
ATOM     81  C   UNL A   1      41.471  26.084  25.946  1.00  0.00     0.200 A 
ATOM     82  F   UNL A   1      42.769  27.802  24.977  1.00  0.00    -0.200 F 
ATOM     83  F   UNL A   1      41.733  25.279  24.908  1.00  0.00    -0.200 F 
ENDBRANCH  49  73
BRANCH  61  84
ATOM     84  C   UNL A   1      44.052  27.899  34.395  1.00  0.00     0.064 A 
ATOM     85  C   UNL A   1      43.753  26.699  35.055  1.00  0.00     0.173 A 
ATOM     86  C   UNL A   1      45.400  28.283  34.310  1.00  0.00     0.173 A 
ATOM     87  F   UNL A   1      42.480  26.292  35.174  1.00  0.00    -0.203 F 
ATOM     88  C   UNL A   1      44.758  25.939  35.648  1.00  0.00     0.198 A 
ATOM     89  C   UNL A   1      46.405  27.502  34.871  1.00  0.00     0.198 A 
ATOM     90  F   UNL A   1      45.742  29.417  33.679  1.00  0.00    -0.203 F 
ATOM     91  F   UNL A   1      44.442  24.832  36.334  1.00  0.00    -0.200 F 
ATOM     92  C   UNL A   1      46.083  26.338  35.551  1.00  0.00     0.200 A 
ATOM     93  F   UNL A   1      47.686  27.882  34.761  1.00  0.00    -0.200 F 
ATOM     94  F   UNL A   1      47.048  25.606  36.123  1.00  0.00    -0.200 F 
ENDBRANCH  61  84
ENDBRANCH  35  36
ENDBRANCH  27  30
ENDBRANCH  25  26
ENDBRANCH  24  25
ENDBRANCH   1  24
TORSDOF 16
ENDMDL
MODEL 2
REMARK VINA RESULT:     -11.5      1.406      2.299
REMARK SMILES CSc1ccc(Cl)c(C(=O)N[C@@H](CO)C(=O)NCCCCNC(=O)c2ccc(-c3c4nc(c(-c5c(F)c(F)c(F)c(F)c5F)c5ccc([nH]5)c(-c5c(F)c(F)c(F)c(F)c5F)c5nc(c(-c6c(F)c(F)c(F)c(F)c6F)c6ccc3[nH]6)C=C5)C=C4)cc2)c1
REMARK SMILES IDX 19 1 18 2 17 3 15 4 16 5 12 7 11 8 9 9 10 10 8 12 3 13 4 14
REMARK SMILES IDX 88 15 5 16 6 17 7 18 2 19 1 20 13 21 14 22 20 24 21 25 22 26
REMARK SMILES IDX 23 27 24 29 25 30 26 31 87 32 27 33 86 34 28 35 29 36 30 37
REMARK SMILES IDX 80 38 31 39 85 40 79 41 81 42 32 43 84 44 78 45 77 46 33 48
REMARK SMILES IDX 65 49 45 50 64 51 46 52 49 53 63 54 82 55 47 56 48 57 62 59
REMARK SMILES IDX 83 60 50 61 34 62 35 63 43 64 36 65 37 66 41 67 44 68 38 69
REMARK SMILES IDX 39 70 42 71 40 72 66 73 67 74 75 75 68 76 69 77 73 78 76 79
REMARK SMILES IDX 70 80 71 81 74 82 72 83 51 84 52 85 60 86 53 87 54 88 58 89
REMARK SMILES IDX 61 90 55 91 56 92 59 93 57 94
REMARK H PARENT 17 6 11 11 14 23 22 28 81 47 49 58
REMARK Flexibility Score: inf
ROOT
ATOM      1  C   UNL A   1      31.515  30.887  26.127  1.00  0.00     0.023 C 
ENDROOT
BRANCH   1   2
ATOM      2  C   UNL A   1      31.803  29.801  27.156  1.00  0.00     0.116 C 
BRANCH   2   3
ATOM      3  N   UNL A   1      33.222  29.657  27.395  1.00  0.00    -0.354 N 
ATOM      4  C   UNL A   1      34.119  28.737  26.961  1.00  0.00     0.244 C 
ATOM      5  O   UNL A   1      35.302  28.949  27.255  1.00  0.00    -0.273 OA
ATOM      6  H   UNL A   1      33.607  30.351  27.976  1.00  0.00     0.163 HD
BRANCH   4   7
ATOM      7  C   UNL A   1      33.755  27.538  26.067  1.00  0.00     0.197 C 
BRANCH   7   8
ATOM      8  N   UNL A   1      32.629  26.714  26.503  1.00  0.00    -0.338 N 
ATOM      9  C   UNL A   1      32.116  25.506  26.115  1.00  0.00     0.253 C 
ATOM     10  O   UNL A   1      31.059  25.203  26.684  1.00  0.00    -0.269 OA
ATOM     11  H   UNL A   1      32.125  27.122  27.243  1.00  0.00     0.164 HD
BRANCH   9  12
ATOM     12  C   UNL A   1      32.725  24.495  25.183  1.00  0.00     0.059 A 
ATOM     13  C   UNL A   1      34.633  22.933  24.987  1.00  0.00     0.008 A 
ATOM     14  C   UNL A   1      34.243  22.603  23.698  1.00  0.00     0.016 A 
ATOM     15  C   UNL A   1      33.922  23.918  25.686  1.00  0.00     0.030 A 
ATOM     16  C   UNL A   1      33.060  23.124  23.191  1.00  0.00     0.022 A 
ATOM     17  C   UNL A   1      32.261  23.989  23.961  1.00  0.00     0.053 A 
ATOM     18  Cl  UNL A   1      30.652  24.094  23.359  1.00  0.00    -0.083 Cl
BRANCH  13  19
ATOM     19  S   UNL A   1      35.976  22.055  25.764  1.00  0.00    -0.130 SA
ATOM     20  C   UNL A   1      37.254  23.351  25.673  1.00  0.00     0.091 C 
ENDBRANCH  13  19
ENDBRANCH   9  12
ENDBRANCH   7   8
BRANCH   7  21
ATOM     21  C   UNL A   1      33.593  27.970  24.591  1.00  0.00     0.191 C 
BRANCH  21  22
ATOM     22  O   UNL A   1      34.026  29.305  24.326  1.00  0.00    -0.394 OA
ATOM     23  H   UNL A   1      34.048  29.453  23.367  1.00  0.00     0.210 HD
ENDBRANCH  21  22
ENDBRANCH   7  21
ENDBRANCH   4   7
ENDBRANCH   2   3
ENDBRANCH   1   2
BRANCH   1  24
ATOM     24  C   UNL A   1      31.344  32.290  26.706  1.00  0.00     0.023 C 
BRANCH  24  25
ATOM     25  C   UNL A   1      32.638  32.984  27.107  1.00  0.00     0.116 C 
BRANCH  25  26
ATOM     26  N   UNL A   1      32.422  34.313  27.656  1.00  0.00    -0.352 N 
ATOM     27  C   UNL A   1      33.067  34.929  28.699  1.00  0.00     0.251 C 
ATOM     28  H   UNL A   1      31.716  34.843  27.221  1.00  0.00     0.163 HD
ATOM     29  O   UNL A   1      32.667  36.005  29.133  1.00  0.00    -0.269 OA
BRANCH  27  30
ATOM     30  C   UNL A   1      34.234  34.269  29.315  1.00  0.00     0.039 A 
ATOM     31  C   UNL A   1      34.024  33.323  30.319  1.00  0.00     0.014 A 
ATOM     32  C   UNL A   1      35.529  34.570  28.883  1.00  0.00     0.014 A 
ATOM     33  C   UNL A   1      35.115  32.642  30.859  1.00  0.00     0.010 A 
ATOM     34  C   UNL A   1      36.602  33.824  29.354  1.00  0.00     0.010 A 
ATOM     35  C   UNL A   1      36.410  32.869  30.363  1.00  0.00    -0.014 A 
BRANCH  35  36
ATOM     36  C   UNL A   1      37.582  32.157  30.931  1.00  0.00     0.031 A 
ATOM     37  C   UNL A   1      38.066  32.507  32.313  1.00  0.00     0.074 A 
ATOM     38  C   UNL A   1      38.221  31.223  30.201  1.00  0.00     0.049 A 
ATOM     39  N   UNL A   1      39.087  32.030  32.980  1.00  0.00    -0.248 NA
ATOM     40  C   UNL A   1      37.321  33.555  33.030  1.00  0.00     0.031 C 
ATOM     41  C   UNL A   1      37.874  30.829  28.835  1.00  0.00     0.029 A 
ATOM     42  N   UNL A   1      39.300  30.433  30.511  1.00  0.00    -0.354 N 
ATOM     43  C   UNL A   1      39.103  32.720  34.186  1.00  0.00     0.074 A 
ATOM     44  C   UNL A   1      38.045  33.702  34.128  1.00  0.00     0.031 C 
ATOM     45  C   UNL A   1      38.701  29.847  28.437  1.00  0.00     0.029 A 
ATOM     46  C   UNL A   1      39.655  29.568  29.505  1.00  0.00     0.049 A 
ATOM     47  H   UNL A   1      39.774  30.482  31.372  1.00  0.00     0.167 HD
ATOM     48  C   UNL A   1      39.899  32.523  35.263  1.00  0.00     0.037 A 
ATOM     49  C   UNL A   1      40.641  28.650  29.457  1.00  0.00     0.037 A 
ATOM     50  C   UNL A   1      40.940  31.533  35.324  1.00  0.00     0.049 A 
ATOM     51  C   UNL A   1      41.525  28.469  30.664  1.00  0.00     0.074 A 
ATOM     52  C   UNL A   1      41.801  31.245  36.369  1.00  0.00     0.029 A 
ATOM     53  N   UNL A   1      41.256  30.660  34.294  1.00  0.00    -0.354 N 
ATOM     54  N   UNL A   1      41.496  29.090  31.818  1.00  0.00    -0.248 NA
ATOM     55  C   UNL A   1      42.570  27.441  30.565  1.00  0.00     0.031 C 
ATOM     56  C   UNL A   1      42.660  30.221  35.958  1.00  0.00     0.029 A 
ATOM     57  C   UNL A   1      42.298  29.834  34.677  1.00  0.00     0.049 A 
ATOM     58  H   UNL A   1      40.806  30.633  33.419  1.00  0.00     0.167 HD
ATOM     59  C   UNL A   1      42.481  28.496  32.597  1.00  0.00     0.074 A 
ATOM     60  C   UNL A   1      43.081  27.457  31.786  1.00  0.00     0.031 C 
ATOM     61  C   UNL A   1      42.858  28.783  33.867  1.00  0.00     0.037 A 
BRANCH  48  62
ATOM     62  C   UNL A   1      39.655  33.386  36.469  1.00  0.00     0.064 A 
ATOM     63  C   UNL A   1      38.754  32.997  37.474  1.00  0.00     0.173 A 
ATOM     64  C   UNL A   1      40.342  34.596  36.638  1.00  0.00     0.173 A 
ATOM     65  F   UNL A   1      38.059  31.856  37.353  1.00  0.00    -0.203 F 
ATOM     66  C   UNL A   1      38.530  33.802  38.588  1.00  0.00     0.198 A 
ATOM     67  C   UNL A   1      40.141  35.382  37.771  1.00  0.00     0.198 A 
ATOM     68  F   UNL A   1      41.216  35.014  35.710  1.00  0.00    -0.203 F 
ATOM     69  F   UNL A   1      37.625  33.435  39.506  1.00  0.00    -0.200 F 
ATOM     70  C   UNL A   1      39.229  34.989  38.739  1.00  0.00     0.200 A 
ATOM     71  F   UNL A   1      40.826  36.523  37.922  1.00  0.00    -0.200 F 
ATOM     72  F   UNL A   1      39.020  35.759  39.816  1.00  0.00    -0.200 F 
ENDBRANCH  48  62
BRANCH  49  73
ATOM     73  C   UNL A   1      40.830  27.804  28.249  1.00  0.00     0.064 A 
ATOM     74  C   UNL A   1      40.271  26.518  28.177  1.00  0.00     0.173 A 
ATOM     75  C   UNL A   1      41.609  28.234  27.166  1.00  0.00     0.173 A 
ATOM     76  F   UNL A   1      39.531  26.052  29.194  1.00  0.00    -0.203 F 
ATOM     77  C   UNL A   1      40.522  25.682  27.091  1.00  0.00     0.198 A 
ATOM     78  C   UNL A   1      41.832  27.410  26.065  1.00  0.00     0.198 A 
ATOM     79  F   UNL A   1      42.160  29.457  27.180  1.00  0.00    -0.203 F 
ATOM     80  F   UNL A   1      40.037  24.433  27.084  1.00  0.00    -0.200 F 
ATOM     81  C   UNL A   1      41.302  26.129  26.035  1.00  0.00     0.200 A 
ATOM     82  F   UNL A   1      42.573  27.851  25.040  1.00  0.00    -0.200 F 
ATOM     83  F   UNL A   1      41.553  25.321  24.997  1.00  0.00    -0.200 F 
ENDBRANCH  49  73
BRANCH  61  84
ATOM     84  C   UNL A   1      43.913  27.909  34.483  1.00  0.00     0.064 A 
ATOM     85  C   UNL A   1      45.275  28.241  34.439  1.00  0.00     0.173 A 
ATOM     86  C   UNL A   1      43.548  26.722  35.139  1.00  0.00     0.173 A 
ATOM     87  F   UNL A   1      45.678  29.358  33.815  1.00  0.00    -0.203 F 
ATOM     88  C   UNL A   1      46.236  27.395  34.987  1.00  0.00     0.198 A 
ATOM     89  C   UNL A   1      44.507  25.898  35.718  1.00  0.00     0.198 A 
ATOM     90  F   UNL A   1      42.258  26.363  35.220  1.00  0.00    -0.203 F 
ATOM     91  F   UNL A   1      47.536  27.698  34.872  1.00  0.00    -0.200 F 
ATOM     92  C   UNL A   1      45.851  26.227  35.631  1.00  0.00     0.200 A 
ATOM     93  F   UNL A   1      44.131  24.779  36.354  1.00  0.00    -0.200 F 
ATOM     94  F   UNL A   1      46.777  25.414  36.156  1.00  0.00    -0.200 F 
ENDBRANCH  61  84
ENDBRANCH  35  36
ENDBRANCH  27  30
ENDBRANCH  25  26
ENDBRANCH  24  25
ENDBRANCH   1  24
TORSDOF 16
ENDMDL
MODEL 3
REMARK VINA RESULT:     -11.5      0.819      7.317
REMARK SMILES CSc1ccc(Cl)c(C(=O)N[C@@H](CO)C(=O)NCCCCNC(=O)c2ccc(-c3c4nc(c(-c5c(F)c(F)c(F)c(F)c5F)c5ccc([nH]5)c(-c5c(F)c(F)c(F)c(F)c5F)c5nc(c(-c6c(F)c(F)c(F)c(F)c6F)c6ccc3[nH]6)C=C5)C=C4)cc2)c1
REMARK SMILES IDX 19 1 18 2 17 3 15 4 16 5 12 7 11 8 9 9 10 10 8 12 3 13 4 14
REMARK SMILES IDX 88 15 5 16 6 17 7 18 2 19 1 20 13 21 14 22 20 24 21 25 22 26
REMARK SMILES IDX 23 27 24 29 25 30 26 31 87 32 27 33 86 34 28 35 29 36 30 37
REMARK SMILES IDX 80 38 31 39 85 40 79 41 81 42 32 43 84 44 78 45 77 46 33 48
REMARK SMILES IDX 65 49 45 50 64 51 46 52 49 53 63 54 82 55 47 56 48 57 62 59
REMARK SMILES IDX 83 60 50 61 34 62 35 63 43 64 36 65 37 66 41 67 44 68 38 69
REMARK SMILES IDX 39 70 42 71 40 72 66 73 67 74 75 75 68 76 69 77 73 78 76 79
REMARK SMILES IDX 70 80 71 81 74 82 72 83 51 84 52 85 60 86 53 87 54 88 58 89
REMARK SMILES IDX 61 90 55 91 56 92 59 93 57 94
REMARK H PARENT 17 6 11 11 14 23 22 28 81 47 49 58
REMARK Flexibility Score: inf
ROOT
ATOM      1  C   UNL A   1      31.602  30.607  26.799  1.00  0.00     0.023 C 
ENDROOT
BRANCH   1   2
ATOM      2  C   UNL A   1      32.094  30.051  25.468  1.00  0.00     0.116 C 
BRANCH   2   3
ATOM      3  N   UNL A   1      31.019  29.942  24.506  1.00  0.00    -0.354 N 
ATOM      4  C   UNL A   1      30.484  28.870  23.873  1.00  0.00     0.244 C 
ATOM      5  O   UNL A   1      29.485  29.091  23.177  1.00  0.00    -0.273 OA
ATOM      6  H   UNL A   1      30.601  30.801  24.269  1.00  0.00     0.163 HD
BRANCH   4   7
ATOM      7  C   UNL A   1      30.986  27.425  24.054  1.00  0.00     0.197 C 
BRANCH   7   8
ATOM      8  N   UNL A   1      30.340  26.636  25.101  1.00  0.00    -0.338 N 
ATOM      9  C   UNL A   1      30.629  25.453  25.727  1.00  0.00     0.253 C 
ATOM     10  O   UNL A   1      29.746  25.067  26.503  1.00  0.00    -0.269 OA
ATOM     11  H   UNL A   1      29.510  27.048  25.430  1.00  0.00     0.164 HD
BRANCH   9  12
ATOM     12  C   UNL A   1      31.899  24.651  25.656  1.00  0.00     0.059 A 
ATOM     13  C   UNL A   1      32.773  22.451  24.937  1.00  0.00     0.008 A 
ATOM     14  C   UNL A   1      34.028  22.779  25.427  1.00  0.00     0.016 A 
ATOM     15  C   UNL A   1      31.712  23.350  25.116  1.00  0.00     0.030 A 
ATOM     16  C   UNL A   1      34.250  24.054  25.928  1.00  0.00     0.022 A 
ATOM     17  C   UNL A   1      33.220  25.011  25.957  1.00  0.00     0.053 A 
ATOM     18  Cl  UNL A   1      33.827  26.613  26.127  1.00  0.00    -0.083 Cl
BRANCH  13  19
ATOM     19  S   UNL A   1      32.539  20.938  24.025  1.00  0.00    -0.130 SA
ATOM     20  C   UNL A   1      32.903  19.745  25.354  1.00  0.00     0.091 C 
ENDBRANCH  13  19
ENDBRANCH   9  12
ENDBRANCH   7   8
BRANCH   7  21
ATOM     21  C   UNL A   1      30.998  26.665  22.708  1.00  0.00     0.191 C 
BRANCH  21  22
ATOM     22  O   UNL A   1      31.028  27.516  21.561  1.00  0.00    -0.394 OA
ATOM     23  H   UNL A   1      30.279  27.304  20.981  1.00  0.00     0.210 HD
ENDBRANCH  21  22
ENDBRANCH   7  21
ENDBRANCH   4   7
ENDBRANCH   2   3
ENDBRANCH   1   2
BRANCH   1  24
ATOM     24  C   UNL A   1      31.449  32.126  26.842  1.00  0.00     0.023 C 
BRANCH  24  25
ATOM     25  C   UNL A   1      32.717  32.891  27.196  1.00  0.00     0.116 C 
BRANCH  25  26
ATOM     26  N   UNL A   1      32.454  34.253  27.632  1.00  0.00    -0.352 N 
ATOM     27  C   UNL A   1      33.028  34.954  28.663  1.00  0.00     0.251 C 
ATOM     28  H   UNL A   1      31.770  34.739  27.118  1.00  0.00     0.163 HD
ATOM     29  O   UNL A   1      32.591  36.051  28.992  1.00  0.00    -0.269 OA
BRANCH  27  30
ATOM     30  C   UNL A   1      34.163  34.358  29.394  1.00  0.00     0.039 A 
ATOM     31  C   UNL A   1      33.907  33.596  30.535  1.00  0.00     0.014 A 
ATOM     32  C   UNL A   1      35.472  34.535  28.938  1.00  0.00     0.014 A 
ATOM     33  C   UNL A   1      34.966  32.969  31.193  1.00  0.00     0.010 A 
ATOM     34  C   UNL A   1      36.511  33.835  29.539  1.00  0.00     0.010 A 
ATOM     35  C   UNL A   1      36.272  33.063  30.686  1.00  0.00    -0.014 A 
BRANCH  35  36
ATOM     36  C   UNL A   1      37.410  32.409  31.378  1.00  0.00     0.031 A 
ATOM     37  C   UNL A   1      38.147  31.284  30.699  1.00  0.00     0.074 A 
ATOM     38  C   UNL A   1      37.763  32.803  32.617  1.00  0.00     0.049 A 
ATOM     39  N   UNL A   1      39.143  30.559  31.140  1.00  0.00    -0.248 NA
ATOM     40  C   UNL A   1      37.680  30.904  29.355  1.00  0.00     0.031 C 
ATOM     41  C   UNL A   1      37.098  33.849  33.396  1.00  0.00     0.029 A 
ATOM     42  N   UNL A   1      38.772  32.368  33.439  1.00  0.00    -0.354 N 
ATOM     43  C   UNL A   1      39.417  29.644  30.131  1.00  0.00     0.074 A 
ATOM     44  C   UNL A   1      38.433  29.848  29.093  1.00  0.00     0.031 C 
ATOM     45  C   UNL A   1      37.739  33.999  34.567  1.00  0.00     0.029 A 
ATOM     46  C   UNL A   1      38.835  33.038  34.636  1.00  0.00     0.049 A 
ATOM     47  H   UNL A   1      39.391  31.642  33.194  1.00  0.00     0.167 HD
ATOM     48  C   UNL A   1      40.424  28.743  30.057  1.00  0.00     0.037 A 
ATOM     49  C   UNL A   1      39.687  32.892  35.669  1.00  0.00     0.037 A 
ATOM     50  C   UNL A   1      41.412  28.553  31.084  1.00  0.00     0.049 A 
ATOM     51  C   UNL A   1      40.787  31.866  35.565  1.00  0.00     0.074 A 
ATOM     52  C   UNL A   1      42.480  27.672  31.107  1.00  0.00     0.029 A 
ATOM     53  N   UNL A   1      41.457  29.266  32.272  1.00  0.00    -0.354 N 
ATOM     54  N   UNL A   1      41.067  31.043  34.584  1.00  0.00    -0.248 NA
ATOM     55  C   UNL A   1      41.699  31.762  36.712  1.00  0.00     0.031 C 
ATOM     56  C   UNL A   1      43.150  27.830  32.324  1.00  0.00     0.029 A 
ATOM     57  C   UNL A   1      42.533  28.846  33.036  1.00  0.00     0.049 A 
ATOM     58  H   UNL A   1      40.818  29.967  32.535  1.00  0.00     0.167 HD
ATOM     59  C   UNL A   1      42.215  30.363  34.972  1.00  0.00     0.074 A 
ATOM     60  C   UNL A   1      42.583  30.879  36.274  1.00  0.00     0.031 C 
ATOM     61  C   UNL A   1      42.902  29.397  34.314  1.00  0.00     0.037 A 
BRANCH  48  62
ATOM     62  C   UNL A   1      40.515  27.910  28.809  1.00  0.00     0.064 A 
ATOM     63  C   UNL A   1      41.293  28.321  27.714  1.00  0.00     0.173 A 
ATOM     64  C   UNL A   1      39.845  26.683  28.713  1.00  0.00     0.173 A 
ATOM     65  F   UNL A   1      41.941  29.495  27.747  1.00  0.00    -0.203 F 
ATOM     66  C   UNL A   1      41.371  27.547  26.558  1.00  0.00     0.198 A 
ATOM     67  C   UNL A   1      39.954  25.895  27.569  1.00  0.00     0.198 A 
ATOM     68  F   UNL A   1      39.091  26.241  29.730  1.00  0.00    -0.203 F 
ATOM     69  F   UNL A   1      42.076  27.986  25.506  1.00  0.00    -0.200 F 
ATOM     70  C   UNL A   1      40.709  26.332  26.490  1.00  0.00     0.200 A 
ATOM     71  F   UNL A   1      39.323  24.714  27.509  1.00  0.00    -0.200 F 
ATOM     72  F   UNL A   1      40.791  25.583  25.382  1.00  0.00    -0.200 F 
ENDBRANCH  48  62
BRANCH  49  73
ATOM     73  C   UNL A   1      39.571  33.755  36.875  1.00  0.00     0.064 A 
ATOM     74  C   UNL A   1      38.786  33.360  37.969  1.00  0.00     0.173 A 
ATOM     75  C   UNL A   1      40.196  35.008  36.943  1.00  0.00     0.173 A 
ATOM     76  F   UNL A   1      38.153  32.177  37.946  1.00  0.00    -0.203 F 
ATOM     77  C   UNL A   1      38.594  34.203  39.061  1.00  0.00     0.198 A 
ATOM     78  C   UNL A   1      40.031  35.836  38.051  1.00  0.00     0.198 A 
ATOM     79  F   UNL A   1      40.964  35.432  35.929  1.00  0.00    -0.203 F 
ATOM     80  F   UNL A   1      37.779  33.829  40.057  1.00  0.00    -0.200 F 
ATOM     81  C   UNL A   1      39.217  35.440  39.102  1.00  0.00     0.200 A 
ATOM     82  F   UNL A   1      40.647  37.025  38.094  1.00  0.00    -0.200 F 
ATOM     83  F   UNL A   1      39.024  36.255  40.147  1.00  0.00    -0.200 F 
ENDBRANCH  49  73
BRANCH  61  84
ATOM     84  C   UNL A   1      44.165  28.897  34.956  1.00  0.00     0.064 A 
ATOM     85  C   UNL A   1      44.173  27.805  35.834  1.00  0.00     0.173 A 
ATOM     86  C   UNL A   1      45.391  29.521  34.673  1.00  0.00     0.173 A 
ATOM     87  F   UNL A   1      43.027  27.180  36.145  1.00  0.00    -0.203 F 
ATOM     88  C   UNL A   1      45.353  27.383  36.442  1.00  0.00     0.198 A 
ATOM     89  C   UNL A   1      46.574  29.074  35.253  1.00  0.00     0.198 A 
ATOM     90  F   UNL A   1      45.442  30.564  33.830  1.00  0.00    -0.203 F 
ATOM     91  F   UNL A   1      45.325  26.382  37.331  1.00  0.00    -0.200 F 
ATOM     92  C   UNL A   1      46.553  28.015  36.147  1.00  0.00     0.200 A 
ATOM     93  F   UNL A   1      47.734  29.675  34.953  1.00  0.00    -0.200 F 
ATOM     94  F   UNL A   1      47.687  27.609  36.734  1.00  0.00    -0.200 F 
ENDBRANCH  61  84
ENDBRANCH  35  36
ENDBRANCH  27  30
ENDBRANCH  25  26
ENDBRANCH  24  25
ENDBRANCH   1  24
TORSDOF 16
ENDMDL
