MODEL 1
REMARK VINA RESULT:     -13.4      0.000      0.000
REMARK SMILES O=C(C[C@@H](C(=O)NCCCCNC(=O)c1ccc(-c2c3nc(c(-c4c(F)c(F)c(F)c(F)c4F)c4ccc([nH]4)c(-c4c(F)c(F)c(F)c(F)c4F)c4nc(c(-c5c(F)c(F)c(F)c(F)c5F)c5ccc2[nH]5)C=C4)C=C3)cc1)[NH+]1CCN(c2cccc(Cl)c2)CC1)c1ccc(F)cc1
REMARK SMILES IDX 9 1 8 2 7 3 5 4 6 5 4 7 3 8 2 9 1 10 91 11 92 12 97 13 93 14
REMARK SMILES IDX 96 15 94 16 95 17 78 18 79 19 90 20 80 22 89 23 81 24 82 25
REMARK SMILES IDX 83 26 88 27 84 28 86 29 85 30 87 31 10 32 11 33 12 34 13 35
REMARK SMILES IDX 14 37 15 38 16 39 77 40 17 41 76 42 18 43 19 44 20 45 70 46
REMARK SMILES IDX 21 47 75 48 69 49 71 50 22 51 74 52 68 53 67 54 23 56 55 57
REMARK SMILES IDX 35 58 54 59 36 60 39 61 53 62 72 63 37 64 38 65 52 67 73 68
REMARK SMILES IDX 40 69 24 70 25 71 33 72 26 73 27 74 31 75 34 76 28 77 29 78
REMARK SMILES IDX 32 79 30 80 56 81 57 82 65 83 58 84 59 85 63 86 66 87 60 88
REMARK SMILES IDX 61 89 64 90 62 91 41 92 42 93 50 94 43 95 44 96 48 97 51 98
REMARK SMILES IDX 45 99 46 100 49 101 47 102
REMARK H PARENT 7 6 78 21 12 36 71 55 39 66
REMARK Flexibility Score: inf
ROOT
ATOM      1  C   UNL A   1      31.321  30.925  26.011  1.00  0.00     0.023 C 
ENDROOT
BRANCH   1   2
ATOM      2  C   UNL A   1      32.190  29.962  26.825  1.00  0.00     0.116 C 
BRANCH   2   3
ATOM      3  N   UNL A   1      31.581  28.670  27.078  1.00  0.00    -0.351 N 
ATOM      4  C   UNL A   1      31.396  27.557  26.318  1.00  0.00     0.278 C 
ATOM      5  O   UNL A   1      30.926  26.587  26.923  1.00  0.00    -0.268 OA
ATOM      6  H   UNL A   1      31.226  28.579  27.992  1.00  0.00     0.163 HD
BRANCH   4   7
ATOM      7  C   UNL A   1      31.734  27.511  24.795  1.00  0.00     0.282 C 
BRANCH   7   8
ATOM      8  C   UNL A   1      30.826  26.643  23.912  1.00  0.00     0.156 C 
BRANCH   8   9
ATOM      9  C   UNL A   1      29.413  27.056  23.576  1.00  0.00     0.169 C 
ATOM     10  O   UNL A   1      28.473  26.322  23.888  1.00  0.00    -0.294 OA
BRANCH   9  11
ATOM     11  C   UNL A   1      29.117  28.401  22.985  1.00  0.00     0.018 A 
ATOM     12  C   UNL A   1      30.049  29.133  22.243  1.00  0.00     0.015 A 
ATOM     13  C   UNL A   1      27.822  28.922  23.138  1.00  0.00     0.015 A 
ATOM     14  C   UNL A   1      29.668  30.292  21.564  1.00  0.00     0.040 A 
ATOM     15  C   UNL A   1      27.449  30.101  22.487  1.00  0.00     0.040 A 
ATOM     16  C   UNL A   1      28.369  30.761  21.684  1.00  0.00     0.123 A 
ATOM     17  F   UNL A   1      27.998  31.860  21.014  1.00  0.00    -0.207 F 
ENDBRANCH   9  11
ENDBRANCH   8   9
ENDBRANCH   7   8
BRANCH   7  18
ATOM     18  N   UNL A   1      33.183  27.175  24.648  1.00  0.00    -0.321 N 
ATOM     19  C   UNL A   1      33.881  26.602  25.824  1.00  0.00     0.284 C 
ATOM     20  C   UNL A   1      33.576  26.466  23.419  1.00  0.00     0.284 C 
ATOM     21  H   UNL A   1      33.526  28.132  24.564  1.00  0.00     0.348 HD
ATOM     22  C   UNL A   1      33.960  25.055  25.938  1.00  0.00     0.178 C 
ATOM     23  C   UNL A   1      33.555  24.918  23.479  1.00  0.00     0.178 C 
ATOM     24  N   UNL A   1      34.300  24.458  24.650  1.00  0.00    -0.360 N 
BRANCH  24  25
ATOM     25  C   UNL A   1      34.809  23.172  24.678  1.00  0.00     0.038 A 
ATOM     26  C   UNL A   1      34.007  22.033  24.538  1.00  0.00     0.026 A 
ATOM     27  C   UNL A   1      36.169  23.005  24.957  1.00  0.00     0.046 A 
ATOM     28  C   UNL A   1      34.549  20.754  24.705  1.00  0.00     0.004 A 
ATOM     29  C   UNL A   1      36.707  21.732  25.131  1.00  0.00     0.043 A 
ATOM     30  C   UNL A   1      35.901  20.603  25.012  1.00  0.00     0.020 A 
ATOM     31  Cl  UNL A   1      38.372  21.561  25.531  1.00  0.00    -0.084 Cl
ENDBRANCH  24  25
ENDBRANCH   7  18
ENDBRANCH   4   7
ENDBRANCH   2   3
ENDBRANCH   1   2
BRANCH   1  32
ATOM     32  C   UNL A   1      31.290  32.383  26.478  1.00  0.00     0.023 C 
BRANCH  32  33
ATOM     33  C   UNL A   1      32.526  32.841  27.238  1.00  0.00     0.116 C 
BRANCH  33  34
ATOM     34  N   UNL A   1      32.416  34.232  27.633  1.00  0.00    -0.352 N 
ATOM     35  C   UNL A   1      33.017  34.922  28.655  1.00  0.00     0.251 C 
ATOM     36  H   UNL A   1      31.809  34.769  27.075  1.00  0.00     0.163 HD
ATOM     37  O   UNL A   1      32.576  36.043  28.953  1.00  0.00    -0.269 OA
BRANCH  35  38
ATOM     38  C   UNL A   1      34.174  34.382  29.409  1.00  0.00     0.039 A 
ATOM     39  C   UNL A   1      35.458  34.562  28.882  1.00  0.00     0.014 A 
ATOM     40  C   UNL A   1      34.014  33.626  30.570  1.00  0.00     0.014 A 
ATOM     41  C   UNL A   1      36.571  34.005  29.520  1.00  0.00     0.010 A 
ATOM     42  C   UNL A   1      35.128  33.137  31.254  1.00  0.00     0.010 A 
ATOM     43  C   UNL A   1      36.416  33.295  30.719  1.00  0.00    -0.014 A 
BRANCH  43  44
ATOM     44  C   UNL A   1      37.574  32.656  31.397  1.00  0.00     0.031 A 
ATOM     45  C   UNL A   1      38.296  31.513  30.733  1.00  0.00     0.074 A 
ATOM     46  C   UNL A   1      37.942  33.056  32.628  1.00  0.00     0.049 A 
ATOM     47  N   UNL A   1      39.263  30.759  31.194  1.00  0.00    -0.248 NA
ATOM     48  C   UNL A   1      37.846  31.148  29.381  1.00  0.00     0.031 C 
ATOM     49  C   UNL A   1      37.297  34.118  33.399  1.00  0.00     0.029 A 
ATOM     50  N   UNL A   1      38.942  32.603  33.453  1.00  0.00    -0.354 N 
ATOM     51  C   UNL A   1      39.510  29.815  30.206  1.00  0.00     0.074 A 
ATOM     52  C   UNL A   1      38.565  30.063  29.140  1.00  0.00     0.031 C 
ATOM     53  C   UNL A   1      37.924  34.244  34.579  1.00  0.00     0.029 A 
ATOM     54  C   UNL A   1      38.994  33.254  34.660  1.00  0.00     0.049 A 
ATOM     55  H   UNL A   1      39.562  31.880  33.203  1.00  0.00     0.167 HD
ATOM     56  C   UNL A   1      40.454  28.843  30.179  1.00  0.00     0.037 A 
ATOM     57  C   UNL A   1      39.809  33.068  35.716  1.00  0.00     0.037 A 
ATOM     58  C   UNL A   1      41.426  28.629  31.219  1.00  0.00     0.049 A 
ATOM     59  C   UNL A   1      40.876  32.012  35.649  1.00  0.00     0.074 A 
ATOM     60  C   UNL A   1      42.472  27.723  31.252  1.00  0.00     0.029 A 
ATOM     61  N   UNL A   1      41.472  29.338  32.410  1.00  0.00    -0.354 N 
ATOM     62  N   UNL A   1      41.136  31.161  34.686  1.00  0.00    -0.248 NA
ATOM     63  C   UNL A   1      41.766  31.894  36.812  1.00  0.00     0.031 C 
ATOM     64  C   UNL A   1      43.132  27.863  32.477  1.00  0.00     0.029 A 
ATOM     65  C   UNL A   1      42.519  28.880  33.193  1.00  0.00     0.049 A 
ATOM     66  H   UNL A   1      40.852  30.060  32.662  1.00  0.00     0.167 HD
ATOM     67  C   UNL A   1      42.224  30.416  35.119  1.00  0.00     0.074 A 
ATOM     68  C   UNL A   1      42.588  30.928  36.425  1.00  0.00     0.031 C 
ATOM     69  C   UNL A   1      42.862  29.398  34.493  1.00  0.00     0.037 A 
BRANCH  56  70
ATOM     70  C   UNL A   1      40.477  27.940  28.980  1.00  0.00     0.064 A 
ATOM     71  C   UNL A   1      39.723  26.757  28.935  1.00  0.00     0.173 A 
ATOM     72  C   UNL A   1      41.256  28.264  27.859  1.00  0.00     0.173 A 
ATOM     73  F   UNL A   1      38.972  26.395  29.986  1.00  0.00    -0.203 F 
ATOM     74  C   UNL A   1      39.779  25.913  27.829  1.00  0.00     0.198 A 
ATOM     75  C   UNL A   1      41.288  27.432  26.743  1.00  0.00     0.198 A 
ATOM     76  F   UNL A   1      41.990  29.387  27.848  1.00  0.00    -0.203 F 
ATOM     77  F   UNL A   1      39.098  24.759  27.833  1.00  0.00    -0.200 F 
ATOM     78  C   UNL A   1      40.558  26.253  26.733  1.00  0.00     0.200 A 
ATOM     79  F   UNL A   1      42.033  27.766  25.680  1.00  0.00    -0.200 F 
ATOM     80  F   UNL A   1      40.614  25.438  25.670  1.00  0.00    -0.200 F 
ENDBRANCH  56  70
BRANCH  57  81
ATOM     81  C   UNL A   1      39.658  33.931  36.914  1.00  0.00     0.064 A 
ATOM     82  C   UNL A   1      40.275  35.188  36.975  1.00  0.00     0.173 A 
ATOM     83  C   UNL A   1      38.868  33.535  38.003  1.00  0.00     0.173 A 
ATOM     84  F   UNL A   1      41.057  35.599  35.965  1.00  0.00    -0.203 F 
ATOM     85  C   UNL A   1      40.112  36.015  38.083  1.00  0.00     0.198 A 
ATOM     86  C   UNL A   1      38.688  34.372  39.101  1.00  0.00     0.198 A 
ATOM     87  F   UNL A   1      38.255  32.343  37.988  1.00  0.00    -0.203 F 
ATOM     88  F   UNL A   1      40.734  37.202  38.128  1.00  0.00    -0.200 F 
ATOM     89  C   UNL A   1      39.312  35.611  39.141  1.00  0.00     0.200 A 
ATOM     90  F   UNL A   1      37.906  33.984  40.117  1.00  0.00    -0.200 F 
ATOM     91  F   UNL A   1      39.145  36.412  40.202  1.00  0.00    -0.200 F 
ENDBRANCH  57  81
BRANCH  69  92
ATOM     92  C   UNL A   1      44.023  28.775  35.208  1.00  0.00     0.064 A 
ATOM     93  C   UNL A   1      43.848  27.684  36.071  1.00  0.00     0.173 A 
ATOM     94  C   UNL A   1      45.327  29.245  34.995  1.00  0.00     0.173 A 
ATOM     95  F   UNL A   1      42.617  27.208  36.316  1.00  0.00    -0.203 F 
ATOM     96  C   UNL A   1      44.936  27.098  36.711  1.00  0.00     0.198 A 
ATOM     97  C   UNL A   1      46.415  28.643  35.619  1.00  0.00     0.198 A 
ATOM     98  F   UNL A   1      45.545  30.284  34.174  1.00  0.00    -0.203 F 
ATOM     99  F   UNL A   1      44.743  26.081  37.561  1.00  0.00    -0.200 F 
ATOM    100  C   UNL A   1      46.219  27.574  36.480  1.00  0.00     0.200 A 
ATOM    101  F   UNL A   1      47.655  29.097  35.389  1.00  0.00    -0.200 F 
ATOM    102  F   UNL A   1      47.266  27.005  37.093  1.00  0.00    -0.200 F 
ENDBRANCH  69  92
ENDBRANCH  43  44
ENDBRANCH  35  38
ENDBRANCH  33  34
ENDBRANCH  32  33
ENDBRANCH   1  32
TORSDOF 16
ENDMDL
MODEL 2
REMARK VINA RESULT:     -13.4      3.859      8.344
REMARK SMILES O=C(C[C@@H](C(=O)NCCCCNC(=O)c1ccc(-c2c3nc(c(-c4c(F)c(F)c(F)c(F)c4F)c4ccc([nH]4)c(-c4c(F)c(F)c(F)c(F)c4F)c4nc(c(-c5c(F)c(F)c(F)c(F)c5F)c5ccc2[nH]5)C=C4)C=C3)cc1)[NH+]1CCN(c2cccc(Cl)c2)CC1)c1ccc(F)cc1
REMARK SMILES IDX 9 1 8 2 7 3 5 4 6 5 4 7 3 8 2 9 1 10 91 11 92 12 97 13 93 14
REMARK SMILES IDX 96 15 94 16 95 17 78 18 79 19 90 20 80 22 89 23 81 24 82 25
REMARK SMILES IDX 83 26 88 27 84 28 86 29 85 30 87 31 10 32 11 33 12 34 13 35
REMARK SMILES IDX 14 37 15 38 16 39 77 40 17 41 76 42 18 43 19 44 20 45 70 46
REMARK SMILES IDX 21 47 75 48 69 49 71 50 22 51 74 52 68 53 67 54 23 56 55 57
REMARK SMILES IDX 35 58 54 59 36 60 39 61 53 62 72 63 37 64 38 65 52 67 73 68
REMARK SMILES IDX 40 69 24 70 25 71 33 72 26 73 27 74 31 75 34 76 28 77 29 78
REMARK SMILES IDX 32 79 30 80 56 81 57 82 65 83 58 84 59 85 63 86 66 87 60 88
REMARK SMILES IDX 61 89 64 90 62 91 41 92 42 93 50 94 43 95 44 96 48 97 51 98
REMARK SMILES IDX 45 99 46 100 49 101 47 102
REMARK H PARENT 7 6 78 21 12 36 71 55 39 66
REMARK Flexibility Score: inf
ROOT
ATOM      1  C   UNL A   1      35.185  22.207  24.080  1.00  0.00     0.023 C 
ENDROOT
BRANCH   1   2
ATOM      2  C   UNL A   1      34.007  22.827  23.323  1.00  0.00     0.116 C 
BRANCH   2   3
ATOM      3  N   UNL A   1      32.736  22.744  24.017  1.00  0.00    -0.351 N 
ATOM      4  C   UNL A   1      31.802  23.667  24.373  1.00  0.00     0.278 C 
ATOM      5  O   UNL A   1      30.770  23.197  24.866  1.00  0.00    -0.268 OA
ATOM      6  H   UNL A   1      32.499  21.827  24.287  1.00  0.00     0.163 HD
BRANCH   4   7
ATOM      7  C   UNL A   1      32.021  25.201  24.191  1.00  0.00     0.282 C 
BRANCH   7   8
ATOM      8  C   UNL A   1      32.007  26.057  25.466  1.00  0.00     0.156 C 
BRANCH   8   9
ATOM      9  C   UNL A   1      33.255  26.730  25.986  1.00  0.00     0.169 C 
ATOM     10  O   UNL A   1      34.344  26.164  25.874  1.00  0.00    -0.294 OA
BRANCH   9  11
ATOM     11  C   UNL A   1      33.217  28.130  26.520  1.00  0.00     0.018 A 
ATOM     12  C   UNL A   1      34.342  28.785  27.029  1.00  0.00     0.015 A 
ATOM     13  C   UNL A   1      32.004  28.833  26.452  1.00  0.00     0.015 A 
ATOM     14  C   UNL A   1      34.294  30.145  27.345  1.00  0.00     0.040 A 
ATOM     15  C   UNL A   1      31.945  30.185  26.802  1.00  0.00     0.040 A 
ATOM     16  C   UNL A   1      33.098  30.835  27.219  1.00  0.00     0.123 A 
ATOM     17  F   UNL A   1      33.058  32.144  27.500  1.00  0.00    -0.207 F 
ENDBRANCH   9  11
ENDBRANCH   8   9
ENDBRANCH   7   8
BRANCH   7  18
ATOM     18  N   UNL A   1      31.065  25.689  23.152  1.00  0.00    -0.321 N 
ATOM     19  C   UNL A   1      29.711  26.100  23.598  1.00  0.00     0.284 C 
ATOM     20  C   UNL A   1      31.592  26.645  22.163  1.00  0.00     0.284 C 
ATOM     21  H   UNL A   1      30.937  24.800  22.670  1.00  0.00     0.348 HD
ATOM     22  C   UNL A   1      29.478  27.600  23.923  1.00  0.00     0.178 C 
ATOM     23  C   UNL A   1      31.468  28.147  22.520  1.00  0.00     0.178 C 
ATOM     24  N   UNL A   1      30.092  28.452  22.909  1.00  0.00    -0.360 N 
BRANCH  24  25
ATOM     25  C   UNL A   1      29.627  29.752  22.826  1.00  0.00     0.038 A 
ATOM     26  C   UNL A   1      29.568  30.610  23.930  1.00  0.00     0.026 A 
ATOM     27  C   UNL A   1      29.103  30.191  21.606  1.00  0.00     0.046 A 
ATOM     28  C   UNL A   1      28.968  31.870  23.824  1.00  0.00     0.004 A 
ATOM     29  C   UNL A   1      28.499  31.441  21.502  1.00  0.00     0.043 A 
ATOM     30  C   UNL A   1      28.423  32.282  22.609  1.00  0.00     0.020 A 
ATOM     31  Cl  UNL A   1      27.811  31.930  20.002  1.00  0.00    -0.084 Cl
ENDBRANCH  24  25
ENDBRANCH   7  18
ENDBRANCH   4   7
ENDBRANCH   2   3
ENDBRANCH   1   2
BRANCH   1  32
ATOM     32  C   UNL A   1      35.615  22.908  25.372  1.00  0.00     0.023 C 
BRANCH  32  33
ATOM     33  C   UNL A   1      36.929  23.668  25.285  1.00  0.00     0.116 C 
BRANCH  33  34
ATOM     34  N   UNL A   1      38.055  22.808  25.593  1.00  0.00    -0.352 N 
ATOM     35  C   UNL A   1      39.269  23.093  26.165  1.00  0.00     0.251 C 
ATOM     36  H   UNL A   1      37.927  21.862  25.352  1.00  0.00     0.163 HD
ATOM     37  O   UNL A   1      40.171  22.244  26.098  1.00  0.00    -0.269 OA
BRANCH  35  38
ATOM     38  C   UNL A   1      39.540  24.373  26.864  1.00  0.00     0.039 A 
ATOM     39  C   UNL A   1      40.256  25.366  26.186  1.00  0.00     0.014 A 
ATOM     40  C   UNL A   1      39.188  24.578  28.198  1.00  0.00     0.014 A 
ATOM     41  C   UNL A   1      40.600  26.558  26.830  1.00  0.00     0.010 A 
ATOM     42  C   UNL A   1      39.458  25.798  28.820  1.00  0.00     0.010 A 
ATOM     43  C   UNL A   1      40.194  26.789  28.153  1.00  0.00    -0.014 A 
BRANCH  43  44
ATOM     44  C   UNL A   1      40.581  28.027  28.877  1.00  0.00     0.031 A 
ATOM     45  C   UNL A   1      41.974  28.170  29.430  1.00  0.00     0.074 A 
ATOM     46  C   UNL A   1      39.673  28.996  29.094  1.00  0.00     0.049 A 
ATOM     47  N   UNL A   1      42.482  29.123  30.172  1.00  0.00    -0.248 NA
ATOM     48  C   UNL A   1      42.914  27.077  29.135  1.00  0.00     0.031 C 
ATOM     49  C   UNL A   1      38.279  28.960  28.653  1.00  0.00     0.029 A 
ATOM     50  N   UNL A   1      39.784  30.195  29.754  1.00  0.00    -0.354 N 
ATOM     51  C   UNL A   1      43.782  28.726  30.458  1.00  0.00     0.074 A 
ATOM     52  C   UNL A   1      43.973  27.429  29.848  1.00  0.00     0.031 C 
ATOM     53  C   UNL A   1      37.667  30.089  29.044  1.00  0.00     0.029 A 
ATOM     54  C   UNL A   1      38.616  30.914  29.786  1.00  0.00     0.049 A 
ATOM     55  H   UNL A   1      40.622  30.508  30.165  1.00  0.00     0.167 HD
ATOM     56  C   UNL A   1      44.739  29.393  31.149  1.00  0.00     0.037 A 
ATOM     57  C   UNL A   1      38.339  32.102  30.357  1.00  0.00     0.037 A 
ATOM     58  C   UNL A   1      44.564  30.705  31.715  1.00  0.00     0.049 A 
ATOM     59  C   UNL A   1      39.426  32.844  31.083  1.00  0.00     0.074 A 
ATOM     60  C   UNL A   1      45.494  31.497  32.365  1.00  0.00     0.029 A 
ATOM     61  N   UNL A   1      43.375  31.419  31.690  1.00  0.00    -0.354 N 
ATOM     62  N   UNL A   1      40.668  32.484  31.300  1.00  0.00    -0.248 NA
ATOM     63  C   UNL A   1      39.075  34.158  31.639  1.00  0.00     0.031 C 
ATOM     64  C   UNL A   1      44.859  32.680  32.761  1.00  0.00     0.029 A 
ATOM     65  C   UNL A   1      43.543  32.638  32.327  1.00  0.00     0.049 A 
ATOM     66  H   UNL A   1      42.537  31.106  31.281  1.00  0.00     0.167 HD
ATOM     67  C   UNL A   1      41.250  33.529  32.004  1.00  0.00     0.074 A 
ATOM     68  C   UNL A   1      40.230  34.546  32.163  1.00  0.00     0.031 C 
ATOM     69  C   UNL A   1      42.514  33.634  32.480  1.00  0.00     0.037 A 
BRANCH  56  70
ATOM     70  C   UNL A   1      46.062  28.707  31.327  1.00  0.00     0.064 A 
ATOM     71  C   UNL A   1      47.096  28.845  30.388  1.00  0.00     0.173 A 
ATOM     72  C   UNL A   1      46.304  27.907  32.455  1.00  0.00     0.173 A 
ATOM     73  F   UNL A   1      46.911  29.588  29.286  1.00  0.00    -0.203 F 
ATOM     74  C   UNL A   1      48.307  28.177  30.550  1.00  0.00     0.198 A 
ATOM     75  C   UNL A   1      47.526  27.263  32.628  1.00  0.00     0.198 A 
ATOM     76  F   UNL A   1      45.353  27.747  33.386  1.00  0.00    -0.203 F 
ATOM     77  F   UNL A   1      49.257  28.276  29.610  1.00  0.00    -0.200 F 
ATOM     78  C   UNL A   1      48.522  27.390  31.672  1.00  0.00     0.200 A 
ATOM     79  F   UNL A   1      47.738  26.511  33.718  1.00  0.00    -0.200 F 
ATOM     80  F   UNL A   1      49.687  26.745  31.825  1.00  0.00    -0.200 F 
ENDBRANCH  56  70
BRANCH  57  81
ATOM     81  C   UNL A   1      36.974  32.671  30.230  1.00  0.00     0.064 A 
ATOM     82  C   UNL A   1      36.039  32.528  31.264  1.00  0.00     0.173 A 
ATOM     83  C   UNL A   1      36.590  33.398  29.094  1.00  0.00     0.173 A 
ATOM     84  F   UNL A   1      36.356  31.822  32.360  1.00  0.00    -0.203 F 
ATOM     85  C   UNL A   1      34.767  33.086  31.164  1.00  0.00     0.198 A 
ATOM     86  C   UNL A   1      35.326  33.975  29.005  1.00  0.00     0.198 A 
ATOM     87  F   UNL A   1      37.453  33.565  28.082  1.00  0.00    -0.203 F 
ATOM     88  F   UNL A   1      33.882  32.913  32.156  1.00  0.00    -0.200 F 
ATOM     89  C   UNL A   1      34.415  33.816  30.039  1.00  0.00     0.200 A 
ATOM     90  F   UNL A   1      34.992  34.689  27.923  1.00  0.00    -0.200 F 
ATOM     91  F   UNL A   1      33.195  34.365  29.949  1.00  0.00    -0.200 F 
ENDBRANCH  57  81
BRANCH  69  92
ATOM     92  C   UNL A   1      42.868  34.896  33.209  1.00  0.00     0.064 A 
ATOM     93  C   UNL A   1      43.366  36.017  32.529  1.00  0.00     0.173 A 
ATOM     94  C   UNL A   1      42.668  34.999  34.593  1.00  0.00     0.173 A 
ATOM     95  F   UNL A   1      43.587  35.960  31.207  1.00  0.00    -0.203 F 
ATOM     96  C   UNL A   1      43.668  37.190  33.213  1.00  0.00     0.198 A 
ATOM     97  C   UNL A   1      42.950  36.182  35.271  1.00  0.00     0.198 A 
ATOM     98  F   UNL A   1      42.189  33.955  35.287  1.00  0.00    -0.203 F 
ATOM     99  F   UNL A   1      44.178  38.238  32.550  1.00  0.00    -0.200 F 
ATOM    100  C   UNL A   1      43.454  37.274  34.581  1.00  0.00     0.200 A 
ATOM    101  F   UNL A   1      42.735  36.265  36.591  1.00  0.00    -0.200 F 
ATOM    102  F   UNL A   1      43.741  38.408  35.237  1.00  0.00    -0.200 F 
ENDBRANCH  69  92
ENDBRANCH  43  44
ENDBRANCH  35  38
ENDBRANCH  33  34
ENDBRANCH  32  33
ENDBRANCH   1  32
TORSDOF 16
ENDMDL
MODEL 3
REMARK VINA RESULT:     -13.4      2.943      8.298
REMARK SMILES O=C(C[C@@H](C(=O)NCCCCNC(=O)c1ccc(-c2c3nc(c(-c4c(F)c(F)c(F)c(F)c4F)c4ccc([nH]4)c(-c4c(F)c(F)c(F)c(F)c4F)c4nc(c(-c5c(F)c(F)c(F)c(F)c5F)c5ccc2[nH]5)C=C4)C=C3)cc1)[NH+]1CCN(c2cccc(Cl)c2)CC1)c1ccc(F)cc1
REMARK SMILES IDX 9 1 8 2 7 3 5 4 6 5 4 7 3 8 2 9 1 10 91 11 92 12 97 13 93 14
REMARK SMILES IDX 96 15 94 16 95 17 78 18 79 19 90 20 80 22 89 23 81 24 82 25
REMARK SMILES IDX 83 26 88 27 84 28 86 29 85 30 87 31 10 32 11 33 12 34 13 35
REMARK SMILES IDX 14 37 15 38 16 39 77 40 17 41 76 42 18 43 19 44 20 45 70 46
REMARK SMILES IDX 21 47 75 48 69 49 71 50 22 51 74 52 68 53 67 54 23 56 55 57
REMARK SMILES IDX 35 58 54 59 36 60 39 61 53 62 72 63 37 64 38 65 52 67 73 68
REMARK SMILES IDX 40 69 24 70 25 71 33 72 26 73 27 74 31 75 34 76 28 77 29 78
REMARK SMILES IDX 32 79 30 80 56 81 57 82 65 83 58 84 59 85 63 86 66 87 60 88
REMARK SMILES IDX 61 89 64 90 62 91 41 92 42 93 50 94 43 95 44 96 48 97 51 98
REMARK SMILES IDX 45 99 46 100 49 101 47 102
REMARK H PARENT 7 6 78 21 12 36 71 55 39 66
REMARK Flexibility Score: inf
ROOT
ATOM      1  C   UNL A   1      33.642  28.013  25.103  1.00  0.00     0.023 C 
ENDROOT
BRANCH   1   2
ATOM      2  C   UNL A   1      33.440  27.192  26.380  1.00  0.00     0.116 C 
BRANCH   2   3
ATOM      3  N   UNL A   1      32.127  26.589  26.506  1.00  0.00    -0.351 N 
ATOM      4  C   UNL A   1      31.663  25.319  26.367  1.00  0.00     0.278 C 
ATOM      5  O   UNL A   1      30.473  25.164  26.669  1.00  0.00    -0.268 OA
ATOM      6  H   UNL A   1      31.423  27.237  26.742  1.00  0.00     0.163 HD
BRANCH   4   7
ATOM      7  C   UNL A   1      32.555  24.147  25.850  1.00  0.00     0.282 C 
BRANCH   7   8
ATOM      8  C   UNL A   1      32.754  24.050  24.330  1.00  0.00     0.156 C 
BRANCH   8   9
ATOM      9  C   UNL A   1      34.119  24.176  23.697  1.00  0.00     0.169 C 
ATOM     10  O   UNL A   1      34.269  24.905  22.715  1.00  0.00    -0.294 OA
BRANCH   9  11
ATOM     11  C   UNL A   1      35.324  23.535  24.315  1.00  0.00     0.018 A 
ATOM     12  C   UNL A   1      35.902  22.360  23.825  1.00  0.00     0.015 A 
ATOM     13  C   UNL A   1      35.933  24.179  25.404  1.00  0.00     0.015 A 
ATOM     14  C   UNL A   1      37.125  21.905  24.323  1.00  0.00     0.040 A 
ATOM     15  C   UNL A   1      37.139  23.705  25.927  1.00  0.00     0.040 A 
ATOM     16  C   UNL A   1      37.737  22.586  25.363  1.00  0.00     0.123 A 
ATOM     17  F   UNL A   1      38.921  22.163  25.825  1.00  0.00    -0.207 F 
ENDBRANCH   9  11
ENDBRANCH   8   9
ENDBRANCH   7   8
BRANCH   7  18
ATOM     18  N   UNL A   1      32.053  22.876  26.454  1.00  0.00    -0.321 N 
ATOM     19  C   UNL A   1      31.246  21.975  25.595  1.00  0.00     0.284 C 
ATOM     20  C   UNL A   1      33.015  22.099  27.254  1.00  0.00     0.284 C 
ATOM     21  H   UNL A   1      31.393  23.298  27.106  1.00  0.00     0.348 HD
ATOM     22  C   UNL A   1      31.985  20.839  24.839  1.00  0.00     0.178 C 
ATOM     23  C   UNL A   1      33.843  21.033  26.494  1.00  0.00     0.178 C 
ATOM     24  N   UNL A   1      32.951  20.178  25.712  1.00  0.00    -0.360 N 
BRANCH  24  25
ATOM     25  C   UNL A   1      33.370  18.916  25.331  1.00  0.00     0.038 A 
ATOM     26  C   UNL A   1      34.366  18.702  24.372  1.00  0.00     0.026 A 
ATOM     27  C   UNL A   1      32.697  17.809  25.858  1.00  0.00     0.046 A 
ATOM     28  C   UNL A   1      34.662  17.409  23.926  1.00  0.00     0.004 A 
ATOM     29  C   UNL A   1      32.985  16.523  25.408  1.00  0.00     0.043 A 
ATOM     30  C   UNL A   1      33.962  16.317  24.438  1.00  0.00     0.020 A 
ATOM     31  Cl  UNL A   1      32.099  15.187  26.033  1.00  0.00    -0.084 Cl
ENDBRANCH  24  25
ENDBRANCH   7  18
ENDBRANCH   4   7
ENDBRANCH   2   3
ENDBRANCH   1   2
BRANCH   1  32
ATOM     32  C   UNL A   1      33.212  29.482  25.158  1.00  0.00     0.023 C 
BRANCH  32  33
ATOM     33  C   UNL A   1      32.537  29.906  26.452  1.00  0.00     0.116 C 
BRANCH  33  34
ATOM     34  N   UNL A   1      32.587  31.346  26.625  1.00  0.00    -0.352 N 
ATOM     35  C   UNL A   1      33.414  32.126  27.392  1.00  0.00     0.251 C 
ATOM     36  H   UNL A   1      31.917  31.845  26.105  1.00  0.00     0.163 HD
ATOM     37  O   UNL A   1      33.107  33.314  27.576  1.00  0.00    -0.269 OA
BRANCH  35  38
ATOM     38  C   UNL A   1      34.661  31.606  28.004  1.00  0.00     0.039 A 
ATOM     39  C   UNL A   1      34.682  30.282  28.457  1.00  0.00     0.014 A 
ATOM     40  C   UNL A   1      35.773  32.418  28.224  1.00  0.00     0.014 A 
ATOM     41  C   UNL A   1      35.809  29.772  29.108  1.00  0.00     0.010 A 
ATOM     42  C   UNL A   1      36.930  31.891  28.800  1.00  0.00     0.010 A 
ATOM     43  C   UNL A   1      36.949  30.571  29.276  1.00  0.00    -0.014 A 
BRANCH  43  44
ATOM     44  C   UNL A   1      38.146  30.070  30.001  1.00  0.00     0.031 A 
ATOM     45  C   UNL A   1      38.446  30.568  31.390  1.00  0.00     0.074 A 
ATOM     46  C   UNL A   1      38.996  29.219  29.397  1.00  0.00     0.049 A 
ATOM     47  N   UNL A   1      39.485  30.332  32.153  1.00  0.00    -0.248 NA
ATOM     48  C   UNL A   1      37.460  31.482  31.988  1.00  0.00     0.031 C 
ATOM     49  C   UNL A   1      38.846  28.699  28.039  1.00  0.00     0.029 A 
ATOM     50  N   UNL A   1      40.164  28.654  29.845  1.00  0.00    -0.354 N 
ATOM     51  C   UNL A   1      39.291  31.092  33.299  1.00  0.00     0.074 A 
ATOM     52  C   UNL A   1      38.061  31.829  33.116  1.00  0.00     0.031 C 
ATOM     53  C   UNL A   1      39.875  27.881  27.767  1.00  0.00     0.029 A 
ATOM     54  C   UNL A   1      40.771  27.843  28.919  1.00  0.00     0.049 A 
ATOM     55  H   UNL A   1      40.531  28.816  30.744  1.00  0.00     0.167 HD
ATOM     56  C   UNL A   1      40.059  31.154  34.415  1.00  0.00     0.037 A 
ATOM     57  C   UNL A   1      41.925  27.152  28.990  1.00  0.00     0.037 A 
ATOM     58  C   UNL A   1      41.258  30.383  34.617  1.00  0.00     0.049 A 
ATOM     59  C   UNL A   1      42.740  27.201  30.251  1.00  0.00     0.074 A 
ATOM     60  C   UNL A   1      42.063  30.315  35.740  1.00  0.00     0.029 A 
ATOM     61  N   UNL A   1      41.819  29.539  33.669  1.00  0.00    -0.354 N 
ATOM     62  N   UNL A   1      42.519  27.880  31.351  1.00  0.00    -0.248 NA
ATOM     63  C   UNL A   1      43.961  26.385  30.285  1.00  0.00     0.031 C 
ATOM     64  C   UNL A   1      43.129  29.453  35.461  1.00  0.00     0.029 A 
ATOM     65  C   UNL A   1      42.969  28.957  34.177  1.00  0.00     0.049 A 
ATOM     66  H   UNL A   1      41.454  29.378  32.770  1.00  0.00     0.167 HD
ATOM     67  C   UNL A   1      43.563  27.566  32.210  1.00  0.00     0.074 A 
ATOM     68  C   UNL A   1      44.409  26.619  31.511  1.00  0.00     0.031 C 
ATOM     69  C   UNL A   1      43.801  28.022  33.463  1.00  0.00     0.037 A 
BRANCH  56  70
ATOM     70  C   UNL A   1      39.618  32.089  35.502  1.00  0.00     0.064 A 
ATOM     71  C   UNL A   1      40.070  33.416  35.561  1.00  0.00     0.173 A 
ATOM     72  C   UNL A   1      38.724  31.657  36.494  1.00  0.00     0.173 A 
ATOM     73  F   UNL A   1      40.936  33.875  34.644  1.00  0.00    -0.203 F 
ATOM     74  C   UNL A   1      39.677  34.263  36.594  1.00  0.00     0.198 A 
ATOM     75  C   UNL A   1      38.311  32.516  37.510  1.00  0.00     0.198 A 
ATOM     76  F   UNL A   1      38.255  30.401  36.481  1.00  0.00    -0.203 F 
ATOM     77  F   UNL A   1      40.171  35.508  36.663  1.00  0.00    -0.200 F 
ATOM     78  C   UNL A   1      38.795  33.814  37.565  1.00  0.00     0.200 A 
ATOM     79  F   UNL A   1      37.449  32.084  38.442  1.00  0.00    -0.200 F 
ATOM     80  F   UNL A   1      38.420  34.629  38.561  1.00  0.00    -0.200 F 
ENDBRANCH  56  70
BRANCH  57  81
ATOM     81  C   UNL A   1      42.354  26.329  27.831  1.00  0.00     0.064 A 
ATOM     82  C   UNL A   1      41.822  25.049  27.624  1.00  0.00     0.173 A 
ATOM     83  C   UNL A   1      43.274  26.817  26.892  1.00  0.00     0.173 A 
ATOM     84  F   UNL A   1      40.955  24.534  28.509  1.00  0.00    -0.203 F 
ATOM     85  C   UNL A   1      42.197  24.285  26.522  1.00  0.00     0.198 A 
ATOM     86  C   UNL A   1      43.632  26.060  25.779  1.00  0.00     0.198 A 
ATOM     87  F   UNL A   1      43.807  28.037  27.047  1.00  0.00    -0.203 F 
ATOM     88  F   UNL A   1      41.693  23.054  26.360  1.00  0.00    -0.200 F 
ATOM     89  C   UNL A   1      43.095  24.794  25.596  1.00  0.00     0.200 A 
ATOM     90  F   UNL A   1      44.491  26.559  24.880  1.00  0.00    -0.200 F 
ATOM     91  F   UNL A   1      43.447  24.064  24.529  1.00  0.00    -0.200 F 
ENDBRANCH  57  81
BRANCH  69  92
ATOM     92  C   UNL A   1      45.019  27.499  34.163  1.00  0.00     0.064 A 
ATOM     93  C   UNL A   1      44.976  26.317  34.917  1.00  0.00     0.173 A 
ATOM     94  C   UNL A   1      46.250  28.160  34.042  1.00  0.00     0.173 A 
ATOM     95  F   UNL A   1      43.818  25.658  35.072  1.00  0.00    -0.203 F 
ATOM     96  C   UNL A   1      46.119  25.828  35.542  1.00  0.00     0.198 A 
ATOM     97  C   UNL A   1      47.396  27.655  34.650  1.00  0.00     0.198 A 
ATOM     98  F   UNL A   1      46.342  29.291  33.327  1.00  0.00    -0.203 F 
ATOM     99  F   UNL A   1      46.048  24.718  36.290  1.00  0.00    -0.200 F 
ATOM    100  C   UNL A   1      47.329  26.493  35.404  1.00  0.00     0.200 A 
ATOM    101  F   UNL A   1      48.565  28.294  34.508  1.00  0.00    -0.200 F 
ATOM    102  F   UNL A   1      48.429  26.017  36.002  1.00  0.00    -0.200 F 
ENDBRANCH  69  92
ENDBRANCH  43  44
ENDBRANCH  35  38
ENDBRANCH  33  34
ENDBRANCH  32  33
ENDBRANCH   1  32
TORSDOF 16
ENDMDL
