MODEL 1
REMARK VINA RESULT:     -13.4      0.000      0.000
REMARK SMILES C[C@@H]1[C@H](C(=O)NCCCCNC(=O)c2ccc(-c3c4nc(c(-c5c(F)c(F)c(F)c(F)c5F)c5ccc([nH]5)c(-c5c(F)c(F)c(F)c(F)c5F)c5nc(c(-c6c(F)c(F)c(F)c(F)c6F)c6ccc3[nH]6)C=C5)C=C4)cc2)CCN1C(=O)/C=C/c1cccc(Br)c1
REMARK SMILES IDX 8 1 7 2 6 3 4 4 5 5 3 7 1 8 2 9 79 10 77 11 78 12 80 13
REMARK SMILES IDX 81 14 82 15 83 16 84 17 85 18 90 19 86 20 88 21 87 22 89 23
REMARK SMILES IDX 9 24 10 25 11 26 12 27 13 29 14 30 15 31 76 32 16 33 75 34
REMARK SMILES IDX 17 35 18 36 19 37 69 38 20 39 74 40 68 41 70 42 21 43 73 44
REMARK SMILES IDX 67 45 66 46 22 48 54 49 34 50 53 51 35 52 38 53 52 54 71 55
REMARK SMILES IDX 36 56 37 57 51 59 72 60 39 61 23 62 24 63 32 64 25 65 26 66
REMARK SMILES IDX 30 67 33 68 27 69 28 70 31 71 29 72 55 73 56 74 64 75 57 76
REMARK SMILES IDX 58 77 62 78 65 79 59 80 60 81 63 82 61 83 40 84 41 85 49 86
REMARK SMILES IDX 42 87 43 88 47 89 50 90 44 91 45 92 48 93 46 94
REMARK H PARENT 6 6 11 28 70 47 38 58
REMARK Flexibility Score: inf
ROOT
ATOM      1  C   UNL A   1      32.106  30.406  26.916  1.00  0.00     0.023 C 
ENDROOT
BRANCH   1   2
ATOM      2  C   UNL A   1      32.156  29.688  25.562  1.00  0.00     0.116 C 
BRANCH   2   3
ATOM      3  N   UNL A   1      31.077  30.085  24.674  1.00  0.00    -0.356 N 
ATOM      4  C   UNL A   1      30.364  29.441  23.715  1.00  0.00     0.225 C 
ATOM      5  O   UNL A   1      29.514  30.131  23.135  1.00  0.00    -0.275 OA
ATOM      6  H   UNL A   1      30.802  31.023  24.795  1.00  0.00     0.163 HD
BRANCH   4   7
ATOM      7  C   UNL A   1      30.554  27.991  23.274  1.00  0.00     0.102 C 
ATOM      8  C   UNL A   1      32.956  28.504  22.525  1.00  0.00     0.032 C 
ATOM      9  C   UNL A   1      31.704  27.694  22.294  1.00  0.00     0.094 C 
ATOM     10  N   UNL A   1      31.970  26.261  22.457  1.00  0.00    -0.336 N 
ATOM     11  C   UNL A   1      30.637  26.897  24.330  1.00  0.00     0.037 C 
ATOM     12  C   UNL A   1      31.191  25.705  23.556  1.00  0.00     0.121 C 
BRANCH  10  13
ATOM     13  C   UNL A   1      32.814  25.438  21.733  1.00  0.00     0.246 C 
ATOM     14  O   UNL A   1      33.047  25.623  20.539  1.00  0.00    -0.270 OA
BRANCH  13  15
ATOM     15  C   UNL A   1      33.337  24.187  22.358  1.00  0.00     0.072 C 
ATOM     16  C   UNL A   1      34.454  24.087  23.095  1.00  0.00     0.014 C 
BRANCH  16  17
ATOM     17  C   UNL A   1      34.828  22.856  23.805  1.00  0.00    -0.024 A 
ATOM     18  C   UNL A   1      36.173  22.579  24.100  1.00  0.00     0.008 A 
ATOM     19  C   UNL A   1      33.851  21.922  24.147  1.00  0.00     0.023 A 
ATOM     20  C   UNL A   1      36.538  21.378  24.713  1.00  0.00     0.002 A 
ATOM     21  C   UNL A   1      34.222  20.719  24.752  1.00  0.00     0.018 A 
ATOM     22  C   UNL A   1      35.560  20.440  25.033  1.00  0.00     0.016 A 
ATOM     23  Br  UNL A   1      32.898  19.438  25.173  1.00  0.00    -0.051 Br
ENDBRANCH  16  17
ENDBRANCH  13  15
ENDBRANCH  10  13
ENDBRANCH   4   7
ENDBRANCH   2   3
ENDBRANCH   1   2
BRANCH   1  24
ATOM     24  C   UNL A   1      31.816  31.892  26.873  1.00  0.00     0.023 C 
BRANCH  24  25
ATOM     25  C   UNL A   1      32.920  32.751  27.447  1.00  0.00     0.116 C 
BRANCH  25  26
ATOM     26  N   UNL A   1      32.515  34.128  27.700  1.00  0.00    -0.352 N 
ATOM     27  C   UNL A   1      33.014  35.004  28.635  1.00  0.00     0.251 C 
ATOM     28  H   UNL A   1      31.792  34.474  27.128  1.00  0.00     0.163 HD
ATOM     29  O   UNL A   1      32.508  36.102  28.808  1.00  0.00    -0.269 OA
BRANCH  27  30
ATOM     30  C   UNL A   1      34.158  34.562  29.452  1.00  0.00     0.039 A 
ATOM     31  C   UNL A   1      33.922  34.009  30.711  1.00  0.00     0.014 A 
ATOM     32  C   UNL A   1      35.445  34.598  28.912  1.00  0.00     0.014 A 
ATOM     33  C   UNL A   1      34.980  33.423  31.403  1.00  0.00     0.010 A 
ATOM     34  C   UNL A   1      36.465  33.910  29.546  1.00  0.00     0.010 A 
ATOM     35  C   UNL A   1      36.248  33.336  30.806  1.00  0.00    -0.014 A 
BRANCH  35  36
ATOM     36  C   UNL A   1      37.394  32.703  31.499  1.00  0.00     0.031 A 
ATOM     37  C   UNL A   1      38.108  31.562  30.829  1.00  0.00     0.074 A 
ATOM     38  C   UNL A   1      37.730  33.091  32.743  1.00  0.00     0.049 A 
ATOM     39  N   UNL A   1      39.051  30.785  31.296  1.00  0.00    -0.248 NA
ATOM     40  C   UNL A   1      37.664  31.215  29.468  1.00  0.00     0.031 C 
ATOM     41  C   UNL A   1      37.067  34.143  33.516  1.00  0.00     0.029 A 
ATOM     42  N   UNL A   1      38.713  32.633  33.582  1.00  0.00    -0.354 N 
ATOM     43  C   UNL A   1      39.282  29.844  30.302  1.00  0.00     0.074 A 
ATOM     44  C   UNL A   1      38.337  30.100  29.240  1.00  0.00     0.031 C 
ATOM     45  C   UNL A   1      37.683  34.272  34.702  1.00  0.00     0.029 A 
ATOM     46  C   UNL A   1      38.760  33.291  34.786  1.00  0.00     0.049 A 
ATOM     47  H   UNL A   1      39.327  31.901  33.344  1.00  0.00     0.167 HD
ATOM     48  C   UNL A   1      40.223  28.873  30.264  1.00  0.00     0.037 A 
ATOM     49  C   UNL A   1      39.587  33.118  35.834  1.00  0.00     0.037 A 
ATOM     50  C   UNL A   1      41.198  28.665  31.299  1.00  0.00     0.049 A 
ATOM     51  C   UNL A   1      40.660  32.066  35.747  1.00  0.00     0.074 A 
ATOM     52  C   UNL A   1      42.240  27.758  31.337  1.00  0.00     0.029 A 
ATOM     53  N   UNL A   1      41.252  29.392  32.480  1.00  0.00    -0.354 N 
ATOM     54  N   UNL A   1      40.913  31.220  34.777  1.00  0.00    -0.248 NA
ATOM     55  C   UNL A   1      41.569  31.952  36.895  1.00  0.00     0.031 C 
ATOM     56  C   UNL A   1      42.911  27.918  32.554  1.00  0.00     0.029 A 
ATOM     57  C   UNL A   1      42.310  28.951  33.256  1.00  0.00     0.049 A 
ATOM     58  H   UNL A   1      40.631  30.114  32.729  1.00  0.00     0.167 HD
ATOM     59  C   UNL A   1      42.027  30.496  35.182  1.00  0.00     0.074 A 
ATOM     60  C   UNL A   1      42.406  31.010  36.482  1.00  0.00     0.031 C 
ATOM     61  C   UNL A   1      42.677  29.497  34.538  1.00  0.00     0.037 A 
BRANCH  48  62
ATOM     62  C   UNL A   1      40.248  27.984  29.056  1.00  0.00     0.064 A 
ATOM     63  C   UNL A   1      39.546  26.768  29.022  1.00  0.00     0.173 A 
ATOM     64  C   UNL A   1      40.983  28.347  27.918  1.00  0.00     0.173 A 
ATOM     65  F   UNL A   1      38.844  26.364  30.091  1.00  0.00    -0.203 F 
ATOM     66  C   UNL A   1      39.610  25.933  27.910  1.00  0.00     0.198 A 
ATOM     67  C   UNL A   1      41.018  27.525  26.795  1.00  0.00     0.198 A 
ATOM     68  F   UNL A   1      41.672  29.499  27.897  1.00  0.00    -0.203 F 
ATOM     69  F   UNL A   1      38.984  24.748  27.928  1.00  0.00    -0.200 F 
ATOM     70  C   UNL A   1      40.341  26.315  26.795  1.00  0.00     0.200 A 
ATOM     71  F   UNL A   1      41.718  27.900  25.714  1.00  0.00    -0.200 F 
ATOM     72  F   UNL A   1      40.403  25.510  25.725  1.00  0.00    -0.200 F 
ENDBRANCH  48  62
BRANCH  49  73
ATOM     73  C   UNL A   1      39.470  33.995  37.026  1.00  0.00     0.064 A 
ATOM     74  C   UNL A   1      38.762  33.570  38.160  1.00  0.00     0.173 A 
ATOM     75  C   UNL A   1      40.061  35.266  37.065  1.00  0.00     0.173 A 
ATOM     76  F   UNL A   1      38.165  32.369  38.164  1.00  0.00    -0.203 F 
ATOM     77  C   UNL A   1      38.631  34.391  39.278  1.00  0.00     0.198 A 
ATOM     78  C   UNL A   1      39.950  36.076  38.193  1.00  0.00     0.198 A 
ATOM     79  F   UNL A   1      40.756  35.715  36.010  1.00  0.00    -0.203 F 
ATOM     80  F   UNL A   1      37.914  33.976  40.331  1.00  0.00    -0.200 F 
ATOM     81  C   UNL A   1      39.229  35.642  39.296  1.00  0.00     0.200 A 
ATOM     82  F   UNL A   1      40.542  37.279  38.213  1.00  0.00    -0.200 F 
ATOM     83  F   UNL A   1      39.108  36.429  40.373  1.00  0.00    -0.200 F 
ENDBRANCH  49  73
BRANCH  61  84
ATOM     84  C   UNL A   1      43.892  28.929  35.206  1.00  0.00     0.064 A 
ATOM     85  C   UNL A   1      43.800  27.881  36.132  1.00  0.00     0.173 A 
ATOM     86  C   UNL A   1      45.168  29.407  34.874  1.00  0.00     0.173 A 
ATOM     87  F   UNL A   1      42.599  27.400  36.490  1.00  0.00    -0.203 F 
ATOM     88  C   UNL A   1      44.943  27.348  36.722  1.00  0.00     0.198 A 
ATOM     89  C   UNL A   1      46.310  28.854  35.444  1.00  0.00     0.198 A 
ATOM     90  F   UNL A   1      45.307  30.403  33.987  1.00  0.00    -0.203 F 
ATOM     91  F   UNL A   1      44.829  26.375  37.637  1.00  0.00    -0.200 F 
ATOM     92  C   UNL A   1      46.196  27.829  36.372  1.00  0.00     0.200 A 
ATOM     93  F   UNL A   1      47.520  29.311  35.097  1.00  0.00    -0.200 F 
ATOM     94  F   UNL A   1      47.295  27.308  36.935  1.00  0.00    -0.200 F 
ENDBRANCH  61  84
ENDBRANCH  35  36
ENDBRANCH  27  30
ENDBRANCH  25  26
ENDBRANCH  24  25
ENDBRANCH   1  24
TORSDOF 14
ENDMDL
MODEL 2
REMARK VINA RESULT:     -13.3      0.678      7.396
REMARK SMILES C[C@@H]1[C@H](C(=O)NCCCCNC(=O)c2ccc(-c3c4nc(c(-c5c(F)c(F)c(F)c(F)c5F)c5ccc([nH]5)c(-c5c(F)c(F)c(F)c(F)c5F)c5nc(c(-c6c(F)c(F)c(F)c(F)c6F)c6ccc3[nH]6)C=C5)C=C4)cc2)CCN1C(=O)/C=C/c1cccc(Br)c1
REMARK SMILES IDX 8 1 7 2 6 3 4 4 5 5 3 7 1 8 2 9 79 10 77 11 78 12 80 13
REMARK SMILES IDX 81 14 82 15 83 16 84 17 85 18 90 19 86 20 88 21 87 22 89 23
REMARK SMILES IDX 9 24 10 25 11 26 12 27 13 29 14 30 15 31 76 32 16 33 75 34
REMARK SMILES IDX 17 35 18 36 19 37 69 38 20 39 74 40 68 41 70 42 21 43 73 44
REMARK SMILES IDX 67 45 66 46 22 48 54 49 34 50 53 51 35 52 38 53 52 54 71 55
REMARK SMILES IDX 36 56 37 57 51 59 72 60 39 61 23 62 24 63 32 64 25 65 26 66
REMARK SMILES IDX 30 67 33 68 27 69 28 70 31 71 29 72 55 73 56 74 64 75 57 76
REMARK SMILES IDX 58 77 62 78 65 79 59 80 60 81 63 82 61 83 40 84 41 85 49 86
REMARK SMILES IDX 42 87 43 88 47 89 50 90 44 91 45 92 48 93 46 94
REMARK H PARENT 6 6 11 28 70 47 38 58
REMARK Flexibility Score: inf
ROOT
ATOM      1  C   UNL A   1      31.796  30.559  26.907  1.00  0.00     0.023 C 
ENDROOT
BRANCH   1   2
ATOM      2  C   UNL A   1      31.905  29.746  25.611  1.00  0.00     0.116 C 
BRANCH   2   3
ATOM      3  N   UNL A   1      30.908  30.123  24.624  1.00  0.00    -0.356 N 
ATOM      4  C   UNL A   1      30.283  29.460  23.618  1.00  0.00     0.225 C 
ATOM      5  O   UNL A   1      29.488  30.137  22.951  1.00  0.00    -0.275 OA
ATOM      6  H   UNL A   1      30.624  31.063  24.701  1.00  0.00     0.163 HD
BRANCH   4   7
ATOM      7  C   UNL A   1      30.512  28.002  23.224  1.00  0.00     0.102 C 
ATOM      8  C   UNL A   1      32.887  28.561  22.424  1.00  0.00     0.032 C 
ATOM      9  C   UNL A   1      31.658  27.706  22.238  1.00  0.00     0.094 C 
ATOM     10  N   UNL A   1      31.969  26.288  22.446  1.00  0.00    -0.336 N 
ATOM     11  C   UNL A   1      30.641  26.948  24.315  1.00  0.00     0.037 C 
ATOM     12  C   UNL A   1      31.222  25.747  23.574  1.00  0.00     0.121 C 
BRANCH  10  13
ATOM     13  C   UNL A   1      32.828  25.467  21.739  1.00  0.00     0.246 C 
ATOM     14  O   UNL A   1      33.095  25.660  20.553  1.00  0.00    -0.270 OA
BRANCH  13  15
ATOM     15  C   UNL A   1      33.326  24.206  22.366  1.00  0.00     0.072 C 
ATOM     16  C   UNL A   1      34.438  24.087  23.108  1.00  0.00     0.014 C 
BRANCH  16  17
ATOM     17  C   UNL A   1      34.787  22.851  23.820  1.00  0.00    -0.024 A 
ATOM     18  C   UNL A   1      36.122  22.562  24.144  1.00  0.00     0.008 A 
ATOM     19  C   UNL A   1      33.795  21.922  24.136  1.00  0.00     0.023 A 
ATOM     20  C   UNL A   1      36.465  21.356  24.760  1.00  0.00     0.002 A 
ATOM     21  C   UNL A   1      34.144  20.713  24.743  1.00  0.00     0.018 A 
ATOM     22  C   UNL A   1      35.473  20.423  25.053  1.00  0.00     0.016 A 
ATOM     23  Br  UNL A   1      32.801  19.440  25.128  1.00  0.00    -0.051 Br
ENDBRANCH  16  17
ENDBRANCH  13  15
ENDBRANCH  10  13
ENDBRANCH   4   7
ENDBRANCH   2   3
ENDBRANCH   1   2
BRANCH   1  24
ATOM     24  C   UNL A   1      31.650  32.058  26.743  1.00  0.00     0.023 C 
BRANCH  24  25
ATOM     25  C   UNL A   1      32.833  32.849  27.253  1.00  0.00     0.116 C 
BRANCH  25  26
ATOM     26  N   UNL A   1      32.491  34.205  27.665  1.00  0.00    -0.352 N 
ATOM     27  C   UNL A   1      33.042  34.951  28.680  1.00  0.00     0.251 C 
ATOM     28  H   UNL A   1      31.775  34.643  27.151  1.00  0.00     0.163 HD
ATOM     29  O   UNL A   1      32.588  36.043  28.985  1.00  0.00    -0.269 OA
BRANCH  27  30
ATOM     30  C   UNL A   1      34.180  34.374  29.420  1.00  0.00     0.039 A 
ATOM     31  C   UNL A   1      33.931  33.475  30.457  1.00  0.00     0.014 A 
ATOM     32  C   UNL A   1      35.484  34.646  29.000  1.00  0.00     0.014 A 
ATOM     33  C   UNL A   1      35.001  32.789  31.031  1.00  0.00     0.010 A 
ATOM     34  C   UNL A   1      36.526  33.877  29.487  1.00  0.00     0.010 A 
ATOM     35  C   UNL A   1      36.299  32.959  30.521  1.00  0.00    -0.014 A 
BRANCH  35  36
ATOM     36  C   UNL A   1      37.459  32.234  31.088  1.00  0.00     0.031 A 
ATOM     37  C   UNL A   1      37.949  32.607  32.460  1.00  0.00     0.074 A 
ATOM     38  C   UNL A   1      38.112  31.319  30.349  1.00  0.00     0.049 A 
ATOM     39  N   UNL A   1      39.012  32.196  33.102  1.00  0.00    -0.248 NA
ATOM     40  C   UNL A   1      37.164  33.619  33.187  1.00  0.00     0.031 C 
ATOM     41  C   UNL A   1      37.766  30.924  28.982  1.00  0.00     0.029 A 
ATOM     42  N   UNL A   1      39.216  30.561  30.643  1.00  0.00    -0.354 N 
ATOM     43  C   UNL A   1      39.037  32.923  34.283  1.00  0.00     0.074 A 
ATOM     44  C   UNL A   1      37.929  33.849  34.242  1.00  0.00     0.031 C 
ATOM     45  C   UNL A   1      38.620  29.974  28.569  1.00  0.00     0.029 A 
ATOM     46  C   UNL A   1      39.592  29.718  29.628  1.00  0.00     0.049 A 
ATOM     47  H   UNL A   1      39.694  30.617  31.502  1.00  0.00     0.167 HD
ATOM     48  C   UNL A   1      39.889  32.805  35.327  1.00  0.00     0.037 A 
ATOM     49  C   UNL A   1      40.607  28.835  29.567  1.00  0.00     0.037 A 
ATOM     50  C   UNL A   1      40.951  31.839  35.385  1.00  0.00     0.049 A 
ATOM     51  C   UNL A   1      41.510  28.684  30.761  1.00  0.00     0.074 A 
ATOM     52  C   UNL A   1      41.832  31.582  36.418  1.00  0.00     0.029 A 
ATOM     53  N   UNL A   1      41.264  30.957  34.359  1.00  0.00    -0.354 N 
ATOM     54  N   UNL A   1      41.490  29.333  31.902  1.00  0.00    -0.248 NA
ATOM     55  C   UNL A   1      42.570  27.672  30.666  1.00  0.00     0.031 C 
ATOM     56  C   UNL A   1      42.697  30.562  36.008  1.00  0.00     0.029 A 
ATOM     57  C   UNL A   1      42.329  30.157  34.735  1.00  0.00     0.049 A 
ATOM     58  H   UNL A   1      40.799  30.909  33.493  1.00  0.00     0.167 HD
ATOM     59  C   UNL A   1      42.510  28.787  32.670  1.00  0.00     0.074 A 
ATOM     60  C   UNL A   1      43.122  27.747  31.868  1.00  0.00     0.031 C 
ATOM     61  C   UNL A   1      42.905  29.115  33.924  1.00  0.00     0.037 A 
BRANCH  48  62
ATOM     62  C   UNL A   1      39.687  33.731  36.490  1.00  0.00     0.064 A 
ATOM     63  C   UNL A   1      40.302  34.993  36.542  1.00  0.00     0.173 A 
ATOM     64  C   UNL A   1      38.873  33.354  37.568  1.00  0.00     0.173 A 
ATOM     65  F   UNL A   1      41.106  35.392  35.546  1.00  0.00    -0.203 F 
ATOM     66  C   UNL A   1      40.139  35.825  37.646  1.00  0.00     0.198 A 
ATOM     67  C   UNL A   1      38.686  34.204  38.656  1.00  0.00     0.198 A 
ATOM     68  F   UNL A   1      38.262  32.160  37.569  1.00  0.00    -0.203 F 
ATOM     69  F   UNL A   1      40.788  36.996  37.700  1.00  0.00    -0.200 F 
ATOM     70  C   UNL A   1      39.326  35.433  38.699  1.00  0.00     0.200 A 
ATOM     71  F   UNL A   1      37.892  33.827  39.669  1.00  0.00    -0.200 F 
ATOM     72  F   UNL A   1      39.170  36.235  39.761  1.00  0.00    -0.200 F 
ENDBRANCH  48  62
BRANCH  49  73
ATOM     73  C   UNL A   1      40.786  27.990  28.360  1.00  0.00     0.064 A 
ATOM     74  C   UNL A   1      40.177  26.729  28.273  1.00  0.00     0.173 A 
ATOM     75  C   UNL A   1      41.558  28.417  27.271  1.00  0.00     0.173 A 
ATOM     76  F   UNL A   1      39.442  26.270  29.297  1.00  0.00    -0.203 F 
ATOM     77  C   UNL A   1      40.351  25.920  27.152  1.00  0.00     0.198 A 
ATOM     78  C   UNL A   1      41.711  27.618  26.140  1.00  0.00     0.198 A 
ATOM     79  F   UNL A   1      42.154  29.618  27.301  1.00  0.00    -0.203 F 
ATOM     80  F   UNL A   1      39.791  24.704  27.113  1.00  0.00    -0.200 F 
ATOM     81  C   UNL A   1      41.114  26.367  26.084  1.00  0.00     0.200 A 
ATOM     82  F   UNL A   1      42.438  28.059  25.103  1.00  0.00    -0.200 F 
ATOM     83  F   UNL A   1      41.277  25.591  25.004  1.00  0.00    -0.200 F 
ENDBRANCH  49  73
BRANCH  61  84
ATOM     84  C   UNL A   1      44.018  28.312  34.523  1.00  0.00     0.064 A 
ATOM     85  C   UNL A   1      45.352  28.736  34.454  1.00  0.00     0.173 A 
ATOM     86  C   UNL A   1      43.737  27.126  35.219  1.00  0.00     0.173 A 
ATOM     87  F   UNL A   1      45.670  29.856  33.788  1.00  0.00    -0.203 F 
ATOM     88  C   UNL A   1      46.370  27.989  35.041  1.00  0.00     0.198 A 
ATOM     89  C   UNL A   1      44.753  26.397  35.828  1.00  0.00     0.198 A 
ATOM     90  F   UNL A   1      42.475  26.684  35.319  1.00  0.00    -0.203 F 
ATOM     91  F   UNL A   1      47.643  28.391  34.927  1.00  0.00    -0.200 F 
ATOM     92  C   UNL A   1      46.069  26.825  35.734  1.00  0.00     0.200 A 
ATOM     93  F   UNL A   1      44.460  25.280  36.508  1.00  0.00    -0.200 F 
ATOM     94  F   UNL A   1      47.049  26.113  36.305  1.00  0.00    -0.200 F 
ENDBRANCH  61  84
ENDBRANCH  35  36
ENDBRANCH  27  30
ENDBRANCH  25  26
ENDBRANCH  24  25
ENDBRANCH   1  24
TORSDOF 14
ENDMDL
MODEL 3
REMARK VINA RESULT:     -13.2      1.481      2.734
REMARK SMILES C[C@@H]1[C@H](C(=O)NCCCCNC(=O)c2ccc(-c3c4nc(c(-c5c(F)c(F)c(F)c(F)c5F)c5ccc([nH]5)c(-c5c(F)c(F)c(F)c(F)c5F)c5nc(c(-c6c(F)c(F)c(F)c(F)c6F)c6ccc3[nH]6)C=C5)C=C4)cc2)CCN1C(=O)/C=C/c1cccc(Br)c1
REMARK SMILES IDX 8 1 7 2 6 3 4 4 5 5 3 7 1 8 2 9 79 10 77 11 78 12 80 13
REMARK SMILES IDX 81 14 82 15 83 16 84 17 85 18 90 19 86 20 88 21 87 22 89 23
REMARK SMILES IDX 9 24 10 25 11 26 12 27 13 29 14 30 15 31 76 32 16 33 75 34
REMARK SMILES IDX 17 35 18 36 19 37 69 38 20 39 74 40 68 41 70 42 21 43 73 44
REMARK SMILES IDX 67 45 66 46 22 48 54 49 34 50 53 51 35 52 38 53 52 54 71 55
REMARK SMILES IDX 36 56 37 57 51 59 72 60 39 61 23 62 24 63 32 64 25 65 26 66
REMARK SMILES IDX 30 67 33 68 27 69 28 70 31 71 29 72 55 73 56 74 64 75 57 76
REMARK SMILES IDX 58 77 62 78 65 79 59 80 60 81 63 82 61 83 40 84 41 85 49 86
REMARK SMILES IDX 42 87 43 88 47 89 50 90 44 91 45 92 48 93 46 94
REMARK H PARENT 6 6 11 28 70 47 38 58
REMARK Flexibility Score: inf
ROOT
ATOM      1  C   UNL A   1      32.253  30.471  26.507  1.00  0.00     0.023 C 
ENDROOT
BRANCH   1   2
ATOM      2  C   UNL A   1      31.511  29.821  25.333  1.00  0.00     0.116 C 
BRANCH   2   3
ATOM      3  N   UNL A   1      32.409  29.249  24.345  1.00  0.00    -0.356 N 
ATOM      4  C   UNL A   1      33.042  28.054  24.230  1.00  0.00     0.225 C 
ATOM      5  O   UNL A   1      33.767  27.933  23.234  1.00  0.00    -0.275 OA
ATOM      6  H   UNL A   1      32.599  29.860  23.597  1.00  0.00     0.163 HD
BRANCH   4   7
ATOM      7  C   UNL A   1      32.972  26.900  25.229  1.00  0.00     0.102 C 
ATOM      8  C   UNL A   1      31.230  25.706  23.768  1.00  0.00     0.032 C 
ATOM      9  C   UNL A   1      31.738  25.981  25.162  1.00  0.00     0.094 C 
ATOM     10  N   UNL A   1      32.163  24.740  25.819  1.00  0.00    -0.336 N 
ATOM     11  C   UNL A   1      34.163  25.961  25.367  1.00  0.00     0.037 C 
ATOM     12  C   UNL A   1      33.585  24.775  26.134  1.00  0.00     0.121 C 
BRANCH  10  13
ATOM     13  C   UNL A   1      31.417  23.624  26.151  1.00  0.00     0.246 C 
ATOM     14  O   UNL A   1      30.742  23.566  27.179  1.00  0.00    -0.270 OA
BRANCH  13  15
ATOM     15  C   UNL A   1      31.552  22.379  25.338  1.00  0.00     0.072 C 
ATOM     16  C   UNL A   1      32.590  21.529  25.373  1.00  0.00     0.014 C 
BRANCH  16  17
ATOM     17  C   UNL A   1      32.588  20.246  24.659  1.00  0.00    -0.024 A 
ATOM     18  C   UNL A   1      32.361  20.196  23.274  1.00  0.00     0.008 A 
ATOM     19  C   UNL A   1      32.761  19.054  25.362  1.00  0.00     0.023 A 
ATOM     20  C   UNL A   1      32.291  18.972  22.603  1.00  0.00     0.002 A 
ATOM     21  C   UNL A   1      32.681  17.833  24.689  1.00  0.00     0.018 A 
ATOM     22  C   UNL A   1      32.443  17.785  23.315  1.00  0.00     0.016 A 
ATOM     23  Br  UNL A   1      32.872  16.219  25.655  1.00  0.00    -0.051 Br
ENDBRANCH  16  17
ENDBRANCH  13  15
ENDBRANCH  10  13
ENDBRANCH   4   7
ENDBRANCH   2   3
ENDBRANCH   1   2
BRANCH   1  24
ATOM     24  C   UNL A   1      31.820  31.877  26.872  1.00  0.00     0.023 C 
BRANCH  24  25
ATOM     25  C   UNL A   1      32.923  32.723  27.469  1.00  0.00     0.116 C 
BRANCH  25  26
ATOM     26  N   UNL A   1      32.532  34.107  27.701  1.00  0.00    -0.352 N 
ATOM     27  C   UNL A   1      33.039  34.991  28.625  1.00  0.00     0.251 C 
ATOM     28  H   UNL A   1      31.814  34.454  27.124  1.00  0.00     0.163 HD
ATOM     29  O   UNL A   1      32.545  36.097  28.783  1.00  0.00    -0.269 OA
BRANCH  27  30
ATOM     30  C   UNL A   1      34.178  34.549  29.450  1.00  0.00     0.039 A 
ATOM     31  C   UNL A   1      33.930  33.956  30.689  1.00  0.00     0.014 A 
ATOM     32  C   UNL A   1      35.473  34.624  28.934  1.00  0.00     0.014 A 
ATOM     33  C   UNL A   1      34.988  33.371  31.384  1.00  0.00     0.010 A 
ATOM     34  C   UNL A   1      36.495  33.938  29.567  1.00  0.00     0.010 A 
ATOM     35  C   UNL A   1      36.267  33.325  30.807  1.00  0.00    -0.014 A 
BRANCH  35  36
ATOM     36  C   UNL A   1      37.413  32.694  31.502  1.00  0.00     0.031 A 
ATOM     37  C   UNL A   1      38.141  31.565  30.827  1.00  0.00     0.074 A 
ATOM     38  C   UNL A   1      37.738  33.074  32.752  1.00  0.00     0.049 A 
ATOM     39  N   UNL A   1      39.086  30.791  31.293  1.00  0.00    -0.248 NA
ATOM     40  C   UNL A   1      37.709  31.227  29.460  1.00  0.00     0.031 C 
ATOM     41  C   UNL A   1      37.061  34.114  33.529  1.00  0.00     0.029 A 
ATOM     42  N   UNL A   1      38.719  32.616  33.594  1.00  0.00    -0.354 N 
ATOM     43  C   UNL A   1      39.332  29.861  30.293  1.00  0.00     0.074 A 
ATOM     44  C   UNL A   1      38.393  30.119  29.226  1.00  0.00     0.031 C 
ATOM     45  C   UNL A   1      37.667  34.237  34.721  1.00  0.00     0.029 A 
ATOM     46  C   UNL A   1      38.752  33.263  34.803  1.00  0.00     0.049 A 
ATOM     47  H   UNL A   1      39.340  31.891  33.353  1.00  0.00     0.167 HD
ATOM     48  C   UNL A   1      40.281  28.897  30.253  1.00  0.00     0.037 A 
ATOM     49  C   UNL A   1      39.573  33.088  35.856  1.00  0.00     0.037 A 
ATOM     50  C   UNL A   1      41.249  28.688  31.293  1.00  0.00     0.049 A 
ATOM     51  C   UNL A   1      40.654  32.045  35.767  1.00  0.00     0.074 A 
ATOM     52  C   UNL A   1      42.299  27.789  31.330  1.00  0.00     0.029 A 
ATOM     53  N   UNL A   1      41.290  29.405  32.481  1.00  0.00    -0.354 N 
ATOM     54  N   UNL A   1      40.920  31.209  34.791  1.00  0.00    -0.248 NA
ATOM     55  C   UNL A   1      41.556  31.928  36.920  1.00  0.00     0.031 C 
ATOM     56  C   UNL A   1      42.960  27.943  32.554  1.00  0.00     0.029 A 
ATOM     57  C   UNL A   1      42.346  28.965  33.260  1.00  0.00     0.049 A 
ATOM     58  H   UNL A   1      40.661  30.119  32.732  1.00  0.00     0.167 HD
ATOM     59  C   UNL A   1      42.037  30.491  35.198  1.00  0.00     0.074 A 
ATOM     60  C   UNL A   1      42.404  30.996  36.505  1.00  0.00     0.031 C 
ATOM     61  C   UNL A   1      42.700  29.502  34.549  1.00  0.00     0.037 A 
BRANCH  48  62
ATOM     62  C   UNL A   1      40.321  28.020  29.037  1.00  0.00     0.064 A 
ATOM     63  C   UNL A   1      41.063  28.372  27.899  1.00  0.00     0.173 A 
ATOM     64  C   UNL A   1      39.607  26.813  29.006  1.00  0.00     0.173 A 
ATOM     65  F   UNL A   1      41.747  29.526  27.870  1.00  0.00    -0.203 F 
ATOM     66  C   UNL A   1      41.059  27.569  26.762  1.00  0.00     0.198 A 
ATOM     67  C   UNL A   1      39.632  25.995  27.878  1.00  0.00     0.198 A 
ATOM     68  F   UNL A   1      38.881  26.428  30.066  1.00  0.00    -0.203 F 
ATOM     69  F   UNL A   1      41.723  27.959  25.665  1.00  0.00    -0.200 F 
ATOM     70  C   UNL A   1      40.348  26.378  26.755  1.00  0.00     0.200 A 
ATOM     71  F   UNL A   1      38.952  24.839  27.876  1.00  0.00    -0.200 F 
ATOM     72  F   UNL A   1      40.345  25.605  25.659  1.00  0.00    -0.200 F 
ENDBRANCH  48  62
BRANCH  49  73
ATOM     73  C   UNL A   1      39.440  33.953  37.055  1.00  0.00     0.064 A 
ATOM     74  C   UNL A   1      40.033  35.224  37.088  1.00  0.00     0.173 A 
ATOM     75  C   UNL A   1      38.720  33.540  38.184  1.00  0.00     0.173 A 
ATOM     76  F   UNL A   1      40.746  35.657  36.037  1.00  0.00    -0.203 F 
ATOM     77  C   UNL A   1      39.929  36.039  38.213  1.00  0.00     0.198 A 
ATOM     78  C   UNL A   1      38.596  34.366  39.300  1.00  0.00     0.198 A 
ATOM     79  F   UNL A   1      38.127  32.338  38.199  1.00  0.00    -0.203 F 
ATOM     80  F   UNL A   1      40.541  37.231  38.233  1.00  0.00    -0.200 F 
ATOM     81  C   UNL A   1      39.207  35.611  39.317  1.00  0.00     0.200 A 
ATOM     82  F   UNL A   1      37.885  33.956  40.359  1.00  0.00    -0.200 F 
ATOM     83  F   UNL A   1      39.103  36.397  40.397  1.00  0.00    -0.200 F 
ENDBRANCH  49  73
BRANCH  61  84
ATOM     84  C   UNL A   1      43.914  28.937  35.221  1.00  0.00     0.064 A 
ATOM     85  C   UNL A   1      45.192  29.466  34.995  1.00  0.00     0.173 A 
ATOM     86  C   UNL A   1      43.787  27.885  36.140  1.00  0.00     0.173 A 
ATOM     87  F   UNL A   1      45.365  30.464  34.115  1.00  0.00    -0.203 F 
ATOM     88  C   UNL A   1      46.305  28.946  35.650  1.00  0.00     0.198 A 
ATOM     89  C   UNL A   1      44.897  27.386  36.813  1.00  0.00     0.198 A 
ATOM     90  F   UNL A   1      42.583  27.352  36.395  1.00  0.00    -0.203 F 
ATOM     91  F   UNL A   1      47.524  29.438  35.388  1.00  0.00    -0.200 F 
ATOM     92  C   UNL A   1      46.156  27.912  36.563  1.00  0.00     0.200 A 
ATOM     93  F   UNL A   1      44.750  26.396  37.704  1.00  0.00    -0.200 F 
ATOM     94  F   UNL A   1      47.228  27.419  37.198  1.00  0.00    -0.200 F 
ENDBRANCH  61  84
ENDBRANCH  35  36
ENDBRANCH  27  30
ENDBRANCH  25  26
ENDBRANCH  24  25
ENDBRANCH   1  24
TORSDOF 14
ENDMDL
