MODEL 1
REMARK VINA RESULT:     -14.9      0.000      0.000
REMARK SMILES Cc1ccccc1C(=O)Nc1ccc(N2CCCCC2)cc1C(=O)NCCCCNC(=O)c1ccc(-c2c3nc(c(-c4c(F)c(F)c(F)c(F)c4F)c4ccc([nH]4)c(-c4c(F)c(F)c(F)c(F)c4F)c4nc(c(-c5c(F)c(F)c(F)c(F)c5F)c5ccc2[nH]5)C=C4)C=C3)cc1
REMARK SMILES IDX 27 1 26 2 25 3 23 4 24 5 22 7 11 8 12 9 13 10 21 11 14 12
REMARK SMILES IDX 10 13 8 14 9 15 7 17 1 18 2 19 3 20 4 21 6 22 5 23 15 24
REMARK SMILES IDX 16 25 20 26 17 27 19 28 18 29 28 30 29 31 30 32 31 33 32 35
REMARK SMILES IDX 33 36 34 37 95 38 35 39 94 40 36 41 37 42 38 43 88 44 39 45
REMARK SMILES IDX 93 46 87 47 89 48 40 49 92 50 86 51 85 52 41 54 73 55 53 56
REMARK SMILES IDX 72 57 54 58 57 59 71 60 90 61 55 62 56 63 70 65 91 66 58 67
REMARK SMILES IDX 42 68 43 69 51 70 44 71 45 72 49 73 52 74 46 75 47 76 50 77
REMARK SMILES IDX 48 78 74 79 75 80 83 81 76 82 77 83 81 84 84 85 78 86 79 87
REMARK SMILES IDX 82 88 80 89 59 90 60 91 68 92 61 93 62 94 66 95 69 96 63 97
REMARK SMILES IDX 64 98 67 99 65 100
REMARK H PARENT 25 6 10 16 30 34 89 53 57 64
REMARK Flexibility Score: inf
ROOT
ATOM      1  C   UNL A   1      37.403  21.416  24.625  1.00  0.00     0.023 C 
ENDROOT
BRANCH   1   2
ATOM      2  C   UNL A   1      36.953  22.815  24.212  1.00  0.00     0.116 C 
BRANCH   2   3
ATOM      3  N   UNL A   1      35.991  23.460  25.102  1.00  0.00    -0.352 N 
ATOM      4  C   UNL A   1      34.626  23.314  25.269  1.00  0.00     0.253 C 
ATOM      5  O   UNL A   1      34.083  23.939  26.176  1.00  0.00    -0.269 OA
ATOM      6  H   UNL A   1      36.393  24.130  25.702  1.00  0.00     0.163 HD
BRANCH   4   7
ATOM      7  C   UNL A   1      33.819  22.429  24.392  1.00  0.00     0.065 A 
ATOM      8  C   UNL A   1      33.352  22.817  23.123  1.00  0.00     0.054 A 
ATOM      9  C   UNL A   1      32.541  21.927  22.401  1.00  0.00     0.029 A 
ATOM     10  C   UNL A   1      32.363  20.620  22.839  1.00  0.00     0.028 A 
ATOM     11  C   UNL A   1      33.441  21.171  24.894  1.00  0.00     0.042 A 
ATOM     12  C   UNL A   1      32.859  20.205  24.073  1.00  0.00     0.038 A 
BRANCH   8  13
ATOM     13  N   UNL A   1      33.621  24.003  22.423  1.00  0.00    -0.321 N 
ATOM     14  C   UNL A   1      33.210  25.302  22.552  1.00  0.00     0.255 C 
ATOM     15  O   UNL A   1      33.545  26.093  21.663  1.00  0.00    -0.269 OA
ATOM     16  H   UNL A   1      34.245  23.871  21.672  1.00  0.00     0.170 HD
BRANCH  14  17
ATOM     17  C   UNL A   1      32.520  25.863  23.744  1.00  0.00     0.043 A 
ATOM     18  C   UNL A   1      30.295  24.575  23.498  1.00  0.00     0.045 C 
ATOM     19  C   UNL A   1      31.234  25.509  24.203  1.00  0.00    -0.038 A 
ATOM     20  C   UNL A   1      30.785  26.047  25.427  1.00  0.00     0.004 A 
ATOM     21  C   UNL A   1      31.602  26.865  26.208  1.00  0.00     0.000 A 
ATOM     22  C   UNL A   1      33.337  26.673  24.558  1.00  0.00     0.014 A 
ATOM     23  C   UNL A   1      32.886  27.169  25.780  1.00  0.00     0.001 A 
ENDBRANCH  14  17
ENDBRANCH   8  13
BRANCH  12  24
ATOM     24  N   UNL A   1      32.866  18.850  24.386  1.00  0.00    -0.372 N 
ATOM     25  C   UNL A   1      33.785  18.057  23.550  1.00  0.00     0.116 C 
ATOM     26  C   UNL A   1      32.769  18.413  25.779  1.00  0.00     0.116 C 
ATOM     27  C   UNL A   1      33.343  16.598  23.543  1.00  0.00     0.021 C 
ATOM     28  C   UNL A   1      32.284  16.964  25.804  1.00  0.00     0.021 C 
ATOM     29  C   UNL A   1      33.180  16.056  24.961  1.00  0.00     0.004 C 
ENDBRANCH  12  24
ENDBRANCH   4   7
ENDBRANCH   2   3
ENDBRANCH   1   2
BRANCH   1  30
ATOM     30  C   UNL A   1      38.626  21.340  25.527  1.00  0.00     0.023 C 
BRANCH  30  31
ATOM     31  C   UNL A   1      39.028  22.669  26.149  1.00  0.00     0.116 C 
BRANCH  31  32
ATOM     32  N   UNL A   1      40.467  22.833  26.345  1.00  0.00    -0.352 N 
ATOM     33  C   UNL A   1      41.171  23.990  26.651  1.00  0.00     0.251 C 
ATOM     34  H   UNL A   1      41.008  22.017  26.248  1.00  0.00     0.163 HD
ATOM     35  O   UNL A   1      42.377  23.970  26.820  1.00  0.00    -0.269 OA
BRANCH  33  36
ATOM     36  C   UNL A   1      40.399  25.233  26.895  1.00  0.00     0.039 A 
ATOM     37  C   UNL A   1      40.782  26.392  26.213  1.00  0.00     0.014 A 
ATOM     38  C   UNL A   1      39.518  25.299  27.969  1.00  0.00     0.014 A 
ATOM     39  C   UNL A   1      40.502  27.631  26.783  1.00  0.00     0.010 A 
ATOM     40  C   UNL A   1      39.342  26.516  28.595  1.00  0.00     0.010 A 
ATOM     41  C   UNL A   1      39.905  27.673  28.042  1.00  0.00    -0.014 A 
BRANCH  41  42
ATOM     42  C   UNL A   1      39.960  28.845  28.913  1.00  0.00     0.031 A 
ATOM     43  C   UNL A   1      38.925  29.896  28.839  1.00  0.00     0.074 A 
ATOM     44  C   UNL A   1      40.909  28.908  29.876  1.00  0.00     0.049 A 
ATOM     45  N   UNL A   1      39.051  31.079  29.337  1.00  0.00    -0.248 NA
ATOM     46  C   UNL A   1      37.659  29.698  28.147  1.00  0.00     0.031 C 
ATOM     47  C   UNL A   1      40.963  29.822  31.015  1.00  0.00     0.029 A 
ATOM     48  N   UNL A   1      42.164  28.271  29.887  1.00  0.00    -0.354 N 
ATOM     49  C   UNL A   1      37.828  31.704  29.269  1.00  0.00     0.074 A 
ATOM     50  C   UNL A   1      37.008  30.818  28.476  1.00  0.00     0.031 C 
ATOM     51  C   UNL A   1      42.240  29.948  31.404  1.00  0.00     0.029 A 
ATOM     52  C   UNL A   1      43.052  29.229  30.441  1.00  0.00     0.049 A 
ATOM     53  H   UNL A   1      42.380  27.361  29.579  1.00  0.00     0.167 HD
ATOM     54  C   UNL A   1      37.628  32.852  29.984  1.00  0.00     0.037 A 
ATOM     55  C   UNL A   1      44.051  29.774  29.686  1.00  0.00     0.037 A 
ATOM     56  C   UNL A   1      38.868  33.318  30.607  1.00  0.00     0.049 A 
ATOM     57  C   UNL A   1      43.970  31.278  29.510  1.00  0.00     0.074 A 
ATOM     58  C   UNL A   1      39.407  33.258  31.882  1.00  0.00     0.029 A 
ATOM     59  N   UNL A   1      39.899  33.729  29.782  1.00  0.00    -0.354 N 
ATOM     60  N   UNL A   1      42.995  32.022  29.952  1.00  0.00    -0.248 NA
ATOM     61  C   UNL A   1      44.939  32.044  28.724  1.00  0.00     0.031 C 
ATOM     62  C   UNL A   1      40.779  33.640  31.806  1.00  0.00     0.029 A 
ATOM     63  C   UNL A   1      41.069  33.927  30.487  1.00  0.00     0.049 A 
ATOM     64  H   UNL A   1      39.810  33.863  28.810  1.00  0.00     0.167 HD
ATOM     65  C   UNL A   1      43.162  33.304  29.502  1.00  0.00     0.074 A 
ATOM     66  C   UNL A   1      44.391  33.270  28.734  1.00  0.00     0.031 C 
ATOM     67  C   UNL A   1      42.266  34.300  29.756  1.00  0.00     0.037 A 
BRANCH  54  68
ATOM     68  C   UNL A   1      36.269  33.443  30.295  1.00  0.00     0.064 A 
ATOM     69  C   UNL A   1      35.474  34.002  29.269  1.00  0.00     0.173 A 
ATOM     70  C   UNL A   1      35.710  33.543  31.582  1.00  0.00     0.173 A 
ATOM     71  F   UNL A   1      35.809  33.882  27.978  1.00  0.00    -0.203 F 
ATOM     72  C   UNL A   1      34.296  34.709  29.529  1.00  0.00     0.198 A 
ATOM     73  C   UNL A   1      34.566  34.302  31.851  1.00  0.00     0.198 A 
ATOM     74  F   UNL A   1      36.205  32.851  32.614  1.00  0.00    -0.203 F 
ATOM     75  F   UNL A   1      33.589  35.219  28.511  1.00  0.00    -0.200 F 
ATOM     76  C   UNL A   1      33.865  34.897  30.824  1.00  0.00     0.200 A 
ATOM     77  F   UNL A   1      34.146  34.443  33.117  1.00  0.00    -0.200 F 
ATOM     78  F   UNL A   1      32.765  35.617  31.079  1.00  0.00    -0.200 F 
ENDBRANCH  54  68
BRANCH  55  79
ATOM     79  C   UNL A   1      44.598  28.825  28.681  1.00  0.00     0.064 A 
ATOM     80  C   UNL A   1      45.411  27.763  29.131  1.00  0.00     0.173 A 
ATOM     81  C   UNL A   1      44.063  28.728  27.393  1.00  0.00     0.173 A 
ATOM     82  F   UNL A   1      45.948  27.801  30.361  1.00  0.00    -0.203 F 
ATOM     83  C   UNL A   1      45.573  26.606  28.375  1.00  0.00     0.198 A 
ATOM     84  C   UNL A   1      44.249  27.575  26.627  1.00  0.00     0.198 A 
ATOM     85  F   UNL A   1      43.262  29.690  26.915  1.00  0.00    -0.203 F 
ATOM     86  F   UNL A   1      46.247  25.565  28.886  1.00  0.00    -0.200 F 
ATOM     87  C   UNL A   1      44.970  26.503  27.133  1.00  0.00     0.200 A 
ATOM     88  F   UNL A   1      43.639  27.463  25.439  1.00  0.00    -0.200 F 
ATOM     89  F   UNL A   1      45.045  25.357  26.444  1.00  0.00    -0.200 F 
ENDBRANCH  55  79
BRANCH  67  90
ATOM     90  C   UNL A   1      42.455  35.719  29.307  1.00  0.00     0.064 A 
ATOM     91  C   UNL A   1      41.892  36.209  28.119  1.00  0.00     0.173 A 
ATOM     92  C   UNL A   1      43.311  36.600  30.001  1.00  0.00     0.173 A 
ATOM     93  F   UNL A   1      41.114  35.427  27.355  1.00  0.00    -0.203 F 
ATOM     94  C   UNL A   1      42.129  37.513  27.679  1.00  0.00     0.198 A 
ATOM     95  C   UNL A   1      43.587  37.884  29.533  1.00  0.00     0.198 A 
ATOM     96  F   UNL A   1      43.880  36.250  31.162  1.00  0.00    -0.203 F 
ATOM     97  F   UNL A   1      41.528  37.960  26.567  1.00  0.00    -0.200 F 
ATOM     98  C   UNL A   1      42.985  38.345  28.379  1.00  0.00     0.200 A 
ATOM     99  F   UNL A   1      44.434  38.671  30.211  1.00  0.00    -0.200 F 
ATOM    100  F   UNL A   1      43.227  39.589  27.946  1.00  0.00    -0.200 F 
ENDBRANCH  67  90
ENDBRANCH  41  42
ENDBRANCH  33  36
ENDBRANCH  31  32
ENDBRANCH  30  31
ENDBRANCH   1  30
TORSDOF 14
ENDMDL
MODEL 2
REMARK VINA RESULT:     -14.8      3.916     10.326
REMARK SMILES Cc1ccccc1C(=O)Nc1ccc(N2CCCCC2)cc1C(=O)NCCCCNC(=O)c1ccc(-c2c3nc(c(-c4c(F)c(F)c(F)c(F)c4F)c4ccc([nH]4)c(-c4c(F)c(F)c(F)c(F)c4F)c4nc(c(-c5c(F)c(F)c(F)c(F)c5F)c5ccc2[nH]5)C=C4)C=C3)cc1
REMARK SMILES IDX 27 1 26 2 25 3 23 4 24 5 22 7 11 8 12 9 13 10 21 11 14 12
REMARK SMILES IDX 10 13 8 14 9 15 7 17 1 18 2 19 3 20 4 21 6 22 5 23 15 24
REMARK SMILES IDX 16 25 20 26 17 27 19 28 18 29 28 30 29 31 30 32 31 33 32 35
REMARK SMILES IDX 33 36 34 37 95 38 35 39 94 40 36 41 37 42 38 43 88 44 39 45
REMARK SMILES IDX 93 46 87 47 89 48 40 49 92 50 86 51 85 52 41 54 73 55 53 56
REMARK SMILES IDX 72 57 54 58 57 59 71 60 90 61 55 62 56 63 70 65 91 66 58 67
REMARK SMILES IDX 42 68 43 69 51 70 44 71 45 72 49 73 52 74 46 75 47 76 50 77
REMARK SMILES IDX 48 78 74 79 75 80 83 81 76 82 77 83 81 84 84 85 78 86 79 87
REMARK SMILES IDX 82 88 80 89 59 90 60 91 68 92 61 93 62 94 66 95 69 96 63 97
REMARK SMILES IDX 64 98 67 99 65 100
REMARK H PARENT 25 6 10 16 30 34 89 53 57 64
REMARK Flexibility Score: inf
ROOT
ATOM      1  C   UNL A   1      32.002  30.085  27.016  1.00  0.00     0.023 C 
ENDROOT
BRANCH   1   2
ATOM      2  C   UNL A   1      32.401  28.747  27.634  1.00  0.00     0.116 C 
BRANCH   2   3
ATOM      3  N   UNL A   1      33.322  27.934  26.845  1.00  0.00    -0.352 N 
ATOM      4  C   UNL A   1      33.137  27.095  25.762  1.00  0.00     0.253 C 
ATOM      5  O   UNL A   1      34.131  26.600  25.235  1.00  0.00    -0.269 OA
ATOM      6  H   UNL A   1      34.259  27.995  27.142  1.00  0.00     0.163 HD
BRANCH   4   7
ATOM      7  C   UNL A   1      31.786  26.789  25.229  1.00  0.00     0.065 A 
ATOM      8  C   UNL A   1      31.041  25.661  25.615  1.00  0.00     0.054 A 
ATOM      9  C   UNL A   1      29.800  25.429  25.001  1.00  0.00     0.029 A 
ATOM     10  C   UNL A   1      29.229  26.391  24.175  1.00  0.00     0.028 A 
ATOM     11  C   UNL A   1      31.265  27.631  24.230  1.00  0.00     0.042 A 
ATOM     12  C   UNL A   1      29.936  27.538  23.820  1.00  0.00     0.038 A 
BRANCH   8  13
ATOM     13  N   UNL A   1      31.351  24.708  26.598  1.00  0.00    -0.321 N 
ATOM     14  C   UNL A   1      32.189  23.626  26.648  1.00  0.00     0.255 C 
ATOM     15  O   UNL A   1      32.122  22.905  27.649  1.00  0.00    -0.269 OA
ATOM     16  H   UNL A   1      30.858  24.850  27.438  1.00  0.00     0.170 HD
BRANCH  14  17
ATOM     17  C   UNL A   1      33.266  23.337  25.664  1.00  0.00     0.043 A 
ATOM     18  C   UNL A   1      31.756  22.741  23.655  1.00  0.00     0.045 C 
ATOM     19  C   UNL A   1      33.084  22.987  24.310  1.00  0.00    -0.038 A 
ATOM     20  C   UNL A   1      34.223  22.873  23.486  1.00  0.00     0.004 A 
ATOM     21  C   UNL A   1      35.502  23.154  23.965  1.00  0.00     0.000 A 
ATOM     22  C   UNL A   1      34.564  23.638  26.123  1.00  0.00     0.014 A 
ATOM     23  C   UNL A   1      35.673  23.551  25.283  1.00  0.00     0.001 A 
ENDBRANCH  14  17
ENDBRANCH   8  13
BRANCH  12  24
ATOM     24  N   UNL A   1      29.270  28.581  23.184  1.00  0.00    -0.372 N 
ATOM     25  C   UNL A   1      29.988  29.110  22.011  1.00  0.00     0.116 C 
ATOM     26  C   UNL A   1      27.813  28.557  23.055  1.00  0.00     0.116 C 
ATOM     27  C   UNL A   1      29.531  30.536  21.729  1.00  0.00     0.021 C 
ATOM     28  C   UNL A   1      27.321  29.984  22.816  1.00  0.00     0.021 C 
ATOM     29  C   UNL A   1      28.011  30.623  21.610  1.00  0.00     0.004 C 
ENDBRANCH  12  24
ENDBRANCH   4   7
ENDBRANCH   2   3
ENDBRANCH   1   2
BRANCH   1  30
ATOM     30  C   UNL A   1      32.947  31.251  27.264  1.00  0.00     0.023 C 
BRANCH  30  31
ATOM     31  C   UNL A   1      34.371  30.840  27.605  1.00  0.00     0.116 C 
BRANCH  31  32
ATOM     32  N   UNL A   1      34.967  31.588  28.710  1.00  0.00    -0.352 N 
ATOM     33  C   UNL A   1      36.018  31.216  29.539  1.00  0.00     0.251 C 
ATOM     34  H   UNL A   1      34.572  32.471  28.892  1.00  0.00     0.163 HD
ATOM     35  O   UNL A   1      36.434  31.962  30.406  1.00  0.00    -0.269 OA
BRANCH  33  36
ATOM     36  C   UNL A   1      36.708  29.934  29.257  1.00  0.00     0.039 A 
ATOM     37  C   UNL A   1      36.974  29.077  30.330  1.00  0.00     0.014 A 
ATOM     38  C   UNL A   1      37.314  29.732  28.021  1.00  0.00     0.014 A 
ATOM     39  C   UNL A   1      38.050  28.199  30.239  1.00  0.00     0.010 A 
ATOM     40  C   UNL A   1      38.449  28.950  27.970  1.00  0.00     0.010 A 
ATOM     41  C   UNL A   1      38.863  28.246  29.107  1.00  0.00    -0.014 A 
BRANCH  41  42
ATOM     42  C   UNL A   1      40.225  27.717  29.080  1.00  0.00     0.031 A 
ATOM     43  C   UNL A   1      40.489  26.320  28.677  1.00  0.00     0.074 A 
ATOM     44  C   UNL A   1      41.263  28.552  29.316  1.00  0.00     0.049 A 
ATOM     45  N   UNL A   1      41.591  25.692  28.909  1.00  0.00    -0.248 NA
ATOM     46  C   UNL A   1      39.493  25.499  28.004  1.00  0.00     0.031 C 
ATOM     47  C   UNL A   1      42.680  28.308  29.056  1.00  0.00     0.029 A 
ATOM     48  N   UNL A   1      41.251  29.745  30.063  1.00  0.00    -0.354 N 
ATOM     49  C   UNL A   1      41.562  24.505  28.213  1.00  0.00     0.074 A 
ATOM     50  C   UNL A   1      40.212  24.414  27.705  1.00  0.00     0.031 C 
ATOM     51  C   UNL A   1      43.406  29.081  29.876  1.00  0.00     0.029 A 
ATOM     52  C   UNL A   1      42.477  29.739  30.777  1.00  0.00     0.049 A 
ATOM     53  H   UNL A   1      40.548  30.433  30.086  1.00  0.00     0.167 HD
ATOM     54  C   UNL A   1      42.719  23.794  28.065  1.00  0.00     0.037 A 
ATOM     55  C   UNL A   1      42.493  29.639  32.139  1.00  0.00     0.037 A 
ATOM     56  C   UNL A   1      43.811  24.377  28.846  1.00  0.00     0.049 A 
ATOM     57  C   UNL A   1      43.207  28.416  32.681  1.00  0.00     0.074 A 
ATOM     58  C   UNL A   1      44.903  25.179  28.556  1.00  0.00     0.029 A 
ATOM     59  N   UNL A   1      43.704  24.370  30.224  1.00  0.00    -0.354 N 
ATOM     60  N   UNL A   1      43.706  27.464  31.943  1.00  0.00    -0.248 NA
ATOM     61  C   UNL A   1      43.318  28.125  34.112  1.00  0.00     0.031 C 
ATOM     62  C   UNL A   1      45.447  25.653  29.786  1.00  0.00     0.029 A 
ATOM     63  C   UNL A   1      44.684  25.140  30.817  1.00  0.00     0.049 A 
ATOM     64  H   UNL A   1      43.012  23.877  30.723  1.00  0.00     0.167 HD
ATOM     65  C   UNL A   1      44.151  26.451  32.750  1.00  0.00     0.074 A 
ATOM     66  C   UNL A   1      43.885  26.907  34.100  1.00  0.00     0.031 C 
ATOM     67  C   UNL A   1      44.673  25.290  32.260  1.00  0.00     0.037 A 
BRANCH  54  68
ATOM     68  C   UNL A   1      42.921  22.689  27.049  1.00  0.00     0.064 A 
ATOM     69  C   UNL A   1      42.258  21.449  27.190  1.00  0.00     0.173 A 
ATOM     70  C   UNL A   1      43.792  22.759  25.946  1.00  0.00     0.173 A 
ATOM     71  F   UNL A   1      41.310  21.263  28.117  1.00  0.00    -0.203 F 
ATOM     72  C   UNL A   1      42.543  20.345  26.380  1.00  0.00     0.198 A 
ATOM     73  C   UNL A   1      44.125  21.640  25.174  1.00  0.00     0.198 A 
ATOM     74  F   UNL A   1      44.297  23.925  25.528  1.00  0.00    -0.203 F 
ATOM     75  F   UNL A   1      41.881  19.196  26.567  1.00  0.00    -0.200 F 
ATOM     76  C   UNL A   1      43.508  20.428  25.400  1.00  0.00     0.200 A 
ATOM     77  F   UNL A   1      45.043  21.752  24.203  1.00  0.00    -0.200 F 
ATOM     78  F   UNL A   1      43.819  19.358  24.656  1.00  0.00    -0.200 F 
ENDBRANCH  54  68
BRANCH  55  79
ATOM     79  C   UNL A   1      41.325  30.300  32.778  1.00  0.00     0.064 A 
ATOM     80  C   UNL A   1      41.280  31.709  32.804  1.00  0.00     0.173 A 
ATOM     81  C   UNL A   1      40.133  29.611  33.024  1.00  0.00     0.173 A 
ATOM     82  F   UNL A   1      42.394  32.423  32.570  1.00  0.00    -0.203 F 
ATOM     83  C   UNL A   1      40.076  32.393  32.943  1.00  0.00     0.198 A 
ATOM     84  C   UNL A   1      38.930  30.302  33.187  1.00  0.00     0.198 A 
ATOM     85  F   UNL A   1      40.102  28.272  32.989  1.00  0.00    -0.203 F 
ATOM     86  F   UNL A   1      40.052  33.730  32.835  1.00  0.00    -0.200 F 
ATOM     87  C   UNL A   1      38.897  31.686  33.109  1.00  0.00     0.200 A 
ATOM     88  F   UNL A   1      37.786  29.617  33.317  1.00  0.00    -0.200 F 
ATOM     89  F   UNL A   1      37.725  32.335  33.147  1.00  0.00    -0.200 F 
ENDBRANCH  55  79
BRANCH  67  90
ATOM     90  C   UNL A   1      45.204  24.189  33.129  1.00  0.00     0.064 A 
ATOM     91  C   UNL A   1      44.410  23.102  33.528  1.00  0.00     0.173 A 
ATOM     92  C   UNL A   1      46.498  24.253  33.687  1.00  0.00     0.173 A 
ATOM     93  F   UNL A   1      43.143  22.985  33.102  1.00  0.00    -0.203 F 
ATOM     94  C   UNL A   1      44.897  22.118  34.390  1.00  0.00     0.198 A 
ATOM     95  C   UNL A   1      46.963  23.297  34.587  1.00  0.00     0.198 A 
ATOM     96  F   UNL A   1      47.354  25.230  33.354  1.00  0.00    -0.203 F 
ATOM     97  F   UNL A   1      44.125  21.068  34.704  1.00  0.00    -0.200 F 
ATOM     98  C   UNL A   1      46.168  22.221  34.928  1.00  0.00     0.200 A 
ATOM     99  F   UNL A   1      48.189  23.421  35.115  1.00  0.00    -0.200 F 
ATOM    100  F   UNL A   1      46.626  21.286  35.770  1.00  0.00    -0.200 F 
ENDBRANCH  67  90
ENDBRANCH  41  42
ENDBRANCH  33  36
ENDBRANCH  31  32
ENDBRANCH  30  31
ENDBRANCH   1  30
TORSDOF 14
ENDMDL
MODEL 3
REMARK VINA RESULT:     -14.3      3.966      9.655
REMARK SMILES Cc1ccccc1C(=O)Nc1ccc(N2CCCCC2)cc1C(=O)NCCCCNC(=O)c1ccc(-c2c3nc(c(-c4c(F)c(F)c(F)c(F)c4F)c4ccc([nH]4)c(-c4c(F)c(F)c(F)c(F)c4F)c4nc(c(-c5c(F)c(F)c(F)c(F)c5F)c5ccc2[nH]5)C=C4)C=C3)cc1
REMARK SMILES IDX 27 1 26 2 25 3 23 4 24 5 22 7 11 8 12 9 13 10 21 11 14 12
REMARK SMILES IDX 10 13 8 14 9 15 7 17 1 18 2 19 3 20 4 21 6 22 5 23 15 24
REMARK SMILES IDX 16 25 20 26 17 27 19 28 18 29 28 30 29 31 30 32 31 33 32 35
REMARK SMILES IDX 33 36 34 37 95 38 35 39 94 40 36 41 37 42 38 43 88 44 39 45
REMARK SMILES IDX 93 46 87 47 89 48 40 49 92 50 86 51 85 52 41 54 73 55 53 56
REMARK SMILES IDX 72 57 54 58 57 59 71 60 90 61 55 62 56 63 70 65 91 66 58 67
REMARK SMILES IDX 42 68 43 69 51 70 44 71 45 72 49 73 52 74 46 75 47 76 50 77
REMARK SMILES IDX 48 78 74 79 75 80 83 81 76 82 77 83 81 84 84 85 78 86 79 87
REMARK SMILES IDX 82 88 80 89 59 90 60 91 68 92 61 93 62 94 66 95 69 96 63 97
REMARK SMILES IDX 64 98 67 99 65 100
REMARK H PARENT 25 6 10 16 30 34 89 53 57 64
REMARK Flexibility Score: inf
ROOT
ATOM      1  C   UNL A   1      32.798  28.301  26.813  1.00  0.00     0.023 C 
ENDROOT
BRANCH   1   2
ATOM      2  C   UNL A   1      32.962  26.811  26.522  1.00  0.00     0.116 C 
BRANCH   2   3
ATOM      3  N   UNL A   1      31.857  25.957  26.950  1.00  0.00    -0.352 N 
ATOM      4  C   UNL A   1      31.494  24.663  26.624  1.00  0.00     0.253 C 
ATOM      5  O   UNL A   1      30.545  24.159  27.221  1.00  0.00    -0.269 OA
ATOM      6  H   UNL A   1      31.252  26.386  27.598  1.00  0.00     0.163 HD
BRANCH   4   7
ATOM      7  C   UNL A   1      32.218  23.882  25.590  1.00  0.00     0.065 A 
ATOM      8  C   UNL A   1      31.693  23.620  24.312  1.00  0.00     0.054 A 
ATOM      9  C   UNL A   1      32.432  22.815  23.430  1.00  0.00     0.029 A 
ATOM     10  C   UNL A   1      33.738  22.447  23.736  1.00  0.00     0.028 A 
ATOM     11  C   UNL A   1      33.456  23.313  25.940  1.00  0.00     0.042 A 
ATOM     12  C   UNL A   1      34.290  22.739  24.981  1.00  0.00     0.038 A 
BRANCH   8  13
ATOM     13  N   UNL A   1      30.502  24.098  23.747  1.00  0.00    -0.321 N 
ATOM     14  C   UNL A   1      30.033  25.343  23.419  1.00  0.00     0.255 C 
ATOM     15  O   UNL A   1      28.856  25.425  23.049  1.00  0.00    -0.269 OA
ATOM     16  H   UNL A   1      29.861  23.381  23.539  1.00  0.00     0.170 HD
BRANCH  14  17
ATOM     17  C   UNL A   1      30.866  26.572  23.334  1.00  0.00     0.043 A 
ATOM     18  C   UNL A   1      32.517  25.753  21.524  1.00  0.00     0.045 C 
ATOM     19  C   UNL A   1      31.950  26.783  22.457  1.00  0.00    -0.038 A 
ATOM     20  C   UNL A   1      32.549  28.059  22.423  1.00  0.00     0.004 A 
ATOM     21  C   UNL A   1      32.058  29.117  23.188  1.00  0.00     0.000 A 
ATOM     22  C   UNL A   1      30.371  27.658  24.083  1.00  0.00     0.014 A 
ATOM     23  C   UNL A   1      30.957  28.921  24.010  1.00  0.00     0.001 A 
ENDBRANCH  14  17
ENDBRANCH   8  13
BRANCH  12  24
ATOM     24  N   UNL A   1      35.655  22.563  25.181  1.00  0.00    -0.372 N 
ATOM     25  C   UNL A   1      36.253  23.565  26.082  1.00  0.00     0.116 C 
ATOM     26  C   UNL A   1      36.217  21.217  25.298  1.00  0.00     0.116 C 
ATOM     27  C   UNL A   1      37.749  23.669  25.814  1.00  0.00     0.021 C 
ATOM     28  C   UNL A   1      37.713  21.285  24.989  1.00  0.00     0.021 C 
ATOM     29  C   UNL A   1      38.426  22.302  25.880  1.00  0.00     0.004 C 
ENDBRANCH  12  24
ENDBRANCH   4   7
ENDBRANCH   2   3
ENDBRANCH   1   2
BRANCH   1  30
ATOM     30  C   UNL A   1      33.890  28.948  27.652  1.00  0.00     0.023 C 
BRANCH  30  31
ATOM     31  C   UNL A   1      34.250  30.363  27.225  1.00  0.00     0.116 C 
BRANCH  31  32
ATOM     32  N   UNL A   1      34.731  31.217  28.310  1.00  0.00    -0.352 N 
ATOM     33  C   UNL A   1      35.835  31.033  29.131  1.00  0.00     0.251 C 
ATOM     34  H   UNL A   1      34.202  32.030  28.480  1.00  0.00     0.163 HD
ATOM     35  O   UNL A   1      36.136  31.853  29.979  1.00  0.00    -0.269 OA
BRANCH  33  36
ATOM     36  C   UNL A   1      36.717  29.871  28.863  1.00  0.00     0.039 A 
ATOM     37  C   UNL A   1      36.962  28.975  29.908  1.00  0.00     0.014 A 
ATOM     38  C   UNL A   1      37.488  29.841  27.706  1.00  0.00     0.014 A 
ATOM     39  C   UNL A   1      38.148  28.245  29.904  1.00  0.00     0.010 A 
ATOM     40  C   UNL A   1      38.715  29.212  27.755  1.00  0.00     0.010 A 
ATOM     41  C   UNL A   1      39.078  28.479  28.891  1.00  0.00    -0.014 A 
BRANCH  41  42
ATOM     42  C   UNL A   1      40.491  28.125  29.008  1.00  0.00     0.031 A 
ATOM     43  C   UNL A   1      41.006  26.861  28.445  1.00  0.00     0.074 A 
ATOM     44  C   UNL A   1      41.354  29.022  29.538  1.00  0.00     0.049 A 
ATOM     45  N   UNL A   1      42.143  26.334  28.756  1.00  0.00    -0.248 NA
ATOM     46  C   UNL A   1      40.245  26.059  27.499  1.00  0.00     0.031 C 
ATOM     47  C   UNL A   1      42.814  28.994  29.482  1.00  0.00     0.029 A 
ATOM     48  N   UNL A   1      41.066  30.057  30.448  1.00  0.00    -0.354 N 
ATOM     49  C   UNL A   1      42.382  25.292  27.891  1.00  0.00     0.074 A 
ATOM     50  C   UNL A   1      41.147  25.133  27.159  1.00  0.00     0.031 C 
ATOM     51  C   UNL A   1      43.298  29.692  30.520  1.00  0.00     0.029 A 
ATOM     52  C   UNL A   1      42.165  30.070  31.345  1.00  0.00     0.049 A 
ATOM     53  H   UNL A   1      40.275  30.644  30.460  1.00  0.00     0.167 HD
ATOM     54  C   UNL A   1      43.638  24.757  27.828  1.00  0.00     0.037 A 
ATOM     55  C   UNL A   1      42.000  29.737  32.658  1.00  0.00     0.037 A 
ATOM     56  C   UNL A   1      44.513  25.319  28.859  1.00  0.00     0.049 A 
ATOM     57  C   UNL A   1      42.795  28.530  33.117  1.00  0.00     0.074 A 
ATOM     58  C   UNL A   1      45.510  26.281  28.881  1.00  0.00     0.029 A 
ATOM     59  N   UNL A   1      44.211  25.060  30.183  1.00  0.00    -0.354 N 
ATOM     60  N   UNL A   1      43.525  27.786  32.334  1.00  0.00    -0.248 NA
ATOM     61  C   UNL A   1      42.740  28.010  34.484  1.00  0.00     0.031 C 
ATOM     62  C   UNL A   1      45.799  26.595  30.241  1.00  0.00     0.029 A 
ATOM     63  C   UNL A   1      44.976  25.824  31.040  1.00  0.00     0.049 A 
ATOM     64  H   UNL A   1      43.533  24.410  30.479  1.00  0.00     0.167 HD
ATOM     65  C   UNL A   1      43.990  26.707  33.038  1.00  0.00     0.074 A 
ATOM     66  C   UNL A   1      43.470  26.887  34.379  1.00  0.00     0.031 C 
ATOM     67  C   UNL A   1      44.736  25.718  32.468  1.00  0.00     0.037 A 
BRANCH  54  68
ATOM     68  C   UNL A   1      44.140  23.877  26.702  1.00  0.00     0.064 A 
ATOM     69  C   UNL A   1      43.720  22.532  26.596  1.00  0.00     0.173 A 
ATOM     70  C   UNL A   1      45.074  24.273  25.727  1.00  0.00     0.173 A 
ATOM     71  F   UNL A   1      42.748  22.038  27.373  1.00  0.00    -0.203 F 
ATOM     72  C   UNL A   1      44.284  21.636  25.682  1.00  0.00     0.198 A 
ATOM     73  C   UNL A   1      45.684  23.364  24.854  1.00  0.00     0.198 A 
ATOM     74  F   UNL A   1      45.377  25.561  25.531  1.00  0.00    -0.203 F 
ATOM     75  F   UNL A   1      43.844  20.372  25.634  1.00  0.00    -0.200 F 
ATOM     76  C   UNL A   1      45.297  22.042  24.841  1.00  0.00     0.200 A 
ATOM     77  F   UNL A   1      46.645  23.789  24.020  1.00  0.00    -0.200 F 
ATOM     78  F   UNL A   1      45.874  21.173  24.000  1.00  0.00    -0.200 F 
ENDBRANCH  54  68
BRANCH  55  79
ATOM     79  C   UNL A   1      40.669  30.136  33.190  1.00  0.00     0.064 A 
ATOM     80  C   UNL A   1      40.404  31.508  33.378  1.00  0.00     0.173 A 
ATOM     81  C   UNL A   1      39.577  29.263  33.170  1.00  0.00     0.173 A 
ATOM     82  F   UNL A   1      41.414  32.392  33.402  1.00  0.00    -0.203 F 
ATOM     83  C   UNL A   1      39.100  31.994  33.416  1.00  0.00     0.198 A 
ATOM     84  C   UNL A   1      38.271  29.753  33.232  1.00  0.00     0.198 A 
ATOM     85  F   UNL A   1      39.759  27.950  32.969  1.00  0.00    -0.203 F 
ATOM     86  F   UNL A   1      38.883  33.317  33.467  1.00  0.00    -0.200 F 
ATOM     87  C   UNL A   1      38.034  31.117  33.317  1.00  0.00     0.200 A 
ATOM     88  F   UNL A   1      37.239  28.907  33.105  1.00  0.00    -0.200 F 
ATOM     89  F   UNL A   1      36.781  31.588  33.257  1.00  0.00    -0.200 F 
ENDBRANCH  55  79
BRANCH  67  90
ATOM     90  C   UNL A   1      45.289  24.552  33.233  1.00  0.00     0.064 A 
ATOM     91  C   UNL A   1      44.512  23.426  33.544  1.00  0.00     0.173 A 
ATOM     92  C   UNL A   1      46.588  24.584  33.781  1.00  0.00     0.173 A 
ATOM     93  F   UNL A   1      43.242  23.331  33.121  1.00  0.00    -0.203 F 
ATOM     94  C   UNL A   1      45.018  22.376  34.313  1.00  0.00     0.198 A 
ATOM     95  C   UNL A   1      47.074  23.558  34.591  1.00  0.00     0.198 A 
ATOM     96  F   UNL A   1      47.430  25.595  33.526  1.00  0.00    -0.203 F 
ATOM     97  F   UNL A   1      44.262  21.294  34.541  1.00  0.00    -0.200 F 
ATOM     98  C   UNL A   1      46.294  22.448  34.845  1.00  0.00     0.200 A 
ATOM     99  F   UNL A   1      48.304  23.651  35.115  1.00  0.00    -0.200 F 
ATOM    100  F   UNL A   1      46.772  21.449  35.598  1.00  0.00    -0.200 F 
ENDBRANCH  67  90
ENDBRANCH  41  42
ENDBRANCH  33  36
ENDBRANCH  31  32
ENDBRANCH  30  31
ENDBRANCH   1  30
TORSDOF 14
ENDMDL
