MODEL 1
REMARK VINA RESULT:     -14.0      0.000      0.000
REMARK SMILES CC1=C([C@H](NC(=O)[C@@H]2[C@H](C)c3cc(F)ccc3N2C)C(=O)NCCCCNC(=O)c2ccc(-c3c4nc(c(-c5c(F)c(F)c(F)c(F)c5F)c5ccc([nH]5)c(-c5c(F)c(F)c(F)c(F)c5F)c5nc(c(-c6c(F)c(F)c(F)c(F)c6F)c6ccc3[nH]6)C=C5)C=C4)cc2)[C@@H](C)N=N1
REMARK SMILES IDX 24 1 23 2 22 3 20 4 21 5 4 7 3 8 1 9 2 10 96 11 93 12 95 13
REMARK SMILES IDX 94 14 5 15 6 16 7 18 8 19 9 20 18 21 11 22 10 23 17 24 19 25
REMARK SMILES IDX 12 26 16 27 13 28 15 29 14 30 25 31 26 32 27 33 28 34 29 36
REMARK SMILES IDX 30 37 31 38 92 39 32 40 91 41 33 42 34 43 35 44 85 45 36 46
REMARK SMILES IDX 90 47 84 48 86 49 37 50 89 51 83 52 82 53 38 55 70 56 50 57
REMARK SMILES IDX 69 58 51 59 54 60 68 61 87 62 52 63 53 64 67 66 88 67 55 68
REMARK SMILES IDX 39 69 40 70 48 71 41 72 42 73 46 74 49 75 43 76 44 77 47 78
REMARK SMILES IDX 45 79 71 80 72 81 80 82 73 83 74 84 78 85 81 86 75 87 76 88
REMARK SMILES IDX 79 89 77 90 56 91 57 92 65 93 58 94 59 95 63 96 66 97 60 98
REMARK SMILES IDX 61 99 64 100 62 101
REMARK H PARENT 22 6 5 17 27 35 86 54 54 65
REMARK Flexibility Score: inf
ROOT
ATOM      1  C   UNL A   1      34.847  29.839  27.252  1.00  0.00     0.023 C 
ENDROOT
BRANCH   1   2
ATOM      2  C   UNL A   1      34.114  28.567  26.836  1.00  0.00     0.116 C 
BRANCH   2   3
ATOM      3  N   UNL A   1      32.711  28.473  27.232  1.00  0.00    -0.354 N 
ATOM      4  C   UNL A   1      31.778  27.504  27.018  1.00  0.00     0.247 C 
ATOM      5  O   UNL A   1      30.718  27.568  27.647  1.00  0.00    -0.272 OA
ATOM      6  H   UNL A   1      32.381  29.247  27.743  1.00  0.00     0.163 HD
BRANCH   4   7
ATOM      7  C   UNL A   1      32.100  26.280  26.170  1.00  0.00     0.202 C 
BRANCH   7   8
ATOM      8  C   UNL A   1      31.756  26.660  24.736  1.00  0.00     0.011 C 
ATOM      9  C   UNL A   1      29.203  26.494  24.439  1.00  0.00     0.069 C 
ATOM     10  C   UNL A   1      30.610  26.775  24.049  1.00  0.00     0.064 C 
ATOM     11  N   UNL A   1      30.795  27.195  22.753  1.00  0.00    -0.160 NA
ATOM     12  C   UNL A   1      32.816  27.063  23.717  1.00  0.00     0.156 C 
ATOM     13  N   UNL A   1      32.012  27.364  22.506  1.00  0.00    -0.181 NA
ATOM     14  C   UNL A   1      33.861  26.022  23.333  1.00  0.00     0.040 C 
ENDBRANCH   7   8
BRANCH   7  15
ATOM     15  N   UNL A   1      31.336  25.161  26.723  1.00  0.00    -0.339 N 
ATOM     16  C   UNL A   1      31.491  23.796  26.537  1.00  0.00     0.244 C 
ATOM     17  H   UNL A   1      30.596  25.418  27.320  1.00  0.00     0.164 HD
ATOM     18  O   UNL A   1      30.648  23.103  27.117  1.00  0.00    -0.273 OA
BRANCH  16  19
ATOM     19  C   UNL A   1      32.679  23.160  25.694  1.00  0.00     0.178 C 
ATOM     20  C   UNL A   1      32.337  22.811  24.195  1.00  0.00     0.050 C 
ATOM     21  N   UNL A   1      33.179  21.864  26.303  1.00  0.00    -0.362 N 
ATOM     22  C   UNL A   1      32.379  21.307  24.178  1.00  0.00    -0.016 A 
ATOM     23  C   UNL A   1      31.048  23.352  23.598  1.00  0.00     0.015 C 
ATOM     24  C   UNL A   1      32.797  20.828  25.415  1.00  0.00     0.041 A 
ATOM     25  C   UNL A   1      34.594  21.712  26.650  1.00  0.00     0.144 C 
ATOM     26  C   UNL A   1      32.210  20.441  23.102  1.00  0.00     0.045 A 
ATOM     27  C   UNL A   1      32.987  19.462  25.619  1.00  0.00     0.029 A 
ATOM     28  C   UNL A   1      32.440  19.082  23.302  1.00  0.00     0.123 A 
ATOM     29  C   UNL A   1      32.811  18.582  24.550  1.00  0.00     0.041 A 
ATOM     30  F   UNL A   1      32.342  18.238  22.265  1.00  0.00    -0.207 F 
ENDBRANCH  16  19
ENDBRANCH   7  15
ENDBRANCH   4   7
ENDBRANCH   2   3
ENDBRANCH   1   2
BRANCH   1  31
ATOM     31  C   UNL A   1      34.015  31.053  27.661  1.00  0.00     0.023 C 
BRANCH  31  32
ATOM     32  C   UNL A   1      34.718  32.178  28.398  1.00  0.00     0.116 C 
BRANCH  32  33
ATOM     33  N   UNL A   1      34.700  32.095  29.843  1.00  0.00    -0.352 N 
ATOM     34  C   UNL A   1      35.619  31.603  30.733  1.00  0.00     0.251 C 
ATOM     35  H   UNL A   1      33.884  32.456  30.260  1.00  0.00     0.163 HD
ATOM     36  O   UNL A   1      35.411  31.725  31.939  1.00  0.00    -0.269 OA
BRANCH  34  37
ATOM     37  C   UNL A   1      36.771  30.806  30.269  1.00  0.00     0.039 A 
ATOM     38  C   UNL A   1      36.802  29.411  30.286  1.00  0.00     0.014 A 
ATOM     39  C   UNL A   1      37.909  31.522  29.895  1.00  0.00     0.014 A 
ATOM     40  C   UNL A   1      38.021  28.755  30.258  1.00  0.00     0.010 A 
ATOM     41  C   UNL A   1      39.109  30.853  29.734  1.00  0.00     0.010 A 
ATOM     42  C   UNL A   1      39.187  29.491  30.049  1.00  0.00    -0.014 A 
BRANCH  42  43
ATOM     43  C   UNL A   1      40.478  28.800  30.119  1.00  0.00     0.031 A 
ATOM     44  C   UNL A   1      41.069  28.606  31.484  1.00  0.00     0.074 A 
ATOM     45  C   UNL A   1      41.004  28.209  29.025  1.00  0.00     0.049 A 
ATOM     46  N   UNL A   1      42.302  28.729  31.879  1.00  0.00    -0.248 NA
ATOM     47  C   UNL A   1      40.131  28.256  32.565  1.00  0.00     0.031 C 
ATOM     48  C   UNL A   1      40.410  28.094  27.687  1.00  0.00     0.029 A 
ATOM     49  N   UNL A   1      42.124  27.440  28.925  1.00  0.00    -0.354 N 
ATOM     50  C   UNL A   1      42.314  28.343  33.220  1.00  0.00     0.074 A 
ATOM     51  C   UNL A   1      40.943  28.144  33.614  1.00  0.00     0.031 C 
ATOM     52  C   UNL A   1      41.017  27.093  27.017  1.00  0.00     0.029 A 
ATOM     53  C   UNL A   1      42.121  26.603  27.821  1.00  0.00     0.049 A 
ATOM     54  H   UNL A   1      42.863  27.476  29.574  1.00  0.00     0.167 HD
ATOM     55  C   UNL A   1      43.447  28.057  33.921  1.00  0.00     0.037 A 
ATOM     56  C   UNL A   1      42.899  25.512  27.636  1.00  0.00     0.037 A 
ATOM     57  C   UNL A   1      44.628  28.621  33.346  1.00  0.00     0.049 A 
ATOM     58  C   UNL A   1      44.041  25.606  28.576  1.00  0.00     0.074 A 
ATOM     59  C   UNL A   1      45.094  29.907  33.154  1.00  0.00     0.029 A 
ATOM     60  N   UNL A   1      45.454  27.821  32.602  1.00  0.00    -0.354 N 
ATOM     61  N   UNL A   1      44.997  26.487  28.493  1.00  0.00    -0.248 NA
ATOM     62  C   UNL A   1      43.915  24.938  29.863  1.00  0.00     0.031 C 
ATOM     63  C   UNL A   1      45.840  29.856  31.941  1.00  0.00     0.029 A 
ATOM     64  C   UNL A   1      45.784  28.541  31.481  1.00  0.00     0.049 A 
ATOM     65  H   UNL A   1      45.751  26.909  32.826  1.00  0.00     0.167 HD
ATOM     66  C   UNL A   1      45.340  26.765  29.807  1.00  0.00     0.074 A 
ATOM     67  C   UNL A   1      44.718  25.709  30.597  1.00  0.00     0.031 C 
ATOM     68  C   UNL A   1      45.865  27.974  30.158  1.00  0.00     0.037 A 
BRANCH  55  69
ATOM     69  C   UNL A   1      43.479  27.049  35.035  1.00  0.00     0.064 A 
ATOM     70  C   UNL A   1      43.723  27.439  36.363  1.00  0.00     0.173 A 
ATOM     71  C   UNL A   1      43.507  25.660  34.782  1.00  0.00     0.173 A 
ATOM     72  F   UNL A   1      43.777  28.736  36.695  1.00  0.00    -0.203 F 
ATOM     73  C   UNL A   1      43.974  26.497  37.368  1.00  0.00     0.198 A 
ATOM     74  C   UNL A   1      43.706  24.724  35.793  1.00  0.00     0.198 A 
ATOM     75  F   UNL A   1      43.427  25.179  33.534  1.00  0.00    -0.203 F 
ATOM     76  F   UNL A   1      44.276  26.909  38.607  1.00  0.00    -0.200 F 
ATOM     77  C   UNL A   1      43.956  25.142  37.084  1.00  0.00     0.200 A 
ATOM     78  F   UNL A   1      43.711  23.417  35.492  1.00  0.00    -0.200 F 
ATOM     79  F   UNL A   1      44.223  24.242  38.039  1.00  0.00    -0.200 F 
ENDBRANCH  55  69
BRANCH  56  80
ATOM     80  C   UNL A   1      42.534  24.248  26.956  1.00  0.00     0.064 A 
ATOM     81  C   UNL A   1      43.406  23.651  26.034  1.00  0.00     0.173 A 
ATOM     82  C   UNL A   1      41.445  23.465  27.389  1.00  0.00     0.173 A 
ATOM     83  F   UNL A   1      44.493  24.312  25.610  1.00  0.00    -0.203 F 
ATOM     84  C   UNL A   1      43.211  22.341  25.585  1.00  0.00     0.198 A 
ATOM     85  C   UNL A   1      41.244  22.164  26.929  1.00  0.00     0.198 A 
ATOM     86  F   UNL A   1      40.608  23.909  28.338  1.00  0.00    -0.203 F 
ATOM     87  F   UNL A   1      44.101  21.782  24.753  1.00  0.00    -0.200 F 
ATOM     88  C   UNL A   1      42.134  21.596  26.038  1.00  0.00     0.200 A 
ATOM     89  F   UNL A   1      40.217  21.443  27.404  1.00  0.00    -0.200 F 
ATOM     90  F   UNL A   1      41.979  20.322  25.652  1.00  0.00    -0.200 F 
ENDBRANCH  56  80
BRANCH  68  91
ATOM     91  C   UNL A   1      46.271  28.899  29.047  1.00  0.00     0.064 A 
ATOM     92  C   UNL A   1      45.374  29.789  28.429  1.00  0.00     0.173 A 
ATOM     93  C   UNL A   1      47.622  29.002  28.700  1.00  0.00     0.173 A 
ATOM     94  F   UNL A   1      44.088  29.828  28.795  1.00  0.00    -0.203 F 
ATOM     95  C   UNL A   1      45.803  30.701  27.468  1.00  0.00     0.198 A 
ATOM     96  C   UNL A   1      48.055  29.940  27.765  1.00  0.00     0.198 A 
ATOM     97  F   UNL A   1      48.532  28.225  29.307  1.00  0.00    -0.203 F 
ATOM     98  F   UNL A   1      44.923  31.528  26.885  1.00  0.00    -0.200 F 
ATOM     99  C   UNL A   1      47.146  30.779  27.141  1.00  0.00     0.200 A 
ATOM    100  F   UNL A   1      49.363  30.051  27.489  1.00  0.00    -0.200 F 
ATOM    101  F   UNL A   1      47.569  31.685  26.248  1.00  0.00    -0.200 F 
ENDBRANCH  68  91
ENDBRANCH  42  43
ENDBRANCH  34  37
ENDBRANCH  32  33
ENDBRANCH  31  32
ENDBRANCH   1  31
TORSDOF 14
ENDMDL
MODEL 2
REMARK VINA RESULT:     -13.1      3.782      8.814
REMARK SMILES CC1=C([C@H](NC(=O)[C@@H]2[C@H](C)c3cc(F)ccc3N2C)C(=O)NCCCCNC(=O)c2ccc(-c3c4nc(c(-c5c(F)c(F)c(F)c(F)c5F)c5ccc([nH]5)c(-c5c(F)c(F)c(F)c(F)c5F)c5nc(c(-c6c(F)c(F)c(F)c(F)c6F)c6ccc3[nH]6)C=C5)C=C4)cc2)[C@@H](C)N=N1
REMARK SMILES IDX 24 1 23 2 22 3 20 4 21 5 4 7 3 8 1 9 2 10 96 11 93 12 95 13
REMARK SMILES IDX 94 14 5 15 6 16 7 18 8 19 9 20 18 21 11 22 10 23 17 24 19 25
REMARK SMILES IDX 12 26 16 27 13 28 15 29 14 30 25 31 26 32 27 33 28 34 29 36
REMARK SMILES IDX 30 37 31 38 92 39 32 40 91 41 33 42 34 43 35 44 85 45 36 46
REMARK SMILES IDX 90 47 84 48 86 49 37 50 89 51 83 52 82 53 38 55 70 56 50 57
REMARK SMILES IDX 69 58 51 59 54 60 68 61 87 62 52 63 53 64 67 66 88 67 55 68
REMARK SMILES IDX 39 69 40 70 48 71 41 72 42 73 46 74 49 75 43 76 44 77 47 78
REMARK SMILES IDX 45 79 71 80 72 81 80 82 73 83 74 84 78 85 81 86 75 87 76 88
REMARK SMILES IDX 79 89 77 90 56 91 57 92 65 93 58 94 59 95 63 96 66 97 60 98
REMARK SMILES IDX 61 99 64 100 62 101
REMARK H PARENT 22 6 5 17 27 35 86 54 54 65
REMARK Flexibility Score: inf
ROOT
ATOM      1  C   UNL A   1      38.249  23.961  26.553  1.00  0.00     0.023 C 
ENDROOT
BRANCH   1   2
ATOM      2  C   UNL A   1      36.929  24.026  25.790  1.00  0.00     0.116 C 
BRANCH   2   3
ATOM      3  N   UNL A   1      36.909  23.376  24.482  1.00  0.00    -0.354 N 
ATOM      4  C   UNL A   1      35.945  23.314  23.522  1.00  0.00     0.247 C 
ATOM      5  O   UNL A   1      36.258  22.881  22.410  1.00  0.00    -0.272 OA
ATOM      6  H   UNL A   1      37.738  22.897  24.254  1.00  0.00     0.163 HD
BRANCH   4   7
ATOM      7  C   UNL A   1      34.569  23.926  23.753  1.00  0.00     0.202 C 
BRANCH   7   8
ATOM      8  C   UNL A   1      33.701  22.811  24.320  1.00  0.00     0.011 C 
ATOM      9  C   UNL A   1      32.469  21.665  22.369  1.00  0.00     0.069 C 
ATOM     10  C   UNL A   1      32.888  21.892  23.777  1.00  0.00     0.064 C 
ATOM     11  N   UNL A   1      32.332  21.045  24.707  1.00  0.00    -0.160 NA
ATOM     12  C   UNL A   1      33.640  22.494  25.810  1.00  0.00     0.156 C 
ATOM     13  N   UNL A   1      32.710  21.340  25.865  1.00  0.00    -0.181 NA
ATOM     14  C   UNL A   1      33.098  23.572  26.741  1.00  0.00     0.040 C 
ENDBRANCH   7   8
BRANCH   7  15
ATOM     15  N   UNL A   1      34.124  24.478  22.473  1.00  0.00    -0.339 N 
ATOM     16  C   UNL A   1      33.247  25.519  22.206  1.00  0.00     0.244 C 
ATOM     17  H   UNL A   1      34.506  24.041  21.677  1.00  0.00     0.164 HD
ATOM     18  O   UNL A   1      33.044  25.718  21.003  1.00  0.00    -0.273 OA
BRANCH  16  19
ATOM     19  C   UNL A   1      32.594  26.421  23.338  1.00  0.00     0.178 C 
ATOM     20  C   UNL A   1      31.149  25.993  23.799  1.00  0.00     0.050 C 
ATOM     21  N   UNL A   1      32.465  27.870  22.908  1.00  0.00    -0.362 N 
ATOM     22  C   UNL A   1      30.286  27.120  23.304  1.00  0.00    -0.016 A 
ATOM     23  C   UNL A   1      30.620  24.635  23.365  1.00  0.00     0.015 C 
ATOM     24  C   UNL A   1      31.078  28.120  22.751  1.00  0.00     0.041 A 
ATOM     25  C   UNL A   1      33.064  28.935  23.716  1.00  0.00     0.144 C 
ATOM     26  C   UNL A   1      28.918  27.311  23.472  1.00  0.00     0.045 A 
ATOM     27  C   UNL A   1      30.507  29.306  22.291  1.00  0.00     0.029 A 
ATOM     28  C   UNL A   1      28.359  28.514  23.047  1.00  0.00     0.123 A 
ATOM     29  C   UNL A   1      29.134  29.505  22.445  1.00  0.00     0.041 A 
ATOM     30  F   UNL A   1      27.054  28.744  23.254  1.00  0.00    -0.207 F 
ENDBRANCH  16  19
ENDBRANCH   7  15
ENDBRANCH   4   7
ENDBRANCH   2   3
ENDBRANCH   1   2
BRANCH   1  31
ATOM     31  C   UNL A   1      39.034  22.652  26.532  1.00  0.00     0.023 C 
BRANCH  31  32
ATOM     32  C   UNL A   1      40.503  22.700  26.908  1.00  0.00     0.116 C 
BRANCH  32  33
ATOM     33  N   UNL A   1      41.441  22.526  25.819  1.00  0.00    -0.352 N 
ATOM     34  C   UNL A   1      42.507  23.285  25.412  1.00  0.00     0.251 C 
ATOM     35  H   UNL A   1      41.284  21.720  25.274  1.00  0.00     0.163 HD
ATOM     36  O   UNL A   1      43.219  22.878  24.495  1.00  0.00    -0.269 OA
BRANCH  34  37
ATOM     37  C   UNL A   1      42.723  24.639  25.955  1.00  0.00     0.039 A 
ATOM     38  C   UNL A   1      43.736  24.955  26.862  1.00  0.00     0.014 A 
ATOM     39  C   UNL A   1      41.784  25.607  25.598  1.00  0.00     0.014 A 
ATOM     40  C   UNL A   1      43.621  26.091  27.645  1.00  0.00     0.010 A 
ATOM     41  C   UNL A   1      41.748  26.805  26.290  1.00  0.00     0.010 A 
ATOM     42  C   UNL A   1      42.580  26.986  27.400  1.00  0.00    -0.014 A 
BRANCH  42  43
ATOM     43  C   UNL A   1      42.412  28.133  28.298  1.00  0.00     0.031 A 
ATOM     44  C   UNL A   1      43.395  29.256  28.153  1.00  0.00     0.074 A 
ATOM     45  C   UNL A   1      41.316  28.243  29.078  1.00  0.00     0.049 A 
ATOM     46  N   UNL A   1      43.987  29.964  29.069  1.00  0.00    -0.248 NA
ATOM     47  C   UNL A   1      43.793  29.611  26.778  1.00  0.00     0.031 C 
ATOM     48  C   UNL A   1      40.149  27.352  29.128  1.00  0.00     0.029 A 
ATOM     49  N   UNL A   1      40.940  29.275  29.884  1.00  0.00    -0.354 N 
ATOM     50  C   UNL A   1      44.724  30.933  28.387  1.00  0.00     0.074 A 
ATOM     51  C   UNL A   1      44.637  30.619  26.985  1.00  0.00     0.031 C 
ATOM     52  C   UNL A   1      39.111  28.010  29.684  1.00  0.00     0.029 A 
ATOM     53  C   UNL A   1      39.581  29.302  30.150  1.00  0.00     0.049 A 
ATOM     54  H   UNL A   1      41.574  29.939  30.241  1.00  0.00     0.167 HD
ATOM     55  C   UNL A   1      45.256  32.041  28.976  1.00  0.00     0.037 A 
ATOM     56  C   UNL A   1      38.872  30.356  30.616  1.00  0.00     0.037 A 
ATOM     57  C   UNL A   1      45.414  31.911  30.391  1.00  0.00     0.049 A 
ATOM     58  C   UNL A   1      39.830  31.320  31.205  1.00  0.00     0.074 A 
ATOM     59  C   UNL A   1      46.196  31.122  31.211  1.00  0.00     0.029 A 
ATOM     60  N   UNL A   1      44.492  32.493  31.220  1.00  0.00    -0.354 N 
ATOM     61  N   UNL A   1      40.516  31.110  32.293  1.00  0.00    -0.248 NA
ATOM     62  C   UNL A   1      40.318  32.396  30.355  1.00  0.00     0.031 C 
ATOM     63  C   UNL A   1      45.405  30.893  32.374  1.00  0.00     0.029 A 
ATOM     64  C   UNL A   1      44.197  31.564  32.186  1.00  0.00     0.049 A 
ATOM     65  H   UNL A   1      44.115  33.399  31.139  1.00  0.00     0.167 HD
ATOM     66  C   UNL A   1      41.726  31.752  32.080  1.00  0.00     0.074 A 
ATOM     67  C   UNL A   1      41.505  32.610  30.922  1.00  0.00     0.031 C 
ATOM     68  C   UNL A   1      42.868  31.326  32.691  1.00  0.00     0.037 A 
BRANCH  55  69
ATOM     69  C   UNL A   1      45.423  33.345  28.250  1.00  0.00     0.064 A 
ATOM     70  C   UNL A   1      46.697  33.890  28.013  1.00  0.00     0.173 A 
ATOM     71  C   UNL A   1      44.327  34.196  27.984  1.00  0.00     0.173 A 
ATOM     72  F   UNL A   1      47.802  33.184  28.289  1.00  0.00    -0.203 F 
ATOM     73  C   UNL A   1      46.858  35.197  27.539  1.00  0.00     0.198 A 
ATOM     74  C   UNL A   1      44.488  35.477  27.466  1.00  0.00     0.198 A 
ATOM     75  F   UNL A   1      43.076  33.836  28.303  1.00  0.00    -0.203 F 
ATOM     76  F   UNL A   1      48.088  35.708  27.397  1.00  0.00    -0.200 F 
ATOM     77  C   UNL A   1      45.754  35.985  27.257  1.00  0.00     0.200 A 
ATOM     78  F   UNL A   1      43.408  36.234  27.224  1.00  0.00    -0.200 F 
ATOM     79  F   UNL A   1      45.908  37.245  26.830  1.00  0.00    -0.200 F 
ENDBRANCH  55  69
BRANCH  56  80
ATOM     80  C   UNL A   1      37.481  30.729  30.273  1.00  0.00     0.064 A 
ATOM     81  C   UNL A   1      36.603  31.207  31.256  1.00  0.00     0.173 A 
ATOM     82  C   UNL A   1      37.065  30.876  28.934  1.00  0.00     0.173 A 
ATOM     83  F   UNL A   1      36.946  31.150  32.551  1.00  0.00    -0.203 F 
ATOM     84  C   UNL A   1      35.387  31.812  30.920  1.00  0.00     0.198 A 
ATOM     85  C   UNL A   1      35.846  31.466  28.601  1.00  0.00     0.198 A 
ATOM     86  F   UNL A   1      37.871  30.536  27.918  1.00  0.00    -0.203 F 
ATOM     87  F   UNL A   1      34.603  32.314  31.884  1.00  0.00    -0.200 F 
ATOM     88  C   UNL A   1      35.013  31.947  29.593  1.00  0.00     0.200 A 
ATOM     89  F   UNL A   1      35.513  31.621  27.311  1.00  0.00    -0.200 F 
ATOM     90  F   UNL A   1      33.875  32.577  29.269  1.00  0.00    -0.200 F 
ENDBRANCH  56  80
BRANCH  68  91
ATOM     91  C   UNL A   1      42.728  30.292  33.771  1.00  0.00     0.064 A 
ATOM     92  C   UNL A   1      42.669  28.912  33.504  1.00  0.00     0.173 A 
ATOM     93  C   UNL A   1      42.808  30.685  35.111  1.00  0.00     0.173 A 
ATOM     94  F   UNL A   1      42.707  28.457  32.246  1.00  0.00    -0.203 F 
ATOM     95  C   UNL A   1      42.636  27.974  34.533  1.00  0.00     0.198 A 
ATOM     96  C   UNL A   1      42.812  29.744  36.138  1.00  0.00     0.198 A 
ATOM     97  F   UNL A   1      42.935  31.984  35.423  1.00  0.00    -0.203 F 
ATOM     98  F   UNL A   1      42.565  26.666  34.248  1.00  0.00    -0.200 F 
ATOM     99  C   UNL A   1      42.713  28.392  35.850  1.00  0.00     0.200 A 
ATOM    100  F   UNL A   1      42.941  30.147  37.410  1.00  0.00    -0.200 F 
ATOM    101  F   UNL A   1      42.725  27.489  36.841  1.00  0.00    -0.200 F 
ENDBRANCH  68  91
ENDBRANCH  42  43
ENDBRANCH  34  37
ENDBRANCH  32  33
ENDBRANCH  31  32
ENDBRANCH   1  31
TORSDOF 14
ENDMDL
MODEL 3
REMARK VINA RESULT:     -12.8      3.238      8.035
REMARK SMILES CC1=C([C@H](NC(=O)[C@@H]2[C@H](C)c3cc(F)ccc3N2C)C(=O)NCCCCNC(=O)c2ccc(-c3c4nc(c(-c5c(F)c(F)c(F)c(F)c5F)c5ccc([nH]5)c(-c5c(F)c(F)c(F)c(F)c5F)c5nc(c(-c6c(F)c(F)c(F)c(F)c6F)c6ccc3[nH]6)C=C5)C=C4)cc2)[C@@H](C)N=N1
REMARK SMILES IDX 24 1 23 2 22 3 20 4 21 5 4 7 3 8 1 9 2 10 96 11 93 12 95 13
REMARK SMILES IDX 94 14 5 15 6 16 7 18 8 19 9 20 18 21 11 22 10 23 17 24 19 25
REMARK SMILES IDX 12 26 16 27 13 28 15 29 14 30 25 31 26 32 27 33 28 34 29 36
REMARK SMILES IDX 30 37 31 38 92 39 32 40 91 41 33 42 34 43 35 44 85 45 36 46
REMARK SMILES IDX 90 47 84 48 86 49 37 50 89 51 83 52 82 53 38 55 70 56 50 57
REMARK SMILES IDX 69 58 51 59 54 60 68 61 87 62 52 63 53 64 67 66 88 67 55 68
REMARK SMILES IDX 39 69 40 70 48 71 41 72 42 73 46 74 49 75 43 76 44 77 47 78
REMARK SMILES IDX 45 79 71 80 72 81 80 82 73 83 74 84 78 85 81 86 75 87 76 88
REMARK SMILES IDX 79 89 77 90 56 91 57 92 65 93 58 94 59 95 63 96 66 97 60 98
REMARK SMILES IDX 61 99 64 100 62 101
REMARK H PARENT 22 6 5 17 27 35 86 54 54 65
REMARK Flexibility Score: inf
ROOT
ATOM      1  C   UNL A   1      35.849  23.935  25.841  1.00  0.00     0.023 C 
ENDROOT
BRANCH   1   2
ATOM      2  C   UNL A   1      35.010  24.843  24.946  1.00  0.00     0.116 C 
BRANCH   2   3
ATOM      3  N   UNL A   1      34.027  25.685  25.623  1.00  0.00    -0.354 N 
ATOM      4  C   UNL A   1      32.684  25.825  25.442  1.00  0.00     0.247 C 
ATOM      5  O   UNL A   1      32.044  26.447  26.294  1.00  0.00    -0.272 OA
ATOM      6  H   UNL A   1      34.401  26.253  26.335  1.00  0.00     0.163 HD
BRANCH   4   7
ATOM      7  C   UNL A   1      31.963  25.085  24.323  1.00  0.00     0.202 C 
BRANCH   7   8
ATOM      8  C   UNL A   1      31.297  26.157  23.471  1.00  0.00     0.011 C 
ATOM      9  C   UNL A   1      28.836  26.368  24.202  1.00  0.00     0.069 C 
ATOM     10  C   UNL A   1      30.068  26.691  23.435  1.00  0.00     0.064 C 
ATOM     11  N   UNL A   1      29.937  27.687  22.495  1.00  0.00    -0.160 NA
ATOM     12  C   UNL A   1      32.045  26.929  22.390  1.00  0.00     0.156 C 
ATOM     13  N   UNL A   1      31.011  27.859  21.872  1.00  0.00    -0.181 NA
ATOM     14  C   UNL A   1      32.594  26.140  21.207  1.00  0.00     0.040 C 
ENDBRANCH   7   8
BRANCH   7  15
ATOM     15  N   UNL A   1      31.052  24.131  24.955  1.00  0.00    -0.339 N 
ATOM     16  C   UNL A   1      31.240  22.795  25.276  1.00  0.00     0.244 C 
ATOM     17  H   UNL A   1      30.167  24.494  25.189  1.00  0.00     0.164 HD
ATOM     18  O   UNL A   1      30.251  22.245  25.773  1.00  0.00    -0.273 OA
BRANCH  16  19
ATOM     19  C   UNL A   1      32.622  22.036  25.077  1.00  0.00     0.178 C 
ATOM     20  C   UNL A   1      32.799  21.299  23.695  1.00  0.00     0.050 C 
ATOM     21  N   UNL A   1      32.843  20.969  26.132  1.00  0.00    -0.362 N 
ATOM     22  C   UNL A   1      32.796  19.846  24.082  1.00  0.00    -0.016 A 
ATOM     23  C   UNL A   1      31.809  21.596  22.580  1.00  0.00     0.015 C 
ATOM     24  C   UNL A   1      32.752  19.721  25.466  1.00  0.00     0.041 A 
ATOM     25  C   UNL A   1      34.050  20.992  26.962  1.00  0.00     0.144 C 
ATOM     26  C   UNL A   1      32.975  18.727  23.274  1.00  0.00     0.045 A 
ATOM     27  C   UNL A   1      32.817  18.465  26.068  1.00  0.00     0.029 A 
ATOM     28  C   UNL A   1      33.079  17.479  23.884  1.00  0.00     0.123 A 
ATOM     29  C   UNL A   1      32.987  17.334  25.268  1.00  0.00     0.041 A 
ATOM     30  F   UNL A   1      33.312  16.395  23.130  1.00  0.00    -0.207 F 
ENDBRANCH  16  19
ENDBRANCH   7  15
ENDBRANCH   4   7
ENDBRANCH   2   3
ENDBRANCH   1   2
BRANCH   1  31
ATOM     31  C   UNL A   1      37.271  23.598  25.400  1.00  0.00     0.023 C 
BRANCH  31  32
ATOM     32  C   UNL A   1      38.276  23.224  26.474  1.00  0.00     0.116 C 
BRANCH  32  33
ATOM     33  N   UNL A   1      39.415  22.447  26.031  1.00  0.00    -0.352 N 
ATOM     34  C   UNL A   1      40.762  22.661  26.161  1.00  0.00     0.251 C 
ATOM     35  H   UNL A   1      39.179  21.619  25.552  1.00  0.00     0.163 HD
ATOM     36  O   UNL A   1      41.547  21.799  25.771  1.00  0.00    -0.269 OA
BRANCH  34  37
ATOM     37  C   UNL A   1      41.280  23.962  26.624  1.00  0.00     0.039 A 
ATOM     38  C   UNL A   1      42.192  24.102  27.671  1.00  0.00     0.014 A 
ATOM     39  C   UNL A   1      40.730  25.097  26.026  1.00  0.00     0.014 A 
ATOM     40  C   UNL A   1      42.299  25.317  28.327  1.00  0.00     0.010 A 
ATOM     41  C   UNL A   1      40.942  26.337  26.601  1.00  0.00     0.010 A 
ATOM     42  C   UNL A   1      41.613  26.424  27.826  1.00  0.00    -0.014 A 
BRANCH  42  43
ATOM     43  C   UNL A   1      41.655  27.679  28.583  1.00  0.00     0.031 A 
ATOM     44  C   UNL A   1      42.746  28.647  28.232  1.00  0.00     0.074 A 
ATOM     45  C   UNL A   1      40.648  28.015  29.417  1.00  0.00     0.049 A 
ATOM     46  N   UNL A   1      43.491  29.375  29.009  1.00  0.00    -0.248 NA
ATOM     47  C   UNL A   1      43.066  28.787  26.799  1.00  0.00     0.031 C 
ATOM     48  C   UNL A   1      39.395  27.288  29.659  1.00  0.00     0.029 A 
ATOM     49  N   UNL A   1      40.464  29.171  30.112  1.00  0.00    -0.354 N 
ATOM     50  C   UNL A   1      44.275  30.160  28.163  1.00  0.00     0.074 A 
ATOM     51  C   UNL A   1      44.035  29.700  26.820  1.00  0.00     0.031 C 
ATOM     52  C   UNL A   1      38.490  28.130  30.199  1.00  0.00     0.029 A 
ATOM     53  C   UNL A   1      39.143  29.398  30.466  1.00  0.00     0.049 A 
ATOM     54  H   UNL A   1      41.198  29.787  30.340  1.00  0.00     0.167 HD
ATOM     55  C   UNL A   1      44.979  31.253  28.570  1.00  0.00     0.037 A 
ATOM     56  C   UNL A   1      38.603  30.579  30.845  1.00  0.00     0.037 A 
ATOM     57  C   UNL A   1      45.239  31.268  29.976  1.00  0.00     0.049 A 
ATOM     58  C   UNL A   1      39.712  31.477  31.242  1.00  0.00     0.074 A 
ATOM     59  C   UNL A   1      45.990  30.488  30.833  1.00  0.00     0.029 A 
ATOM     60  N   UNL A   1      44.463  32.053  30.788  1.00  0.00    -0.354 N 
ATOM     61  N   UNL A   1      40.458  31.310  32.298  1.00  0.00    -0.248 NA
ATOM     62  C   UNL A   1      40.248  32.379  30.233  1.00  0.00     0.031 C 
ATOM     63  C   UNL A   1      45.278  30.495  32.067  1.00  0.00     0.029 A 
ATOM     64  C   UNL A   1      44.144  31.285  31.881  1.00  0.00     0.049 A 
ATOM     65  H   UNL A   1      44.188  32.984  30.621  1.00  0.00     0.167 HD
ATOM     66  C   UNL A   1      41.712  31.767  31.923  1.00  0.00     0.074 A 
ATOM     67  C   UNL A   1      41.496  32.507  30.685  1.00  0.00     0.031 C 
ATOM     68  C   UNL A   1      42.844  31.275  32.503  1.00  0.00     0.037 A 
BRANCH  55  69
ATOM     69  C   UNL A   1      45.234  32.434  27.678  1.00  0.00     0.064 A 
ATOM     70  C   UNL A   1      46.471  32.606  27.032  1.00  0.00     0.173 A 
ATOM     71  C   UNL A   1      44.353  33.536  27.630  1.00  0.00     0.173 A 
ATOM     72  F   UNL A   1      47.400  31.640  27.070  1.00  0.00    -0.203 F 
ATOM     73  C   UNL A   1      46.797  33.801  26.381  1.00  0.00     0.198 A 
ATOM     74  C   UNL A   1      44.660  34.705  26.939  1.00  0.00     0.198 A 
ATOM     75  F   UNL A   1      43.207  33.540  28.326  1.00  0.00    -0.203 F 
ATOM     76  F   UNL A   1      48.013  33.955  25.842  1.00  0.00    -0.200 F 
ATOM     77  C   UNL A   1      45.888  34.845  26.327  1.00  0.00     0.200 A 
ATOM     78  F   UNL A   1      43.776  35.713  26.922  1.00  0.00    -0.200 F 
ATOM     79  F   UNL A   1      46.210  35.998  25.729  1.00  0.00    -0.200 F 
ENDBRANCH  55  69
BRANCH  56  80
ATOM     80  C   UNL A   1      37.240  31.082  30.555  1.00  0.00     0.064 A 
ATOM     81  C   UNL A   1      36.399  31.513  31.591  1.00  0.00     0.173 A 
ATOM     82  C   UNL A   1      36.833  31.395  29.243  1.00  0.00     0.173 A 
ATOM     83  F   UNL A   1      36.740  31.298  32.870  1.00  0.00    -0.203 F 
ATOM     84  C   UNL A   1      35.228  32.232  31.331  1.00  0.00     0.198 A 
ATOM     85  C   UNL A   1      35.658  32.099  28.984  1.00  0.00     0.198 A 
ATOM     86  F   UNL A   1      37.613  31.109  28.190  1.00  0.00    -0.203 F 
ATOM     87  F   UNL A   1      34.482  32.684  32.349  1.00  0.00    -0.200 F 
ATOM     88  C   UNL A   1      34.862  32.530  30.028  1.00  0.00     0.200 A 
ATOM     89  F   UNL A   1      35.335  32.411  27.721  1.00  0.00    -0.200 F 
ATOM     90  F   UNL A   1      33.770  33.268  29.782  1.00  0.00    -0.200 F 
ENDBRANCH  56  80
BRANCH  68  91
ATOM     91  C   UNL A   1      42.676  30.398  33.710  1.00  0.00     0.064 A 
ATOM     92  C   UNL A   1      42.641  30.903  35.022  1.00  0.00     0.173 A 
ATOM     93  C   UNL A   1      42.393  29.039  33.535  1.00  0.00     0.173 A 
ATOM     94  F   UNL A   1      42.787  32.213  35.254  1.00  0.00    -0.203 F 
ATOM     95  C   UNL A   1      42.388  30.074  36.112  1.00  0.00     0.198 A 
ATOM     96  C   UNL A   1      42.104  28.218  34.623  1.00  0.00     0.198 A 
ATOM     97  F   UNL A   1      42.346  28.516  32.300  1.00  0.00    -0.203 F 
ATOM     98  F   UNL A   1      42.375  30.581  37.353  1.00  0.00    -0.200 F 
ATOM     99  C   UNL A   1      42.114  28.732  35.911  1.00  0.00     0.200 A 
ATOM    100  F   UNL A   1      41.787  26.932  34.422  1.00  0.00    -0.200 F 
ATOM    101  F   UNL A   1      41.829  27.941  36.954  1.00  0.00    -0.200 F 
ENDBRANCH  68  91
ENDBRANCH  42  43
ENDBRANCH  34  37
ENDBRANCH  32  33
ENDBRANCH  31  32
ENDBRANCH   1  31
TORSDOF 14
ENDMDL
