MODEL 1
REMARK VINA RESULT:     -11.6      0.000      0.000
REMARK SMILES COc1ccc(-c2cc(=O)oc3cc(OCC(=O)N[C@@H](C)C(=O)NCCCCNC(=O)c4ccc(-c5c6nc(c(-c7c(F)c(F)c(F)c(F)c7F)c7ccc([nH]7)c(-c7c(F)c(F)c(F)c(F)c7F)c7nc(c(-c8c(F)c(F)c(F)c(F)c8F)c8ccc5[nH]8)C=C7)C=C6)cc4)ccc23)cc1
REMARK SMILES IDX 22 1 23 2 24 3 20 5 21 6 19 7 17 8 18 9 16 11 15 12 14 13
REMARK SMILES IDX 7 14 8 15 97 16 9 17 12 18 96 19 10 20 11 21 13 22 95 23
REMARK SMILES IDX 6 24 3 25 4 26 99 27 5 28 98 29 2 30 1 31 25 32 26 33 27 34
REMARK SMILES IDX 28 35 29 36 30 37 31 39 32 40 33 41 94 42 34 43 93 44 35 45
REMARK SMILES IDX 36 46 37 47 87 48 38 49 92 50 86 51 88 52 39 53 91 54 85 55
REMARK SMILES IDX 84 56 40 58 72 59 52 60 71 61 53 62 56 63 70 64 89 65 54 66
REMARK SMILES IDX 55 67 69 69 90 70 57 71 41 72 42 73 50 74 43 75 44 76 48 77
REMARK SMILES IDX 51 78 45 79 46 80 49 81 47 82 73 83 74 84 82 85 75 86 76 87
REMARK SMILES IDX 80 88 83 89 77 90 78 91 81 92 79 93 58 94 59 95 67 96 60 97
REMARK SMILES IDX 61 98 65 99 68 100 62 101 63 102 66 103 64 104
REMARK H PARENT 24 4 19 10 29 38 88 57 56 68
REMARK Flexibility Score: inf
ROOT
ATOM      1  C   UNL A   1      41.100  22.067  27.828  1.00  0.00     0.242 C 
ATOM      2  O   UNL A   1      41.177  23.001  28.627  1.00  0.00    -0.273 OA
ATOM      3  N   UNL A   1      41.353  20.804  28.291  1.00  0.00    -0.354 N 
ATOM      4  H   UNL A   1      41.705  20.765  29.210  1.00  0.00     0.163 HD
ENDROOT
BRANCH   1   5
ATOM      5  C   UNL A   1      40.618  22.292  26.384  1.00  0.00     0.168 C 
ATOM      6  C   UNL A   1      41.829  22.604  25.500  1.00  0.00     0.041 C 
BRANCH   5   7
ATOM      7  N   UNL A   1      39.575  23.324  26.393  1.00  0.00    -0.342 N 
ATOM      8  C   UNL A   1      38.292  23.275  25.928  1.00  0.00     0.258 C 
ATOM      9  O   UNL A   1      37.538  24.215  26.187  1.00  0.00    -0.271 OA
ATOM     10  H   UNL A   1      39.841  24.183  26.793  1.00  0.00     0.164 HD
BRANCH   8  11
ATOM     11  C   UNL A   1      37.830  22.078  25.127  1.00  0.00     0.329 C 
BRANCH  11  12
ATOM     12  O   UNL A   1      36.628  21.674  25.760  1.00  0.00    -0.484 OA
BRANCH  12  13
ATOM     13  C   UNL A   1      35.457  21.809  25.085  1.00  0.00     0.123 A 
ATOM     14  C   UNL A   1      32.159  24.022  24.677  1.00  0.00    -0.000 A 
ATOM     15  C   UNL A   1      31.061  23.805  25.415  1.00  0.00     0.103 A 
ATOM     16  C   UNL A   1      33.029  22.860  24.388  1.00  0.00     0.026 A 
ATOM     17  C   UNL A   1      30.813  22.463  25.993  1.00  0.00     0.336 A 
ATOM     18  C   UNL A   1      33.089  21.942  25.426  1.00  0.00     0.142 A 
ATOM     19  C   UNL A   1      34.108  23.007  23.509  1.00  0.00     0.016 A 
ATOM     20  O   UNL A   1      29.709  22.149  26.415  1.00  0.00    -0.246 OA
ATOM     21  O   UNL A   1      31.950  21.682  26.199  1.00  0.00    -0.423 OA
ATOM     22  C   UNL A   1      34.317  21.434  25.808  1.00  0.00     0.094 A 
ATOM     23  C   UNL A   1      35.347  22.497  23.878  1.00  0.00     0.047 A 
BRANCH  14  24
ATOM     24  C   UNL A   1      32.776  25.373  24.728  1.00  0.00    -0.017 A 
ATOM     25  C   UNL A   1      33.167  28.104  25.064  1.00  0.00     0.118 A 
ATOM     26  C   UNL A   1      33.784  27.196  25.930  1.00  0.00     0.047 A 
ATOM     27  C   UNL A   1      32.464  27.663  23.953  1.00  0.00     0.047 A 
ATOM     28  C   UNL A   1      33.578  25.820  25.773  1.00  0.00     0.012 A 
ATOM     29  C   UNL A   1      32.275  26.299  23.783  1.00  0.00     0.012 A 
BRANCH  25  30
ATOM     30  O   UNL A   1      33.243  29.443  25.331  1.00  0.00    -0.497 OA
ATOM     31  C   UNL A   1      31.921  29.973  25.494  1.00  0.00     0.278 C 
ENDBRANCH  25  30
ENDBRANCH  14  24
ENDBRANCH  12  13
ENDBRANCH  11  12
ENDBRANCH   8  11
ENDBRANCH   5   7
ENDBRANCH   1   5
BRANCH   3  32
ATOM     32  C   UNL A   1      41.189  19.508  27.647  1.00  0.00     0.116 C 
BRANCH  32  33
ATOM     33  C   UNL A   1      42.410  18.611  27.846  1.00  0.00     0.023 C 
BRANCH  33  34
ATOM     34  C   UNL A   1      43.056  18.121  26.552  1.00  0.00     0.023 C 
BRANCH  34  35
ATOM     35  C   UNL A   1      43.117  19.151  25.434  1.00  0.00     0.116 C 
BRANCH  35  36
ATOM     36  N   UNL A   1      44.135  18.854  24.440  1.00  0.00    -0.352 N 
ATOM     37  C   UNL A   1      45.105  19.677  23.929  1.00  0.00     0.251 C 
ATOM     38  H   UNL A   1      44.126  17.936  24.086  1.00  0.00     0.163 HD
ATOM     39  O   UNL A   1      45.819  19.290  23.009  1.00  0.00    -0.269 OA
BRANCH  37  40
ATOM     40  C   UNL A   1      45.268  21.044  24.465  1.00  0.00     0.039 A 
ATOM     41  C   UNL A   1      44.983  22.125  23.629  1.00  0.00     0.014 A 
ATOM     42  C   UNL A   1      45.710  21.261  25.773  1.00  0.00     0.014 A 
ATOM     43  C   UNL A   1      45.107  23.426  24.115  1.00  0.00     0.010 A 
ATOM     44  C   UNL A   1      45.762  22.555  26.280  1.00  0.00     0.010 A 
ATOM     45  C   UNL A   1      45.484  23.650  25.449  1.00  0.00    -0.014 A 
BRANCH  45  46
ATOM     46  C   UNL A   1      45.635  25.027  25.972  1.00  0.00     0.031 A 
ATOM     47  C   UNL A   1      46.978  25.698  25.944  1.00  0.00     0.074 A 
ATOM     48  C   UNL A   1      44.577  25.653  26.520  1.00  0.00     0.049 A 
ATOM     49  N   UNL A   1      47.319  26.890  26.362  1.00  0.00    -0.248 NA
ATOM     50  C   UNL A   1      48.098  24.907  25.407  1.00  0.00     0.031 C 
ATOM     51  C   UNL A   1      43.242  25.075  26.677  1.00  0.00     0.029 A 
ATOM     52  N   UNL A   1      44.464  26.910  27.054  1.00  0.00    -0.354 N 
ATOM     53  C   UNL A   1      48.689  26.982  26.160  1.00  0.00     0.074 A 
ATOM     54  C   UNL A   1      49.127  25.707  25.634  1.00  0.00     0.031 C 
ATOM     55  C   UNL A   1      42.438  25.983  27.254  1.00  0.00     0.029 A 
ATOM     56  C   UNL A   1      43.204  27.198  27.517  1.00  0.00     0.049 A 
ATOM     57  H   UNL A   1      45.215  27.546  27.102  1.00  0.00     0.167 HD
ATOM     58  C   UNL A   1      49.505  28.043  26.369  1.00  0.00     0.037 A 
ATOM     59  C   UNL A   1      42.723  28.322  28.078  1.00  0.00     0.037 A 
ATOM     60  C   UNL A   1      49.058  29.322  26.854  1.00  0.00     0.049 A 
ATOM     61  C   UNL A   1      43.624  29.516  28.224  1.00  0.00     0.074 A 
ATOM     62  C   UNL A   1      49.785  30.485  27.025  1.00  0.00     0.029 A 
ATOM     63  N   UNL A   1      47.756  29.602  27.242  1.00  0.00    -0.354 N 
ATOM     64  N   UNL A   1      44.900  29.625  27.944  1.00  0.00    -0.248 NA
ATOM     65  C   UNL A   1      43.014  30.748  28.740  1.00  0.00     0.031 C 
ATOM     66  C   UNL A   1      48.929  31.462  27.546  1.00  0.00     0.029 A 
ATOM     67  C   UNL A   1      47.660  30.918  27.663  1.00  0.00     0.049 A 
ATOM     68  H   UNL A   1      47.010  28.960  27.222  1.00  0.00     0.167 HD
ATOM     69  C   UNL A   1      45.242  30.940  28.228  1.00  0.00     0.074 A 
ATOM     70  C   UNL A   1      44.034  31.594  28.688  1.00  0.00     0.031 C 
ATOM     71  C   UNL A   1      46.448  31.551  28.116  1.00  0.00     0.037 A 
BRANCH  58  72
ATOM     72  C   UNL A   1      50.964  27.853  26.070  1.00  0.00     0.064 A 
ATOM     73  C   UNL A   1      51.480  28.034  24.778  1.00  0.00     0.173 A 
ATOM     74  C   UNL A   1      51.855  27.476  27.085  1.00  0.00     0.173 A 
ATOM     75  F   UNL A   1      50.666  28.379  23.768  1.00  0.00    -0.203 F 
ATOM     76  C   UNL A   1      52.825  27.803  24.504  1.00  0.00     0.198 A 
ATOM     77  C   UNL A   1      53.206  27.276  26.814  1.00  0.00     0.198 A 
ATOM     78  F   UNL A   1      51.415  27.294  28.339  1.00  0.00    -0.203 F 
ATOM     79  F   UNL A   1      53.281  27.918  23.248  1.00  0.00    -0.200 F 
ATOM     80  C   UNL A   1      53.688  27.427  25.522  1.00  0.00     0.200 A 
ATOM     81  F   UNL A   1      54.041  26.921  27.801  1.00  0.00    -0.200 F 
ATOM     82  F   UNL A   1      54.981  27.199  25.255  1.00  0.00    -0.200 F 
ENDBRANCH  58  72
BRANCH  59  83
ATOM     83  C   UNL A   1      41.296  28.380  28.482  1.00  0.00     0.064 A 
ATOM     84  C   UNL A   1      40.894  27.972  29.761  1.00  0.00     0.173 A 
ATOM     85  C   UNL A   1      40.315  28.880  27.615  1.00  0.00     0.173 A 
ATOM     86  F   UNL A   1      41.797  27.474  30.618  1.00  0.00    -0.203 F 
ATOM     87  C   UNL A   1      39.561  28.052  30.155  1.00  0.00     0.198 A 
ATOM     88  C   UNL A   1      38.985  28.979  28.018  1.00  0.00     0.198 A 
ATOM     89  F   UNL A   1      40.653  29.292  26.384  1.00  0.00    -0.203 F 
ATOM     90  F   UNL A   1      39.199  27.630  31.374  1.00  0.00    -0.200 F 
ATOM     91  C   UNL A   1      38.608  28.561  29.286  1.00  0.00     0.200 A 
ATOM     92  F   UNL A   1      38.070  29.485  27.180  1.00  0.00    -0.200 F 
ATOM     93  F   UNL A   1      37.328  28.649  29.669  1.00  0.00    -0.200 F 
ENDBRANCH  59  83
BRANCH  71  94
ATOM     94  C   UNL A   1      46.512  33.006  28.475  1.00  0.00     0.064 A 
ATOM     95  C   UNL A   1      46.727  33.426  29.795  1.00  0.00     0.173 A 
ATOM     96  C   UNL A   1      46.389  33.988  27.481  1.00  0.00     0.173 A 
ATOM     97  F   UNL A   1      46.836  32.525  30.782  1.00  0.00    -0.203 F 
ATOM     98  C   UNL A   1      46.791  34.781  30.110  1.00  0.00     0.198 A 
ATOM     99  C   UNL A   1      46.480  35.340  27.796  1.00  0.00     0.198 A 
ATOM    100  F   UNL A   1      46.189  33.635  26.202  1.00  0.00    -0.203 F 
ATOM    101  F   UNL A   1      46.953  35.164  31.385  1.00  0.00    -0.200 F 
ATOM    102  C   UNL A   1      46.674  35.736  29.111  1.00  0.00     0.200 A 
ATOM    103  F   UNL A   1      46.376  36.261  26.828  1.00  0.00    -0.200 F 
ATOM    104  F   UNL A   1      46.739  37.039  29.417  1.00  0.00    -0.200 F 
ENDBRANCH  71  94
ENDBRANCH  45  46
ENDBRANCH  37  40
ENDBRANCH  35  36
ENDBRANCH  34  35
ENDBRANCH  33  34
ENDBRANCH  32  33
ENDBRANCH   3  32
TORSDOF 17
ENDMDL
MODEL 2
REMARK VINA RESULT:     -11.5      0.775      2.085
REMARK SMILES COc1ccc(-c2cc(=O)oc3cc(OCC(=O)N[C@@H](C)C(=O)NCCCCNC(=O)c4ccc(-c5c6nc(c(-c7c(F)c(F)c(F)c(F)c7F)c7ccc([nH]7)c(-c7c(F)c(F)c(F)c(F)c7F)c7nc(c(-c8c(F)c(F)c(F)c(F)c8F)c8ccc5[nH]8)C=C7)C=C6)cc4)ccc23)cc1
REMARK SMILES IDX 22 1 23 2 24 3 20 5 21 6 19 7 17 8 18 9 16 11 15 12 14 13
REMARK SMILES IDX 7 14 8 15 97 16 9 17 12 18 96 19 10 20 11 21 13 22 95 23
REMARK SMILES IDX 6 24 3 25 4 26 99 27 5 28 98 29 2 30 1 31 25 32 26 33 27 34
REMARK SMILES IDX 28 35 29 36 30 37 31 39 32 40 33 41 94 42 34 43 93 44 35 45
REMARK SMILES IDX 36 46 37 47 87 48 38 49 92 50 86 51 88 52 39 53 91 54 85 55
REMARK SMILES IDX 84 56 40 58 72 59 52 60 71 61 53 62 56 63 70 64 89 65 54 66
REMARK SMILES IDX 55 67 69 69 90 70 57 71 41 72 42 73 50 74 43 75 44 76 48 77
REMARK SMILES IDX 51 78 45 79 46 80 49 81 47 82 73 83 74 84 82 85 75 86 76 87
REMARK SMILES IDX 80 88 83 89 77 90 78 91 81 92 79 93 58 94 59 95 67 96 60 97
REMARK SMILES IDX 61 98 65 99 68 100 62 101 63 102 66 103 64 104
REMARK H PARENT 24 4 19 10 29 38 88 57 56 68
REMARK Flexibility Score: inf
ROOT
ATOM      1  C   UNL A   1      40.978  22.175  27.791  1.00  0.00     0.242 C 
ATOM      2  O   UNL A   1      41.037  23.128  28.570  1.00  0.00    -0.273 OA
ATOM      3  N   UNL A   1      41.233  20.925  28.285  1.00  0.00    -0.354 N 
ATOM      4  H   UNL A   1      41.570  20.908  29.210  1.00  0.00     0.163 HD
ENDROOT
BRANCH   1   5
ATOM      5  C   UNL A   1      40.518  22.365  26.335  1.00  0.00     0.168 C 
ATOM      6  C   UNL A   1      41.745  22.613  25.454  1.00  0.00     0.041 C 
BRANCH   5   7
ATOM      7  N   UNL A   1      39.505  23.427  26.298  1.00  0.00    -0.342 N 
ATOM      8  C   UNL A   1      38.172  23.354  26.012  1.00  0.00     0.258 C 
ATOM      9  O   UNL A   1      37.476  24.354  26.199  1.00  0.00    -0.271 OA
ATOM     10  H   UNL A   1      39.837  24.329  26.511  1.00  0.00     0.164 HD
BRANCH   8  11
ATOM     11  C   UNL A   1      37.586  22.061  25.490  1.00  0.00     0.329 C 
BRANCH  11  12
ATOM     12  O   UNL A   1      36.574  21.729  26.425  1.00  0.00    -0.484 OA
BRANCH  12  13
ATOM     13  C   UNL A   1      35.306  21.541  25.976  1.00  0.00     0.123 A 
ATOM     14  C   UNL A   1      31.978  23.362  24.732  1.00  0.00    -0.000 A 
ATOM     15  C   UNL A   1      31.021  23.753  25.585  1.00  0.00     0.103 A 
ATOM     16  C   UNL A   1      32.791  22.185  25.113  1.00  0.00     0.026 A 
ATOM     17  C   UNL A   1      30.878  23.078  26.897  1.00  0.00     0.336 A 
ATOM     18  C   UNL A   1      33.029  22.092  26.476  1.00  0.00     0.142 A 
ATOM     19  C   UNL A   1      33.707  21.655  24.197  1.00  0.00     0.016 A 
ATOM     20  O   UNL A   1      29.862  23.201  27.566  1.00  0.00    -0.246 OA
ATOM     21  O   UNL A   1      32.037  22.476  27.388  1.00  0.00    -0.423 OA
ATOM     22  C   UNL A   1      34.306  21.804  26.921  1.00  0.00     0.094 A 
ATOM     23  C   UNL A   1      34.993  21.354  24.632  1.00  0.00     0.047 A 
BRANCH  14  24
ATOM     24  C   UNL A   1      32.589  24.392  23.853  1.00  0.00    -0.017 A 
ATOM     25  C   UNL A   1      33.122  26.772  22.523  1.00  0.00     0.118 A 
ATOM     26  C   UNL A   1      34.007  26.302  23.497  1.00  0.00     0.047 A 
ATOM     27  C   UNL A   1      32.042  26.005  22.109  1.00  0.00     0.047 A 
ATOM     28  C   UNL A   1      33.735  25.110  24.180  1.00  0.00     0.012 A 
ATOM     29  C   UNL A   1      31.782  24.814  22.770  1.00  0.00     0.012 A 
BRANCH  25  30
ATOM     30  O   UNL A   1      33.314  28.016  21.986  1.00  0.00    -0.497 OA
ATOM     31  C   UNL A   1      33.004  29.013  22.968  1.00  0.00     0.278 C 
ENDBRANCH  25  30
ENDBRANCH  14  24
ENDBRANCH  12  13
ENDBRANCH  11  12
ENDBRANCH   8  11
ENDBRANCH   5   7
ENDBRANCH   1   5
BRANCH   3  32
ATOM     32  C   UNL A   1      41.087  19.614  27.668  1.00  0.00     0.116 C 
BRANCH  32  33
ATOM     33  C   UNL A   1      42.318  18.737  27.888  1.00  0.00     0.023 C 
BRANCH  33  34
ATOM     34  C   UNL A   1      42.965  18.215  26.606  1.00  0.00     0.023 C 
BRANCH  34  35
ATOM     35  C   UNL A   1      43.048  19.225  25.471  1.00  0.00     0.116 C 
BRANCH  35  36
ATOM     36  N   UNL A   1      44.086  18.911  24.504  1.00  0.00    -0.352 N 
ATOM     37  C   UNL A   1      45.060  19.729  23.991  1.00  0.00     0.251 C 
ATOM     38  H   UNL A   1      44.091  17.985  24.172  1.00  0.00     0.163 HD
ATOM     39  O   UNL A   1      45.794  19.325  23.095  1.00  0.00    -0.269 OA
BRANCH  37  40
ATOM     40  C   UNL A   1      45.203  21.109  24.496  1.00  0.00     0.039 A 
ATOM     41  C   UNL A   1      45.633  21.296  25.812  1.00  0.00     0.014 A 
ATOM     42  C   UNL A   1      44.907  22.211  23.688  1.00  0.00     0.014 A 
ATOM     43  C   UNL A   1      45.799  22.588  26.308  1.00  0.00     0.010 A 
ATOM     44  C   UNL A   1      45.143  23.498  24.159  1.00  0.00     0.010 A 
ATOM     45  C   UNL A   1      45.568  23.699  25.481  1.00  0.00    -0.014 A 
BRANCH  45  46
ATOM     46  C   UNL A   1      45.725  25.076  26.001  1.00  0.00     0.031 A 
ATOM     47  C   UNL A   1      47.073  25.739  25.976  1.00  0.00     0.074 A 
ATOM     48  C   UNL A   1      44.669  25.709  26.545  1.00  0.00     0.049 A 
ATOM     49  N   UNL A   1      47.419  26.931  26.392  1.00  0.00    -0.248 NA
ATOM     50  C   UNL A   1      48.189  24.941  25.444  1.00  0.00     0.031 C 
ATOM     51  C   UNL A   1      43.331  25.139  26.700  1.00  0.00     0.029 A 
ATOM     52  N   UNL A   1      44.562  26.968  27.077  1.00  0.00    -0.354 N 
ATOM     53  C   UNL A   1      48.790  27.014  26.194  1.00  0.00     0.074 A 
ATOM     54  C   UNL A   1      49.222  25.736  25.672  1.00  0.00     0.031 C 
ATOM     55  C   UNL A   1      42.531  26.053  27.273  1.00  0.00     0.029 A 
ATOM     56  C   UNL A   1      43.303  27.264  27.535  1.00  0.00     0.049 A 
ATOM     57  H   UNL A   1      45.316  27.599  27.125  1.00  0.00     0.167 HD
ATOM     58  C   UNL A   1      49.611  28.071  26.403  1.00  0.00     0.037 A 
ATOM     59  C   UNL A   1      42.826  28.392  28.092  1.00  0.00     0.037 A 
ATOM     60  C   UNL A   1      49.170  29.354  26.883  1.00  0.00     0.049 A 
ATOM     61  C   UNL A   1      43.734  29.581  28.238  1.00  0.00     0.074 A 
ATOM     62  C   UNL A   1      49.903  30.513  27.054  1.00  0.00     0.029 A 
ATOM     63  N   UNL A   1      47.868  29.642  27.268  1.00  0.00    -0.354 N 
ATOM     64  N   UNL A   1      45.011  29.683  27.961  1.00  0.00    -0.248 NA
ATOM     65  C   UNL A   1      43.129  30.818  28.750  1.00  0.00     0.031 C 
ATOM     66  C   UNL A   1      49.051  31.497  27.571  1.00  0.00     0.029 A 
ATOM     67  C   UNL A   1      47.778  30.959  27.685  1.00  0.00     0.049 A 
ATOM     68  H   UNL A   1      47.119  29.004  27.247  1.00  0.00     0.167 HD
ATOM     69  C   UNL A   1      45.360  30.997  28.243  1.00  0.00     0.074 A 
ATOM     70  C   UNL A   1      44.154  31.657  28.699  1.00  0.00     0.031 C 
ATOM     71  C   UNL A   1      46.568  31.600  28.134  1.00  0.00     0.037 A 
BRANCH  58  72
ATOM     72  C   UNL A   1      51.070  27.873  26.108  1.00  0.00     0.064 A 
ATOM     73  C   UNL A   1      51.973  27.467  27.102  1.00  0.00     0.173 A 
ATOM     74  C   UNL A   1      51.573  28.101  24.819  1.00  0.00     0.173 A 
ATOM     75  F   UNL A   1      51.545  27.251  28.356  1.00  0.00    -0.203 F 
ATOM     76  C   UNL A   1      53.332  27.340  26.828  1.00  0.00     0.198 A 
ATOM     77  C   UNL A   1      52.927  27.943  24.540  1.00  0.00     0.198 A 
ATOM     78  F   UNL A   1      50.752  28.487  23.831  1.00  0.00    -0.203 F 
ATOM     79  F   UNL A   1      54.185  27.015  27.810  1.00  0.00    -0.200 F 
ATOM     80  C   UNL A   1      53.808  27.574  25.547  1.00  0.00     0.200 A 
ATOM     81  F   UNL A   1      53.385  28.161  23.299  1.00  0.00    -0.200 F 
ATOM     82  F   UNL A   1      55.117  27.457  25.285  1.00  0.00    -0.200 F 
ENDBRANCH  58  72
BRANCH  59  83
ATOM     83  C   UNL A   1      41.399  28.458  28.492  1.00  0.00     0.064 A 
ATOM     84  C   UNL A   1      40.422  28.923  27.601  1.00  0.00     0.173 A 
ATOM     85  C   UNL A   1      40.978  28.022  29.756  1.00  0.00     0.173 A 
ATOM     86  F   UNL A   1      40.782  29.364  26.387  1.00  0.00    -0.203 F 
ATOM     87  C   UNL A   1      39.078  28.960  27.963  1.00  0.00     0.198 A 
ATOM     88  C   UNL A   1      39.630  28.039  30.108  1.00  0.00     0.198 A 
ATOM     89  F   UNL A   1      41.874  27.559  30.639  1.00  0.00    -0.203 F 
ATOM     90  F   UNL A   1      38.168  29.434  27.101  1.00  0.00    -0.200 F 
ATOM     91  C   UNL A   1      38.682  28.511  29.214  1.00  0.00     0.200 A 
ATOM     92  F   UNL A   1      39.250  27.591  31.313  1.00  0.00    -0.200 F 
ATOM     93  F   UNL A   1      37.387  28.535  29.556  1.00  0.00    -0.200 F 
ENDBRANCH  59  83
BRANCH  71  94
ATOM     94  C   UNL A   1      46.640  33.055  28.489  1.00  0.00     0.064 A 
ATOM     95  C   UNL A   1      46.398  34.056  27.538  1.00  0.00     0.173 A 
ATOM     96  C   UNL A   1      46.924  33.451  29.805  1.00  0.00     0.173 A 
ATOM     97  F   UNL A   1      46.137  33.727  26.264  1.00  0.00    -0.203 F 
ATOM     98  C   UNL A   1      46.462  35.402  27.886  1.00  0.00     0.198 A 
ATOM     99  C   UNL A   1      46.962  34.797  30.155  1.00  0.00     0.198 A 
ATOM    100  F   UNL A   1      47.158  32.530  30.753  1.00  0.00    -0.203 F 
ATOM    101  F   UNL A   1      46.270  36.345  26.952  1.00  0.00    -0.200 F 
ATOM    102  C   UNL A   1      46.737  35.772  29.195  1.00  0.00     0.200 A 
ATOM    103  F   UNL A   1      47.219  35.151  31.422  1.00  0.00    -0.200 F 
ATOM    104  F   UNL A   1      46.796  37.068  29.528  1.00  0.00    -0.200 F 
ENDBRANCH  71  94
ENDBRANCH  45  46
ENDBRANCH  37  40
ENDBRANCH  35  36
ENDBRANCH  34  35
ENDBRANCH  33  34
ENDBRANCH  32  33
ENDBRANCH   3  32
TORSDOF 17
ENDMDL
MODEL 3
REMARK VINA RESULT:     -11.2      4.543      9.508
REMARK SMILES COc1ccc(-c2cc(=O)oc3cc(OCC(=O)N[C@@H](C)C(=O)NCCCCNC(=O)c4ccc(-c5c6nc(c(-c7c(F)c(F)c(F)c(F)c7F)c7ccc([nH]7)c(-c7c(F)c(F)c(F)c(F)c7F)c7nc(c(-c8c(F)c(F)c(F)c(F)c8F)c8ccc5[nH]8)C=C7)C=C6)cc4)ccc23)cc1
REMARK SMILES IDX 22 1 23 2 24 3 20 5 21 6 19 7 17 8 18 9 16 11 15 12 14 13
REMARK SMILES IDX 7 14 8 15 97 16 9 17 12 18 96 19 10 20 11 21 13 22 95 23
REMARK SMILES IDX 6 24 3 25 4 26 99 27 5 28 98 29 2 30 1 31 25 32 26 33 27 34
REMARK SMILES IDX 28 35 29 36 30 37 31 39 32 40 33 41 94 42 34 43 93 44 35 45
REMARK SMILES IDX 36 46 37 47 87 48 38 49 92 50 86 51 88 52 39 53 91 54 85 55
REMARK SMILES IDX 84 56 40 58 72 59 52 60 71 61 53 62 56 63 70 64 89 65 54 66
REMARK SMILES IDX 55 67 69 69 90 70 57 71 41 72 42 73 50 74 43 75 44 76 48 77
REMARK SMILES IDX 51 78 45 79 46 80 49 81 47 82 73 83 74 84 82 85 75 86 76 87
REMARK SMILES IDX 80 88 83 89 77 90 78 91 81 92 79 93 58 94 59 95 67 96 60 97
REMARK SMILES IDX 61 98 65 99 68 100 62 101 63 102 66 103 64 104
REMARK H PARENT 24 4 19 10 29 38 88 57 56 68
REMARK Flexibility Score: inf
ROOT
ATOM      1  C   UNL A   1      45.453  26.193  26.351  1.00  0.00     0.242 C 
ATOM      2  O   UNL A   1      46.110  26.696  27.264  1.00  0.00    -0.273 OA
ATOM      3  N   UNL A   1      44.810  25.011  26.599  1.00  0.00    -0.354 N 
ATOM      4  H   UNL A   1      45.034  24.593  27.462  1.00  0.00     0.163 HD
ENDROOT
BRANCH   1   5
ATOM      5  C   UNL A   1      45.263  26.924  25.010  1.00  0.00     0.168 C 
ATOM      6  C   UNL A   1      46.405  27.927  24.825  1.00  0.00     0.041 C 
BRANCH   5   7
ATOM      7  N   UNL A   1      43.916  27.506  24.980  1.00  0.00    -0.342 N 
ATOM      8  C   UNL A   1      43.401  28.555  25.684  1.00  0.00     0.258 C 
ATOM      9  O   UNL A   1      42.283  28.975  25.378  1.00  0.00    -0.271 OA
ATOM     10  H   UNL A   1      43.289  27.074  24.357  1.00  0.00     0.164 HD
BRANCH   8  11
ATOM     11  C   UNL A   1      44.208  29.177  26.802  1.00  0.00     0.329 C 
BRANCH  11  12
ATOM     12  O   UNL A   1      43.931  30.564  26.708  1.00  0.00    -0.484 OA
BRANCH  12  13
ATOM     13  C   UNL A   1      44.816  31.444  27.245  1.00  0.00     0.123 A 
ATOM     14  C   UNL A   1      45.995  35.258  27.314  1.00  0.00    -0.000 A 
ATOM     15  C   UNL A   1      46.898  35.738  26.448  1.00  0.00     0.103 A 
ATOM     16  C   UNL A   1      46.091  33.825  27.676  1.00  0.00     0.026 A 
ATOM     17  C   UNL A   1      47.877  34.822  25.815  1.00  0.00     0.336 A 
ATOM     18  C   UNL A   1      46.516  33.017  26.633  1.00  0.00     0.142 A 
ATOM     19  C   UNL A   1      45.260  33.311  28.678  1.00  0.00     0.016 A 
ATOM     20  O   UNL A   1      48.879  35.248  25.261  1.00  0.00    -0.246 OA
ATOM     21  O   UNL A   1      47.475  33.488  25.727  1.00  0.00    -0.423 OA
ATOM     22  C   UNL A   1      45.853  31.829  26.385  1.00  0.00     0.094 A 
ATOM     23  C   UNL A   1      44.592  32.114  28.445  1.00  0.00     0.047 A 
BRANCH  14  24
ATOM     24  C   UNL A   1      44.663  35.914  27.364  1.00  0.00    -0.017 A 
ATOM     25  C   UNL A   1      42.523  37.622  26.890  1.00  0.00     0.118 A 
ATOM     26  C   UNL A   1      42.450  36.282  26.498  1.00  0.00     0.047 A 
ATOM     27  C   UNL A   1      43.597  38.090  27.633  1.00  0.00     0.047 A 
ATOM     28  C   UNL A   1      43.531  35.421  26.722  1.00  0.00     0.012 A 
ATOM     29  C   UNL A   1      44.661  37.234  27.875  1.00  0.00     0.012 A 
BRANCH  25  30
ATOM     30  O   UNL A   1      41.530  38.486  26.515  1.00  0.00    -0.497 OA
ATOM     31  C   UNL A   1      42.041  39.826  26.508  1.00  0.00     0.278 C 
ENDBRANCH  25  30
ENDBRANCH  14  24
ENDBRANCH  12  13
ENDBRANCH  11  12
ENDBRANCH   8  11
ENDBRANCH   5   7
ENDBRANCH   1   5
BRANCH   3  32
ATOM     32  C   UNL A   1      43.849  24.268  25.796  1.00  0.00     0.116 C 
BRANCH  32  33
ATOM     33  C   UNL A   1      43.209  23.124  26.581  1.00  0.00     0.023 C 
BRANCH  33  34
ATOM     34  C   UNL A   1      42.170  22.321  25.801  1.00  0.00     0.023 C 
BRANCH  34  35
ATOM     35  C   UNL A   1      41.013  21.789  26.633  1.00  0.00     0.116 C 
BRANCH  35  36
ATOM     36  N   UNL A   1      39.721  21.962  25.990  1.00  0.00    -0.352 N 
ATOM     37  C   UNL A   1      38.872  23.037  26.041  1.00  0.00     0.251 C 
ATOM     38  H   UNL A   1      39.415  21.204  25.442  1.00  0.00     0.163 HD
ATOM     39  O   UNL A   1      37.763  22.971  25.520  1.00  0.00    -0.269 OA
BRANCH  37  40
ATOM     40  C   UNL A   1      39.281  24.265  26.753  1.00  0.00     0.039 A 
ATOM     41  C   UNL A   1      38.900  24.419  28.087  1.00  0.00     0.014 A 
ATOM     42  C   UNL A   1      40.022  25.262  26.111  1.00  0.00     0.014 A 
ATOM     43  C   UNL A   1      39.290  25.558  28.790  1.00  0.00     0.010 A 
ATOM     44  C   UNL A   1      40.473  26.362  26.833  1.00  0.00     0.010 A 
ATOM     45  C   UNL A   1      40.092  26.531  28.172  1.00  0.00    -0.014 A 
BRANCH  45  46
ATOM     46  C   UNL A   1      40.500  27.753  28.903  1.00  0.00     0.031 A 
ATOM     47  C   UNL A   1      41.893  27.870  29.452  1.00  0.00     0.074 A 
ATOM     48  C   UNL A   1      39.602  28.732  29.120  1.00  0.00     0.049 A 
ATOM     49  N   UNL A   1      42.439  28.848  30.128  1.00  0.00    -0.248 NA
ATOM     50  C   UNL A   1      42.781  26.715  29.244  1.00  0.00     0.031 C 
ATOM     51  C   UNL A   1      38.199  28.698  28.707  1.00  0.00     0.029 A 
ATOM     52  N   UNL A   1      39.738  29.942  29.750  1.00  0.00    -0.354 N 
ATOM     53  C   UNL A   1      43.720  28.418  30.443  1.00  0.00     0.074 A 
ATOM     54  C   UNL A   1      43.853  27.070  29.934  1.00  0.00     0.031 C 
ATOM     55  C   UNL A   1      37.606  29.844  29.081  1.00  0.00     0.029 A 
ATOM     56  C   UNL A   1      38.583  30.683  29.768  1.00  0.00     0.049 A 
ATOM     57  H   UNL A   1      40.583  30.249  30.152  1.00  0.00     0.167 HD
ATOM     58  C   UNL A   1      44.707  29.095  31.077  1.00  0.00     0.037 A 
ATOM     59  C   UNL A   1      38.348  31.908  30.273  1.00  0.00     0.037 A 
ATOM     60  C   UNL A   1      44.584  30.451  31.545  1.00  0.00     0.049 A 
ATOM     61  C   UNL A   1      39.478  32.676  30.898  1.00  0.00     0.074 A 
ATOM     62  C   UNL A   1      45.545  31.256  32.127  1.00  0.00     0.029 A 
ATOM     63  N   UNL A   1      43.418  31.201  31.479  1.00  0.00    -0.354 N 
ATOM     64  N   UNL A   1      40.715  32.297  31.111  1.00  0.00    -0.248 NA
ATOM     65  C   UNL A   1      39.187  34.049  31.331  1.00  0.00     0.031 C 
ATOM     66  C   UNL A   1      44.952  32.486  32.441  1.00  0.00     0.029 A 
ATOM     67  C   UNL A   1      43.632  32.458  32.019  1.00  0.00     0.049 A 
ATOM     68  H   UNL A   1      42.565  30.885  31.103  1.00  0.00     0.167 HD
ATOM     69  C   UNL A   1      41.356  33.389  31.680  1.00  0.00     0.074 A 
ATOM     70  C   UNL A   1      40.374  34.449  31.766  1.00  0.00     0.031 C 
ATOM     71  C   UNL A   1      42.642  33.501  32.094  1.00  0.00     0.037 A 
BRANCH  58  72
ATOM     72  C   UNL A   1      46.003  28.371  31.295  1.00  0.00     0.064 A 
ATOM     73  C   UNL A   1      47.040  28.417  30.350  1.00  0.00     0.173 A 
ATOM     74  C   UNL A   1      46.209  27.614  32.457  1.00  0.00     0.173 A 
ATOM     75  F   UNL A   1      46.887  29.114  29.213  1.00  0.00    -0.203 F 
ATOM     76  C   UNL A   1      48.216  27.696  30.540  1.00  0.00     0.198 A 
ATOM     77  C   UNL A   1      47.399  26.919  32.659  1.00  0.00     0.198 A 
ATOM     78  F   UNL A   1      45.252  27.539  33.394  1.00  0.00    -0.203 F 
ATOM     79  F   UNL A   1      49.164  27.703  29.592  1.00  0.00    -0.200 F 
ATOM     80  C   UNL A   1      48.397  26.951  31.695  1.00  0.00     0.200 A 
ATOM     81  F   UNL A   1      47.576  26.206  33.780  1.00  0.00    -0.200 F 
ATOM     82  F   UNL A   1      49.527  26.253  31.874  1.00  0.00    -0.200 F 
ENDBRANCH  58  72
BRANCH  59  83
ATOM     83  C   UNL A   1      36.992  32.498  30.146  1.00  0.00     0.064 A 
ATOM     84  C   UNL A   1      36.050  32.366  31.175  1.00  0.00     0.173 A 
ATOM     85  C   UNL A   1      36.627  33.239  29.013  1.00  0.00     0.173 A 
ATOM     86  F   UNL A   1      36.353  31.654  32.270  1.00  0.00    -0.203 F 
ATOM     87  C   UNL A   1      34.787  32.944  31.071  1.00  0.00     0.198 A 
ATOM     88  C   UNL A   1      35.370  33.833  28.920  1.00  0.00     0.198 A 
ATOM     89  F   UNL A   1      37.498  33.401  28.006  1.00  0.00    -0.203 F 
ATOM     90  F   UNL A   1      33.896  32.779  32.058  1.00  0.00    -0.200 F 
ATOM     91  C   UNL A   1      34.450  33.683  29.947  1.00  0.00     0.200 A 
ATOM     92  F   UNL A   1      35.053  34.559  27.839  1.00  0.00    -0.200 F 
ATOM     93  F   UNL A   1      33.239  34.248  29.854  1.00  0.00    -0.200 F 
ENDBRANCH  59  83
BRANCH  71  94
ATOM     94  C   UNL A   1      43.066  34.827  32.653  1.00  0.00     0.064 A 
ATOM     95  C   UNL A   1      43.516  35.863  31.824  1.00  0.00     0.173 A 
ATOM     96  C   UNL A   1      42.991  35.071  34.033  1.00  0.00     0.173 A 
ATOM     97  F   UNL A   1      43.619  35.672  30.501  1.00  0.00    -0.203 F 
ATOM     98  C   UNL A   1      43.900  37.090  32.358  1.00  0.00     0.198 A 
ATOM     99  C   UNL A   1      43.351  36.307  34.561  1.00  0.00     0.198 A 
ATOM    100  F   UNL A   1      42.561  34.112  34.867  1.00  0.00    -0.203 F 
ATOM    101  F   UNL A   1      44.369  38.053  31.553  1.00  0.00    -0.200 F 
ATOM    102  C   UNL A   1      43.811  37.313  33.725  1.00  0.00     0.200 A 
ATOM    103  F   UNL A   1      43.256  36.523  35.880  1.00  0.00    -0.200 F 
ATOM    104  F   UNL A   1      44.179  38.495  34.237  1.00  0.00    -0.200 F 
ENDBRANCH  71  94
ENDBRANCH  45  46
ENDBRANCH  37  40
ENDBRANCH  35  36
ENDBRANCH  34  35
ENDBRANCH  33  34
ENDBRANCH  32  33
ENDBRANCH   3  32
TORSDOF 17
ENDMDL
