MODEL 1
REMARK VINA RESULT:     -13.8      0.000      0.000
REMARK SMILES CC[C@@H](C)[C@@H](NC(=O)Cn1nc(-c2ccc3ccccc3c2)ccc1=O)C(=O)NCCCCNC(=O)c1ccc(-c2c3nc(c(-c4c(F)c(F)c(F)c(F)c4F)c4ccc([nH]4)c(-c4c(F)c(F)c(F)c(F)c4F)c4nc(c(-c5c(F)c(F)c(F)c(F)c5F)c5ccc2[nH]5)C=C4)C=C3)cc1
REMARK SMILES IDX 30 1 29 2 27 3 28 4 5 6 3 7 4 8 2 9 1 10 6 11 7 12 8 14 9 15
REMARK SMILES IDX 10 16 11 17 25 18 12 19 24 20 26 21 23 22 13 23 14 24 22 25
REMARK SMILES IDX 15 26 21 27 16 28 20 29 17 30 19 31 18 32 31 33 32 34 33 35
REMARK SMILES IDX 34 36 35 37 36 39 37 40 38 41 99 42 39 43 98 44 40 45 41 46
REMARK SMILES IDX 42 47 92 48 43 49 97 50 91 51 93 52 44 53 96 54 90 55 89 56
REMARK SMILES IDX 45 58 77 59 57 60 76 61 58 62 61 63 75 64 94 65 59 66 60 67
REMARK SMILES IDX 74 69 95 70 62 71 46 72 47 73 55 74 48 75 49 76 53 77 56 78
REMARK SMILES IDX 50 79 51 80 54 81 52 82 78 83 79 84 87 85 80 86 81 87 85 88
REMARK SMILES IDX 88 89 82 90 83 91 86 92 84 93 63 94 64 95 72 96 65 97 66 98
REMARK SMILES IDX 70 99 73 100 67 101 68 102 71 103 69 104
REMARK H PARENT 29 5 6 13 34 38 93 57 61 68
REMARK Flexibility Score: inf
ROOT
ATOM      1  C   UNL A   1      29.870  31.921  24.816  1.00  0.00     0.116 C 
ENDROOT
BRANCH   1   2
ATOM      2  N   UNL A   1      30.012  30.641  23.197  1.00  0.00    -0.354 N 
ATOM      3  C   UNL A   1      30.306  29.515  22.421  1.00  0.00     0.242 C 
ATOM      4  O   UNL A   1      29.897  29.564  21.251  1.00  0.00    -0.273 OA
ATOM      5  H   UNL A   1      29.586  31.203  22.510  1.00  0.00     0.163 HD
BRANCH   3   6
ATOM      6  C   UNL A   1      30.884  28.165  22.945  1.00  0.00     0.174 C 
BRANCH   6   7
ATOM      7  C   UNL A   1      29.805  27.304  23.672  1.00  0.00     0.018 C 
ATOM      8  C   UNL A   1      30.026  25.809  23.380  1.00  0.00     0.010 C 
BRANCH   7   9
ATOM      9  C   UNL A   1      28.330  27.703  23.501  1.00  0.00     0.002 C 
ATOM     10  C   UNL A   1      27.415  26.581  24.014  1.00  0.00     0.004 C 
ENDBRANCH   7   9
ENDBRANCH   6   7
BRANCH   6  11
ATOM     11  N   UNL A   1      31.792  27.449  22.013  1.00  0.00    -0.342 N 
ATOM     12  C   UNL A   1      33.081  26.992  22.048  1.00  0.00     0.242 C 
ATOM     13  H   UNL A   1      31.357  27.257  21.151  1.00  0.00     0.164 HD
ATOM     14  O   UNL A   1      33.432  26.284  21.094  1.00  0.00    -0.273 OA
BRANCH  12  15
ATOM     15  C   UNL A   1      34.020  27.123  23.252  1.00  0.00     0.248 C 
BRANCH  15  16
ATOM     16  N   UNL A   1      33.881  26.107  24.283  1.00  0.00    -0.220 N 
ATOM     17  N   UNL A   1      33.732  24.357  23.672  1.00  0.00    -0.169 NA
ATOM     18  C   UNL A   1      32.948  26.635  25.763  1.00  0.00     0.267 A 
ATOM     19  C   UNL A   1      32.806  23.369  24.401  1.00  0.00     0.091 A 
ATOM     20  C   UNL A   1      31.778  25.251  26.501  1.00  0.00     0.075 A 
ATOM     21  O   UNL A   1      33.126  27.713  26.330  1.00  0.00    -0.268 OA
ATOM     22  C   UNL A   1      31.678  23.854  25.875  1.00  0.00     0.036 A 
BRANCH  19  23
ATOM     23  C   UNL A   1      32.725  21.948  24.008  1.00  0.00     0.003 A 
ATOM     24  C   UNL A   1      32.169  21.630  22.769  1.00  0.00     0.011 A 
ATOM     25  C   UNL A   1      33.182  20.942  24.858  1.00  0.00     0.019 A 
ATOM     26  C   UNL A   1      32.152  20.307  22.329  1.00  0.00     0.009 A 
ATOM     27  C   UNL A   1      33.084  19.595  24.461  1.00  0.00    -0.018 A 
ATOM     28  C   UNL A   1      32.602  19.279  23.166  1.00  0.00    -0.018 A 
ATOM     29  C   UNL A   1      33.431  18.546  25.328  1.00  0.00     0.009 A 
ATOM     30  C   UNL A   1      32.545  17.939  22.753  1.00  0.00     0.009 A 
ATOM     31  C   UNL A   1      33.320  17.215  24.919  1.00  0.00     0.001 A 
ATOM     32  C   UNL A   1      32.896  16.912  23.628  1.00  0.00     0.001 A 
ENDBRANCH  19  23
ENDBRANCH  15  16
ENDBRANCH  12  15
ENDBRANCH   6  11
ENDBRANCH   3   6
ENDBRANCH   1   2
BRANCH   1  33
ATOM     33  C   UNL A   1      30.746  32.039  26.254  1.00  0.00     0.023 C 
BRANCH  33  34
ATOM     34  C   UNL A   1      31.778  30.939  26.435  1.00  0.00     0.023 C 
BRANCH  34  35
ATOM     35  C   UNL A   1      33.012  31.367  27.197  1.00  0.00     0.116 C 
BRANCH  35  36
ATOM     36  N   UNL A   1      33.013  32.783  27.534  1.00  0.00    -0.352 N 
ATOM     37  C   UNL A   1      34.057  33.461  28.124  1.00  0.00     0.251 C 
ATOM     38  H   UNL A   1      32.201  33.299  27.322  1.00  0.00     0.163 HD
ATOM     39  O   UNL A   1      33.970  34.616  28.508  1.00  0.00    -0.269 OA
BRANCH  37  40
ATOM     40  C   UNL A   1      35.292  32.675  28.280  1.00  0.00     0.039 A 
ATOM     41  C   UNL A   1      35.151  31.386  28.802  1.00  0.00     0.014 A 
ATOM     42  C   UNL A   1      36.511  33.353  28.317  1.00  0.00     0.014 A 
ATOM     43  C   UNL A   1      36.195  30.860  29.545  1.00  0.00     0.010 A 
ATOM     44  C   UNL A   1      37.600  32.746  28.941  1.00  0.00     0.010 A 
ATOM     45  C   UNL A   1      37.441  31.516  29.602  1.00  0.00    -0.014 A 
BRANCH  45  46
ATOM     46  C   UNL A   1      38.573  30.875  30.319  1.00  0.00     0.031 A 
ATOM     47  C   UNL A   1      39.495  29.896  29.641  1.00  0.00     0.074 A 
ATOM     48  C   UNL A   1      38.764  31.195  31.613  1.00  0.00     0.049 A 
ATOM     49  N   UNL A   1      40.442  29.159  30.166  1.00  0.00    -0.248 NA
ATOM     50  C   UNL A   1      39.334  29.710  28.190  1.00  0.00     0.031 C 
ATOM     51  C   UNL A   1      37.951  32.152  32.371  1.00  0.00     0.029 A 
ATOM     52  N   UNL A   1      39.700  30.772  32.518  1.00  0.00    -0.354 N 
ATOM     53  C   UNL A   1      40.957  28.393  29.128  1.00  0.00     0.074 A 
ATOM     54  C   UNL A   1      40.212  28.746  27.939  1.00  0.00     0.031 C 
ATOM     55  C   UNL A   1      38.463  32.295  33.597  1.00  0.00     0.029 A 
ATOM     56  C   UNL A   1      39.557  31.349  33.756  1.00  0.00     0.049 A 
ATOM     57  H   UNL A   1      40.406  30.120  32.303  1.00  0.00     0.167 HD
ATOM     58  C   UNL A   1      41.961  27.481  29.173  1.00  0.00     0.037 A 
ATOM     59  C   UNL A   1      40.192  31.109  34.915  1.00  0.00     0.037 A 
ATOM     60  C   UNL A   1      42.710  27.162  30.363  1.00  0.00     0.049 A 
ATOM     61  C   UNL A   1      41.251  30.051  34.948  1.00  0.00     0.074 A 
ATOM     62  C   UNL A   1      43.758  26.270  30.510  1.00  0.00     0.029 A 
ATOM     63  N   UNL A   1      42.492  27.725  31.614  1.00  0.00    -0.354 N 
ATOM     64  N   UNL A   1      41.714  29.317  33.966  1.00  0.00    -0.248 NA
ATOM     65  C   UNL A   1      41.862  29.776  36.251  1.00  0.00     0.031 C 
ATOM     66  C   UNL A   1      44.138  26.254  31.855  1.00  0.00     0.029 A 
ATOM     67  C   UNL A   1      43.369  27.181  32.540  1.00  0.00     0.049 A 
ATOM     68  H   UNL A   1      41.813  28.410  31.814  1.00  0.00     0.167 HD
ATOM     69  C   UNL A   1      42.679  28.498  34.529  1.00  0.00     0.074 A 
ATOM     70  C   UNL A   1      42.755  28.850  35.933  1.00  0.00     0.031 C 
ATOM     71  C   UNL A   1      43.427  27.535  33.937  1.00  0.00     0.037 A 
BRANCH  58  72
ATOM     72  C   UNL A   1      42.309  26.743  27.908  1.00  0.00     0.064 A 
ATOM     73  C   UNL A   1      43.280  27.222  27.017  1.00  0.00     0.173 A 
ATOM     74  C   UNL A   1      41.720  25.498  27.624  1.00  0.00     0.173 A 
ATOM     75  F   UNL A   1      43.872  28.405  27.236  1.00  0.00    -0.203 F 
ATOM     76  C   UNL A   1      43.633  26.496  25.879  1.00  0.00     0.198 A 
ATOM     77  C   UNL A   1      42.099  24.760  26.505  1.00  0.00     0.198 A 
ATOM     78  F   UNL A   1      40.794  24.985  28.448  1.00  0.00    -0.203 F 
ATOM     79  F   UNL A   1      44.536  26.993  25.023  1.00  0.00    -0.200 F 
ATOM     80  C   UNL A   1      43.050  25.263  25.630  1.00  0.00     0.200 A 
ATOM     81  F   UNL A   1      41.548  23.559  26.277  1.00  0.00    -0.200 F 
ATOM     82  F   UNL A   1      43.405  24.558  24.547  1.00  0.00    -0.200 F 
ENDBRANCH  58  72
BRANCH  59  83
ATOM     83  C   UNL A   1      39.815  31.881  36.125  1.00  0.00     0.064 A 
ATOM     84  C   UNL A   1      40.575  32.984  36.530  1.00  0.00     0.173 A 
ATOM     85  C   UNL A   1      38.656  31.578  36.859  1.00  0.00     0.173 A 
ATOM     86  F   UNL A   1      41.696  33.303  35.869  1.00  0.00    -0.203 F 
ATOM     87  C   UNL A   1      40.194  33.754  37.626  1.00  0.00     0.198 A 
ATOM     88  C   UNL A   1      38.256  32.371  37.931  1.00  0.00     0.198 A 
ATOM     89  F   UNL A   1      37.886  30.540  36.501  1.00  0.00    -0.203 F 
ATOM     90  F   UNL A   1      40.954  34.788  38.011  1.00  0.00    -0.200 F 
ATOM     91  C   UNL A   1      39.028  33.455  38.317  1.00  0.00     0.200 A 
ATOM     92  F   UNL A   1      37.114  32.094  38.576  1.00  0.00    -0.200 F 
ATOM     93  F   UNL A   1      38.649  34.213  39.355  1.00  0.00    -0.200 F 
ENDBRANCH  59  83
BRANCH  71  94
ATOM     94  C   UNL A   1      44.404  26.799  34.808  1.00  0.00     0.064 A 
ATOM     95  C   UNL A   1      45.680  27.315  35.076  1.00  0.00     0.173 A 
ATOM     96  C   UNL A   1      44.044  25.586  35.415  1.00  0.00     0.173 A 
ATOM     97  F   UNL A   1      46.077  28.463  34.505  1.00  0.00    -0.203 F 
ATOM     98  C   UNL A   1      46.569  26.632  35.900  1.00  0.00     0.198 A 
ATOM     99  C   UNL A   1      44.922  24.924  36.267  1.00  0.00     0.198 A 
ATOM    100  F   UNL A   1      42.833  25.052  35.195  1.00  0.00    -0.203 F 
ATOM    101  F   UNL A   1      47.801  27.119  36.101  1.00  0.00    -0.200 F 
ATOM    102  C   UNL A   1      46.186  25.443  36.503  1.00  0.00     0.200 A 
ATOM    103  F   UNL A   1      44.544  23.784  36.862  1.00  0.00    -0.200 F 
ATOM    104  F   UNL A   1      47.039  24.793  37.307  1.00  0.00    -0.200 F 
ENDBRANCH  71  94
ENDBRANCH  45  46
ENDBRANCH  37  40
ENDBRANCH  35  36
ENDBRANCH  34  35
ENDBRANCH  33  34
ENDBRANCH   1  33
TORSDOF 17
ENDMDL
MODEL 2
REMARK VINA RESULT:     -13.5      1.575      7.287
REMARK SMILES CC[C@@H](C)[C@@H](NC(=O)Cn1nc(-c2ccc3ccccc3c2)ccc1=O)C(=O)NCCCCNC(=O)c1ccc(-c2c3nc(c(-c4c(F)c(F)c(F)c(F)c4F)c4ccc([nH]4)c(-c4c(F)c(F)c(F)c(F)c4F)c4nc(c(-c5c(F)c(F)c(F)c(F)c5F)c5ccc2[nH]5)C=C4)C=C3)cc1
REMARK SMILES IDX 30 1 29 2 27 3 28 4 5 6 3 7 4 8 2 9 1 10 6 11 7 12 8 14 9 15
REMARK SMILES IDX 10 16 11 17 25 18 12 19 24 20 26 21 23 22 13 23 14 24 22 25
REMARK SMILES IDX 15 26 21 27 16 28 20 29 17 30 19 31 18 32 31 33 32 34 33 35
REMARK SMILES IDX 34 36 35 37 36 39 37 40 38 41 99 42 39 43 98 44 40 45 41 46
REMARK SMILES IDX 42 47 92 48 43 49 97 50 91 51 93 52 44 53 96 54 90 55 89 56
REMARK SMILES IDX 45 58 77 59 57 60 76 61 58 62 61 63 75 64 94 65 59 66 60 67
REMARK SMILES IDX 74 69 95 70 62 71 46 72 47 73 55 74 48 75 49 76 53 77 56 78
REMARK SMILES IDX 50 79 51 80 54 81 52 82 78 83 79 84 87 85 80 86 81 87 85 88
REMARK SMILES IDX 88 89 82 90 83 91 86 92 84 93 63 94 64 95 72 96 65 97 66 98
REMARK SMILES IDX 70 99 73 100 67 101 68 102 71 103 69 104
REMARK H PARENT 29 5 6 13 34 38 93 57 61 68
REMARK Flexibility Score: inf
ROOT
ATOM      1  C   UNL A   1      31.409  30.589  26.486  1.00  0.00     0.116 C 
ENDROOT
BRANCH   1   2
ATOM      2  N   UNL A   1      31.382  29.932  24.525  1.00  0.00    -0.354 N 
ATOM      3  C   UNL A   1      31.200  29.114  23.404  1.00  0.00     0.242 C 
ATOM      4  O   UNL A   1      31.445  29.655  22.315  1.00  0.00    -0.273 OA
ATOM      5  H   UNL A   1      31.733  30.737  24.080  1.00  0.00     0.163 HD
BRANCH   3   6
ATOM      6  C   UNL A   1      30.529  27.706  23.395  1.00  0.00     0.174 C 
BRANCH   6   7
ATOM      7  C   UNL A   1      28.982  27.790  23.566  1.00  0.00     0.018 C 
ATOM      8  C   UNL A   1      28.391  26.389  23.802  1.00  0.00     0.010 C 
BRANCH   7   9
ATOM      9  C   UNL A   1      28.182  28.572  22.511  1.00  0.00     0.002 C 
ATOM     10  C   UNL A   1      27.758  29.937  23.070  1.00  0.00     0.004 C 
ENDBRANCH   7   9
ENDBRANCH   6   7
BRANCH   6  11
ATOM     11  N   UNL A   1      31.038  26.758  22.370  1.00  0.00    -0.342 N 
ATOM     12  C   UNL A   1      32.260  26.266  22.002  1.00  0.00     0.242 C 
ATOM     13  H   UNL A   1      30.312  26.394  21.814  1.00  0.00     0.164 HD
ATOM     14  O   UNL A   1      32.246  25.345  21.174  1.00  0.00    -0.273 OA
BRANCH  12  15
ATOM     15  C   UNL A   1      33.585  26.628  22.681  1.00  0.00     0.248 C 
BRANCH  15  16
ATOM     16  N   UNL A   1      33.916  25.872  23.878  1.00  0.00    -0.220 N 
ATOM     17  N   UNL A   1      34.199  24.051  23.626  1.00  0.00    -0.169 NA
ATOM     18  C   UNL A   1      33.112  26.463  25.408  1.00  0.00     0.267 A 
ATOM     19  C   UNL A   1      33.734  23.050  24.696  1.00  0.00     0.091 A 
ATOM     20  C   UNL A   1      32.535  25.028  26.608  1.00  0.00     0.075 A 
ATOM     21  O   UNL A   1      33.048  27.650  25.728  1.00  0.00    -0.268 OA
ATOM     22  C   UNL A   1      32.757  23.549  26.270  1.00  0.00     0.036 A 
BRANCH  19  23
ATOM     23  C   UNL A   1      34.018  21.606  24.583  1.00  0.00     0.003 A 
ATOM     24  C   UNL A   1      35.288  21.146  24.935  1.00  0.00     0.011 A 
ATOM     25  C   UNL A   1      33.047  20.718  24.124  1.00  0.00     0.019 A 
ATOM     26  C   UNL A   1      35.566  19.780  24.920  1.00  0.00     0.009 A 
ATOM     27  C   UNL A   1      33.348  19.347  24.018  1.00  0.00    -0.018 A 
ATOM     28  C   UNL A   1      34.607  18.869  24.460  1.00  0.00    -0.018 A 
ATOM     29  C   UNL A   1      32.438  18.435  23.460  1.00  0.00     0.009 A 
ATOM     30  C   UNL A   1      34.893  17.497  24.396  1.00  0.00     0.009 A 
ATOM     31  C   UNL A   1      32.756  17.079  23.356  1.00  0.00     0.001 A 
ATOM     32  C   UNL A   1      33.974  16.608  23.840  1.00  0.00     0.001 A 
ENDBRANCH  19  23
ENDBRANCH  15  16
ENDBRANCH  12  15
ENDBRANCH   6  11
ENDBRANCH   3   6
ENDBRANCH   1   2
BRANCH   1  33
ATOM     33  C   UNL A   1      32.001  31.996  27.207  1.00  0.00     0.023 C 
BRANCH  33  34
ATOM     34  C   UNL A   1      33.454  31.898  27.640  1.00  0.00     0.023 C 
BRANCH  34  35
ATOM     35  C   UNL A   1      34.190  33.218  27.638  1.00  0.00     0.116 C 
BRANCH  35  36
ATOM     36  N   UNL A   1      33.318  34.359  27.878  1.00  0.00    -0.352 N 
ATOM     37  C   UNL A   1      33.283  35.105  29.036  1.00  0.00     0.251 C 
ATOM     38  H   UNL A   1      32.705  34.620  27.154  1.00  0.00     0.163 HD
ATOM     39  O   UNL A   1      32.449  35.971  29.247  1.00  0.00    -0.269 OA
BRANCH  37  40
ATOM     40  C   UNL A   1      34.322  34.762  30.021  1.00  0.00     0.039 A 
ATOM     41  C   UNL A   1      35.647  34.995  29.641  1.00  0.00     0.014 A 
ATOM     42  C   UNL A   1      33.998  33.869  31.044  1.00  0.00     0.014 A 
ATOM     43  C   UNL A   1      36.634  34.175  30.160  1.00  0.00     0.010 A 
ATOM     44  C   UNL A   1      35.023  33.154  31.664  1.00  0.00     0.010 A 
ATOM     45  C   UNL A   1      36.344  33.265  31.196  1.00  0.00    -0.014 A 
BRANCH  45  46
ATOM     46  C   UNL A   1      37.445  32.474  31.805  1.00  0.00     0.031 A 
ATOM     47  C   UNL A   1      37.966  32.765  33.187  1.00  0.00     0.074 A 
ATOM     48  C   UNL A   1      37.976  31.470  31.081  1.00  0.00     0.049 A 
ATOM     49  N   UNL A   1      39.003  32.249  33.801  1.00  0.00    -0.248 NA
ATOM     50  C   UNL A   1      37.240  33.765  33.987  1.00  0.00     0.031 C 
ATOM     51  C   UNL A   1      37.536  31.076  29.739  1.00  0.00     0.029 A 
ATOM     52  N   UNL A   1      38.985  30.588  31.367  1.00  0.00    -0.354 N 
ATOM     53  C   UNL A   1      39.082  32.890  35.031  1.00  0.00     0.074 A 
ATOM     54  C   UNL A   1      37.993  33.841  35.078  1.00  0.00     0.031 C 
ATOM     55  C   UNL A   1      38.217  29.995  29.348  1.00  0.00     0.029 A 
ATOM     56  C   UNL A   1      39.229  29.697  30.351  1.00  0.00     0.049 A 
ATOM     57  H   UNL A   1      39.484  30.592  32.215  1.00  0.00     0.167 HD
ATOM     58  C   UNL A   1      39.985  32.694  36.024  1.00  0.00     0.037 A 
ATOM     59  C   UNL A   1      40.194  28.775  30.206  1.00  0.00     0.037 A 
ATOM     60  C   UNL A   1      41.050  31.723  35.969  1.00  0.00     0.049 A 
ATOM     61  C   UNL A   1      41.215  28.627  31.291  1.00  0.00     0.074 A 
ATOM     62  C   UNL A   1      42.004  31.432  36.929  1.00  0.00     0.029 A 
ATOM     63  N   UNL A   1      41.302  30.880  34.894  1.00  0.00    -0.354 N 
ATOM     64  N   UNL A   1      41.293  29.253  32.440  1.00  0.00    -0.248 NA
ATOM     65  C   UNL A   1      42.290  27.659  31.052  1.00  0.00     0.031 C 
ATOM     66  C   UNL A   1      42.861  30.454  36.416  1.00  0.00     0.029 A 
ATOM     67  C   UNL A   1      42.409  30.089  35.158  1.00  0.00     0.049 A 
ATOM     68  H   UNL A   1      40.771  30.849  34.065  1.00  0.00     0.167 HD
ATOM     69  C   UNL A   1      42.421  28.749  33.068  1.00  0.00     0.074 A 
ATOM     70  C   UNL A   1      42.975  27.742  32.184  1.00  0.00     0.031 C 
ATOM     71  C   UNL A   1      42.953  29.097  34.265  1.00  0.00     0.037 A 
BRANCH  58  72
ATOM     72  C   UNL A   1      39.885  33.553  37.257  1.00  0.00     0.064 A 
ATOM     73  C   UNL A   1      39.037  33.218  38.322  1.00  0.00     0.173 A 
ATOM     74  C   UNL A   1      40.708  34.682  37.408  1.00  0.00     0.173 A 
ATOM     75  F   UNL A   1      38.227  32.153  38.231  1.00  0.00    -0.203 F 
ATOM     76  C   UNL A   1      39.000  33.992  39.482  1.00  0.00     0.198 A 
ATOM     77  C   UNL A   1      40.693  35.434  38.580  1.00  0.00     0.198 A 
ATOM     78  F   UNL A   1      41.548  35.042  36.426  1.00  0.00    -0.203 F 
ATOM     79  F   UNL A   1      38.153  33.674  40.471  1.00  0.00    -0.200 F 
ATOM     80  C   UNL A   1      39.834  35.092  39.614  1.00  0.00     0.200 A 
ATOM     81  F   UNL A   1      41.514  36.485  38.713  1.00  0.00    -0.200 F 
ATOM     82  F   UNL A   1      39.810  35.823  40.736  1.00  0.00    -0.200 F 
ENDBRANCH  58  72
BRANCH  59  83
ATOM     83  C   UNL A   1      40.231  27.947  28.975  1.00  0.00     0.064 A 
ATOM     84  C   UNL A   1      40.973  28.360  27.862  1.00  0.00     0.173 A 
ATOM     85  C   UNL A   1      39.586  26.701  28.907  1.00  0.00     0.173 A 
ATOM     86  F   UNL A   1      41.594  29.548  27.876  1.00  0.00    -0.203 F 
ATOM     87  C   UNL A   1      41.067  27.560  26.726  1.00  0.00     0.198 A 
ATOM     88  C   UNL A   1      39.712  25.886  27.785  1.00  0.00     0.198 A 
ATOM     89  F   UNL A   1      38.875  26.254  29.952  1.00  0.00    -0.203 F 
ATOM     90  F   UNL A   1      41.760  27.991  25.663  1.00  0.00    -0.200 F 
ATOM     91  C   UNL A   1      40.447  26.319  26.693  1.00  0.00     0.200 A 
ATOM     92  F   UNL A   1      39.136  24.677  27.771  1.00  0.00    -0.200 F 
ATOM     93  F   UNL A   1      40.561  25.540  25.609  1.00  0.00    -0.200 F 
ENDBRANCH  59  83
BRANCH  71  94
ATOM     94  C   UNL A   1      44.197  28.372  34.693  1.00  0.00     0.064 A 
ATOM     95  C   UNL A   1      44.133  27.161  35.398  1.00  0.00     0.173 A 
ATOM     96  C   UNL A   1      45.464  28.872  34.360  1.00  0.00     0.173 A 
ATOM     97  F   UNL A   1      42.945  26.650  35.756  1.00  0.00    -0.203 F 
ATOM     98  C   UNL A   1      45.292  26.490  35.773  1.00  0.00     0.198 A 
ATOM     99  C   UNL A   1      46.621  28.181  34.705  1.00  0.00     0.198 A 
ATOM    100  F   UNL A   1      45.580  30.025  33.682  1.00  0.00    -0.203 F 
ATOM    101  F   UNL A   1      45.208  25.361  36.490  1.00  0.00    -0.200 F 
ATOM    102  C   UNL A   1      46.535  26.995  35.418  1.00  0.00     0.200 A 
ATOM    103  F   UNL A   1      47.820  28.661  34.346  1.00  0.00    -0.200 F 
ATOM    104  F   UNL A   1      47.650  26.340  35.768  1.00  0.00    -0.200 F 
ENDBRANCH  71  94
ENDBRANCH  45  46
ENDBRANCH  37  40
ENDBRANCH  35  36
ENDBRANCH  34  35
ENDBRANCH  33  34
ENDBRANCH   1  33
TORSDOF 17
ENDMDL
MODEL 3
REMARK VINA RESULT:     -13.3      4.960      8.729
REMARK SMILES CC[C@@H](C)[C@@H](NC(=O)Cn1nc(-c2ccc3ccccc3c2)ccc1=O)C(=O)NCCCCNC(=O)c1ccc(-c2c3nc(c(-c4c(F)c(F)c(F)c(F)c4F)c4ccc([nH]4)c(-c4c(F)c(F)c(F)c(F)c4F)c4nc(c(-c5c(F)c(F)c(F)c(F)c5F)c5ccc2[nH]5)C=C4)C=C3)cc1
REMARK SMILES IDX 30 1 29 2 27 3 28 4 5 6 3 7 4 8 2 9 1 10 6 11 7 12 8 14 9 15
REMARK SMILES IDX 10 16 11 17 25 18 12 19 24 20 26 21 23 22 13 23 14 24 22 25
REMARK SMILES IDX 15 26 21 27 16 28 20 29 17 30 19 31 18 32 31 33 32 34 33 35
REMARK SMILES IDX 34 36 35 37 36 39 37 40 38 41 99 42 39 43 98 44 40 45 41 46
REMARK SMILES IDX 42 47 92 48 43 49 97 50 91 51 93 52 44 53 96 54 90 55 89 56
REMARK SMILES IDX 45 58 77 59 57 60 76 61 58 62 61 63 75 64 94 65 59 66 60 67
REMARK SMILES IDX 74 69 95 70 62 71 46 72 47 73 55 74 48 75 49 76 53 77 56 78
REMARK SMILES IDX 50 79 51 80 54 81 52 82 78 83 79 84 87 85 80 86 81 87 85 88
REMARK SMILES IDX 88 89 82 90 83 91 86 92 84 93 63 94 64 95 72 96 65 97 66 98
REMARK SMILES IDX 70 99 73 100 67 101 68 102 71 103 69 104
REMARK H PARENT 29 5 6 13 34 38 93 57 61 68
REMARK Flexibility Score: inf
ROOT
ATOM      1  C   UNL A   1      35.970  23.970  25.291  1.00  0.00     0.116 C 
ENDROOT
BRANCH   1   2
ATOM      2  N   UNL A   1      34.520  23.005  24.176  1.00  0.00    -0.354 N 
ATOM      3  C   UNL A   1      33.468  22.152  23.826  1.00  0.00     0.242 C 
ATOM      4  O   UNL A   1      33.063  22.271  22.659  1.00  0.00    -0.273 OA
ATOM      5  H   UNL A   1      34.673  23.437  23.304  1.00  0.00     0.163 HD
BRANCH   3   6
ATOM      6  C   UNL A   1      32.647  21.259  24.805  1.00  0.00     0.174 C 
BRANCH   6   7
ATOM      7  C   UNL A   1      32.836  19.738  24.515  1.00  0.00     0.018 C 
ATOM      8  C   UNL A   1      34.313  19.340  24.678  1.00  0.00     0.010 C 
BRANCH   7   9
ATOM      9  C   UNL A   1      32.237  19.173  23.216  1.00  0.00     0.002 C 
ATOM     10  C   UNL A   1      32.815  17.779  22.930  1.00  0.00     0.004 C 
ENDBRANCH   7   9
ENDBRANCH   6   7
BRANCH   6  11
ATOM     11  N   UNL A   1      32.673  21.675  26.231  1.00  0.00    -0.342 N 
ATOM     12  C   UNL A   1      32.085  22.654  26.984  1.00  0.00     0.242 C 
ATOM     13  H   UNL A   1      33.266  21.103  26.770  1.00  0.00     0.164 HD
ATOM     14  O   UNL A   1      32.247  22.567  28.209  1.00  0.00    -0.273 OA
BRANCH  12  15
ATOM     15  C   UNL A   1      31.099  23.695  26.443  1.00  0.00     0.248 C 
BRANCH  15  16
ATOM     16  N   UNL A   1      31.661  24.712  25.569  1.00  0.00    -0.220 N 
ATOM     17  N   UNL A   1      32.469  26.152  26.427  1.00  0.00    -0.169 NA
ATOM     18  C   UNL A   1      30.745  24.980  24.011  1.00  0.00     0.267 A 
ATOM     19  C   UNL A   1      32.342  27.564  25.833  1.00  0.00     0.091 A 
ATOM     20  C   UNL A   1      30.643  26.857  23.462  1.00  0.00     0.075 A 
ATOM     21  O   UNL A   1      30.337  24.066  23.296  1.00  0.00    -0.268 OA
ATOM     22  C   UNL A   1      31.289  27.979  24.284  1.00  0.00     0.036 A 
BRANCH  19  23
ATOM     23  C   UNL A   1      33.041  28.721  26.427  1.00  0.00     0.003 A 
ATOM     24  C   UNL A   1      32.340  29.919  26.575  1.00  0.00     0.011 A 
ATOM     25  C   UNL A   1      34.374  28.628  26.822  1.00  0.00     0.019 A 
ATOM     26  C   UNL A   1      32.940  31.006  27.208  1.00  0.00     0.009 A 
ATOM     27  C   UNL A   1      35.017  29.750  27.379  1.00  0.00    -0.018 A 
ATOM     28  C   UNL A   1      34.279  30.938  27.611  1.00  0.00    -0.018 A 
ATOM     29  C   UNL A   1      36.386  29.733  27.690  1.00  0.00     0.009 A 
ATOM     30  C   UNL A   1      34.908  32.042  28.206  1.00  0.00     0.009 A 
ATOM     31  C   UNL A   1      37.010  30.859  28.234  1.00  0.00     0.001 A 
ATOM     32  C   UNL A   1      36.268  32.005  28.509  1.00  0.00     0.001 A 
ENDBRANCH  19  23
ENDBRANCH  15  16
ENDBRANCH  12  15
ENDBRANCH   6  11
ENDBRANCH   3   6
ENDBRANCH   1   2
BRANCH   1  33
ATOM     33  C   UNL A   1      37.642  23.769  25.403  1.00  0.00     0.023 C 
BRANCH  33  34
ATOM     34  C   UNL A   1      38.179  23.873  26.820  1.00  0.00     0.023 C 
BRANCH  34  35
ATOM     35  C   UNL A   1      39.208  24.964  27.013  1.00  0.00     0.116 C 
BRANCH  35  36
ATOM     36  N   UNL A   1      40.278  24.922  26.026  1.00  0.00    -0.352 N 
ATOM     37  C   UNL A   1      41.232  25.899  25.844  1.00  0.00     0.251 C 
ATOM     38  H   UNL A   1      40.323  24.131  25.442  1.00  0.00     0.163 HD
ATOM     39  O   UNL A   1      42.032  25.886  24.922  1.00  0.00    -0.269 OA
BRANCH  37  40
ATOM     40  C   UNL A   1      41.203  26.982  26.840  1.00  0.00     0.039 A 
ATOM     41  C   UNL A   1      40.778  28.236  26.389  1.00  0.00     0.014 A 
ATOM     42  C   UNL A   1      41.966  26.840  28.000  1.00  0.00     0.014 A 
ATOM     43  C   UNL A   1      41.295  29.365  27.001  1.00  0.00     0.010 A 
ATOM     44  C   UNL A   1      42.357  27.984  28.694  1.00  0.00     0.010 A 
ATOM     45  C   UNL A   1      42.067  29.258  28.176  1.00  0.00    -0.014 A 
BRANCH  45  46
ATOM     46  C   UNL A   1      42.518  30.492  28.869  1.00  0.00     0.031 A 
ATOM     47  C   UNL A   1      43.870  31.103  28.613  1.00  0.00     0.074 A 
ATOM     48  C   UNL A   1      41.674  31.066  29.749  1.00  0.00     0.049 A 
ATOM     49  N   UNL A   1      44.454  32.098  29.233  1.00  0.00    -0.248 NA
ATOM     50  C   UNL A   1      44.679  30.524  27.528  1.00  0.00     0.031 C 
ATOM     51  C   UNL A   1      40.326  30.581  30.061  1.00  0.00     0.029 A 
ATOM     52  N   UNL A   1      41.809  32.184  30.529  1.00  0.00    -0.354 N 
ATOM     53  C   UNL A   1      45.708  32.235  28.651  1.00  0.00     0.074 A 
ATOM     54  C   UNL A   1      45.808  31.215  27.630  1.00  0.00     0.031 C 
ATOM     55  C   UNL A   1      39.735  31.429  30.907  1.00  0.00     0.029 A 
ATOM     56  C   UNL A   1      40.702  32.443  31.299  1.00  0.00     0.049 A 
ATOM     57  H   UNL A   1      42.617  32.746  30.536  1.00  0.00     0.167 HD
ATOM     58  C   UNL A   1      46.679  33.134  28.947  1.00  0.00     0.037 A 
ATOM     59  C   UNL A   1      40.496  33.359  32.259  1.00  0.00     0.037 A 
ATOM     60  C   UNL A   1      46.551  34.162  29.951  1.00  0.00     0.049 A 
ATOM     61  C   UNL A   1      41.610  34.296  32.609  1.00  0.00     0.074 A 
ATOM     62  C   UNL A   1      47.467  35.134  30.314  1.00  0.00     0.029 A 
ATOM     63  N   UNL A   1      45.434  34.353  30.754  1.00  0.00    -0.354 N 
ATOM     64  N   UNL A   1      42.798  34.402  32.067  1.00  0.00    -0.248 NA
ATOM     65  C   UNL A   1      41.361  35.227  33.713  1.00  0.00     0.031 C 
ATOM     66  C   UNL A   1      46.927  35.877  31.368  1.00  0.00     0.029 A 
ATOM     67  C   UNL A   1      45.649  35.409  31.625  1.00  0.00     0.049 A 
ATOM     68  H   UNL A   1      44.609  33.815  30.711  1.00  0.00     0.167 HD
ATOM     69  C   UNL A   1      43.438  35.419  32.757  1.00  0.00     0.074 A 
ATOM     70  C   UNL A   1      42.492  35.917  33.736  1.00  0.00     0.031 C 
ATOM     71  C   UNL A   1      44.700  35.889  32.600  1.00  0.00     0.037 A 
BRANCH  58  72
ATOM     72  C   UNL A   1      47.981  33.050  28.195  1.00  0.00     0.064 A 
ATOM     73  C   UNL A   1      49.008  32.183  28.592  1.00  0.00     0.173 A 
ATOM     74  C   UNL A   1      48.171  33.791  27.015  1.00  0.00     0.173 A 
ATOM     75  F   UNL A   1      48.882  31.455  29.711  1.00  0.00    -0.203 F 
ATOM     76  C   UNL A   1      50.184  32.074  27.850  1.00  0.00     0.198 A 
ATOM     77  C   UNL A   1      49.333  33.656  26.259  1.00  0.00     0.198 A 
ATOM     78  F   UNL A   1      47.217  34.628  26.581  1.00  0.00    -0.203 F 
ATOM     79  F   UNL A   1      51.167  31.266  28.270  1.00  0.00    -0.200 F 
ATOM     80  C   UNL A   1      50.341  32.802  26.680  1.00  0.00     0.200 A 
ATOM     81  F   UNL A   1      49.473  34.346  25.118  1.00  0.00    -0.200 F 
ATOM     82  F   UNL A   1      51.464  32.682  25.959  1.00  0.00    -0.200 F 
ENDBRANCH  58  72
BRANCH  59  83
ATOM     83  C   UNL A   1      39.185  33.403  32.954  1.00  0.00     0.064 A 
ATOM     84  C   UNL A   1      38.966  32.645  34.109  1.00  0.00     0.173 A 
ATOM     85  C   UNL A   1      38.151  34.251  32.520  1.00  0.00     0.173 A 
ATOM     86  F   UNL A   1      39.919  31.812  34.553  1.00  0.00    -0.203 F 
ATOM     87  C   UNL A   1      37.763  32.729  34.806  1.00  0.00     0.198 A 
ATOM     88  C   UNL A   1      36.964  34.361  33.238  1.00  0.00     0.198 A 
ATOM     89  F   UNL A   1      38.317  35.009  31.427  1.00  0.00    -0.203 F 
ATOM     90  F   UNL A   1      37.568  31.971  35.893  1.00  0.00    -0.200 F 
ATOM     91  C   UNL A   1      36.768  33.596  34.377  1.00  0.00     0.200 A 
ATOM     92  F   UNL A   1      36.019  35.222  32.836  1.00  0.00    -0.200 F 
ATOM     93  F   UNL A   1      35.621  33.694  35.063  1.00  0.00    -0.200 F 
ENDBRANCH  59  83
BRANCH  71  94
ATOM     94  C   UNL A   1      45.126  37.010  33.503  1.00  0.00     0.064 A 
ATOM     95  C   UNL A   1      45.823  36.766  34.696  1.00  0.00     0.173 A 
ATOM     96  C   UNL A   1      44.872  38.345  33.152  1.00  0.00     0.173 A 
ATOM     97  F   UNL A   1      46.074  35.506  35.084  1.00  0.00    -0.203 F 
ATOM     98  C   UNL A   1      46.228  37.814  35.515  1.00  0.00     0.198 A 
ATOM     99  C   UNL A   1      45.311  39.393  33.956  1.00  0.00     0.198 A 
ATOM    100  F   UNL A   1      44.213  38.633  32.019  1.00  0.00    -0.203 F 
ATOM    101  F   UNL A   1      46.847  37.554  36.675  1.00  0.00    -0.200 F 
ATOM    102  C   UNL A   1      45.981  39.127  35.140  1.00  0.00     0.200 A 
ATOM    103  F   UNL A   1      45.086  40.660  33.583  1.00  0.00    -0.200 F 
ATOM    104  F   UNL A   1      46.384  40.136  35.924  1.00  0.00    -0.200 F 
ENDBRANCH  71  94
ENDBRANCH  45  46
ENDBRANCH  37  40
ENDBRANCH  35  36
ENDBRANCH  34  35
ENDBRANCH  33  34
ENDBRANCH   1  33
TORSDOF 17
ENDMDL
