MODEL 1
REMARK VINA RESULT:     -13.2      0.000      0.000
REMARK SMILES O=C(NCCCCNC(=O)c1cccc(Nc2ccnc3ccc(F)cc23)c1)c1ccc(-c2c3nc(c(-c4c(F)c(F)c(F)c(F)c4F)c4ccc([nH]4)c(-c4c(F)c(F)c(F)c(F)c4F)c4nc(c(-c5c(F)c(F)c(F)c(F)c5F)c5ccc2[nH]5)C=C4)C=C3)cc1
REMARK SMILES IDX 5 1 4 2 3 3 1 4 2 5 29 7 30 8 91 9 31 10 90 11 32 12 33 13
REMARK SMILES IDX 34 14 84 15 35 16 89 17 83 18 85 19 36 20 88 21 82 22 81 23
REMARK SMILES IDX 37 25 69 26 49 27 68 28 50 29 53 30 67 31 86 32 51 33 52 34
REMARK SMILES IDX 66 36 87 37 54 38 38 39 39 40 47 41 40 42 41 43 45 44 48 45
REMARK SMILES IDX 42 46 43 47 46 48 44 49 70 50 71 51 79 52 72 53 73 54 77 55
REMARK SMILES IDX 80 56 74 57 75 58 78 59 76 60 55 61 56 62 64 63 57 64 58 65
REMARK SMILES IDX 62 66 65 67 59 68 60 69 63 70 61 71 6 72 7 73 8 74 9 75
REMARK SMILES IDX 10 77 11 78 12 79 28 80 13 81 15 82 14 83 16 84 17 86 18 87
REMARK SMILES IDX 27 88 19 89 21 90 26 91 20 92 22 93 24 94 23 95 25 96
REMARK H PARENT 3 6 85 24 53 35 8 76 16 85
REMARK Flexibility Score: inf
ROOT
ATOM      1  C   UNL A   1      31.294  32.190  26.588  1.00  0.00     0.023 C 
ENDROOT
BRANCH   1   2
ATOM      2  C   UNL A   1      32.540  32.858  27.162  1.00  0.00     0.116 C 
BRANCH   2   3
ATOM      3  N   UNL A   1      32.307  34.214  27.630  1.00  0.00    -0.352 N 
ATOM      4  O   UNL A   1      32.531  36.052  28.906  1.00  0.00    -0.269 OA
ATOM      5  C   UNL A   1      32.953  34.946  28.598  1.00  0.00     0.251 C 
ATOM      6  H   UNL A   1      31.567  34.684  27.181  1.00  0.00     0.163 HD
BRANCH   5   7
ATOM      7  C   UNL A   1      34.134  34.390  29.296  1.00  0.00     0.039 A 
ATOM      8  C   UNL A   1      35.429  34.593  28.818  1.00  0.00     0.014 A 
ATOM      9  C   UNL A   1      33.930  33.663  30.474  1.00  0.00     0.014 A 
ATOM     10  C   UNL A   1      36.504  33.952  29.431  1.00  0.00     0.010 A 
ATOM     11  C   UNL A   1      35.016  33.082  31.132  1.00  0.00     0.010 A 
ATOM     12  C   UNL A   1      36.308  33.191  30.594  1.00  0.00    -0.014 A 
BRANCH  12  13
ATOM     13  C   UNL A   1      37.464  32.538  31.256  1.00  0.00     0.031 A 
ATOM     14  C   UNL A   1      38.216  31.430  30.574  1.00  0.00     0.074 A 
ATOM     15  C   UNL A   1      37.837  32.951  32.482  1.00  0.00     0.049 A 
ATOM     16  N   UNL A   1      39.230  30.725  31.014  1.00  0.00    -0.248 NA
ATOM     17  C   UNL A   1      37.769  31.058  29.223  1.00  0.00     0.031 C 
ATOM     18  C   UNL A   1      37.182  34.011  33.248  1.00  0.00     0.029 A 
ATOM     19  N   UNL A   1      38.858  32.531  33.298  1.00  0.00    -0.354 N 
ATOM     20  C   UNL A   1      39.526  29.816  30.007  1.00  0.00     0.074 A 
ATOM     21  C   UNL A   1      38.571  30.041  28.942  1.00  0.00     0.031 C 
ATOM     22  C   UNL A   1      37.828  34.177  34.410  1.00  0.00     0.029 A 
ATOM     23  C   UNL A   1      38.909  33.201  34.495  1.00  0.00     0.049 A 
ATOM     24  H   UNL A   1      39.490  31.819  33.049  1.00  0.00     0.167 HD
ATOM     25  C   UNL A   1      40.511  28.885  29.973  1.00  0.00     0.037 A 
ATOM     26  C   UNL A   1      39.723  33.033  35.554  1.00  0.00     0.037 A 
ATOM     27  C   UNL A   1      41.470  28.676  31.027  1.00  0.00     0.049 A 
ATOM     28  C   UNL A   1      40.792  31.979  35.500  1.00  0.00     0.074 A 
ATOM     29  C   UNL A   1      42.528  27.786  31.069  1.00  0.00     0.029 A 
ATOM     30  N   UNL A   1      41.482  29.367  32.231  1.00  0.00    -0.354 N 
ATOM     31  N   UNL A   1      41.082  31.148  34.530  1.00  0.00    -0.248 NA
ATOM     32  C   UNL A   1      41.644  31.840  36.688  1.00  0.00     0.031 C 
ATOM     33  C   UNL A   1      43.155  27.905  32.315  1.00  0.00     0.029 A 
ATOM     34  C   UNL A   1      42.517  28.906  33.031  1.00  0.00     0.049 A 
ATOM     35  H   UNL A   1      40.851  30.080  32.481  1.00  0.00     0.167 HD
ATOM     36  C   UNL A   1      42.161  30.400  34.979  1.00  0.00     0.074 A 
ATOM     37  C   UNL A   1      42.483  30.887  36.306  1.00  0.00     0.031 C 
ATOM     38  C   UNL A   1      42.825  29.402  34.348  1.00  0.00     0.037 A 
BRANCH  25  39
ATOM     39  C   UNL A   1      40.592  28.004  28.760  1.00  0.00     0.064 A 
ATOM     40  C   UNL A   1      39.896  26.789  28.681  1.00  0.00     0.173 A 
ATOM     41  C   UNL A   1      41.346  28.400  27.645  1.00  0.00     0.173 A 
ATOM     42  F   UNL A   1      39.168  26.360  29.724  1.00  0.00    -0.203 F 
ATOM     43  C   UNL A   1      39.974  25.990  27.543  1.00  0.00     0.198 A 
ATOM     44  C   UNL A   1      41.402  27.612  26.498  1.00  0.00     0.198 A 
ATOM     45  F   UNL A   1      42.026  29.556  27.664  1.00  0.00    -0.203 F 
ATOM     46  F   UNL A   1      39.337  24.811  27.508  1.00  0.00    -0.200 F 
ATOM     47  C   UNL A   1      40.722  26.404  26.451  1.00  0.00     0.200 A 
ATOM     48  F   UNL A   1      42.115  28.019  25.439  1.00  0.00    -0.200 F 
ATOM     49  F   UNL A   1      40.793  25.635  25.355  1.00  0.00    -0.200 F 
ENDBRANCH  25  39
BRANCH  26  50
ATOM     50  C   UNL A   1      39.550  33.895  36.750  1.00  0.00     0.064 A 
ATOM     51  C   UNL A   1      38.785  33.467  37.842  1.00  0.00     0.173 A 
ATOM     52  C   UNL A   1      40.173  35.149  36.837  1.00  0.00     0.173 A 
ATOM     53  F   UNL A   1      38.157  32.283  37.797  1.00  0.00    -0.203 F 
ATOM     54  C   UNL A   1      38.644  34.263  38.976  1.00  0.00     0.198 A 
ATOM     55  C   UNL A   1      40.052  35.933  37.981  1.00  0.00     0.198 A 
ATOM     56  F   UNL A   1      40.919  35.600  35.818  1.00  0.00    -0.203 F 
ATOM     57  F   UNL A   1      37.884  33.844  39.996  1.00  0.00    -0.200 F 
ATOM     58  C   UNL A   1      39.285  35.491  39.048  1.00  0.00     0.200 A 
ATOM     59  F   UNL A   1      40.687  37.111  38.054  1.00  0.00    -0.200 F 
ATOM     60  F   UNL A   1      39.160  36.250  40.146  1.00  0.00    -0.200 F 
ENDBRANCH  26  50
BRANCH  38  61
ATOM     61  C   UNL A   1      43.988  28.788  35.072  1.00  0.00     0.064 A 
ATOM     62  C   UNL A   1      43.827  27.677  35.912  1.00  0.00     0.173 A 
ATOM     63  C   UNL A   1      45.283  29.297  34.892  1.00  0.00     0.173 A 
ATOM     64  F   UNL A   1      42.605  27.166  36.128  1.00  0.00    -0.203 F 
ATOM     65  C   UNL A   1      44.919  27.109  36.562  1.00  0.00     0.198 A 
ATOM     66  C   UNL A   1      46.376  28.711  35.523  1.00  0.00     0.198 A 
ATOM     67  F   UNL A   1      45.489  30.356  34.095  1.00  0.00    -0.203 F 
ATOM     68  F   UNL A   1      44.737  26.073  37.393  1.00  0.00    -0.200 F 
ATOM     69  C   UNL A   1      46.192  27.621  36.362  1.00  0.00     0.200 A 
ATOM     70  F   UNL A   1      47.607  29.200  35.321  1.00  0.00    -0.200 F 
ATOM     71  F   UNL A   1      47.244  27.069  36.984  1.00  0.00    -0.200 F 
ENDBRANCH  38  61
ENDBRANCH  12  13
ENDBRANCH   5   7
ENDBRANCH   2   3
ENDBRANCH   1   2
BRANCH   1  72
ATOM     72  C   UNL A   1      31.472  30.757  26.086  1.00  0.00     0.023 C 
BRANCH  72  73
ATOM     73  C   UNL A   1      31.816  29.723  27.154  1.00  0.00     0.116 C 
BRANCH  73  74
ATOM     74  N   UNL A   1      33.235  29.661  27.444  1.00  0.00    -0.352 N 
ATOM     75  C   UNL A   1      34.227  28.873  26.923  1.00  0.00     0.251 C 
ATOM     76  H   UNL A   1      33.538  30.294  28.134  1.00  0.00     0.163 HD
ATOM     77  O   UNL A   1      35.339  28.896  27.446  1.00  0.00    -0.269 OA
BRANCH  75  78
ATOM     78  C   UNL A   1      33.996  27.996  25.754  1.00  0.00     0.041 A 
ATOM     79  C   UNL A   1      34.033  28.578  24.481  1.00  0.00     0.014 A 
ATOM     80  C   UNL A   1      33.588  26.666  25.900  1.00  0.00     0.039 A 
ATOM     81  C   UNL A   1      33.702  27.824  23.358  1.00  0.00     0.003 A 
ATOM     82  C   UNL A   1      33.260  25.900  24.775  1.00  0.00     0.039 A 
ATOM     83  C   UNL A   1      33.312  26.493  23.507  1.00  0.00     0.026 A 
BRANCH  82  84
ATOM     84  N   UNL A   1      32.662  24.627  24.926  1.00  0.00    -0.355 N 
ATOM     85  H   UNL A   1      31.806  24.434  24.480  1.00  0.00     0.167 HD
BRANCH  84  86
ATOM     86  C   UNL A   1      33.288  23.625  25.717  1.00  0.00     0.050 A 
ATOM     87  C   UNL A   1      32.727  23.299  26.954  1.00  0.00     0.047 A 
ATOM     88  C   UNL A   1      34.465  22.972  25.295  1.00  0.00     0.027 A 
ATOM     89  C   UNL A   1      33.309  22.296  27.697  1.00  0.00     0.114 A 
ATOM     90  C   UNL A   1      34.971  21.952  26.136  1.00  0.00     0.072 A 
ATOM     91  C   UNL A   1      35.130  23.263  24.085  1.00  0.00     0.051 A 
ATOM     92  N   UNL A   1      34.407  21.622  27.308  1.00  0.00    -0.256 NA
ATOM     93  C   UNL A   1      36.097  21.250  25.732  1.00  0.00     0.032 A 
ATOM     94  C   UNL A   1      36.262  22.546  23.721  1.00  0.00     0.124 A 
ATOM     95  C   UNL A   1      36.750  21.535  24.531  1.00  0.00     0.041 A 
ATOM     96  F   UNL A   1      36.886  22.830  22.570  1.00  0.00    -0.207 F 
ENDBRANCH  84  86
ENDBRANCH  82  84
ENDBRANCH  75  78
ENDBRANCH  73  74
ENDBRANCH  72  73
ENDBRANCH   1  72
TORSDOF 13
ENDMDL
MODEL 2
REMARK VINA RESULT:     -13.0      3.661      8.668
REMARK SMILES O=C(NCCCCNC(=O)c1cccc(Nc2ccnc3ccc(F)cc23)c1)c1ccc(-c2c3nc(c(-c4c(F)c(F)c(F)c(F)c4F)c4ccc([nH]4)c(-c4c(F)c(F)c(F)c(F)c4F)c4nc(c(-c5c(F)c(F)c(F)c(F)c5F)c5ccc2[nH]5)C=C4)C=C3)cc1
REMARK SMILES IDX 5 1 4 2 3 3 1 4 2 5 29 7 30 8 91 9 31 10 90 11 32 12 33 13
REMARK SMILES IDX 34 14 84 15 35 16 89 17 83 18 85 19 36 20 88 21 82 22 81 23
REMARK SMILES IDX 37 25 69 26 49 27 68 28 50 29 53 30 67 31 86 32 51 33 52 34
REMARK SMILES IDX 66 36 87 37 54 38 38 39 39 40 47 41 40 42 41 43 45 44 48 45
REMARK SMILES IDX 42 46 43 47 46 48 44 49 70 50 71 51 79 52 72 53 73 54 77 55
REMARK SMILES IDX 80 56 74 57 75 58 78 59 76 60 55 61 56 62 64 63 57 64 58 65
REMARK SMILES IDX 62 66 65 67 59 68 60 69 63 70 61 71 6 72 7 73 8 74 9 75
REMARK SMILES IDX 10 77 11 78 12 79 28 80 13 81 15 82 14 83 16 84 17 86 18 87
REMARK SMILES IDX 27 88 19 89 21 90 26 91 20 92 22 93 24 94 23 95 25 96
REMARK H PARENT 3 6 85 24 53 35 8 76 16 85
REMARK Flexibility Score: inf
ROOT
ATOM      1  C   UNL A   1      33.670  27.959  25.288  1.00  0.00     0.023 C 
ENDROOT
BRANCH   1   2
ATOM      2  C   UNL A   1      33.752  28.204  26.792  1.00  0.00     0.116 C 
BRANCH   2   3
ATOM      3  N   UNL A   1      33.597  29.602  27.160  1.00  0.00    -0.352 N 
ATOM      4  O   UNL A   1      34.094  31.583  28.102  1.00  0.00    -0.269 OA
ATOM      5  C   UNL A   1      34.463  30.456  27.801  1.00  0.00     0.251 C 
ATOM      6  H   UNL A   1      32.732  30.001  26.910  1.00  0.00     0.163 HD
BRANCH   5   7
ATOM      7  C   UNL A   1      35.828  30.009  28.161  1.00  0.00     0.039 A 
ATOM      8  C   UNL A   1      36.109  29.451  29.409  1.00  0.00     0.014 A 
ATOM      9  C   UNL A   1      36.844  30.138  27.208  1.00  0.00     0.014 A 
ATOM     10  C   UNL A   1      37.426  29.156  29.757  1.00  0.00     0.010 A 
ATOM     11  C   UNL A   1      38.153  29.773  27.531  1.00  0.00     0.010 A 
ATOM     12  C   UNL A   1      38.460  29.314  28.821  1.00  0.00    -0.014 A 
BRANCH  12  13
ATOM     13  C   UNL A   1      39.855  28.969  29.193  1.00  0.00     0.031 A 
ATOM     14  C   UNL A   1      40.676  29.896  30.044  1.00  0.00     0.074 A 
ATOM     15  C   UNL A   1      40.382  27.809  28.758  1.00  0.00     0.049 A 
ATOM     16  N   UNL A   1      41.919  29.771  30.441  1.00  0.00    -0.248 NA
ATOM     17  C   UNL A   1      40.020  31.127  30.508  1.00  0.00     0.031 C 
ATOM     18  C   UNL A   1      39.686  26.831  27.920  1.00  0.00     0.029 A 
ATOM     19  N   UNL A   1      41.620  27.254  28.960  1.00  0.00    -0.354 N 
ATOM     20  C   UNL A   1      42.199  30.914  31.179  1.00  0.00     0.074 A 
ATOM     21  C   UNL A   1      41.005  31.732  31.157  1.00  0.00     0.031 C 
ATOM     22  C   UNL A   1      40.496  25.787  27.699  1.00  0.00     0.029 A 
ATOM     23  C   UNL A   1      41.785  26.044  28.334  1.00  0.00     0.049 A 
ATOM     24  H   UNL A   1      42.322  27.683  29.501  1.00  0.00     0.167 HD
ATOM     25  C   UNL A   1      43.345  31.244  31.822  1.00  0.00     0.037 A 
ATOM     26  C   UNL A   1      42.862  25.239  28.260  1.00  0.00     0.037 A 
ATOM     27  C   UNL A   1      44.526  30.419  31.856  1.00  0.00     0.049 A 
ATOM     28  C   UNL A   1      44.127  25.639  28.963  1.00  0.00     0.074 A 
ATOM     29  C   UNL A   1      45.722  30.648  32.513  1.00  0.00     0.029 A 
ATOM     30  N   UNL A   1      44.658  29.204  31.198  1.00  0.00    -0.354 N 
ATOM     31  N   UNL A   1      44.369  26.706  29.684  1.00  0.00    -0.248 NA
ATOM     32  C   UNL A   1      45.269  24.723  28.841  1.00  0.00     0.031 C 
ATOM     33  C   UNL A   1      46.594  29.594  32.218  1.00  0.00     0.029 A 
ATOM     34  C   UNL A   1      45.925  28.683  31.416  1.00  0.00     0.049 A 
ATOM     35  H   UNL A   1      43.957  28.774  30.657  1.00  0.00     0.167 HD
ATOM     36  C   UNL A   1      45.681  26.583  30.118  1.00  0.00     0.074 A 
ATOM     37  C   UNL A   1      46.180  25.329  29.589  1.00  0.00     0.031 C 
ATOM     38  C   UNL A   1      46.405  27.433  30.885  1.00  0.00     0.037 A 
BRANCH  25  39
ATOM     39  C   UNL A   1      43.388  32.567  32.530  1.00  0.00     0.064 A 
ATOM     40  C   UNL A   1      43.773  33.745  31.874  1.00  0.00     0.173 A 
ATOM     41  C   UNL A   1      43.000  32.664  33.876  1.00  0.00     0.173 A 
ATOM     42  F   UNL A   1      44.163  33.705  30.590  1.00  0.00    -0.203 F 
ATOM     43  C   UNL A   1      43.797  34.966  32.544  1.00  0.00     0.198 A 
ATOM     44  C   UNL A   1      43.000  33.890  34.536  1.00  0.00     0.198 A 
ATOM     45  F   UNL A   1      42.616  31.570  34.550  1.00  0.00    -0.203 F 
ATOM     46  F   UNL A   1      44.212  36.070  31.909  1.00  0.00    -0.200 F 
ATOM     47  C   UNL A   1      43.404  35.038  33.872  1.00  0.00     0.200 A 
ATOM     48  F   UNL A   1      42.608  33.961  35.816  1.00  0.00    -0.200 F 
ATOM     49  F   UNL A   1      43.423  36.215  34.515  1.00  0.00    -0.200 F 
ENDBRANCH  25  39
BRANCH  26  50
ATOM     50  C   UNL A   1      42.774  23.974  27.489  1.00  0.00     0.064 A 
ATOM     51  C   UNL A   1      43.085  23.938  26.124  1.00  0.00     0.173 A 
ATOM     52  C   UNL A   1      42.410  22.770  28.111  1.00  0.00     0.173 A 
ATOM     53  F   UNL A   1      43.421  25.068  25.485  1.00  0.00    -0.203 F 
ATOM     54  C   UNL A   1      43.030  22.746  25.406  1.00  0.00     0.198 A 
ATOM     55  C   UNL A   1      42.380  21.574  27.398  1.00  0.00     0.198 A 
ATOM     56  F   UNL A   1      42.109  22.753  29.417  1.00  0.00    -0.203 F 
ATOM     57  F   UNL A   1      43.303  22.743  24.095  1.00  0.00    -0.200 F 
ATOM     58  C   UNL A   1      42.685  21.564  26.046  1.00  0.00     0.200 A 
ATOM     59  F   UNL A   1      42.064  20.432  28.023  1.00  0.00    -0.200 F 
ATOM     60  F   UNL A   1      42.646  20.415  25.357  1.00  0.00    -0.200 F 
ENDBRANCH  26  50
BRANCH  38  61
ATOM     61  C   UNL A   1      47.807  27.020  31.228  1.00  0.00     0.064 A 
ATOM     62  C   UNL A   1      48.081  26.181  32.317  1.00  0.00     0.173 A 
ATOM     63  C   UNL A   1      48.883  27.441  30.432  1.00  0.00     0.173 A 
ATOM     64  F   UNL A   1      47.086  25.766  33.116  1.00  0.00    -0.203 F 
ATOM     65  C   UNL A   1      49.386  25.793  32.610  1.00  0.00     0.198 A 
ATOM     66  C   UNL A   1      50.184  27.031  30.712  1.00  0.00     0.198 A 
ATOM     67  F   UNL A   1      48.672  28.242  29.377  1.00  0.00    -0.203 F 
ATOM     68  F   UNL A   1      49.631  25.025  33.680  1.00  0.00    -0.200 F 
ATOM     69  C   UNL A   1      50.434  26.213  31.804  1.00  0.00     0.200 A 
ATOM     70  F   UNL A   1      51.194  27.428  29.927  1.00  0.00    -0.200 F 
ATOM     71  F   UNL A   1      51.689  25.834  32.084  1.00  0.00    -0.200 F 
ENDBRANCH  38  61
ENDBRANCH  12  13
ENDBRANCH   5   7
ENDBRANCH   2   3
ENDBRANCH   1   2
BRANCH   1  72
ATOM     72  C   UNL A   1      33.470  29.199  24.417  1.00  0.00     0.023 C 
BRANCH  72  73
ATOM     73  C   UNL A   1      33.279  28.933  22.927  1.00  0.00     0.116 C 
BRANCH  73  74
ATOM     74  N   UNL A   1      31.954  29.284  22.457  1.00  0.00    -0.352 N 
ATOM     75  C   UNL A   1      30.809  28.539  22.350  1.00  0.00     0.251 C 
ATOM     76  H   UNL A   1      31.860  30.219  22.162  1.00  0.00     0.163 HD
ATOM     77  O   UNL A   1      29.839  29.021  21.769  1.00  0.00    -0.269 OA
BRANCH  75  78
ATOM     78  C   UNL A   1      30.710  27.174  22.911  1.00  0.00     0.041 A 
ATOM     79  C   UNL A   1      30.068  27.018  24.146  1.00  0.00     0.014 A 
ATOM     80  C   UNL A   1      31.373  26.088  22.329  1.00  0.00     0.039 A 
ATOM     81  C   UNL A   1      30.056  25.775  24.774  1.00  0.00     0.003 A 
ATOM     82  C   UNL A   1      31.359  24.834  22.951  1.00  0.00     0.039 A 
ATOM     83  C   UNL A   1      30.703  24.692  24.181  1.00  0.00     0.026 A 
BRANCH  82  84
ATOM     84  N   UNL A   1      32.184  23.789  22.475  1.00  0.00    -0.355 N 
ATOM     85  H   UNL A   1      31.963  23.339  21.628  1.00  0.00     0.167 HD
BRANCH  84  86
ATOM     86  C   UNL A   1      33.332  23.385  23.210  1.00  0.00     0.050 A 
ATOM     87  C   UNL A   1      34.349  24.317  23.433  1.00  0.00     0.047 A 
ATOM     88  C   UNL A   1      33.477  22.070  23.698  1.00  0.00     0.027 A 
ATOM     89  C   UNL A   1      35.437  23.936  24.185  1.00  0.00     0.114 A 
ATOM     90  C   UNL A   1      34.634  21.792  24.465  1.00  0.00     0.072 A 
ATOM     91  C   UNL A   1      32.527  21.047  23.487  1.00  0.00     0.051 A 
ATOM     92  N   UNL A   1      35.591  22.703  24.703  1.00  0.00    -0.256 NA
ATOM     93  C   UNL A   1      34.789  20.525  25.008  1.00  0.00     0.032 A 
ATOM     94  C   UNL A   1      32.724  19.787  24.037  1.00  0.00     0.124 A 
ATOM     95  C   UNL A   1      33.845  19.517  24.803  1.00  0.00     0.041 A 
ATOM     96  F   UNL A   1      31.817  18.824  23.830  1.00  0.00    -0.207 F 
ENDBRANCH  84  86
ENDBRANCH  82  84
ENDBRANCH  75  78
ENDBRANCH  73  74
ENDBRANCH  72  73
ENDBRANCH   1  72
TORSDOF 13
ENDMDL
MODEL 3
REMARK VINA RESULT:     -12.9      5.467     11.176
REMARK SMILES O=C(NCCCCNC(=O)c1cccc(Nc2ccnc3ccc(F)cc23)c1)c1ccc(-c2c3nc(c(-c4c(F)c(F)c(F)c(F)c4F)c4ccc([nH]4)c(-c4c(F)c(F)c(F)c(F)c4F)c4nc(c(-c5c(F)c(F)c(F)c(F)c5F)c5ccc2[nH]5)C=C4)C=C3)cc1
REMARK SMILES IDX 5 1 4 2 3 3 1 4 2 5 29 7 30 8 91 9 31 10 90 11 32 12 33 13
REMARK SMILES IDX 34 14 84 15 35 16 89 17 83 18 85 19 36 20 88 21 82 22 81 23
REMARK SMILES IDX 37 25 69 26 49 27 68 28 50 29 53 30 67 31 86 32 51 33 52 34
REMARK SMILES IDX 66 36 87 37 54 38 38 39 39 40 47 41 40 42 41 43 45 44 48 45
REMARK SMILES IDX 42 46 43 47 46 48 44 49 70 50 71 51 79 52 72 53 73 54 77 55
REMARK SMILES IDX 80 56 74 57 75 58 78 59 76 60 55 61 56 62 64 63 57 64 58 65
REMARK SMILES IDX 62 66 65 67 59 68 60 69 63 70 61 71 6 72 7 73 8 74 9 75
REMARK SMILES IDX 10 77 11 78 12 79 28 80 13 81 15 82 14 83 16 84 17 86 18 87
REMARK SMILES IDX 27 88 19 89 21 90 26 91 20 92 22 93 24 94 23 95 25 96
REMARK H PARENT 3 6 85 24 53 35 8 76 16 85
REMARK Flexibility Score: inf
ROOT
ATOM      1  C   UNL A   1      38.145  19.331  24.999  1.00  0.00     0.023 C 
ENDROOT
BRANCH   1   2
ATOM      2  C   UNL A   1      39.356  19.837  25.777  1.00  0.00     0.116 C 
BRANCH   2   3
ATOM      3  N   UNL A   1      40.459  18.892  25.811  1.00  0.00    -0.352 N 
ATOM      4  O   UNL A   1      42.585  18.164  25.907  1.00  0.00    -0.269 OA
ATOM      5  C   UNL A   1      41.803  19.099  26.014  1.00  0.00     0.251 C 
ATOM      6  H   UNL A   1      40.203  17.953  25.663  1.00  0.00     0.163 HD
BRANCH   5   7
ATOM      7  C   UNL A   1      42.315  20.452  26.328  1.00  0.00     0.039 A 
ATOM      8  C   UNL A   1      42.302  20.956  27.629  1.00  0.00     0.014 A 
ATOM      9  C   UNL A   1      42.840  21.223  25.285  1.00  0.00     0.014 A 
ATOM     10  C   UNL A   1      42.677  22.277  27.866  1.00  0.00     0.010 A 
ATOM     11  C   UNL A   1      43.286  22.522  25.535  1.00  0.00     0.010 A 
ATOM     12  C   UNL A   1      43.173  23.073  26.821  1.00  0.00    -0.014 A 
BRANCH  12  13
ATOM     13  C   UNL A   1      43.598  24.469  27.090  1.00  0.00     0.031 A 
ATOM     14  C   UNL A   1      42.620  25.484  27.612  1.00  0.00     0.074 A 
ATOM     15  C   UNL A   1      44.877  24.820  26.863  1.00  0.00     0.049 A 
ATOM     16  N   UNL A   1      42.807  26.754  27.875  1.00  0.00    -0.248 NA
ATOM     17  C   UNL A   1      41.250  25.015  27.866  1.00  0.00     0.031 C 
ATOM     18  C   UNL A   1      45.917  23.927  26.351  1.00  0.00     0.029 A 
ATOM     19  N   UNL A   1      45.523  26.019  27.034  1.00  0.00    -0.354 N 
ATOM     20  C   UNL A   1      41.578  27.239  28.302  1.00  0.00     0.074 A 
ATOM     21  C   UNL A   1      40.646  26.133  28.243  1.00  0.00     0.031 C 
ATOM     22  C   UNL A   1      47.074  24.598  26.272  1.00  0.00     0.029 A 
ATOM     23  C   UNL A   1      46.847  25.982  26.676  1.00  0.00     0.049 A 
ATOM     24  H   UNL A   1      45.078  26.827  27.379  1.00  0.00     0.167 HD
ATOM     25  C   UNL A   1      41.262  28.491  28.715  1.00  0.00     0.037 A 
ATOM     26  C   UNL A   1      47.773  26.960  26.654  1.00  0.00     0.037 A 
ATOM     27  C   UNL A   1      42.197  29.584  28.790  1.00  0.00     0.049 A 
ATOM     28  C   UNL A   1      47.390  28.344  27.095  1.00  0.00     0.074 A 
ATOM     29  C   UNL A   1      41.982  30.877  29.232  1.00  0.00     0.029 A 
ATOM     30  N   UNL A   1      43.529  29.510  28.406  1.00  0.00    -0.354 N 
ATOM     31  N   UNL A   1      46.234  28.782  27.527  1.00  0.00    -0.248 NA
ATOM     32  C   UNL A   1      48.441  29.368  27.043  1.00  0.00     0.031 C 
ATOM     33  C   UNL A   1      43.170  31.599  29.075  1.00  0.00     0.029 A 
ATOM     34  C   UNL A   1      44.141  30.742  28.581  1.00  0.00     0.049 A 
ATOM     35  H   UNL A   1      43.975  28.703  28.061  1.00  0.00     0.167 HD
ATOM     36  C   UNL A   1      46.420  30.125  27.818  1.00  0.00     0.074 A 
ATOM     37  C   UNL A   1      47.807  30.428  27.525  1.00  0.00     0.031 C 
ATOM     38  C   UNL A   1      45.523  31.026  28.287  1.00  0.00     0.037 A 
BRANCH  25  39
ATOM     39  C   UNL A   1      39.836  28.754  29.103  1.00  0.00     0.064 A 
ATOM     40  C   UNL A   1      39.390  28.611  30.425  1.00  0.00     0.173 A 
ATOM     41  C   UNL A   1      38.910  29.192  28.143  1.00  0.00     0.173 A 
ATOM     42  F   UNL A   1      40.233  28.185  31.378  1.00  0.00    -0.203 F 
ATOM     43  C   UNL A   1      38.065  28.870  30.767  1.00  0.00     0.198 A 
ATOM     44  C   UNL A   1      37.592  29.476  28.493  1.00  0.00     0.198 A 
ATOM     45  F   UNL A   1      39.284  29.352  26.865  1.00  0.00    -0.203 F 
ATOM     46  F   UNL A   1      37.651  28.683  32.028  1.00  0.00    -0.200 F 
ATOM     47  C   UNL A   1      37.169  29.307  29.804  1.00  0.00     0.200 A 
ATOM     48  F   UNL A   1      36.731  29.910  27.563  1.00  0.00    -0.200 F 
ATOM     49  F   UNL A   1      35.895  29.560  30.136  1.00  0.00    -0.200 F 
ENDBRANCH  25  39
BRANCH  26  50
ATOM     50  C   UNL A   1      49.150  26.649  26.199  1.00  0.00     0.064 A 
ATOM     51  C   UNL A   1      49.524  26.823  24.860  1.00  0.00     0.173 A 
ATOM     52  C   UNL A   1      50.128  26.203  27.100  1.00  0.00     0.173 A 
ATOM     53  F   UNL A   1      48.617  27.230  23.960  1.00  0.00    -0.203 F 
ATOM     54  C   UNL A   1      50.824  26.557  24.437  1.00  0.00     0.198 A 
ATOM     55  C   UNL A   1      51.435  25.962  26.681  1.00  0.00     0.198 A 
ATOM     56  F   UNL A   1      49.820  26.026  28.393  1.00  0.00    -0.203 F 
ATOM     57  F   UNL A   1      51.149  26.703  23.146  1.00  0.00    -0.200 F 
ATOM     58  C   UNL A   1      51.780  26.135  25.350  1.00  0.00     0.200 A 
ATOM     59  F   UNL A   1      52.359  25.572  27.569  1.00  0.00    -0.200 F 
ATOM     60  F   UNL A   1      53.035  25.893  24.944  1.00  0.00    -0.200 F 
ENDBRANCH  26  50
BRANCH  38  61
ATOM     61  C   UNL A   1      46.020  32.419  28.542  1.00  0.00     0.064 A 
ATOM     62  C   UNL A   1      45.946  33.417  27.560  1.00  0.00     0.173 A 
ATOM     63  C   UNL A   1      46.541  32.766  29.797  1.00  0.00     0.173 A 
ATOM     64  F   UNL A   1      45.470  33.129  26.339  1.00  0.00    -0.203 F 
ATOM     65  C   UNL A   1      46.395  34.709  27.819  1.00  0.00     0.198 A 
ATOM     66  C   UNL A   1      46.966  34.065  30.061  1.00  0.00     0.198 A 
ATOM     67  F   UNL A   1      46.630  31.847  30.771  1.00  0.00    -0.203 F 
ATOM     68  F   UNL A   1      46.354  35.637  26.854  1.00  0.00    -0.200 F 
ATOM     69  C   UNL A   1      46.898  35.034  29.070  1.00  0.00     0.200 A 
ATOM     70  F   UNL A   1      47.442  34.379  31.273  1.00  0.00    -0.200 F 
ATOM     71  F   UNL A   1      47.325  36.279  29.321  1.00  0.00    -0.200 F 
ENDBRANCH  38  61
ENDBRANCH  12  13
ENDBRANCH   5   7
ENDBRANCH   2   3
ENDBRANCH   1   2
BRANCH   1  72
ATOM     72  C   UNL A   1      36.938  20.267  24.953  1.00  0.00     0.023 C 
BRANCH  72  73
ATOM     73  C   UNL A   1      37.166  21.603  24.252  1.00  0.00     0.116 C 
BRANCH  73  74
ATOM     74  N   UNL A   1      37.751  22.603  25.122  1.00  0.00    -0.352 N 
ATOM     75  C   UNL A   1      37.172  23.579  25.890  1.00  0.00     0.251 C 
ATOM     76  H   UNL A   1      38.734  22.578  25.170  1.00  0.00     0.163 HD
ATOM     77  O   UNL A   1      37.893  24.417  26.427  1.00  0.00    -0.269 OA
BRANCH  75  78
ATOM     78  C   UNL A   1      35.708  23.652  26.088  1.00  0.00     0.041 A 
ATOM     79  C   UNL A   1      35.124  22.759  26.995  1.00  0.00     0.014 A 
ATOM     80  C   UNL A   1      34.895  24.460  25.285  1.00  0.00     0.039 A 
ATOM     81  C   UNL A   1      33.738  22.703  27.127  1.00  0.00     0.003 A 
ATOM     82  C   UNL A   1      33.503  24.414  25.416  1.00  0.00     0.039 A 
ATOM     83  C   UNL A   1      32.934  23.523  26.336  1.00  0.00     0.026 A 
BRANCH  82  84
ATOM     84  N   UNL A   1      32.673  25.075  24.481  1.00  0.00    -0.355 N 
ATOM     85  H   UNL A   1      31.925  24.591  24.064  1.00  0.00     0.167 HD
BRANCH  84  86
ATOM     86  C   UNL A   1      32.913  26.435  24.139  1.00  0.00     0.050 A 
ATOM     87  C   UNL A   1      33.461  26.725  22.887  1.00  0.00     0.047 A 
ATOM     88  C   UNL A   1      32.633  27.487  25.035  1.00  0.00     0.027 A 
ATOM     89  C   UNL A   1      33.649  28.044  22.541  1.00  0.00     0.114 A 
ATOM     90  C   UNL A   1      32.857  28.805  24.570  1.00  0.00     0.072 A 
ATOM     91  C   UNL A   1      32.120  27.292  26.336  1.00  0.00     0.051 A 
ATOM     92  N   UNL A   1      33.354  29.077  23.353  1.00  0.00    -0.256 NA
ATOM     93  C   UNL A   1      32.545  29.871  25.401  1.00  0.00     0.032 A 
ATOM     94  C   UNL A   1      31.831  28.385  27.143  1.00  0.00     0.124 A 
ATOM     95  C   UNL A   1      32.033  29.675  26.685  1.00  0.00     0.041 A 
ATOM     96  F   UNL A   1      31.346  28.189  28.376  1.00  0.00    -0.207 F 
ENDBRANCH  84  86
ENDBRANCH  82  84
ENDBRANCH  75  78
ENDBRANCH  73  74
ENDBRANCH  72  73
ENDBRANCH   1  72
TORSDOF 13
ENDMDL
