MODEL 1
REMARK VINA RESULT:     -12.4      0.000      0.000
REMARK SMILES C[C@H](C(=O)NCCCCNC(=O)c1ccc(-c2c3nc(c(-c4c(F)c(F)c(F)c(F)c4F)c4ccc([nH]4)c(-c4c(F)c(F)c(F)c(F)c4F)c4nc(c(-c5c(F)c(F)c(F)c(F)c5F)c5ccc2[nH]5)C=C4)C=C3)cc1)[C@H](C)[NH+]1CCN(c2ccccc2Cl)CC1
REMARK SMILES IDX 7 1 6 2 5 3 3 4 4 5 2 7 1 8 76 9 77 10 78 11 79 12 90 13
REMARK SMILES IDX 80 15 89 16 81 17 82 18 83 19 87 20 84 21 86 22 88 23 85 24
REMARK SMILES IDX 8 25 9 26 10 27 11 28 12 30 13 31 14 32 75 33 15 34 74 35
REMARK SMILES IDX 16 36 17 37 18 38 68 39 19 40 73 41 67 42 69 43 20 44 72 45
REMARK SMILES IDX 66 46 65 47 21 49 53 50 33 51 52 52 34 53 37 54 51 55 70 56
REMARK SMILES IDX 35 57 36 58 50 60 71 61 38 62 22 63 23 64 31 65 24 66 25 67
REMARK SMILES IDX 29 68 32 69 26 70 27 71 30 72 28 73 54 74 55 75 63 76 56 77
REMARK SMILES IDX 57 78 61 79 64 80 58 81 59 82 62 83 60 84 39 85 40 86 48 87
REMARK SMILES IDX 41 88 42 89 46 90 49 91 43 92 44 93 47 94 45 95
REMARK H PARENT 5 6 78 14 10 29 69 48 37 59
REMARK Flexibility Score: inf
ROOT
ATOM      1  C   UNL A   1      31.420  30.919  25.920  1.00  0.00     0.023 C 
ENDROOT
BRANCH   1   2
ATOM      2  C   UNL A   1      32.673  30.064  26.063  1.00  0.00     0.116 C 
BRANCH   2   3
ATOM      3  N   UNL A   1      33.244  29.682  24.788  1.00  0.00    -0.356 N 
ATOM      4  C   UNL A   1      32.737  28.915  23.786  1.00  0.00     0.228 C 
ATOM      5  O   UNL A   1      33.294  29.019  22.689  1.00  0.00    -0.275 OA
ATOM      6  H   UNL A   1      34.147  30.036  24.619  1.00  0.00     0.163 HD
BRANCH   4   7
ATOM      7  C   UNL A   1      31.494  28.050  23.981  1.00  0.00     0.133 C 
ATOM      8  C   UNL A   1      30.721  27.958  22.646  1.00  0.00     0.024 C 
BRANCH   7   9
ATOM      9  C   UNL A   1      31.656  26.616  24.610  1.00  0.00     0.193 C 
ATOM     10  C   UNL A   1      30.918  26.524  25.967  1.00  0.00     0.076 C 
BRANCH   9  11
ATOM     11  N   UNL A   1      32.898  25.838  24.521  1.00  0.00    -0.329 N 
ATOM     12  C   UNL A   1      33.444  25.148  25.693  1.00  0.00     0.284 C 
ATOM     13  C   UNL A   1      33.415  25.241  23.289  1.00  0.00     0.284 C 
ATOM     14  H   UNL A   1      33.230  26.801  24.466  1.00  0.00     0.348 HD
ATOM     15  C   UNL A   1      33.277  23.612  25.689  1.00  0.00     0.178 C 
ATOM     16  C   UNL A   1      33.235  23.709  23.205  1.00  0.00     0.178 C 
ATOM     17  N   UNL A   1      33.701  23.016  24.413  1.00  0.00    -0.359 N 
BRANCH  17  18
ATOM     18  C   UNL A   1      33.641  21.612  24.337  1.00  0.00     0.056 A 
ATOM     19  C   UNL A   1      32.545  20.960  23.738  1.00  0.00     0.027 A 
ATOM     20  C   UNL A   1      34.670  20.799  24.855  1.00  0.00     0.064 A 
ATOM     21  C   UNL A   1      32.452  19.564  23.701  1.00  0.00     0.002 A 
ATOM     22  C   UNL A   1      34.575  19.402  24.824  1.00  0.00     0.023 A 
ATOM     23  Cl  UNL A   1      36.083  21.491  25.579  1.00  0.00    -0.082 Cl
ATOM     24  C   UNL A   1      33.461  18.785  24.257  1.00  0.00     0.002 A 
ENDBRANCH  17  18
ENDBRANCH   9  11
ENDBRANCH   7   9
ENDBRANCH   4   7
ENDBRANCH   2   3
ENDBRANCH   1   2
BRANCH   1  25
ATOM     25  C   UNL A   1      31.332  32.128  26.840  1.00  0.00     0.023 C 
BRANCH  25  26
ATOM     26  C   UNL A   1      32.633  32.858  27.058  1.00  0.00     0.116 C 
BRANCH  26  27
ATOM     27  N   UNL A   1      32.447  34.190  27.602  1.00  0.00    -0.352 N 
ATOM     28  C   UNL A   1      33.101  34.796  28.643  1.00  0.00     0.251 C 
ATOM     29  H   UNL A   1      31.754  34.735  27.163  1.00  0.00     0.163 HD
ATOM     30  O   UNL A   1      32.696  35.875  29.076  1.00  0.00    -0.269 OA
BRANCH  28  31
ATOM     31  C   UNL A   1      34.273  34.142  29.260  1.00  0.00     0.039 A 
ATOM     32  C   UNL A   1      34.069  33.149  30.219  1.00  0.00     0.014 A 
ATOM     33  C   UNL A   1      35.573  34.499  28.889  1.00  0.00     0.014 A 
ATOM     34  C   UNL A   1      35.167  32.492  30.774  1.00  0.00     0.010 A 
ATOM     35  C   UNL A   1      36.653  33.754  29.339  1.00  0.00     0.010 A 
ATOM     36  C   UNL A   1      36.466  32.773  30.319  1.00  0.00    -0.014 A 
BRANCH  36  37
ATOM     37  C   UNL A   1      37.649  32.105  30.911  1.00  0.00     0.031 A 
ATOM     38  C   UNL A   1      38.104  32.488  32.295  1.00  0.00     0.074 A 
ATOM     39  C   UNL A   1      38.327  31.187  30.196  1.00  0.00     0.049 A 
ATOM     40  N   UNL A   1      39.125  32.047  32.984  1.00  0.00    -0.248 NA
ATOM     41  C   UNL A   1      37.330  33.535  32.985  1.00  0.00     0.031 C 
ATOM     42  C   UNL A   1      38.019  30.789  28.821  1.00  0.00     0.029 A 
ATOM     43  N   UNL A   1      39.414  30.421  30.528  1.00  0.00    -0.354 N 
ATOM     44  C   UNL A   1      39.115  32.767  34.173  1.00  0.00     0.074 A 
ATOM     45  C   UNL A   1      38.047  33.733  34.079  1.00  0.00     0.031 C 
ATOM     46  C   UNL A   1      38.872  29.823  28.441  1.00  0.00     0.029 A 
ATOM     47  C   UNL A   1      39.804  29.560  29.531  1.00  0.00     0.049 A 
ATOM     48  H   UNL A   1      39.871  30.482  31.398  1.00  0.00     0.167 HD
ATOM     49  C   UNL A   1      39.897  32.605  35.266  1.00  0.00     0.037 A 
ATOM     50  C   UNL A   1      40.804  28.659  29.509  1.00  0.00     0.037 A 
ATOM     51  C   UNL A   1      40.938  31.619  35.363  1.00  0.00     0.049 A 
ATOM     52  C   UNL A   1      41.653  28.490  30.741  1.00  0.00     0.074 A 
ATOM     53  C   UNL A   1      41.770  31.341  36.432  1.00  0.00     0.029 A 
ATOM     54  N   UNL A   1      41.286  30.743  34.343  1.00  0.00    -0.354 N 
ATOM     55  N   UNL A   1      41.589  29.128  31.886  1.00  0.00    -0.248 NA
ATOM     56  C   UNL A   1      42.704  27.466  30.685  1.00  0.00     0.031 C 
ATOM     57  C   UNL A   1      42.647  30.321  36.046  1.00  0.00     0.029 A 
ATOM     58  C   UNL A   1      42.327  29.930  34.756  1.00  0.00     0.049 A 
ATOM     59  H   UNL A   1      40.856  30.706  33.459  1.00  0.00     0.167 HD
ATOM     60  C   UNL A   1      42.569  28.565  32.693  1.00  0.00     0.074 A 
ATOM     61  C   UNL A   1      43.195  27.518  31.914  1.00  0.00     0.031 C 
ATOM     62  C   UNL A   1      42.924  28.887  33.960  1.00  0.00     0.037 A 
BRANCH  49  63
ATOM     63  C   UNL A   1      39.634  33.498  36.445  1.00  0.00     0.064 A 
ATOM     64  C   UNL A   1      40.234  34.763  36.555  1.00  0.00     0.173 A 
ATOM     65  C   UNL A   1      38.758  33.100  37.466  1.00  0.00     0.173 A 
ATOM     66  F   UNL A   1      41.094  35.187  35.616  1.00  0.00    -0.203 F 
ATOM     67  C   UNL A   1      39.994  35.579  37.657  1.00  0.00     0.198 A 
ATOM     68  C   UNL A   1      38.494  33.934  38.550  1.00  0.00     0.198 A 
ATOM     69  F   UNL A   1      38.156  31.903  37.412  1.00  0.00    -0.203 F 
ATOM     70  F   UNL A   1      40.626  36.757  37.766  1.00  0.00    -0.200 F 
ATOM     71  C   UNL A   1      39.118  35.169  38.649  1.00  0.00     0.200 A 
ATOM     72  F   UNL A   1      37.638  33.541  39.503  1.00  0.00    -0.200 F 
ATOM     73  F   UNL A   1      38.882  35.958  39.706  1.00  0.00    -0.200 F 
ENDBRANCH  49  63
BRANCH  50  74
ATOM     74  C   UNL A   1      41.035  27.825  28.298  1.00  0.00     0.064 A 
ATOM     75  C   UNL A   1      40.449  26.558  28.170  1.00  0.00     0.173 A 
ATOM     76  C   UNL A   1      41.859  28.270  27.254  1.00  0.00     0.173 A 
ATOM     77  F   UNL A   1      39.664  26.081  29.147  1.00  0.00    -0.203 F 
ATOM     78  C   UNL A   1      40.704  25.756  27.060  1.00  0.00     0.198 A 
ATOM     79  C   UNL A   1      42.087  27.480  26.130  1.00  0.00     0.198 A 
ATOM     80  F   UNL A   1      42.438  29.478  27.322  1.00  0.00    -0.203 F 
ATOM     81  F   UNL A   1      40.177  24.525  26.991  1.00  0.00    -0.200 F 
ATOM     82  C   UNL A   1      41.519  26.218  26.038  1.00  0.00     0.200 A 
ATOM     83  F   UNL A   1      42.863  27.938  25.138  1.00  0.00    -0.200 F 
ATOM     84  F   UNL A   1      41.767  25.445  24.973  1.00  0.00    -0.200 F 
ENDBRANCH  50  74
BRANCH  62  85
ATOM     85  C   UNL A   1      44.014  28.071  34.591  1.00  0.00     0.064 A 
ATOM     86  C   UNL A   1      43.740  26.877  35.273  1.00  0.00     0.173 A 
ATOM     87  C   UNL A   1      45.354  28.478  34.486  1.00  0.00     0.173 A 
ATOM     88  F   UNL A   1      42.474  26.454  35.411  1.00  0.00    -0.203 F 
ATOM     89  C   UNL A   1      44.763  26.137  35.859  1.00  0.00     0.198 A 
ATOM     90  C   UNL A   1      46.378  27.717  35.043  1.00  0.00     0.198 A 
ATOM     91  F   UNL A   1      45.670  29.607  33.835  1.00  0.00    -0.203 F 
ATOM     92  F   UNL A   1      44.472  25.031  36.557  1.00  0.00    -0.200 F 
ATOM     93  C   UNL A   1      46.081  26.554  35.738  1.00  0.00     0.200 A 
ATOM     94  F   UNL A   1      47.652  28.112  34.911  1.00  0.00    -0.200 F 
ATOM     95  F   UNL A   1      47.065  25.839  36.299  1.00  0.00    -0.200 F 
ENDBRANCH  62  85
ENDBRANCH  36  37
ENDBRANCH  28  31
ENDBRANCH  26  27
ENDBRANCH  25  26
ENDBRANCH   1  25
TORSDOF 14
ENDMDL
MODEL 2
REMARK VINA RESULT:     -12.3      0.983      1.974
REMARK SMILES C[C@H](C(=O)NCCCCNC(=O)c1ccc(-c2c3nc(c(-c4c(F)c(F)c(F)c(F)c4F)c4ccc([nH]4)c(-c4c(F)c(F)c(F)c(F)c4F)c4nc(c(-c5c(F)c(F)c(F)c(F)c5F)c5ccc2[nH]5)C=C4)C=C3)cc1)[C@H](C)[NH+]1CCN(c2ccccc2Cl)CC1
REMARK SMILES IDX 7 1 6 2 5 3 3 4 4 5 2 7 1 8 76 9 77 10 78 11 79 12 90 13
REMARK SMILES IDX 80 15 89 16 81 17 82 18 83 19 87 20 84 21 86 22 88 23 85 24
REMARK SMILES IDX 8 25 9 26 10 27 11 28 12 30 13 31 14 32 75 33 15 34 74 35
REMARK SMILES IDX 16 36 17 37 18 38 68 39 19 40 73 41 67 42 69 43 20 44 72 45
REMARK SMILES IDX 66 46 65 47 21 49 53 50 33 51 52 52 34 53 37 54 51 55 70 56
REMARK SMILES IDX 35 57 36 58 50 60 71 61 38 62 22 63 23 64 31 65 24 66 25 67
REMARK SMILES IDX 29 68 32 69 26 70 27 71 30 72 28 73 54 74 55 75 63 76 56 77
REMARK SMILES IDX 57 78 61 79 64 80 58 81 59 82 62 83 60 84 39 85 40 86 48 87
REMARK SMILES IDX 41 88 42 89 46 90 49 91 43 92 44 93 47 94 45 95
REMARK H PARENT 5 6 78 14 10 29 69 48 37 59
REMARK Flexibility Score: inf
ROOT
ATOM      1  C   UNL A   1      31.387  30.865  26.308  1.00  0.00     0.023 C 
ENDROOT
BRANCH   1   2
ATOM      2  C   UNL A   1      32.746  30.178  26.250  1.00  0.00     0.116 C 
BRANCH   2   3
ATOM      3  N   UNL A   1      33.098  29.733  24.918  1.00  0.00    -0.356 N 
ATOM      4  C   UNL A   1      32.367  29.062  23.989  1.00  0.00     0.228 C 
ATOM      5  O   UNL A   1      32.798  29.096  22.832  1.00  0.00    -0.275 OA
ATOM      6  H   UNL A   1      34.017  29.952  24.640  1.00  0.00     0.163 HD
BRANCH   4   7
ATOM      7  C   UNL A   1      31.042  28.387  24.336  1.00  0.00     0.133 C 
ATOM      8  C   UNL A   1      29.924  28.962  23.436  1.00  0.00     0.024 C 
BRANCH   7   9
ATOM      9  C   UNL A   1      30.969  26.814  24.347  1.00  0.00     0.193 C 
ATOM     10  C   UNL A   1      29.568  26.326  23.908  1.00  0.00     0.076 C 
BRANCH   9  11
ATOM     11  N   UNL A   1      31.626  25.990  25.369  1.00  0.00    -0.329 N 
ATOM     12  C   UNL A   1      31.355  24.552  25.470  1.00  0.00     0.284 C 
ATOM     13  C   UNL A   1      32.906  26.314  25.999  1.00  0.00     0.284 C 
ATOM     14  H   UNL A   1      30.957  26.534  25.914  1.00  0.00     0.348 HD
ATOM     15  C   UNL A   1      32.489  23.632  24.964  1.00  0.00     0.178 C 
ATOM     16  C   UNL A   1      34.091  25.457  25.501  1.00  0.00     0.178 C 
ATOM     17  N   UNL A   1      33.798  24.018  25.516  1.00  0.00    -0.359 N 
BRANCH  17  18
ATOM     18  C   UNL A   1      34.885  23.199  25.158  1.00  0.00     0.056 A 
ATOM     19  C   UNL A   1      35.672  23.486  24.026  1.00  0.00     0.027 A 
ATOM     20  C   UNL A   1      35.231  22.060  25.914  1.00  0.00     0.064 A 
ATOM     21  C   UNL A   1      36.724  22.651  23.633  1.00  0.00     0.002 A 
ATOM     22  C   UNL A   1      36.280  21.221  25.518  1.00  0.00     0.023 A 
ATOM     23  Cl  UNL A   1      34.358  21.632  27.346  1.00  0.00    -0.082 Cl
ATOM     24  C   UNL A   1      37.020  21.510  24.372  1.00  0.00     0.002 A 
ENDBRANCH  17  18
ENDBRANCH   9  11
ENDBRANCH   7   9
ENDBRANCH   4   7
ENDBRANCH   2   3
ENDBRANCH   1   2
BRANCH   1  25
ATOM     25  C   UNL A   1      31.413  32.373  26.514  1.00  0.00     0.023 C 
BRANCH  25  26
ATOM     26  C   UNL A   1      32.642  32.899  27.209  1.00  0.00     0.116 C 
BRANCH  26  27
ATOM     27  N   UNL A   1      32.454  34.232  27.751  1.00  0.00    -0.352 N 
ATOM     28  C   UNL A   1      33.114  34.843  28.786  1.00  0.00     0.251 C 
ATOM     29  H   UNL A   1      31.756  34.773  27.316  1.00  0.00     0.163 HD
ATOM     30  O   UNL A   1      32.708  35.922  29.220  1.00  0.00    -0.269 OA
BRANCH  28  31
ATOM     31  C   UNL A   1      34.293  34.195  29.396  1.00  0.00     0.039 A 
ATOM     32  C   UNL A   1      34.109  33.328  30.474  1.00  0.00     0.014 A 
ATOM     33  C   UNL A   1      35.579  34.433  28.902  1.00  0.00     0.014 A 
ATOM     34  C   UNL A   1      35.210  32.675  31.027  1.00  0.00     0.010 A 
ATOM     35  C   UNL A   1      36.650  33.682  29.362  1.00  0.00     0.010 A 
ATOM     36  C   UNL A   1      36.485  32.828  30.458  1.00  0.00    -0.014 A 
BRANCH  36  37
ATOM     37  C   UNL A   1      37.673  32.162  31.044  1.00  0.00     0.031 A 
ATOM     38  C   UNL A   1      38.141  32.555  32.422  1.00  0.00     0.074 A 
ATOM     39  C   UNL A   1      38.342  31.238  30.331  1.00  0.00     0.049 A 
ATOM     40  N   UNL A   1      39.168  32.119  33.104  1.00  0.00    -0.248 NA
ATOM     41  C   UNL A   1      37.375  33.609  33.110  1.00  0.00     0.031 C 
ATOM     42  C   UNL A   1      38.021  30.829  28.961  1.00  0.00     0.029 A 
ATOM     43  N   UNL A   1      39.431  30.473  30.659  1.00  0.00    -0.354 N 
ATOM     44  C   UNL A   1      39.170  32.847  34.288  1.00  0.00     0.074 A 
ATOM     45  C   UNL A   1      38.103  33.814  34.196  1.00  0.00     0.031 C 
ATOM     46  C   UNL A   1      38.869  29.860  28.581  1.00  0.00     0.029 A 
ATOM     47  C   UNL A   1      39.811  29.604  29.664  1.00  0.00     0.049 A 
ATOM     48  H   UNL A   1      39.897  30.540  31.523  1.00  0.00     0.167 HD
ATOM     49  C   UNL A   1      39.962  32.693  35.375  1.00  0.00     0.037 A 
ATOM     50  C   UNL A   1      40.809  28.701  29.640  1.00  0.00     0.037 A 
ATOM     51  C   UNL A   1      41.003  31.706  35.469  1.00  0.00     0.049 A 
ATOM     52  C   UNL A   1      41.670  28.541  30.865  1.00  0.00     0.074 A 
ATOM     53  C   UNL A   1      41.844  31.435  36.532  1.00  0.00     0.029 A 
ATOM     54  N   UNL A   1      41.340  30.822  34.452  1.00  0.00    -0.354 N 
ATOM     55  N   UNL A   1      41.618  29.187  32.005  1.00  0.00    -0.248 NA
ATOM     56  C   UNL A   1      42.718  27.514  30.807  1.00  0.00     0.031 C 
ATOM     57  C   UNL A   1      42.716  30.411  36.146  1.00  0.00     0.029 A 
ATOM     58  C   UNL A   1      42.383  30.010  34.862  1.00  0.00     0.049 A 
ATOM     59  H   UNL A   1      40.901  30.779  33.573  1.00  0.00     0.167 HD
ATOM     60  C   UNL A   1      42.604  28.629  32.807  1.00  0.00     0.074 A 
ATOM     61  C   UNL A   1      43.221  27.575  32.031  1.00  0.00     0.031 C 
ATOM     62  C   UNL A   1      42.972  28.960  34.069  1.00  0.00     0.037 A 
BRANCH  49  63
ATOM     63  C   UNL A   1      39.712  33.595  36.549  1.00  0.00     0.064 A 
ATOM     64  C   UNL A   1      40.305  34.865  36.637  1.00  0.00     0.173 A 
ATOM     65  C   UNL A   1      38.855  33.202  37.587  1.00  0.00     0.173 A 
ATOM     66  F   UNL A   1      41.148  35.285  35.681  1.00  0.00    -0.203 F 
ATOM     67  C   UNL A   1      40.077  35.690  37.735  1.00  0.00     0.198 A 
ATOM     68  C   UNL A   1      38.601  34.044  38.667  1.00  0.00     0.198 A 
ATOM     69  F   UNL A   1      38.259  32.000  37.553  1.00  0.00    -0.203 F 
ATOM     70  F   UNL A   1      40.703  36.872  37.824  1.00  0.00    -0.200 F 
ATOM     71  C   UNL A   1      39.220  35.283  38.745  1.00  0.00     0.200 A 
ATOM     72  F   UNL A   1      37.763  33.654  39.636  1.00  0.00    -0.200 F 
ATOM     73  F   UNL A   1      38.995  36.081  39.797  1.00  0.00    -0.200 F 
ENDBRANCH  49  63
BRANCH  50  74
ATOM     74  C   UNL A   1      41.028  27.858  28.433  1.00  0.00     0.064 A 
ATOM     75  C   UNL A   1      41.875  28.280  27.400  1.00  0.00     0.173 A 
ATOM     76  C   UNL A   1      40.381  26.623  28.280  1.00  0.00     0.173 A 
ATOM     77  F   UNL A   1      42.506  29.461  27.491  1.00  0.00    -0.203 F 
ATOM     78  C   UNL A   1      42.042  27.517  26.246  1.00  0.00     0.198 A 
ATOM     79  C   UNL A   1      40.574  25.845  27.141  1.00  0.00     0.198 A 
ATOM     80  F   UNL A   1      39.566  26.166  29.243  1.00  0.00    -0.203 F 
ATOM     81  F   UNL A   1      42.813  27.973  25.249  1.00  0.00    -0.200 F 
ATOM     82  C   UNL A   1      41.395  26.297  26.119  1.00  0.00     0.200 A 
ATOM     83  F   UNL A   1      39.960  24.659  27.030  1.00  0.00    -0.200 F 
ATOM     84  F   UNL A   1      41.554  25.564  25.009  1.00  0.00    -0.200 F 
ENDBRANCH  50  74
BRANCH  62  85
ATOM     85  C   UNL A   1      44.067  28.147  34.696  1.00  0.00     0.064 A 
ATOM     86  C   UNL A   1      45.412  28.535  34.614  1.00  0.00     0.173 A 
ATOM     87  C   UNL A   1      43.760  26.979  35.411  1.00  0.00     0.173 A 
ATOM     88  F   UNL A   1      45.755  29.637  33.930  1.00  0.00    -0.203 F 
ATOM     89  C   UNL A   1      46.415  27.764  35.194  1.00  0.00     0.198 A 
ATOM     90  C   UNL A   1      44.762  26.229  36.020  1.00  0.00     0.198 A 
ATOM     91  F   UNL A   1      42.487  26.571  35.528  1.00  0.00    -0.203 F 
ATOM     92  F   UNL A   1      47.698  28.122  35.052  1.00  0.00    -0.200 F 
ATOM     93  C   UNL A   1      46.089  26.616  35.901  1.00  0.00     0.200 A 
ATOM     94  F   UNL A   1      44.445  25.130  36.718  1.00  0.00    -0.200 F 
ATOM     95  F   UNL A   1      47.055  25.877  36.463  1.00  0.00    -0.200 F 
ENDBRANCH  62  85
ENDBRANCH  36  37
ENDBRANCH  28  31
ENDBRANCH  26  27
ENDBRANCH  25  26
ENDBRANCH   1  25
TORSDOF 14
ENDMDL
MODEL 3
REMARK VINA RESULT:     -12.3      0.804      7.327
REMARK SMILES C[C@H](C(=O)NCCCCNC(=O)c1ccc(-c2c3nc(c(-c4c(F)c(F)c(F)c(F)c4F)c4ccc([nH]4)c(-c4c(F)c(F)c(F)c(F)c4F)c4nc(c(-c5c(F)c(F)c(F)c(F)c5F)c5ccc2[nH]5)C=C4)C=C3)cc1)[C@H](C)[NH+]1CCN(c2ccccc2Cl)CC1
REMARK SMILES IDX 7 1 6 2 5 3 3 4 4 5 2 7 1 8 76 9 77 10 78 11 79 12 90 13
REMARK SMILES IDX 80 15 89 16 81 17 82 18 83 19 87 20 84 21 86 22 88 23 85 24
REMARK SMILES IDX 8 25 9 26 10 27 11 28 12 30 13 31 14 32 75 33 15 34 74 35
REMARK SMILES IDX 16 36 17 37 18 38 68 39 19 40 73 41 67 42 69 43 20 44 72 45
REMARK SMILES IDX 66 46 65 47 21 49 53 50 33 51 52 52 34 53 37 54 51 55 70 56
REMARK SMILES IDX 35 57 36 58 50 60 71 61 38 62 22 63 23 64 31 65 24 66 25 67
REMARK SMILES IDX 29 68 32 69 26 70 27 71 30 72 28 73 54 74 55 75 63 76 56 77
REMARK SMILES IDX 57 78 61 79 64 80 58 81 59 82 62 83 60 84 39 85 40 86 48 87
REMARK SMILES IDX 41 88 42 89 46 90 49 91 43 92 44 93 47 94 45 95
REMARK H PARENT 5 6 78 14 10 29 69 48 37 59
REMARK Flexibility Score: inf
ROOT
ATOM      1  C   UNL A   1      31.326  31.221  26.323  1.00  0.00     0.023 C 
ENDROOT
BRANCH   1   2
ATOM      2  C   UNL A   1      32.573  30.403  26.635  1.00  0.00     0.116 C 
BRANCH   2   3
ATOM      3  N   UNL A   1      33.253  29.933  25.447  1.00  0.00    -0.356 N 
ATOM      4  C   UNL A   1      32.823  29.119  24.446  1.00  0.00     0.228 C 
ATOM      5  O   UNL A   1      33.485  29.145  23.404  1.00  0.00    -0.275 OA
ATOM      6  H   UNL A   1      34.178  30.257  25.346  1.00  0.00     0.163 HD
BRANCH   4   7
ATOM      7  C   UNL A   1      31.544  28.295  24.568  1.00  0.00     0.133 C 
ATOM      8  C   UNL A   1      30.445  28.922  23.680  1.00  0.00     0.024 C 
BRANCH   7   9
ATOM      9  C   UNL A   1      31.613  26.741  24.323  1.00  0.00     0.193 C 
ATOM     10  C   UNL A   1      30.455  26.017  25.050  1.00  0.00     0.076 C 
BRANCH   9  11
ATOM     11  N   UNL A   1      32.877  25.995  24.265  1.00  0.00    -0.329 N 
ATOM     12  C   UNL A   1      33.459  25.399  25.472  1.00  0.00     0.284 C 
ATOM     13  C   UNL A   1      33.396  25.335  23.067  1.00  0.00     0.284 C 
ATOM     14  H   UNL A   1      33.179  26.962  24.144  1.00  0.00     0.348 HD
ATOM     15  C   UNL A   1      33.337  23.861  25.569  1.00  0.00     0.178 C 
ATOM     16  C   UNL A   1      33.261  23.796  23.084  1.00  0.00     0.178 C 
ATOM     17  N   UNL A   1      33.763  23.196  24.327  1.00  0.00    -0.359 N 
BRANCH  17  18
ATOM     18  C   UNL A   1      33.744  21.789  24.343  1.00  0.00     0.056 A 
ATOM     19  C   UNL A   1      32.618  21.070  23.894  1.00  0.00     0.027 A 
ATOM     20  C   UNL A   1      34.845  21.041  24.807  1.00  0.00     0.064 A 
ATOM     21  C   UNL A   1      32.570  19.673  23.951  1.00  0.00     0.002 A 
ATOM     22  C   UNL A   1      34.795  19.642  24.870  1.00  0.00     0.023 A 
ATOM     23  Cl  UNL A   1      36.296  21.816  25.346  1.00  0.00    -0.082 Cl
ATOM     24  C   UNL A   1      33.654  18.959  24.452  1.00  0.00     0.002 A 
ENDBRANCH  17  18
ENDBRANCH   9  11
ENDBRANCH   7   9
ENDBRANCH   4   7
ENDBRANCH   2   3
ENDBRANCH   1   2
BRANCH   1  25
ATOM     25  C   UNL A   1      31.451  32.725  26.517  1.00  0.00     0.023 C 
BRANCH  25  26
ATOM     26  C   UNL A   1      32.566  33.157  27.435  1.00  0.00     0.116 C 
BRANCH  26  27
ATOM     27  N   UNL A   1      32.482  34.559  27.800  1.00  0.00    -0.352 N 
ATOM     28  C   UNL A   1      33.170  35.240  28.771  1.00  0.00     0.251 C 
ATOM     29  H   UNL A   1      31.843  35.096  27.278  1.00  0.00     0.163 HD
ATOM     30  O   UNL A   1      32.849  36.395  29.054  1.00  0.00    -0.269 OA
BRANCH  28  31
ATOM     31  C   UNL A   1      34.276  34.579  29.494  1.00  0.00     0.039 A 
ATOM     32  C   UNL A   1      33.991  33.852  30.651  1.00  0.00     0.014 A 
ATOM     33  C   UNL A   1      35.591  34.668  29.030  1.00  0.00     0.014 A 
ATOM     34  C   UNL A   1      35.020  33.185  31.315  1.00  0.00     0.010 A 
ATOM     35  C   UNL A   1      36.587  33.896  29.612  1.00  0.00     0.010 A 
ATOM     36  C   UNL A   1      36.322  33.183  30.786  1.00  0.00    -0.014 A 
BRANCH  36  37
ATOM     37  C   UNL A   1      37.435  32.501  31.487  1.00  0.00     0.031 A 
ATOM     38  C   UNL A   1      38.149  31.357  30.814  1.00  0.00     0.074 A 
ATOM     39  C   UNL A   1      37.779  32.887  32.730  1.00  0.00     0.049 A 
ATOM     40  N   UNL A   1      39.126  30.611  31.261  1.00  0.00    -0.248 NA
ATOM     41  C   UNL A   1      37.674  30.973  29.473  1.00  0.00     0.031 C 
ATOM     42  C   UNL A   1      37.112  33.936  33.506  1.00  0.00     0.029 A 
ATOM     43  N   UNL A   1      38.775  32.443  33.560  1.00  0.00    -0.354 N 
ATOM     44  C   UNL A   1      39.371  29.675  30.264  1.00  0.00     0.074 A 
ATOM     45  C   UNL A   1      38.387  29.886  29.229  1.00  0.00     0.031 C 
ATOM     46  C   UNL A   1      37.744  34.081  34.682  1.00  0.00     0.029 A 
ATOM     47  C   UNL A   1      38.835  33.116  34.756  1.00  0.00     0.049 A 
ATOM     48  H   UNL A   1      39.389  31.711  33.322  1.00  0.00     0.167 HD
ATOM     49  C   UNL A   1      40.359  28.752  30.194  1.00  0.00     0.037 A 
ATOM     50  C   UNL A   1      39.682  32.966  35.792  1.00  0.00     0.037 A 
ATOM     51  C   UNL A   1      41.354  28.571  31.216  1.00  0.00     0.049 A 
ATOM     52  C   UNL A   1      40.779  31.940  35.686  1.00  0.00     0.074 A 
ATOM     53  C   UNL A   1      42.422  27.693  31.238  1.00  0.00     0.029 A 
ATOM     54  N   UNL A   1      41.401  29.293  32.402  1.00  0.00    -0.354 N 
ATOM     55  N   UNL A   1      41.045  31.108  34.707  1.00  0.00    -0.248 NA
ATOM     56  C   UNL A   1      41.704  31.842  36.822  1.00  0.00     0.031 C 
ATOM     57  C   UNL A   1      43.094  27.856  32.454  1.00  0.00     0.029 A 
ATOM     58  C   UNL A   1      42.475  28.872  33.166  1.00  0.00     0.049 A 
ATOM     59  H   UNL A   1      40.766  29.998  32.660  1.00  0.00     0.167 HD
ATOM     60  C   UNL A   1      42.180  30.410  35.096  1.00  0.00     0.074 A 
ATOM     61  C   UNL A   1      42.566  30.934  36.388  1.00  0.00     0.031 C 
ATOM     62  C   UNL A   1      42.841  29.420  34.447  1.00  0.00     0.037 A 
BRANCH  49  63
ATOM     63  C   UNL A   1      40.420  27.893  28.964  1.00  0.00     0.064 A 
ATOM     64  C   UNL A   1      41.200  28.257  27.854  1.00  0.00     0.173 A 
ATOM     65  C   UNL A   1      39.712  26.684  28.897  1.00  0.00     0.173 A 
ATOM     66  F   UNL A   1      41.882  29.413  27.857  1.00  0.00    -0.203 F 
ATOM     67  C   UNL A   1      41.241  27.461  26.713  1.00  0.00     0.198 A 
ATOM     68  C   UNL A   1      39.784  25.873  27.766  1.00  0.00     0.198 A 
ATOM     69  F   UNL A   1      38.953  26.287  29.929  1.00  0.00    -0.203 F 
ATOM     70  F   UNL A   1      41.945  27.861  25.644  1.00  0.00    -0.200 F 
ATOM     71  C   UNL A   1      40.540  26.266  26.672  1.00  0.00     0.200 A 
ATOM     72  F   UNL A   1      39.115  24.713  27.734  1.00  0.00    -0.200 F 
ATOM     73  F   UNL A   1      40.586  25.497  25.576  1.00  0.00    -0.200 F 
ENDBRANCH  49  63
BRANCH  50  74
ATOM     74  C   UNL A   1      39.550  33.827  36.998  1.00  0.00     0.064 A 
ATOM     75  C   UNL A   1      38.810  33.403  38.111  1.00  0.00     0.173 A 
ATOM     76  C   UNL A   1      40.145  35.095  37.057  1.00  0.00     0.173 A 
ATOM     77  F   UNL A   1      38.210  32.204  38.099  1.00  0.00    -0.203 F 
ATOM     78  C   UNL A   1      38.643  34.227  39.222  1.00  0.00     0.198 A 
ATOM     79  C   UNL A   1      40.004  35.905  38.182  1.00  0.00     0.198 A 
ATOM     80  F   UNL A   1      40.871  35.546  36.024  1.00  0.00    -0.203 F 
ATOM     81  F   UNL A   1      37.881  33.820  40.248  1.00  0.00    -0.200 F 
ATOM     82  C   UNL A   1      39.244  35.476  39.259  1.00  0.00     0.200 A 
ATOM     83  F   UNL A   1      40.601  37.105  38.220  1.00  0.00    -0.200 F 
ATOM     84  F   UNL A   1      39.080  36.270  40.326  1.00  0.00    -0.200 F 
ENDBRANCH  50  74
BRANCH  62  85
ATOM     85  C   UNL A   1      44.069  28.871  35.112  1.00  0.00     0.064 A 
ATOM     86  C   UNL A   1      45.338  29.428  34.894  1.00  0.00     0.173 A 
ATOM     87  C   UNL A   1      43.969  27.790  36.002  1.00  0.00     0.173 A 
ATOM     88  F   UNL A   1      45.486  30.455  34.042  1.00  0.00    -0.203 F 
ATOM     89  C   UNL A   1      46.467  28.901  35.513  1.00  0.00     0.198 A 
ATOM     90  C   UNL A   1      45.095  27.288  36.647  1.00  0.00     0.198 A 
ATOM     91  F   UNL A   1      42.777  27.228  36.254  1.00  0.00    -0.203 F 
ATOM     92  F   UNL A   1      47.676  29.411  35.244  1.00  0.00    -0.200 F 
ATOM     93  C   UNL A   1      46.345  27.836  36.394  1.00  0.00     0.200 A 
ATOM     94  F   UNL A   1      44.974  26.270  37.510  1.00  0.00    -0.200 F 
ATOM     95  F   UNL A   1      47.432  27.331  36.992  1.00  0.00    -0.200 F 
ENDBRANCH  62  85
ENDBRANCH  36  37
ENDBRANCH  28  31
ENDBRANCH  26  27
ENDBRANCH  25  26
ENDBRANCH   1  25
TORSDOF 14
ENDMDL
