MODEL 1
REMARK VINA RESULT:     -14.0      0.000      0.000
REMARK SMILES CC(C)CCn1nc(C(=O)NCCCCNC(=O)c2ccc(-c3c4nc(c(-c5c(F)c(F)c(F)c(F)c5F)c5ccc([nH]5)c(-c5c(F)c(F)c(F)c(F)c5F)c5nc(c(-c6c(F)c(F)c(F)c(F)c6F)c6ccc3[nH]6)C=C5)C=C4)cc2)c2c1CCN(C(=O)[C@@H]1CCc3nn(C)c(=O)n3C1)C2
REMARK SMILES IDX 13 1 12 2 11 3 9 4 10 5 8 7 6 8 7 9 83 10 82 11 84 12 100 13
REMARK SMILES IDX 85 14 86 15 5 16 4 17 2 18 1 19 3 20 87 21 88 22 89 23 90 24
REMARK SMILES IDX 99 25 91 26 98 27 92 28 96 29 93 30 94 31 97 32 95 33 14 34
REMARK SMILES IDX 15 35 16 36 17 37 18 39 19 40 20 41 81 42 21 43 80 44 22 45
REMARK SMILES IDX 23 46 24 47 74 48 25 49 79 50 73 51 75 52 26 53 78 54 72 55
REMARK SMILES IDX 71 56 27 58 59 59 39 60 58 61 40 62 43 63 57 64 76 65 41 66
REMARK SMILES IDX 42 67 56 69 77 70 44 71 28 72 29 73 37 74 30 75 31 76 35 77
REMARK SMILES IDX 38 78 32 79 33 80 36 81 34 82 60 83 61 84 69 85 62 86 63 87
REMARK SMILES IDX 67 88 70 89 64 90 65 91 68 92 66 93 45 94 46 95 54 96 47 97
REMARK SMILES IDX 48 98 52 99 55 100 49 101 50 102 53 103 51 104
REMARK H PARENT 11 6 16 38 75 57 43 68
REMARK Flexibility Score: inf
ROOT
ATOM      1  C   UNL A   1      40.156  21.216  26.269  1.00  0.00     0.023 C 
ENDROOT
BRANCH   1   2
ATOM      2  C   UNL A   1      38.713  21.283  25.736  1.00  0.00     0.116 C 
BRANCH   2   3
ATOM      3  N   UNL A   1      38.085  22.576  25.974  1.00  0.00    -0.351 N 
ATOM      4  C   UNL A   1      36.815  23.115  25.878  1.00  0.00     0.272 C 
ATOM      5  O   UNL A   1      36.734  24.250  26.366  1.00  0.00    -0.267 OA
ATOM      6  H   UNL A   1      38.738  23.242  26.286  1.00  0.00     0.163 HD
BRANCH   4   7
ATOM      7  C   UNL A   1      35.620  22.454  25.276  1.00  0.00     0.155 A 
ATOM      8  N   UNL A   1      34.031  20.983  25.161  1.00  0.00    -0.268 N 
ATOM      9  N   UNL A   1      35.163  21.299  25.825  1.00  0.00    -0.167 NA
ATOM     10  C   UNL A   1      33.849  21.773  24.069  1.00  0.00     0.046 A 
ATOM     11  C   UNL A   1      34.732  22.820  24.228  1.00  0.00     0.026 A 
ATOM     12  C   UNL A   1      32.827  21.704  22.989  1.00  0.00     0.078 C 
ATOM     13  C   UNL A   1      34.622  24.055  23.444  1.00  0.00     0.159 C 
ATOM     14  C   UNL A   1      33.094  22.836  21.966  1.00  0.00     0.126 C 
ATOM     15  N   UNL A   1      33.415  24.117  22.625  1.00  0.00    -0.338 N 
BRANCH   8  16
ATOM     16  C   UNL A   1      33.193  19.908  25.670  1.00  0.00     0.145 C 
BRANCH  16  17
ATOM     17  C   UNL A   1      32.880  18.784  24.658  1.00  0.00     0.027 C 
BRANCH  17  18
ATOM     18  C   UNL A   1      33.860  17.594  24.643  1.00  0.00    -0.016 C 
ATOM     19  C   UNL A   1      33.428  16.465  25.585  1.00  0.00     0.007 C 
ATOM     20  C   UNL A   1      34.037  17.019  23.234  1.00  0.00     0.007 C 
ENDBRANCH  17  18
ENDBRANCH  16  17
ENDBRANCH   8  16
BRANCH  15  21
ATOM     21  C   UNL A   1      32.961  25.402  22.395  1.00  0.00     0.227 C 
ATOM     22  O   UNL A   1      33.703  26.220  21.826  1.00  0.00    -0.274 OA
BRANCH  21  23
ATOM     23  C   UNL A   1      31.591  25.938  22.789  1.00  0.00     0.099 C 
ATOM     24  C   UNL A   1      31.085  27.153  22.013  1.00  0.00     0.023 C 
ATOM     25  C   UNL A   1      31.352  25.992  24.284  1.00  0.00     0.142 C 
ATOM     26  C   UNL A   1      31.415  28.501  22.631  1.00  0.00     0.078 C 
ATOM     27  N   UNL A   1      31.439  27.327  24.809  1.00  0.00    -0.278 N 
ATOM     28  C   UNL A   1      31.437  28.488  24.130  1.00  0.00     0.133 A 
ATOM     29  C   UNL A   1      31.607  27.649  26.129  1.00  0.00     0.345 A 
ATOM     30  N   UNL A   1      31.601  29.548  24.865  1.00  0.00    -0.155 NA
ATOM     31  N   UNL A   1      31.716  29.039  26.141  1.00  0.00    -0.216 N 
ATOM     32  O   UNL A   1      31.690  26.880  27.071  1.00  0.00    -0.246 OA
ATOM     33  C   UNL A   1      31.994  29.849  27.290  1.00  0.00     0.179 C 
ENDBRANCH  21  23
ENDBRANCH  15  21
ENDBRANCH   4   7
ENDBRANCH   2   3
ENDBRANCH   1   2
BRANCH   1  34
ATOM     34  C   UNL A   1      40.896  19.882  26.166  1.00  0.00     0.023 C 
BRANCH  34  35
ATOM     35  C   UNL A   1      42.284  19.893  26.796  1.00  0.00     0.116 C 
BRANCH  35  36
ATOM     36  N   UNL A   1      43.349  19.466  25.883  1.00  0.00    -0.352 N 
ATOM     37  C   UNL A   1      44.053  20.264  25.004  1.00  0.00     0.251 C 
ATOM     38  H   UNL A   1      43.587  18.510  25.900  1.00  0.00     0.163 HD
ATOM     39  O   UNL A   1      44.611  19.809  24.009  1.00  0.00    -0.269 OA
BRANCH  37  40
ATOM     40  C   UNL A   1      44.131  21.699  25.307  1.00  0.00     0.039 A 
ATOM     41  C   UNL A   1      43.204  22.601  24.784  1.00  0.00     0.014 A 
ATOM     42  C   UNL A   1      45.091  22.096  26.238  1.00  0.00     0.014 A 
ATOM     43  C   UNL A   1      43.178  23.895  25.293  1.00  0.00     0.010 A 
ATOM     44  C   UNL A   1      44.995  23.343  26.813  1.00  0.00     0.010 A 
ATOM     45  C   UNL A   1      44.048  24.251  26.339  1.00  0.00    -0.014 A 
BRANCH  45  46
ATOM     46  C   UNL A   1      43.835  25.506  27.063  1.00  0.00     0.031 A 
ATOM     47  C   UNL A   1      44.795  26.592  26.708  1.00  0.00     0.074 A 
ATOM     48  C   UNL A   1      42.746  25.764  27.821  1.00  0.00     0.049 A 
ATOM     49  N   UNL A   1      45.683  27.137  27.472  1.00  0.00    -0.248 NA
ATOM     50  C   UNL A   1      44.863  27.042  25.307  1.00  0.00     0.031 C 
ATOM     51  C   UNL A   1      41.564  24.917  28.005  1.00  0.00     0.029 A 
ATOM     52  N   UNL A   1      42.414  26.897  28.506  1.00  0.00    -0.354 N 
ATOM     53  C   UNL A   1      46.284  28.140  26.712  1.00  0.00     0.074 A 
ATOM     54  C   UNL A   1      45.871  27.916  25.353  1.00  0.00     0.031 C 
ATOM     55  C   UNL A   1      40.562  25.647  28.542  1.00  0.00     0.029 A 
ATOM     56  C   UNL A   1      41.081  26.953  28.901  1.00  0.00     0.049 A 
ATOM     57  H   UNL A   1      43.062  27.613  28.704  1.00  0.00     0.167 HD
ATOM     58  C   UNL A   1      46.839  29.225  27.321  1.00  0.00     0.037 A 
ATOM     59  C   UNL A   1      40.439  28.001  29.471  1.00  0.00     0.037 A 
ATOM     60  C   UNL A   1      47.051  28.965  28.724  1.00  0.00     0.049 A 
ATOM     61  C   UNL A   1      41.473  28.873  30.068  1.00  0.00     0.074 A 
ATOM     62  C   UNL A   1      47.806  28.084  29.470  1.00  0.00     0.029 A 
ATOM     63  N   UNL A   1      46.099  29.471  29.569  1.00  0.00    -0.354 N 
ATOM     64  N   UNL A   1      42.204  28.540  31.094  1.00  0.00    -0.248 NA
ATOM     65  C   UNL A   1      41.958  30.006  29.296  1.00  0.00     0.031 C 
ATOM     66  C   UNL A   1      47.026  27.811  30.636  1.00  0.00     0.029 A 
ATOM     67  C   UNL A   1      45.863  28.580  30.576  1.00  0.00     0.049 A 
ATOM     68  H   UNL A   1      45.654  30.342  29.465  1.00  0.00     0.167 HD
ATOM     69  C   UNL A   1      43.440  29.102  30.831  1.00  0.00     0.074 A 
ATOM     70  C   UNL A   1      43.181  30.120  29.820  1.00  0.00     0.031 C 
ATOM     71  C   UNL A   1      44.581  28.473  31.237  1.00  0.00     0.037 A 
BRANCH  58  72
ATOM     72  C   UNL A   1      46.733  30.654  26.806  1.00  0.00     0.064 A 
ATOM     73  C   UNL A   1      47.879  31.478  26.862  1.00  0.00     0.173 A 
ATOM     74  C   UNL A   1      45.514  31.338  26.606  1.00  0.00     0.173 A 
ATOM     75  F   UNL A   1      49.096  30.945  27.053  1.00  0.00    -0.203 F 
ATOM     76  C   UNL A   1      47.794  32.874  26.846  1.00  0.00     0.198 A 
ATOM     77  C   UNL A   1      45.439  32.729  26.539  1.00  0.00     0.198 A 
ATOM     78  F   UNL A   1      44.332  30.712  26.584  1.00  0.00    -0.203 F 
ATOM     79  F   UNL A   1      48.892  33.611  27.060  1.00  0.00    -0.200 F 
ATOM     80  C   UNL A   1      46.570  33.499  26.698  1.00  0.00     0.200 A 
ATOM     81  F   UNL A   1      44.240  33.317  26.412  1.00  0.00    -0.200 F 
ATOM     82  F   UNL A   1      46.473  34.833  26.759  1.00  0.00    -0.200 F 
ENDBRANCH  58  72
BRANCH  59  83
ATOM     83  C   UNL A   1      39.023  28.420  29.353  1.00  0.00     0.064 A 
ATOM     84  C   UNL A   1      38.218  28.574  30.495  1.00  0.00     0.173 A 
ATOM     85  C   UNL A   1      38.519  28.962  28.156  1.00  0.00     0.173 A 
ATOM     86  F   UNL A   1      38.637  28.119  31.685  1.00  0.00    -0.203 F 
ATOM     87  C   UNL A   1      37.005  29.269  30.452  1.00  0.00     0.198 A 
ATOM     88  C   UNL A   1      37.303  29.647  28.111  1.00  0.00     0.198 A 
ATOM     89  F   UNL A   1      39.241  28.923  27.026  1.00  0.00    -0.203 F 
ATOM     90  F   UNL A   1      36.304  29.462  31.577  1.00  0.00    -0.200 F 
ATOM     91  C   UNL A   1      36.556  29.818  29.262  1.00  0.00     0.200 A 
ATOM     92  F   UNL A   1      36.896  30.203  26.961  1.00  0.00    -0.200 F 
ATOM     93  F   UNL A   1      35.430  30.545  29.233  1.00  0.00    -0.200 F 
ENDBRANCH  59  83
BRANCH  71  94
ATOM     94  C   UNL A   1      44.457  27.447  32.327  1.00  0.00     0.064 A 
ATOM     95  C   UNL A   1      44.268  26.071  32.118  1.00  0.00     0.173 A 
ATOM     96  C   UNL A   1      44.636  27.881  33.647  1.00  0.00     0.173 A 
ATOM     97  F   UNL A   1      44.178  25.562  30.882  1.00  0.00    -0.203 F 
ATOM     98  C   UNL A   1      44.213  25.181  33.190  1.00  0.00     0.198 A 
ATOM     99  C   UNL A   1      44.623  26.986  34.712  1.00  0.00     0.198 A 
ATOM    100  F   UNL A   1      44.866  29.179  33.903  1.00  0.00    -0.203 F 
ATOM    101  F   UNL A   1      44.007  23.875  32.969  1.00  0.00    -0.200 F 
ATOM    102  C   UNL A   1      44.399  25.638  34.484  1.00  0.00     0.200 A 
ATOM    103  F   UNL A   1      44.849  27.429  35.956  1.00  0.00    -0.200 F 
ATOM    104  F   UNL A   1      44.383  24.778  35.511  1.00  0.00    -0.200 F 
ENDBRANCH  71  94
ENDBRANCH  45  46
ENDBRANCH  37  40
ENDBRANCH  35  36
ENDBRANCH  34  35
ENDBRANCH   1  34
TORSDOF 16
ENDMDL
MODEL 2
REMARK VINA RESULT:     -13.6      2.695      9.150
REMARK SMILES CC(C)CCn1nc(C(=O)NCCCCNC(=O)c2ccc(-c3c4nc(c(-c5c(F)c(F)c(F)c(F)c5F)c5ccc([nH]5)c(-c5c(F)c(F)c(F)c(F)c5F)c5nc(c(-c6c(F)c(F)c(F)c(F)c6F)c6ccc3[nH]6)C=C5)C=C4)cc2)c2c1CCN(C(=O)[C@@H]1CCc3nn(C)c(=O)n3C1)C2
REMARK SMILES IDX 13 1 12 2 11 3 9 4 10 5 8 7 6 8 7 9 83 10 82 11 84 12 100 13
REMARK SMILES IDX 85 14 86 15 5 16 4 17 2 18 1 19 3 20 87 21 88 22 89 23 90 24
REMARK SMILES IDX 99 25 91 26 98 27 92 28 96 29 93 30 94 31 97 32 95 33 14 34
REMARK SMILES IDX 15 35 16 36 17 37 18 39 19 40 20 41 81 42 21 43 80 44 22 45
REMARK SMILES IDX 23 46 24 47 74 48 25 49 79 50 73 51 75 52 26 53 78 54 72 55
REMARK SMILES IDX 71 56 27 58 59 59 39 60 58 61 40 62 43 63 57 64 76 65 41 66
REMARK SMILES IDX 42 67 56 69 77 70 44 71 28 72 29 73 37 74 30 75 31 76 35 77
REMARK SMILES IDX 38 78 32 79 33 80 36 81 34 82 60 83 61 84 69 85 62 86 63 87
REMARK SMILES IDX 67 88 70 89 64 90 65 91 68 92 66 93 45 94 46 95 54 96 47 97
REMARK SMILES IDX 48 98 52 99 55 100 49 101 50 102 53 103 51 104
REMARK H PARENT 11 6 16 38 75 57 43 68
REMARK Flexibility Score: inf
ROOT
ATOM      1  C   UNL A   1      34.831  30.642  27.249  1.00  0.00     0.023 C 
ENDROOT
BRANCH   1   2
ATOM      2  C   UNL A   1      34.461  29.154  27.108  1.00  0.00     0.116 C 
BRANCH   2   3
ATOM      3  N   UNL A   1      33.149  28.846  27.663  1.00  0.00    -0.351 N 
ATOM      4  C   UNL A   1      31.950  28.334  27.199  1.00  0.00     0.272 C 
ATOM      5  O   UNL A   1      31.147  28.089  28.109  1.00  0.00    -0.267 OA
ATOM      6  H   UNL A   1      33.104  29.059  28.622  1.00  0.00     0.163 HD
BRANCH   4   7
ATOM      7  C   UNL A   1      31.599  28.067  25.774  1.00  0.00     0.155 A 
ATOM      8  N   UNL A   1      31.074  28.605  23.740  1.00  0.00    -0.268 N 
ATOM      9  N   UNL A   1      31.230  29.107  24.983  1.00  0.00    -0.167 NA
ATOM     10  C   UNL A   1      31.125  27.245  23.735  1.00  0.00     0.046 A 
ATOM     11  C   UNL A   1      31.638  26.897  24.966  1.00  0.00     0.026 A 
ATOM     12  C   UNL A   1      30.878  26.275  22.633  1.00  0.00     0.078 C 
ATOM     13  C   UNL A   1      32.157  25.552  25.241  1.00  0.00     0.159 C 
ATOM     14  C   UNL A   1      31.043  24.835  23.180  1.00  0.00     0.126 C 
ATOM     15  N   UNL A   1      32.223  24.704  24.055  1.00  0.00    -0.338 N 
BRANCH   8  16
ATOM     16  C   UNL A   1      30.892  29.523  22.627  1.00  0.00     0.145 C 
BRANCH  16  17
ATOM     17  C   UNL A   1      29.433  29.696  22.150  1.00  0.00     0.027 C 
BRANCH  17  18
ATOM     18  C   UNL A   1      28.376  29.880  23.257  1.00  0.00    -0.016 C 
ATOM     19  C   UNL A   1      27.818  31.306  23.305  1.00  0.00     0.007 C 
ATOM     20  C   UNL A   1      27.211  28.899  23.100  1.00  0.00     0.007 C 
ENDBRANCH  17  18
ENDBRANCH  16  17
ENDBRANCH   8  16
BRANCH  15  21
ATOM     21  C   UNL A   1      33.221  23.747  24.107  1.00  0.00     0.227 C 
ATOM     22  O   UNL A   1      33.833  23.448  23.068  1.00  0.00    -0.274 OA
BRANCH  21  23
ATOM     23  C   UNL A   1      33.657  22.993  25.355  1.00  0.00     0.099 C 
ATOM     24  C   UNL A   1      35.159  22.931  25.625  1.00  0.00     0.023 C 
ATOM     25  C   UNL A   1      32.914  21.692  25.585  1.00  0.00     0.142 C 
ATOM     26  C   UNL A   1      35.872  21.717  25.053  1.00  0.00     0.078 C 
ATOM     27  N   UNL A   1      33.705  20.539  25.255  1.00  0.00    -0.278 N 
ATOM     28  C   UNL A   1      35.031  20.476  25.040  1.00  0.00     0.133 A 
ATOM     29  C   UNL A   1      33.215  19.280  25.036  1.00  0.00     0.345 A 
ATOM     30  N   UNL A   1      35.469  19.304  24.686  1.00  0.00    -0.155 NA
ATOM     31  N   UNL A   1      34.331  18.527  24.672  1.00  0.00    -0.216 N 
ATOM     32  O   UNL A   1      32.053  18.919  25.099  1.00  0.00    -0.246 OA
ATOM     33  C   UNL A   1      34.318  17.156  24.253  1.00  0.00     0.179 C 
ENDBRANCH  21  23
ENDBRANCH  15  21
ENDBRANCH   4   7
ENDBRANCH   2   3
ENDBRANCH   1   2
BRANCH   1  34
ATOM     34  C   UNL A   1      33.874  31.547  28.022  1.00  0.00     0.023 C 
BRANCH  34  35
ATOM     35  C   UNL A   1      34.510  32.840  28.520  1.00  0.00     0.116 C 
BRANCH  35  36
ATOM     36  N   UNL A   1      34.521  32.968  29.980  1.00  0.00    -0.352 N 
ATOM     37  C   UNL A   1      35.243  32.201  30.872  1.00  0.00     0.251 C 
ATOM     38  H   UNL A   1      33.954  33.676  30.365  1.00  0.00     0.163 HD
ATOM     39  O   UNL A   1      34.911  32.074  32.047  1.00  0.00    -0.269 OA
BRANCH  37  40
ATOM     40  C   UNL A   1      36.455  31.541  30.368  1.00  0.00     0.039 A 
ATOM     41  C   UNL A   1      37.602  32.273  30.057  1.00  0.00     0.014 A 
ATOM     42  C   UNL A   1      36.449  30.146  30.337  1.00  0.00     0.014 A 
ATOM     43  C   UNL A   1      38.785  31.582  29.820  1.00  0.00     0.010 A 
ATOM     44  C   UNL A   1      37.640  29.471  30.205  1.00  0.00     0.010 A 
ATOM     45  C   UNL A   1      38.810  30.180  29.937  1.00  0.00    -0.014 A 
BRANCH  45  46
ATOM     46  C   UNL A   1      40.096  29.480  29.969  1.00  0.00     0.031 A 
ATOM     47  C   UNL A   1      40.665  29.300  31.336  1.00  0.00     0.074 A 
ATOM     48  C   UNL A   1      40.636  28.846  28.905  1.00  0.00     0.049 A 
ATOM     49  N   UNL A   1      41.749  29.817  31.812  1.00  0.00    -0.248 NA
ATOM     50  C   UNL A   1      39.876  28.558  32.336  1.00  0.00     0.031 C 
ATOM     51  C   UNL A   1      40.041  28.661  27.578  1.00  0.00     0.029 A 
ATOM     52  N   UNL A   1      41.796  28.131  28.817  1.00  0.00    -0.354 N 
ATOM     53  C   UNL A   1      41.890  29.305  33.102  1.00  0.00     0.074 A 
ATOM     54  C   UNL A   1      40.633  28.690  33.428  1.00  0.00     0.031 C 
ATOM     55  C   UNL A   1      40.717  27.702  26.908  1.00  0.00     0.029 A 
ATOM     56  C   UNL A   1      41.888  27.335  27.680  1.00  0.00     0.049 A 
ATOM     57  H   UNL A   1      42.506  28.175  29.499  1.00  0.00     0.167 HD
ATOM     58  C   UNL A   1      43.125  29.193  33.666  1.00  0.00     0.037 A 
ATOM     59  C   UNL A   1      42.851  26.425  27.394  1.00  0.00     0.037 A 
ATOM     60  C   UNL A   1      44.083  30.002  32.952  1.00  0.00     0.049 A 
ATOM     61  C   UNL A   1      44.034  26.770  28.210  1.00  0.00     0.074 A 
ATOM     62  C   UNL A   1      44.256  31.345  32.694  1.00  0.00     0.029 A 
ATOM     63  N   UNL A   1      44.867  29.330  32.052  1.00  0.00    -0.354 N 
ATOM     64  N   UNL A   1      44.753  27.842  28.035  1.00  0.00    -0.248 NA
ATOM     65  C   UNL A   1      44.224  26.091  29.482  1.00  0.00     0.031 C 
ATOM     66  C   UNL A   1      44.841  31.408  31.392  1.00  0.00     0.029 A 
ATOM     67  C   UNL A   1      45.053  30.104  30.942  1.00  0.00     0.049 A 
ATOM     68  H   UNL A   1      45.240  28.429  32.184  1.00  0.00     0.167 HD
ATOM     69  C   UNL A   1      45.123  28.220  29.312  1.00  0.00     0.074 A 
ATOM     70  C   UNL A   1      44.921  27.028  30.128  1.00  0.00     0.031 C 
ATOM     71  C   UNL A   1      45.259  29.541  29.626  1.00  0.00     0.037 A 
BRANCH  58  72
ATOM     72  C   UNL A   1      43.584  28.015  34.513  1.00  0.00     0.064 A 
ATOM     73  C   UNL A   1      43.462  26.712  33.979  1.00  0.00     0.173 A 
ATOM     74  C   UNL A   1      43.788  28.072  35.909  1.00  0.00     0.173 A 
ATOM     75  F   UNL A   1      43.260  26.526  32.665  1.00  0.00    -0.203 F 
ATOM     76  C   UNL A   1      43.424  25.574  34.793  1.00  0.00     0.198 A 
ATOM     77  C   UNL A   1      43.801  26.931  36.711  1.00  0.00     0.198 A 
ATOM     78  F   UNL A   1      43.869  29.227  36.578  1.00  0.00    -0.203 F 
ATOM     79  F   UNL A   1      43.150  24.379  34.254  1.00  0.00    -0.200 F 
ATOM     80  C   UNL A   1      43.580  25.687  36.161  1.00  0.00     0.200 A 
ATOM     81  F   UNL A   1      43.937  27.063  38.039  1.00  0.00    -0.200 F 
ATOM     82  F   UNL A   1      43.467  24.613  36.952  1.00  0.00    -0.200 F 
ENDBRANCH  58  72
BRANCH  59  83
ATOM     83  C   UNL A   1      42.756  25.156  26.635  1.00  0.00     0.064 A 
ATOM     84  C   UNL A   1      43.550  24.934  25.496  1.00  0.00     0.173 A 
ATOM     85  C   UNL A   1      42.112  24.027  27.176  1.00  0.00     0.173 A 
ATOM     86  F   UNL A   1      44.227  25.947  24.936  1.00  0.00    -0.203 F 
ATOM     87  C   UNL A   1      43.726  23.655  24.960  1.00  0.00     0.198 A 
ATOM     88  C   UNL A   1      42.281  22.752  26.635  1.00  0.00     0.198 A 
ATOM     89  F   UNL A   1      41.386  24.124  28.299  1.00  0.00    -0.203 F 
ATOM     90  F   UNL A   1      44.552  23.472  23.921  1.00  0.00    -0.200 F 
ATOM     91  C   UNL A   1      43.103  22.562  25.540  1.00  0.00     0.200 A 
ATOM     92  F   UNL A   1      41.700  21.698  27.225  1.00  0.00    -0.200 F 
ATOM     93  F   UNL A   1      43.328  21.326  25.072  1.00  0.00    -0.200 F 
ENDBRANCH  59  83
BRANCH  71  94
ATOM     94  C   UNL A   1      45.446  30.507  28.491  1.00  0.00     0.064 A 
ATOM     95  C   UNL A   1      44.403  31.136  27.790  1.00  0.00     0.173 A 
ATOM     96  C   UNL A   1      46.757  30.881  28.168  1.00  0.00     0.173 A 
ATOM     97  F   UNL A   1      43.121  30.902  28.097  1.00  0.00    -0.203 F 
ATOM     98  C   UNL A   1      44.669  32.059  26.780  1.00  0.00     0.198 A 
ATOM     99  C   UNL A   1      47.019  31.833  27.189  1.00  0.00     0.198 A 
ATOM    100  F   UNL A   1      47.793  30.346  28.836  1.00  0.00    -0.203 F 
ATOM    101  F   UNL A   1      43.658  32.629  26.107  1.00  0.00    -0.200 F 
ATOM    102  C   UNL A   1      45.975  32.413  26.486  1.00  0.00     0.200 A 
ATOM    103  F   UNL A   1      48.283  32.204  26.942  1.00  0.00    -0.200 F 
ATOM    104  F   UNL A   1      46.230  33.327  25.541  1.00  0.00    -0.200 F 
ENDBRANCH  71  94
ENDBRANCH  45  46
ENDBRANCH  37  40
ENDBRANCH  35  36
ENDBRANCH  34  35
ENDBRANCH   1  34
TORSDOF 16
ENDMDL
MODEL 3
REMARK VINA RESULT:     -13.1      2.174      3.093
REMARK SMILES CC(C)CCn1nc(C(=O)NCCCCNC(=O)c2ccc(-c3c4nc(c(-c5c(F)c(F)c(F)c(F)c5F)c5ccc([nH]5)c(-c5c(F)c(F)c(F)c(F)c5F)c5nc(c(-c6c(F)c(F)c(F)c(F)c6F)c6ccc3[nH]6)C=C5)C=C4)cc2)c2c1CCN(C(=O)[C@@H]1CCc3nn(C)c(=O)n3C1)C2
REMARK SMILES IDX 13 1 12 2 11 3 9 4 10 5 8 7 6 8 7 9 83 10 82 11 84 12 100 13
REMARK SMILES IDX 85 14 86 15 5 16 4 17 2 18 1 19 3 20 87 21 88 22 89 23 90 24
REMARK SMILES IDX 99 25 91 26 98 27 92 28 96 29 93 30 94 31 97 32 95 33 14 34
REMARK SMILES IDX 15 35 16 36 17 37 18 39 19 40 20 41 81 42 21 43 80 44 22 45
REMARK SMILES IDX 23 46 24 47 74 48 25 49 79 50 73 51 75 52 26 53 78 54 72 55
REMARK SMILES IDX 71 56 27 58 59 59 39 60 58 61 40 62 43 63 57 64 76 65 41 66
REMARK SMILES IDX 42 67 56 69 77 70 44 71 28 72 29 73 37 74 30 75 31 76 35 77
REMARK SMILES IDX 38 78 32 79 33 80 36 81 34 82 60 83 61 84 69 85 62 86 63 87
REMARK SMILES IDX 67 88 70 89 64 90 65 91 68 92 66 93 45 94 46 95 54 96 47 97
REMARK SMILES IDX 48 98 52 99 55 100 49 101 50 102 53 103 51 104
REMARK H PARENT 11 6 16 38 75 57 43 68
REMARK Flexibility Score: inf
ROOT
ATOM      1  C   UNL A   1      39.262  21.833  26.141  1.00  0.00     0.023 C 
ENDROOT
BRANCH   1   2
ATOM      2  C   UNL A   1      37.799  21.654  25.696  1.00  0.00     0.116 C 
BRANCH   2   3
ATOM      3  N   UNL A   1      37.518  22.291  24.416  1.00  0.00    -0.351 N 
ATOM      4  C   UNL A   1      36.396  22.636  23.683  1.00  0.00     0.272 C 
ATOM      5  O   UNL A   1      36.660  23.336  22.698  1.00  0.00    -0.267 OA
ATOM      6  H   UNL A   1      38.345  22.544  23.949  1.00  0.00     0.163 HD
BRANCH   4   7
ATOM      7  C   UNL A   1      34.987  22.252  23.996  1.00  0.00     0.155 A 
ATOM      8  N   UNL A   1      33.411  20.929  24.678  1.00  0.00    -0.268 N 
ATOM      9  N   UNL A   1      34.721  20.971  24.356  1.00  0.00    -0.167 NA
ATOM     10  C   UNL A   1      32.772  22.082  24.343  1.00  0.00     0.046 A 
ATOM     11  C   UNL A   1      33.776  22.991  24.086  1.00  0.00     0.026 A 
ATOM     12  C   UNL A   1      31.327  22.433  24.391  1.00  0.00     0.078 C 
ATOM     13  C   UNL A   1      33.519  24.434  24.012  1.00  0.00     0.159 C 
ATOM     14  C   UNL A   1      31.138  23.877  23.865  1.00  0.00     0.126 C 
ATOM     15  N   UNL A   1      32.159  24.800  24.395  1.00  0.00    -0.338 N 
BRANCH   8  16
ATOM     16  C   UNL A   1      32.879  19.734  25.314  1.00  0.00     0.145 C 
BRANCH  16  17
ATOM     17  C   UNL A   1      33.741  18.463  25.148  1.00  0.00     0.027 C 
BRANCH  17  18
ATOM     18  C   UNL A   1      33.049  17.258  24.480  1.00  0.00    -0.016 C 
ATOM     19  C   UNL A   1      33.954  16.546  23.469  1.00  0.00     0.007 C 
ATOM     20  C   UNL A   1      32.563  16.236  25.511  1.00  0.00     0.007 C 
ENDBRANCH  17  18
ENDBRANCH  16  17
ENDBRANCH   8  16
BRANCH  15  21
ATOM     21  C   UNL A   1      32.053  26.069  24.934  1.00  0.00     0.227 C 
ATOM     22  O   UNL A   1      31.444  26.228  26.006  1.00  0.00    -0.274 OA
BRANCH  21  23
ATOM     23  C   UNL A   1      32.624  27.341  24.321  1.00  0.00     0.099 C 
ATOM     24  C   UNL A   1      33.103  28.413  25.297  1.00  0.00     0.023 C 
ATOM     25  C   UNL A   1      31.840  27.863  23.134  1.00  0.00     0.142 C 
ATOM     26  C   UNL A   1      32.068  29.462  25.669  1.00  0.00     0.078 C 
ATOM     27  N   UNL A   1      31.042  29.012  23.462  1.00  0.00    -0.278 N 
ATOM     28  C   UNL A   1      31.116  29.788  24.557  1.00  0.00     0.133 A 
ATOM     29  C   UNL A   1      29.995  29.487  22.719  1.00  0.00     0.345 A 
ATOM     30  N   UNL A   1      30.214  30.723  24.623  1.00  0.00    -0.155 NA
ATOM     31  N   UNL A   1      29.487  30.549  23.466  1.00  0.00    -0.216 N 
ATOM     32  O   UNL A   1      29.579  29.043  21.663  1.00  0.00    -0.246 OA
ATOM     33  C   UNL A   1      28.319  31.316  23.146  1.00  0.00     0.179 C 
ENDBRANCH  21  23
ENDBRANCH  15  21
ENDBRANCH   4   7
ENDBRANCH   2   3
ENDBRANCH   1   2
BRANCH   1  34
ATOM     34  C   UNL A   1      40.137  20.584  26.244  1.00  0.00     0.023 C 
BRANCH  34  35
ATOM     35  C   UNL A   1      41.503  20.834  26.874  1.00  0.00     0.116 C 
BRANCH  35  36
ATOM     36  N   UNL A   1      42.513  21.304  25.921  1.00  0.00    -0.352 N 
ATOM     37  C   UNL A   1      42.762  22.613  25.559  1.00  0.00     0.251 C 
ATOM     38  H   UNL A   1      43.074  20.614  25.497  1.00  0.00     0.163 HD
ATOM     39  O   UNL A   1      43.303  22.907  24.497  1.00  0.00    -0.269 OA
BRANCH  37  40
ATOM     40  C   UNL A   1      42.369  23.663  26.507  1.00  0.00     0.039 A 
ATOM     41  C   UNL A   1      43.075  23.870  27.692  1.00  0.00     0.014 A 
ATOM     42  C   UNL A   1      41.341  24.520  26.111  1.00  0.00     0.014 A 
ATOM     43  C   UNL A   1      42.814  25.022  28.427  1.00  0.00     0.010 A 
ATOM     44  C   UNL A   1      41.158  25.707  26.783  1.00  0.00     0.010 A 
ATOM     45  C   UNL A   1      41.883  25.960  27.946  1.00  0.00    -0.014 A 
BRANCH  45  46
ATOM     46  C   UNL A   1      41.812  27.288  28.559  1.00  0.00     0.031 A 
ATOM     47  C   UNL A   1      42.930  28.201  28.180  1.00  0.00     0.074 A 
ATOM     48  C   UNL A   1      40.736  27.753  29.230  1.00  0.00     0.049 A 
ATOM     49  N   UNL A   1      43.849  28.683  28.951  1.00  0.00    -0.248 NA
ATOM     50  C   UNL A   1      43.127  28.521  26.755  1.00  0.00     0.031 C 
ATOM     51  C   UNL A   1      39.439  27.092  29.408  1.00  0.00     0.029 A 
ATOM     52  N   UNL A   1      40.533  28.974  29.808  1.00  0.00    -0.354 N 
ATOM     53  C   UNL A   1      44.619  29.529  28.154  1.00  0.00     0.074 A 
ATOM     54  C   UNL A   1      44.244  29.251  26.794  1.00  0.00     0.031 C 
ATOM     55  C   UNL A   1      38.525  27.993  29.830  1.00  0.00     0.029 A 
ATOM     56  C   UNL A   1      39.204  29.242  30.119  1.00  0.00     0.049 A 
ATOM     57  H   UNL A   1      41.264  29.609  29.988  1.00  0.00     0.167 HD
ATOM     58  C   UNL A   1      45.290  30.576  28.710  1.00  0.00     0.037 A 
ATOM     59  C   UNL A   1      38.688  30.411  30.570  1.00  0.00     0.037 A 
ATOM     60  C   UNL A   1      45.398  30.406  30.139  1.00  0.00     0.049 A 
ATOM     61  C   UNL A   1      39.804  31.182  31.158  1.00  0.00     0.074 A 
ATOM     62  C   UNL A   1      45.986  29.496  30.992  1.00  0.00     0.029 A 
ATOM     63  N   UNL A   1      44.487  31.105  30.886  1.00  0.00    -0.354 N 
ATOM     64  N   UNL A   1      40.432  30.839  32.248  1.00  0.00    -0.248 NA
ATOM     65  C   UNL A   1      40.478  32.171  30.333  1.00  0.00     0.031 C 
ATOM     66  C   UNL A   1      45.121  29.428  32.128  1.00  0.00     0.029 A 
ATOM     67  C   UNL A   1      44.081  30.341  31.943  1.00  0.00     0.049 A 
ATOM     68  H   UNL A   1      44.173  32.017  30.692  1.00  0.00     0.167 HD
ATOM     69  C   UNL A   1      41.745  31.205  32.015  1.00  0.00     0.074 A 
ATOM     70  C   UNL A   1      41.679  32.161  30.917  1.00  0.00     0.031 C 
ATOM     71  C   UNL A   1      42.767  30.463  32.533  1.00  0.00     0.037 A 
BRANCH  58  72
ATOM     72  C   UNL A   1      45.409  31.958  28.083  1.00  0.00     0.064 A 
ATOM     73  C   UNL A   1      44.230  32.606  27.651  1.00  0.00     0.173 A 
ATOM     74  C   UNL A   1      46.610  32.497  27.573  1.00  0.00     0.173 A 
ATOM     75  F   UNL A   1      43.025  32.182  28.063  1.00  0.00    -0.203 F 
ATOM     76  C   UNL A   1      44.250  33.626  26.693  1.00  0.00     0.198 A 
ATOM     77  C   UNL A   1      46.628  33.549  26.656  1.00  0.00     0.198 A 
ATOM     78  F   UNL A   1      47.808  31.967  27.839  1.00  0.00    -0.203 F 
ATOM     79  F   UNL A   1      43.097  34.099  26.202  1.00  0.00    -0.200 F 
ATOM     80  C   UNL A   1      45.449  34.087  26.187  1.00  0.00     0.200 A 
ATOM     81  F   UNL A   1      47.801  33.971  26.163  1.00  0.00    -0.200 F 
ATOM     82  F   UNL A   1      45.471  35.007  25.214  1.00  0.00    -0.200 F 
ENDBRANCH  58  72
BRANCH  59  83
ATOM     83  C   UNL A   1      37.351  31.006  30.338  1.00  0.00     0.064 A 
ATOM     84  C   UNL A   1      36.507  31.327  31.415  1.00  0.00     0.173 A 
ATOM     85  C   UNL A   1      36.998  31.545  29.086  1.00  0.00     0.173 A 
ATOM     86  F   UNL A   1      36.788  30.885  32.650  1.00  0.00    -0.203 F 
ATOM     87  C   UNL A   1      35.404  32.172  31.259  1.00  0.00     0.198 A 
ATOM     88  C   UNL A   1      35.892  32.381  28.929  1.00  0.00     0.198 A 
ATOM     89  F   UNL A   1      37.775  31.350  28.011  1.00  0.00    -0.203 F 
ATOM     90  F   UNL A   1      34.668  32.517  32.324  1.00  0.00    -0.200 F 
ATOM     91  C   UNL A   1      35.106  32.711  30.018  1.00  0.00     0.200 A 
ATOM     92  F   UNL A   1      35.634  32.923  27.731  1.00  0.00    -0.200 F 
ATOM     93  F   UNL A   1      34.093  33.578  29.880  1.00  0.00    -0.200 F 
ENDBRANCH  59  83
BRANCH  71  94
ATOM     94  C   UNL A   1      42.449  29.557  33.689  1.00  0.00     0.064 A 
ATOM     95  C   UNL A   1      41.919  28.262  33.573  1.00  0.00     0.173 A 
ATOM     96  C   UNL A   1      42.794  30.000  34.972  1.00  0.00     0.173 A 
ATOM     97  F   UNL A   1      41.646  27.728  32.375  1.00  0.00    -0.203 F 
ATOM     98  C   UNL A   1      41.701  27.469  34.699  1.00  0.00     0.198 A 
ATOM     99  C   UNL A   1      42.615  29.193  36.090  1.00  0.00     0.198 A 
ATOM    100  F   UNL A   1      43.346  31.213  35.139  1.00  0.00    -0.203 F 
ATOM    101  F   UNL A   1      41.171  26.244  34.567  1.00  0.00    -0.200 F 
ATOM    102  C   UNL A   1      42.056  27.932  35.955  1.00  0.00     0.200 A 
ATOM    103  F   UNL A   1      43.003  29.629  37.296  1.00  0.00    -0.200 F 
ATOM    104  F   UNL A   1      41.881  27.157  37.033  1.00  0.00    -0.200 F 
ENDBRANCH  71  94
ENDBRANCH  45  46
ENDBRANCH  37  40
ENDBRANCH  35  36
ENDBRANCH  34  35
ENDBRANCH   1  34
TORSDOF 16
ENDMDL
