MODEL 1
REMARK VINA RESULT:     -13.7      0.000      0.000
REMARK SMILES CS(=O)(=O)N(Cc1ccc(Cl)cc1)c1ccc(C(=O)Nc2ccccc2C(=O)NCCCCNC(=O)c2ccc(-c3c4nc(c(-c5c(F)c(F)c(F)c(F)c5F)c5ccc([nH]5)c(-c5c(F)c(F)c(F)c(F)c5F)c5nc(c(-c6c(F)c(F)c(F)c(F)c6F)c6ccc3[nH]6)C=C5)C=C4)cc2)cc1
REMARK SMILES IDX 30 1 29 2 27 3 28 4 26 6 21 7 22 8 23 9 25 10 24 11 20 12
REMARK SMILES IDX 18 13 19 14 17 16 14 17 15 18 101 19 16 20 100 21 5 22 2 23
REMARK SMILES IDX 1 24 3 25 4 26 6 27 7 28 8 29 13 30 9 31 12 32 10 33 11 34
REMARK SMILES IDX 31 35 32 36 33 37 34 38 35 39 36 41 37 42 38 43 99 44 39 45
REMARK SMILES IDX 98 46 40 47 41 48 42 49 92 50 43 51 97 52 91 53 93 54 44 55
REMARK SMILES IDX 96 56 90 57 89 58 45 60 77 61 57 62 76 63 58 64 61 65 75 66
REMARK SMILES IDX 94 67 59 68 60 69 74 71 95 72 62 73 46 74 47 75 55 76 48 77
REMARK SMILES IDX 49 78 53 79 56 80 50 81 51 82 54 83 52 84 78 85 79 86 87 87
REMARK SMILES IDX 80 88 81 89 85 90 88 91 82 92 83 93 86 94 84 95 63 96 64 97
REMARK SMILES IDX 72 98 65 99 66 100 70 101 73 102 67 103 68 104 71 105 69 106
REMARK H PARENT 29 5 20 15 34 40 93 59 61 70
REMARK Flexibility Score: inf
ROOT
ATOM      1  C   UNL A   1      36.907  22.297  25.659  1.00  0.00     0.116 C 
ENDROOT
BRANCH   1   2
ATOM      2  N   UNL A   1      35.894  22.788  26.565  1.00  0.00    -0.352 N 
ATOM      3  C   UNL A   1      34.534  22.911  26.395  1.00  0.00     0.253 C 
ATOM      4  O   UNL A   1      33.886  23.301  27.369  1.00  0.00    -0.269 OA
ATOM      5  H   UNL A   1      36.230  23.081  27.443  1.00  0.00     0.163 HD
BRANCH   3   6
ATOM      6  C   UNL A   1      33.827  22.699  25.089  1.00  0.00     0.063 A 
ATOM      7  C   UNL A   1      32.509  22.251  24.867  1.00  0.00     0.054 A 
ATOM      8  C   UNL A   1      32.100  21.923  23.560  1.00  0.00     0.027 A 
ATOM      9  C   UNL A   1      32.910  22.202  22.461  1.00  0.00     0.002 A 
ATOM     10  C   UNL A   1      34.620  22.995  23.957  1.00  0.00     0.016 A 
ATOM     11  C   UNL A   1      34.157  22.774  22.657  1.00  0.00     0.001 A 
BRANCH   7  12
ATOM     12  N   UNL A   1      31.458  22.190  25.802  1.00  0.00    -0.321 N 
ATOM     13  C   UNL A   1      30.650  23.180  26.311  1.00  0.00     0.255 C 
ATOM     14  O   UNL A   1      29.928  22.926  27.274  1.00  0.00    -0.269 OA
ATOM     15  H   UNL A   1      31.268  21.288  26.148  1.00  0.00     0.170 HD
BRANCH  13  16
ATOM     16  C   UNL A   1      30.603  24.530  25.709  1.00  0.00     0.040 A 
ATOM     17  C   UNL A   1      30.570  27.153  24.627  1.00  0.00     0.052 A 
ATOM     18  C   UNL A   1      30.863  26.913  25.981  1.00  0.00     0.028 A 
ATOM     19  C   UNL A   1      30.255  26.037  23.844  1.00  0.00     0.028 A 
ATOM     20  C   UNL A   1      30.890  25.623  26.518  1.00  0.00     0.016 A 
ATOM     21  C   UNL A   1      30.230  24.748  24.384  1.00  0.00     0.016 A 
BRANCH  17  22
ATOM     22  N   UNL A   1      30.519  28.528  24.106  1.00  0.00    -0.266 N 
BRANCH  22  23
ATOM     23  S   UNL A   1      29.264  28.905  23.027  1.00  0.00     0.232 S 
ATOM     24  C   UNL A   1      28.827  30.601  23.348  1.00  0.00     0.183 C 
ATOM     25  O   UNL A   1      28.110  28.103  23.409  1.00  0.00    -0.207 OA
ATOM     26  O   UNL A   1      29.781  28.849  21.680  1.00  0.00    -0.207 OA
ENDBRANCH  22  23
BRANCH  22  27
ATOM     27  C   UNL A   1      31.819  29.241  23.951  1.00  0.00     0.170 C 
BRANCH  27  28
ATOM     28  C   UNL A   1      32.356  29.728  25.293  1.00  0.00    -0.027 A 
ATOM     29  C   UNL A   1      31.709  30.768  25.980  1.00  0.00     0.007 A 
ATOM     30  C   UNL A   1      33.579  29.241  25.793  1.00  0.00     0.007 A 
ATOM     31  C   UNL A   1      32.323  31.371  27.082  1.00  0.00     0.021 A 
ATOM     32  C   UNL A   1      34.191  29.849  26.890  1.00  0.00     0.021 A 
ATOM     33  C   UNL A   1      33.571  30.925  27.516  1.00  0.00     0.041 A 
ATOM     34  Cl  UNL A   1      34.368  31.737  28.806  1.00  0.00    -0.084 Cl
ENDBRANCH  27  28
ENDBRANCH  22  27
ENDBRANCH  17  22
ENDBRANCH  13  16
ENDBRANCH   7  12
ENDBRANCH   3   6
ENDBRANCH   1   2
BRANCH   1  35
ATOM     35  C   UNL A   1      36.869  20.799  25.385  1.00  0.00     0.023 C 
BRANCH  35  36
ATOM     36  C   UNL A   1      38.179  20.158  24.922  1.00  0.00     0.023 C 
BRANCH  36  37
ATOM     37  C   UNL A   1      39.402  20.340  25.821  1.00  0.00     0.116 C 
BRANCH  37  38
ATOM     38  N   UNL A   1      40.310  19.201  25.840  1.00  0.00    -0.352 N 
ATOM     39  C   UNL A   1      41.662  19.140  26.097  1.00  0.00     0.251 C 
ATOM     40  H   UNL A   1      39.890  18.335  25.636  1.00  0.00     0.163 HD
ATOM     41  O   UNL A   1      42.278  18.089  25.956  1.00  0.00    -0.269 OA
BRANCH  39  42
ATOM     42  C   UNL A   1      42.394  20.361  26.500  1.00  0.00     0.039 A 
ATOM     43  C   UNL A   1      43.253  20.969  25.581  1.00  0.00     0.014 A 
ATOM     44  C   UNL A   1      42.205  20.928  27.761  1.00  0.00     0.014 A 
ATOM     45  C   UNL A   1      43.814  22.213  25.877  1.00  0.00     0.010 A 
ATOM     46  C   UNL A   1      42.695  22.205  28.023  1.00  0.00     0.010 A 
ATOM     47  C   UNL A   1      43.479  22.875  27.070  1.00  0.00    -0.014 A 
BRANCH  47  48
ATOM     48  C   UNL A   1      43.874  24.290  27.303  1.00  0.00     0.031 A 
ATOM     49  C   UNL A   1      42.867  25.305  27.763  1.00  0.00     0.074 A 
ATOM     50  C   UNL A   1      45.132  24.678  27.009  1.00  0.00     0.049 A 
ATOM     51  N   UNL A   1      43.015  26.594  27.941  1.00  0.00    -0.248 NA
ATOM     52  C   UNL A   1      41.508  24.814  28.033  1.00  0.00     0.031 C 
ATOM     53  C   UNL A   1      46.189  23.803  26.498  1.00  0.00     0.029 A 
ATOM     54  N   UNL A   1      45.735  25.911  27.084  1.00  0.00    -0.354 N 
ATOM     55  C   UNL A   1      41.771  27.066  28.336  1.00  0.00     0.074 A 
ATOM     56  C   UNL A   1      40.866  25.937  28.317  1.00  0.00     0.031 C 
ATOM     57  C   UNL A   1      47.313  24.517  26.332  1.00  0.00     0.029 A 
ATOM     58  C   UNL A   1      47.047  25.909  26.678  1.00  0.00     0.049 A 
ATOM     59  H   UNL A   1      45.269  26.719  27.400  1.00  0.00     0.167 HD
ATOM     60  C   UNL A   1      41.422  28.323  28.705  1.00  0.00     0.037 A 
ATOM     61  C   UNL A   1      47.936  26.918  26.579  1.00  0.00     0.037 A 
ATOM     62  C   UNL A   1      42.328  29.441  28.737  1.00  0.00     0.049 A 
ATOM     63  C   UNL A   1      47.512  28.309  26.966  1.00  0.00     0.074 A 
ATOM     64  C   UNL A   1      42.086  30.735  29.165  1.00  0.00     0.029 A 
ATOM     65  N   UNL A   1      43.650  29.401  28.316  1.00  0.00    -0.354 N 
ATOM     66  N   UNL A   1      46.356  28.726  27.420  1.00  0.00    -0.248 NA
ATOM     67  C   UNL A   1      48.518  29.371  26.825  1.00  0.00     0.031 C 
ATOM     68  C   UNL A   1      43.242  31.492  28.948  1.00  0.00     0.029 A 
ATOM     69  C   UNL A   1      44.223  30.659  28.437  1.00  0.00     0.049 A 
ATOM     70  H   UNL A   1      44.111  28.599  27.982  1.00  0.00     0.167 HD
ATOM     71  C   UNL A   1      46.499  30.090  27.636  1.00  0.00     0.074 A 
ATOM     72  C   UNL A   1      47.862  30.427  27.286  1.00  0.00     0.031 C 
ATOM     73  C   UNL A   1      45.581  30.983  28.079  1.00  0.00     0.037 A 
BRANCH  60  74
ATOM     74  C   UNL A   1      39.994  28.557  29.107  1.00  0.00     0.064 A 
ATOM     75  C   UNL A   1      39.550  28.319  30.417  1.00  0.00     0.173 A 
ATOM     76  C   UNL A   1      39.069  29.070  28.185  1.00  0.00     0.173 A 
ATOM     77  F   UNL A   1      40.392  27.822  31.335  1.00  0.00    -0.203 F 
ATOM     78  C   UNL A   1      38.227  28.557  30.780  1.00  0.00     0.198 A 
ATOM     79  C   UNL A   1      37.754  29.338  28.561  1.00  0.00     0.198 A 
ATOM     80  F   UNL A   1      39.442  29.326  26.922  1.00  0.00    -0.203 F 
ATOM     81  F   UNL A   1      37.816  28.276  32.025  1.00  0.00    -0.200 F 
ATOM     82  C   UNL A   1      37.332  29.073  29.855  1.00  0.00     0.200 A 
ATOM     83  F   UNL A   1      36.896  29.853  27.669  1.00  0.00    -0.200 F 
ATOM     84  F   UNL A   1      36.062  29.313  30.210  1.00  0.00    -0.200 F 
ENDBRANCH  60  74
BRANCH  61  85
ATOM     85  C   UNL A   1      49.317  26.649  26.101  1.00  0.00     0.064 A 
ATOM     86  C   UNL A   1      49.675  26.879  24.765  1.00  0.00     0.173 A 
ATOM     87  C   UNL A   1      50.305  26.147  26.962  1.00  0.00     0.173 A 
ATOM     88  F   UNL A   1      48.760  27.337  23.898  1.00  0.00    -0.203 F 
ATOM     89  C   UNL A   1      50.960  26.600  24.305  1.00  0.00     0.198 A 
ATOM     90  C   UNL A   1      51.599  25.898  26.507  1.00  0.00     0.198 A 
ATOM     91  F   UNL A   1      50.017  25.911  28.250  1.00  0.00    -0.203 F 
ATOM     92  F   UNL A   1      51.260  26.784  23.011  1.00  0.00    -0.200 F 
ATOM     93  C   UNL A   1      51.922  26.115  25.177  1.00  0.00     0.200 A 
ATOM     94  F   UNL A   1      52.529  25.443  27.358  1.00  0.00    -0.200 F 
ATOM     95  F   UNL A   1      53.160  25.851  24.734  1.00  0.00    -0.200 F 
ENDBRANCH  61  85
BRANCH  73  96
ATOM     96  C   UNL A   1      46.021  32.411  28.219  1.00  0.00     0.064 A 
ATOM     97  C   UNL A   1      45.844  33.338  27.180  1.00  0.00     0.173 A 
ATOM     98  C   UNL A   1      46.589  32.870  29.417  1.00  0.00     0.173 A 
ATOM     99  F   UNL A   1      45.322  32.946  26.007  1.00  0.00    -0.203 F 
ATOM    100  C   UNL A   1      46.239  34.665  27.330  1.00  0.00     0.198 A 
ATOM    101  C   UNL A   1      46.952  34.205  29.574  1.00  0.00     0.198 A 
ATOM    102  F   UNL A   1      46.775  32.026  30.443  1.00  0.00    -0.203 F 
ATOM    103  F   UNL A   1      46.103  35.521  26.306  1.00  0.00    -0.200 F 
ATOM    104  C   UNL A   1      46.783  35.099  28.528  1.00  0.00     0.200 A 
ATOM    105  F   UNL A   1      47.465  34.626  30.738  1.00  0.00    -0.200 F 
ATOM    106  F   UNL A   1      47.153  36.379  28.673  1.00  0.00    -0.200 F 
ENDBRANCH  73  96
ENDBRANCH  47  48
ENDBRANCH  39  42
ENDBRANCH  37  38
ENDBRANCH  36  37
ENDBRANCH  35  36
ENDBRANCH   1  35
TORSDOF 17
ENDMDL
MODEL 2
REMARK VINA RESULT:     -13.6      1.895      2.817
REMARK SMILES CS(=O)(=O)N(Cc1ccc(Cl)cc1)c1ccc(C(=O)Nc2ccccc2C(=O)NCCCCNC(=O)c2ccc(-c3c4nc(c(-c5c(F)c(F)c(F)c(F)c5F)c5ccc([nH]5)c(-c5c(F)c(F)c(F)c(F)c5F)c5nc(c(-c6c(F)c(F)c(F)c(F)c6F)c6ccc3[nH]6)C=C5)C=C4)cc2)cc1
REMARK SMILES IDX 30 1 29 2 27 3 28 4 26 6 21 7 22 8 23 9 25 10 24 11 20 12
REMARK SMILES IDX 18 13 19 14 17 16 14 17 15 18 101 19 16 20 100 21 5 22 2 23
REMARK SMILES IDX 1 24 3 25 4 26 6 27 7 28 8 29 13 30 9 31 12 32 10 33 11 34
REMARK SMILES IDX 31 35 32 36 33 37 34 38 35 39 36 41 37 42 38 43 99 44 39 45
REMARK SMILES IDX 98 46 40 47 41 48 42 49 92 50 43 51 97 52 91 53 93 54 44 55
REMARK SMILES IDX 96 56 90 57 89 58 45 60 77 61 57 62 76 63 58 64 61 65 75 66
REMARK SMILES IDX 94 67 59 68 60 69 74 71 95 72 62 73 46 74 47 75 55 76 48 77
REMARK SMILES IDX 49 78 53 79 56 80 50 81 51 82 54 83 52 84 78 85 79 86 87 87
REMARK SMILES IDX 80 88 81 89 85 90 88 91 82 92 83 93 86 94 84 95 63 96 64 97
REMARK SMILES IDX 72 98 65 99 66 100 70 101 73 102 67 103 68 104 71 105 69 106
REMARK H PARENT 29 5 20 15 34 40 93 59 61 70
REMARK Flexibility Score: inf
ROOT
ATOM      1  C   UNL A   1      36.068  22.167  25.894  1.00  0.00     0.116 C 
ENDROOT
BRANCH   1   2
ATOM      2  N   UNL A   1      35.167  21.065  26.145  1.00  0.00    -0.352 N 
ATOM      3  C   UNL A   1      33.973  20.740  25.543  1.00  0.00     0.253 C 
ATOM      4  O   UNL A   1      33.435  19.692  25.909  1.00  0.00    -0.269 OA
ATOM      5  H   UNL A   1      35.453  20.450  26.859  1.00  0.00     0.163 HD
BRANCH   3   6
ATOM      6  C   UNL A   1      33.256  21.622  24.564  1.00  0.00     0.063 A 
ATOM      7  C   UNL A   1      31.939  22.120  24.632  1.00  0.00     0.054 A 
ATOM      8  C   UNL A   1      31.384  22.766  23.511  1.00  0.00     0.027 A 
ATOM      9  C   UNL A   1      32.166  23.082  22.402  1.00  0.00     0.002 A 
ATOM     10  C   UNL A   1      34.035  21.974  23.438  1.00  0.00     0.016 A 
ATOM     11  C   UNL A   1      33.504  22.719  22.382  1.00  0.00     0.001 A 
BRANCH   7  12
ATOM     12  N   UNL A   1      31.099  22.163  25.761  1.00  0.00    -0.321 N 
ATOM     13  C   UNL A   1      30.864  23.171  26.667  1.00  0.00     0.255 C 
ATOM     14  O   UNL A   1      30.239  22.914  27.696  1.00  0.00    -0.269 OA
ATOM     15  H   UNL A   1      30.594  21.334  25.929  1.00  0.00     0.170 HD
BRANCH  13  16
ATOM     16  C   UNL A   1      31.311  24.558  26.420  1.00  0.00     0.040 A 
ATOM     17  C   UNL A   1      32.077  27.253  25.969  1.00  0.00     0.052 A 
ATOM     18  C   UNL A   1      30.730  26.851  25.947  1.00  0.00     0.028 A 
ATOM     19  C   UNL A   1      33.029  26.249  26.185  1.00  0.00     0.028 A 
ATOM     20  C   UNL A   1      30.345  25.528  26.177  1.00  0.00     0.016 A 
ATOM     21  C   UNL A   1      32.656  24.914  26.366  1.00  0.00     0.016 A 
BRANCH  17  22
ATOM     22  N   UNL A   1      32.446  28.650  25.690  1.00  0.00    -0.266 N 
BRANCH  22  23
ATOM     23  S   UNL A   1      32.311  29.760  26.966  1.00  0.00     0.232 S 
ATOM     24  C   UNL A   1      31.494  31.191  26.291  1.00  0.00     0.183 C 
ATOM     25  O   UNL A   1      33.660  30.183  27.315  1.00  0.00    -0.207 OA
ATOM     26  O   UNL A   1      31.434  29.206  27.969  1.00  0.00    -0.207 OA
ENDBRANCH  22  23
BRANCH  22  27
ATOM     27  C   UNL A   1      32.223  29.142  24.300  1.00  0.00     0.170 C 
BRANCH  27  28
ATOM     28  C   UNL A   1      32.337  28.014  23.279  1.00  0.00    -0.027 A 
ATOM     29  C   UNL A   1      33.595  27.617  22.800  1.00  0.00     0.007 A 
ATOM     30  C   UNL A   1      31.182  27.453  22.702  1.00  0.00     0.007 A 
ATOM     31  C   UNL A   1      33.690  26.755  21.703  1.00  0.00     0.021 A 
ATOM     32  C   UNL A   1      31.279  26.597  21.604  1.00  0.00     0.021 A 
ATOM     33  C   UNL A   1      32.533  26.269  21.096  1.00  0.00     0.041 A 
ATOM     34  Cl  UNL A   1      32.652  25.293  19.685  1.00  0.00    -0.084 Cl
ENDBRANCH  27  28
ENDBRANCH  22  27
ENDBRANCH  17  22
ENDBRANCH  13  16
ENDBRANCH   7  12
ENDBRANCH   3   6
ENDBRANCH   1   2
BRANCH   1  35
ATOM     35  C   UNL A   1      37.134  21.912  24.835  1.00  0.00     0.023 C 
BRANCH  35  36
ATOM     36  C   UNL A   1      37.962  20.635  24.995  1.00  0.00     0.023 C 
BRANCH  36  37
ATOM     37  C   UNL A   1      39.132  20.681  25.978  1.00  0.00     0.116 C 
BRANCH  37  38
ATOM     38  N   UNL A   1      40.016  19.525  25.915  1.00  0.00    -0.352 N 
ATOM     39  C   UNL A   1      41.379  19.431  26.095  1.00  0.00     0.251 C 
ATOM     40  H   UNL A   1      39.568  18.673  25.712  1.00  0.00     0.163 HD
ATOM     41  O   UNL A   1      41.964  18.372  25.891  1.00  0.00    -0.269 OA
BRANCH  39  42
ATOM     42  C   UNL A   1      42.157  20.625  26.490  1.00  0.00     0.039 A 
ATOM     43  C   UNL A   1      42.775  21.388  25.495  1.00  0.00     0.014 A 
ATOM     44  C   UNL A   1      42.244  21.016  27.827  1.00  0.00     0.014 A 
ATOM     45  C   UNL A   1      43.363  22.611  25.828  1.00  0.00     0.010 A 
ATOM     46  C   UNL A   1      42.753  22.272  28.146  1.00  0.00     0.010 A 
ATOM     47  C   UNL A   1      43.290  23.097  27.144  1.00  0.00    -0.014 A 
BRANCH  47  48
ATOM     48  C   UNL A   1      43.697  24.489  27.474  1.00  0.00     0.031 A 
ATOM     49  C   UNL A   1      42.675  25.522  27.852  1.00  0.00     0.074 A 
ATOM     50  C   UNL A   1      44.993  24.843  27.345  1.00  0.00     0.049 A 
ATOM     51  N   UNL A   1      42.840  26.799  28.094  1.00  0.00    -0.248 NA
ATOM     52  C   UNL A   1      41.279  25.070  27.943  1.00  0.00     0.031 C 
ATOM     53  C   UNL A   1      46.075  23.949  26.928  1.00  0.00     0.029 A 
ATOM     54  N   UNL A   1      45.619  26.051  27.536  1.00  0.00    -0.354 N 
ATOM     55  C   UNL A   1      41.573  27.300  28.359  1.00  0.00     0.074 A 
ATOM     56  C   UNL A   1      40.642  26.205  28.192  1.00  0.00     0.031 C 
ATOM     57  C   UNL A   1      47.232  24.629  26.921  1.00  0.00     0.029 A 
ATOM     58  C   UNL A   1      46.970  26.017  27.285  1.00  0.00     0.049 A 
ATOM     59  H   UNL A   1      45.145  26.863  27.824  1.00  0.00     0.167 HD
ATOM     60  C   UNL A   1      41.221  28.555  28.731  1.00  0.00     0.037 A 
ATOM     61  C   UNL A   1      47.894  26.998  27.329  1.00  0.00     0.037 A 
ATOM     62  C   UNL A   1      42.151  29.640  28.912  1.00  0.00     0.049 A 
ATOM     63  C   UNL A   1      47.471  28.388  27.716  1.00  0.00     0.074 A 
ATOM     64  C   UNL A   1      41.900  30.926  29.356  1.00  0.00     0.029 A 
ATOM     65  N   UNL A   1      43.511  29.568  28.647  1.00  0.00    -0.354 N 
ATOM     66  N   UNL A   1      46.282  28.830  28.047  1.00  0.00    -0.248 NA
ATOM     67  C   UNL A   1      48.518  29.419  27.733  1.00  0.00     0.031 C 
ATOM     68  C   UNL A   1      43.096  31.649  29.304  1.00  0.00     0.029 A 
ATOM     69  C   UNL A   1      44.105  30.800  28.880  1.00  0.00     0.049 A 
ATOM     70  H   UNL A   1      43.984  28.762  28.338  1.00  0.00     0.167 HD
ATOM     71  C   UNL A   1      46.440  30.180  28.330  1.00  0.00     0.074 A 
ATOM     72  C   UNL A   1      47.845  30.481  28.154  1.00  0.00     0.031 C 
ATOM     73  C   UNL A   1      45.504  31.088  28.696  1.00  0.00     0.037 A 
BRANCH  60  74
ATOM     74  C   UNL A   1      39.764  28.825  28.972  1.00  0.00     0.064 A 
ATOM     75  C   UNL A   1      39.178  28.630  30.233  1.00  0.00     0.173 A 
ATOM     76  C   UNL A   1      38.952  29.329  27.944  1.00  0.00     0.173 A 
ATOM     77  F   UNL A   1      39.908  28.143  31.248  1.00  0.00    -0.203 F 
ATOM     78  C   UNL A   1      37.829  28.901  30.447  1.00  0.00     0.198 A 
ATOM     79  C   UNL A   1      37.611  29.629  28.171  1.00  0.00     0.198 A 
ATOM     80  F   UNL A   1      39.463  29.543  26.723  1.00  0.00    -0.203 F 
ATOM     81  F   UNL A   1      37.282  28.662  31.647  1.00  0.00    -0.200 F 
ATOM     82  C   UNL A   1      37.049  29.407  29.419  1.00  0.00     0.200 A 
ATOM     83  F   UNL A   1      36.863  30.135  27.180  1.00  0.00    -0.200 F 
ATOM     84  F   UNL A   1      35.753  29.679  29.629  1.00  0.00    -0.200 F 
ENDBRANCH  60  74
BRANCH  61  85
ATOM     85  C   UNL A   1      49.314  26.697  27.006  1.00  0.00     0.064 A 
ATOM     86  C   UNL A   1      50.212  26.300  28.006  1.00  0.00     0.173 A 
ATOM     87  C   UNL A   1      49.806  26.812  25.697  1.00  0.00     0.173 A 
ATOM     88  F   UNL A   1      49.795  26.198  29.277  1.00  0.00    -0.203 F 
ATOM     89  C   UNL A   1      51.551  26.047  27.714  1.00  0.00     0.198 A 
ATOM     90  C   UNL A   1      51.138  26.528  25.400  1.00  0.00     0.198 A 
ATOM     91  F   UNL A   1      48.990  27.187  24.702  1.00  0.00    -0.203 F 
ATOM     92  F   UNL A   1      52.398  25.715  28.698  1.00  0.00    -0.200 F 
ATOM     93  C   UNL A   1      52.011  26.155  26.410  1.00  0.00     0.200 A 
ATOM     94  F   UNL A   1      51.575  26.620  24.137  1.00  0.00    -0.200 F 
ATOM     95  F   UNL A   1      53.299  25.908  26.129  1.00  0.00    -0.200 F 
ENDBRANCH  61  85
BRANCH  73  96
ATOM     96  C   UNL A   1      45.968  32.496  28.939  1.00  0.00     0.064 A 
ATOM     97  C   UNL A   1      46.427  32.908  30.199  1.00  0.00     0.173 A 
ATOM     98  C   UNL A   1      45.993  33.431  27.893  1.00  0.00     0.173 A 
ATOM     99  F   UNL A   1      46.407  32.057  31.237  1.00  0.00    -0.203 F 
ATOM    100  C   UNL A   1      46.874  34.210  30.407  1.00  0.00     0.198 A 
ATOM    101  C   UNL A   1      46.471  34.722  28.097  1.00  0.00     0.198 A 
ATOM    102  F   UNL A   1      45.570  33.086  26.668  1.00  0.00    -0.203 F 
ATOM    103  F   UNL A   1      47.264  34.595  31.631  1.00  0.00    -0.200 F 
ATOM    104  C   UNL A   1      46.904  35.113  29.355  1.00  0.00     0.200 A 
ATOM    105  F   UNL A   1      46.513  35.589  27.077  1.00  0.00    -0.200 F 
ATOM    106  F   UNL A   1      47.344  36.362  29.556  1.00  0.00    -0.200 F 
ENDBRANCH  73  96
ENDBRANCH  47  48
ENDBRANCH  39  42
ENDBRANCH  37  38
ENDBRANCH  36  37
ENDBRANCH  35  36
ENDBRANCH   1  35
TORSDOF 17
ENDMDL
MODEL 3
REMARK VINA RESULT:     -13.6      0.333      1.858
REMARK SMILES CS(=O)(=O)N(Cc1ccc(Cl)cc1)c1ccc(C(=O)Nc2ccccc2C(=O)NCCCCNC(=O)c2ccc(-c3c4nc(c(-c5c(F)c(F)c(F)c(F)c5F)c5ccc([nH]5)c(-c5c(F)c(F)c(F)c(F)c5F)c5nc(c(-c6c(F)c(F)c(F)c(F)c6F)c6ccc3[nH]6)C=C5)C=C4)cc2)cc1
REMARK SMILES IDX 30 1 29 2 27 3 28 4 26 6 21 7 22 8 23 9 25 10 24 11 20 12
REMARK SMILES IDX 18 13 19 14 17 16 14 17 15 18 101 19 16 20 100 21 5 22 2 23
REMARK SMILES IDX 1 24 3 25 4 26 6 27 7 28 8 29 13 30 9 31 12 32 10 33 11 34
REMARK SMILES IDX 31 35 32 36 33 37 34 38 35 39 36 41 37 42 38 43 99 44 39 45
REMARK SMILES IDX 98 46 40 47 41 48 42 49 92 50 43 51 97 52 91 53 93 54 44 55
REMARK SMILES IDX 96 56 90 57 89 58 45 60 77 61 57 62 76 63 58 64 61 65 75 66
REMARK SMILES IDX 94 67 59 68 60 69 74 71 95 72 62 73 46 74 47 75 55 76 48 77
REMARK SMILES IDX 49 78 53 79 56 80 50 81 51 82 54 83 52 84 78 85 79 86 87 87
REMARK SMILES IDX 80 88 81 89 85 90 88 91 82 92 83 93 86 94 84 95 63 96 64 97
REMARK SMILES IDX 72 98 65 99 66 100 70 101 73 102 67 103 68 104 71 105 69 106
REMARK H PARENT 29 5 20 15 34 40 93 59 61 70
REMARK Flexibility Score: inf
ROOT
ATOM      1  C   UNL A   1      36.839  22.405  25.728  1.00  0.00     0.116 C 
ENDROOT
BRANCH   1   2
ATOM      2  N   UNL A   1      35.819  22.642  26.724  1.00  0.00    -0.352 N 
ATOM      3  C   UNL A   1      34.447  22.622  26.613  1.00  0.00     0.253 C 
ATOM      4  O   UNL A   1      33.804  22.794  27.651  1.00  0.00    -0.269 OA
ATOM      5  H   UNL A   1      36.159  22.851  27.625  1.00  0.00     0.163 HD
BRANCH   3   6
ATOM      6  C   UNL A   1      33.710  22.506  25.311  1.00  0.00     0.063 A 
ATOM      7  C   UNL A   1      32.356  22.180  25.095  1.00  0.00     0.054 A 
ATOM      8  C   UNL A   1      31.906  21.923  23.786  1.00  0.00     0.027 A 
ATOM      9  C   UNL A   1      32.725  22.158  22.684  1.00  0.00     0.002 A 
ATOM     10  C   UNL A   1      34.514  22.760  24.176  1.00  0.00     0.016 A 
ATOM     11  C   UNL A   1      34.020  22.614  22.878  1.00  0.00     0.001 A 
BRANCH   7  12
ATOM     12  N   UNL A   1      31.314  22.187  26.042  1.00  0.00    -0.321 N 
ATOM     13  C   UNL A   1      30.546  23.221  26.524  1.00  0.00     0.255 C 
ATOM     14  O   UNL A   1      29.826  23.024  27.502  1.00  0.00    -0.269 OA
ATOM     15  H   UNL A   1      31.098  21.304  26.421  1.00  0.00     0.170 HD
BRANCH  13  16
ATOM     16  C   UNL A   1      30.537  24.550  25.876  1.00  0.00     0.040 A 
ATOM     17  C   UNL A   1      30.587  27.132  24.700  1.00  0.00     0.052 A 
ATOM     18  C   UNL A   1      30.973  26.917  26.035  1.00  0.00     0.028 A 
ATOM     19  C   UNL A   1      30.137  26.014  23.988  1.00  0.00     0.028 A 
ATOM     20  C   UNL A   1      30.960  25.647  26.618  1.00  0.00     0.016 A 
ATOM     21  C   UNL A   1      30.073  24.749  24.578  1.00  0.00     0.016 A 
BRANCH  17  22
ATOM     22  N   UNL A   1      30.583  28.489  24.132  1.00  0.00    -0.266 N 
BRANCH  22  23
ATOM     23  S   UNL A   1      29.366  28.858  23.008  1.00  0.00     0.232 S 
ATOM     24  C   UNL A   1      28.919  30.557  23.303  1.00  0.00     0.183 C 
ATOM     25  O   UNL A   1      28.200  28.059  23.355  1.00  0.00    -0.207 OA
ATOM     26  O   UNL A   1      29.930  28.794  21.680  1.00  0.00    -0.207 OA
ENDBRANCH  22  23
BRANCH  22  27
ATOM     27  C   UNL A   1      31.904  29.166  23.988  1.00  0.00     0.170 C 
BRANCH  27  28
ATOM     28  C   UNL A   1      32.408  29.704  25.324  1.00  0.00    -0.027 A 
ATOM     29  C   UNL A   1      31.742  30.766  25.956  1.00  0.00     0.007 A 
ATOM     30  C   UNL A   1      33.620  29.240  25.870  1.00  0.00     0.007 A 
ATOM     31  C   UNL A   1      32.328  31.412  27.049  1.00  0.00     0.021 A 
ATOM     32  C   UNL A   1      34.204  29.890  26.958  1.00  0.00     0.021 A 
ATOM     33  C   UNL A   1      33.566  30.987  27.529  1.00  0.00     0.041 A 
ATOM     34  Cl  UNL A   1      34.330  31.849  28.807  1.00  0.00    -0.084 Cl
ENDBRANCH  27  28
ENDBRANCH  22  27
ENDBRANCH  17  22
ENDBRANCH  13  16
ENDBRANCH   7  12
ENDBRANCH   3   6
ENDBRANCH   1   2
BRANCH   1  35
ATOM     35  C   UNL A   1      37.017  20.952  25.306  1.00  0.00     0.023 C 
BRANCH  35  36
ATOM     36  C   UNL A   1      38.434  20.524  24.918  1.00  0.00     0.023 C 
BRANCH  36  37
ATOM     37  C   UNL A   1      39.489  20.514  26.024  1.00  0.00     0.116 C 
BRANCH  37  38
ATOM     38  N   UNL A   1      40.386  19.367  25.990  1.00  0.00    -0.352 N 
ATOM     39  C   UNL A   1      41.751  19.295  26.161  1.00  0.00     0.251 C 
ATOM     40  H   UNL A   1      39.947  18.504  25.817  1.00  0.00     0.163 HD
ATOM     41  O   UNL A   1      42.348  18.238  25.984  1.00  0.00    -0.269 OA
BRANCH  39  42
ATOM     42  C   UNL A   1      42.518  20.510  26.511  1.00  0.00     0.039 A 
ATOM     43  C   UNL A   1      43.165  21.218  25.494  1.00  0.00     0.014 A 
ATOM     44  C   UNL A   1      42.567  20.974  27.826  1.00  0.00     0.014 A 
ATOM     45  C   UNL A   1      43.743  22.458  25.776  1.00  0.00     0.010 A 
ATOM     46  C   UNL A   1      43.068  22.247  28.090  1.00  0.00     0.010 A 
ATOM     47  C   UNL A   1      43.633  23.016  27.060  1.00  0.00    -0.014 A 
BRANCH  47  48
ATOM     48  C   UNL A   1      44.031  24.424  27.325  1.00  0.00     0.031 A 
ATOM     49  C   UNL A   1      43.012  25.450  27.730  1.00  0.00     0.074 A 
ATOM     50  C   UNL A   1      45.310  24.797  27.110  1.00  0.00     0.049 A 
ATOM     51  N   UNL A   1      43.165  26.737  27.925  1.00  0.00    -0.248 NA
ATOM     52  C   UNL A   1      41.633  24.976  27.915  1.00  0.00     0.031 C 
ATOM     53  C   UNL A   1      46.384  23.911  26.658  1.00  0.00     0.029 A 
ATOM     54  N   UNL A   1      45.922  26.022  27.229  1.00  0.00    -0.354 N 
ATOM     55  C   UNL A   1      41.906  27.223  28.247  1.00  0.00     0.074 A 
ATOM     56  C   UNL A   1      40.989  26.106  28.167  1.00  0.00     0.031 C 
ATOM     57  C   UNL A   1      47.525  24.611  26.565  1.00  0.00     0.029 A 
ATOM     58  C   UNL A   1      47.257  26.005  26.902  1.00  0.00     0.049 A 
ATOM     59  H   UNL A   1      45.449  26.834  27.520  1.00  0.00     0.167 HD
ATOM     60  C   UNL A   1      41.551  28.482  28.602  1.00  0.00     0.037 A 
ATOM     61  C   UNL A   1      48.163  27.002  26.863  1.00  0.00     0.037 A 
ATOM     62  C   UNL A   1      42.469  29.588  28.696  1.00  0.00     0.049 A 
ATOM     63  C   UNL A   1      47.735  28.396  27.233  1.00  0.00     0.074 A 
ATOM     64  C   UNL A   1      42.218  30.883  29.116  1.00  0.00     0.029 A 
ATOM     65  N   UNL A   1      43.813  29.533  28.355  1.00  0.00    -0.354 N 
ATOM     66  N   UNL A   1      46.559  28.826  27.619  1.00  0.00    -0.248 NA
ATOM     67  C   UNL A   1      48.761  29.446  27.158  1.00  0.00     0.031 C 
ATOM     68  C   UNL A   1      43.395  31.626  28.974  1.00  0.00     0.029 A 
ATOM     69  C   UNL A   1      44.394  30.782  28.517  1.00  0.00     0.049 A 
ATOM     70  H   UNL A   1      44.283  28.726  28.043  1.00  0.00     0.167 HD
ATOM     71  C   UNL A   1      46.706  30.187  27.851  1.00  0.00     0.074 A 
ATOM     72  C   UNL A   1      48.092  30.508  27.586  1.00  0.00     0.031 C 
ATOM     73  C   UNL A   1      45.775  31.089  28.244  1.00  0.00     0.037 A 
BRANCH  60  74
ATOM     74  C   UNL A   1      40.105  28.733  28.919  1.00  0.00     0.064 A 
ATOM     75  C   UNL A   1      39.217  29.235  27.954  1.00  0.00     0.173 A 
ATOM     76  C   UNL A   1      39.589  28.425  30.186  1.00  0.00     0.173 A 
ATOM     77  F   UNL A   1      39.662  29.553  26.729  1.00  0.00    -0.203 F 
ATOM     78  C   UNL A   1      37.875  29.448  28.256  1.00  0.00     0.198 A 
ATOM     79  C   UNL A   1      38.238  28.608  30.475  1.00  0.00     0.198 A 
ATOM     80  F   UNL A   1      40.391  27.934  31.143  1.00  0.00    -0.203 F 
ATOM     81  F   UNL A   1      37.058  29.973  27.333  1.00  0.00    -0.200 F 
ATOM     82  C   UNL A   1      37.384  29.127  29.513  1.00  0.00     0.200 A 
ATOM     83  F   UNL A   1      37.763  28.281  31.685  1.00  0.00    -0.200 F 
ATOM     84  F   UNL A   1      36.089  29.320  29.798  1.00  0.00    -0.200 F 
ENDBRANCH  60  74
BRANCH  61  85
ATOM     85  C   UNL A   1      49.567  26.718  26.467  1.00  0.00     0.064 A 
ATOM     86  C   UNL A   1      50.525  26.351  27.423  1.00  0.00     0.173 A 
ATOM     87  C   UNL A   1      49.985  26.817  25.132  1.00  0.00     0.173 A 
ATOM     88  F   UNL A   1      50.180  26.265  28.716  1.00  0.00    -0.203 F 
ATOM     89  C   UNL A   1      51.850  26.113  27.062  1.00  0.00     0.198 A 
ATOM     90  C   UNL A   1      51.304  26.548  24.767  1.00  0.00     0.198 A 
ATOM     91  F   UNL A   1      49.110  27.162  24.177  1.00  0.00    -0.203 F 
ATOM     92  F   UNL A   1      52.754  25.811  28.004  1.00  0.00    -0.200 F 
ATOM     93  C   UNL A   1      52.236  26.206  25.734  1.00  0.00     0.200 A 
ATOM     94  F   UNL A   1      51.669  26.625  23.480  1.00  0.00    -0.200 F 
ATOM     95  F   UNL A   1      53.510  25.973  25.387  1.00  0.00    -0.200 F 
ENDBRANCH  61  85
BRANCH  73  96
ATOM     96  C   UNL A   1      46.224  32.512  28.418  1.00  0.00     0.064 A 
ATOM     97  C   UNL A   1      46.758  32.968  29.633  1.00  0.00     0.173 A 
ATOM     98  C   UNL A   1      46.160  33.418  27.349  1.00  0.00     0.173 A 
ATOM     99  F   UNL A   1      46.825  32.146  30.692  1.00  0.00    -0.203 F 
ATOM    100  C   UNL A   1      47.190  34.284  29.776  1.00  0.00     0.198 A 
ATOM    101  C   UNL A   1      46.622  34.724  27.486  1.00  0.00     0.198 A 
ATOM    102  F   UNL A   1      45.663  33.031  26.164  1.00  0.00    -0.203 F 
ATOM    103  F   UNL A   1      47.653  34.710  30.960  1.00  0.00    -0.200 F 
ATOM    104  C   UNL A   1      47.130  35.157  28.701  1.00  0.00     0.200 A 
ATOM    105  F   UNL A   1      46.577  35.562  26.442  1.00  0.00    -0.200 F 
ATOM    106  F   UNL A   1      47.556  36.420  28.838  1.00  0.00    -0.200 F 
ENDBRANCH  73  96
ENDBRANCH  47  48
ENDBRANCH  39  42
ENDBRANCH  37  38
ENDBRANCH  36  37
ENDBRANCH  35  36
ENDBRANCH   1  35
TORSDOF 17
ENDMDL
