MODEL 1
REMARK VINA RESULT:     -13.8      0.000      0.000
REMARK SMILES NC(=O)c1cc(NC(=O)/C=C\C(=O)NCCCCNC(=O)c2ccc(-c3c4nc(c(-c5c(F)c(F)c(F)c(F)c5F)c5ccc([nH]5)c(-c5c(F)c(F)c(F)c(F)c5F)c5nc(c(-c6c(F)c(F)c(F)c(F)c6F)c6ccc3[nH]6)C=C5)C=C4)cc2)ccc1N1CCOCC1
REMARK SMILES IDX 16 1 15 2 14 3 12 4 13 5 11 7 10 8 8 9 7 10 9 12 6 13 4 14
REMARK SMILES IDX 5 15 87 16 86 17 85 18 2 19 1 20 3 23 88 24 89 25 93 26
REMARK SMILES IDX 90 27 92 28 91 29 17 30 18 31 19 32 20 33 21 35 22 36 23 37
REMARK SMILES IDX 84 38 24 39 83 40 25 41 26 42 27 43 77 44 28 45 82 46 76 47
REMARK SMILES IDX 78 48 29 49 81 50 75 51 74 52 30 54 62 55 42 56 61 57 43 58
REMARK SMILES IDX 46 59 60 60 79 61 44 62 45 63 59 65 80 66 47 67 31 68 32 69
REMARK SMILES IDX 40 70 33 71 34 72 38 73 41 74 35 75 36 76 39 77 37 78 63 79
REMARK SMILES IDX 64 80 72 81 65 82 66 83 70 84 73 85 67 86 68 87 71 88 69 89
REMARK SMILES IDX 48 90 49 91 57 92 50 93 51 94 55 95 58 96 52 97 53 98 56 99
REMARK SMILES IDX 54 100
REMARK H PARENT 14 6 7 11 1 21 1 22 19 34 78 53 46 64
REMARK Flexibility Score: inf
ROOT
ATOM      1  C   UNL A   1      34.445  33.310  28.743  1.00  0.00     0.023 C 
ENDROOT
BRANCH   1   2
ATOM      2  C   UNL A   1      34.401  32.091  27.769  1.00  0.00     0.116 C 
BRANCH   2   3
ATOM      3  N   UNL A   1      33.356  30.767  28.032  1.00  0.00    -0.353 N 
ATOM      4  C   UNL A   1      32.436  29.288  27.102  1.00  0.00     0.244 C 
ATOM      5  O   UNL A   1      31.577  28.461  27.516  1.00  0.00    -0.270 OA
ATOM      6  H   UNL A   1      33.131  30.727  28.989  1.00  0.00     0.163 HD
BRANCH   4   7
ATOM      7  C   UNL A   1      32.719  28.664  25.489  1.00  0.00     0.077 C 
ATOM      8  C   UNL A   1      32.114  28.657  24.277  1.00  0.00     0.077 C 
BRANCH   8   9
ATOM      9  C   UNL A   1      30.751  29.175  23.971  1.00  0.00     0.248 C 
ATOM     10  N   UNL A   1      30.064  28.396  23.101  1.00  0.00    -0.322 N 
ATOM     11  H   UNL A   1      29.387  28.781  22.498  1.00  0.00     0.170 HD
ATOM     12  O   UNL A   1      30.363  30.265  24.361  1.00  0.00    -0.270 OA
BRANCH  10  13
ATOM     13  C   UNL A   1      30.347  27.045  23.087  1.00  0.00     0.042 A 
ATOM     14  C   UNL A   1      30.549  24.376  24.795  1.00  0.00     0.064 A 
ATOM     15  C   UNL A   1      29.714  25.970  24.477  1.00  0.00     0.042 A 
ATOM     16  C   UNL A   1      31.902  23.794  23.719  1.00  0.00     0.050 A 
ATOM     17  C   UNL A   1      32.424  24.830  22.292  1.00  0.00     0.029 A 
ATOM     18  C   UNL A   1      31.683  26.456  22.002  1.00  0.00     0.028 A 
BRANCH  14  19
ATOM     19  C   UNL A   1      30.638  24.126  26.249  1.00  0.00     0.250 C 
ATOM     20  N   UNL A   1      29.887  23.057  26.652  1.00  0.00    -0.366 N 
ATOM     21  H   UNL A   1      29.870  22.796  27.602  1.00  0.00     0.159 HD
ATOM     22  H   UNL A   1      29.366  22.545  25.992  1.00  0.00     0.159 HD
ATOM     23  O   UNL A   1      31.422  24.712  26.974  1.00  0.00    -0.269 OA
ENDBRANCH  14  19
BRANCH  16  24
ATOM     24  N   UNL A   1      32.736  22.720  24.067  1.00  0.00    -0.366 N 
ATOM     25  C   UNL A   1      32.484  21.285  23.801  1.00  0.00     0.145 C 
ATOM     26  C   UNL A   1      33.899  22.942  24.949  1.00  0.00     0.145 C 
ATOM     27  C   UNL A   1      32.522  20.446  25.107  1.00  0.00     0.181 C 
ATOM     28  C   UNL A   1      33.775  22.092  26.220  1.00  0.00     0.181 C 
ATOM     29  O   UNL A   1      33.700  20.698  25.891  1.00  0.00    -0.378 OA
ENDBRANCH  16  24
ENDBRANCH  10  13
ENDBRANCH   8   9
ENDBRANCH   4   7
ENDBRANCH   2   3
ENDBRANCH   1   2
BRANCH   1  30
ATOM     30  C   UNL A   1      33.268  34.282  28.689  1.00  0.00     0.023 C 
BRANCH  30  31
ATOM     31  C   UNL A   1      33.643  35.582  29.349  1.00  0.00     0.116 C 
BRANCH  31  32
ATOM     32  N   UNL A   1      32.754  35.843  30.474  1.00  0.00    -0.352 N 
ATOM     33  C   UNL A   1      32.823  35.316  31.730  1.00  0.00     0.251 C 
ATOM     34  H   UNL A   1      32.017  36.475  30.307  1.00  0.00     0.163 HD
ATOM     35  O   UNL A   1      31.863  35.355  32.486  1.00  0.00    -0.269 OA
BRANCH  33  36
ATOM     36  C   UNL A   1      34.082  34.675  32.126  1.00  0.00     0.039 A 
ATOM     37  C   UNL A   1      34.081  33.312  32.395  1.00  0.00     0.014 A 
ATOM     38  C   UNL A   1      35.263  35.426  32.169  1.00  0.00     0.014 A 
ATOM     39  C   UNL A   1      35.283  32.699  32.707  1.00  0.00     0.010 A 
ATOM     40  C   UNL A   1      36.474  34.786  32.327  1.00  0.00     0.010 A 
ATOM     41  C   UNL A   1      36.487  33.428  32.648  1.00  0.00    -0.014 A 
BRANCH  41  42
ATOM     42  C   UNL A   1      37.761  32.764  32.965  1.00  0.00     0.031 A 
ATOM     43  C   UNL A   1      38.470  33.081  34.248  1.00  0.00     0.074 A 
ATOM     44  C   UNL A   1      38.245  31.866  32.088  1.00  0.00     0.049 A 
ATOM     45  N   UNL A   1      39.542  32.524  34.747  1.00  0.00    -0.248 NA
ATOM     46  C   UNL A   1      37.931  34.178  35.071  1.00  0.00     0.031 C 
ATOM     47  C   UNL A   1      37.654  31.561  30.781  1.00  0.00     0.029 A 
ATOM     48  N   UNL A   1      39.321  31.029  32.173  1.00  0.00    -0.354 N 
ATOM     49  C   UNL A   1      39.800  33.204  35.930  1.00  0.00     0.074 A 
ATOM     50  C   UNL A   1      38.821  34.256  36.047  1.00  0.00     0.031 C 
ATOM     51  C   UNL A   1      38.338  30.555  30.217  1.00  0.00     0.029 A 
ATOM     52  C   UNL A   1      39.442  30.189  31.094  1.00  0.00     0.049 A 
ATOM     53  H   UNL A   1      39.948  31.028  32.932  1.00  0.00     0.167 HD
ATOM     54  C   UNL A   1      40.760  32.945  36.845  1.00  0.00     0.037 A 
ATOM     55  C   UNL A   1      40.354  29.234  30.847  1.00  0.00     0.037 A 
ATOM     56  C   UNL A   1      41.710  31.875  36.714  1.00  0.00     0.049 A 
ATOM     57  C   UNL A   1      41.401  28.968  31.894  1.00  0.00     0.074 A 
ATOM     58  C   UNL A   1      42.679  31.471  37.613  1.00  0.00     0.029 A 
ATOM     59  N   UNL A   1      41.819  31.049  35.603  1.00  0.00    -0.354 N 
ATOM     60  N   UNL A   1      41.574  29.544  33.059  1.00  0.00    -0.248 NA
ATOM     61  C   UNL A   1      42.372  27.910  31.596  1.00  0.00     0.031 C 
ATOM     62  C   UNL A   1      43.433  30.461  37.009  1.00  0.00     0.029 A 
ATOM     63  C   UNL A   1      42.874  30.169  35.774  1.00  0.00     0.049 A 
ATOM     64  H   UNL A   1      41.233  31.083  34.813  1.00  0.00     0.167 HD
ATOM     65  C   UNL A   1      42.661  28.908  33.643  1.00  0.00     0.074 A 
ATOM     66  C   UNL A   1      43.075  27.872  32.717  1.00  0.00     0.031 C 
ATOM     67  C   UNL A   1      43.271  29.157  34.828  1.00  0.00     0.037 A 
BRANCH  54  68
ATOM     68  C   UNL A   1      40.845  33.833  38.052  1.00  0.00     0.064 A 
ATOM     69  C   UNL A   1      41.683  34.958  38.095  1.00  0.00     0.173 A 
ATOM     70  C   UNL A   1      40.018  33.589  39.159  1.00  0.00     0.173 A 
ATOM     71  F   UNL A   1      42.508  35.228  37.073  1.00  0.00    -0.203 F 
ATOM     72  C   UNL A   1      41.695  35.800  39.205  1.00  0.00     0.198 A 
ATOM     73  C   UNL A   1      40.008  34.451  40.251  1.00  0.00     0.198 A 
ATOM     74  F   UNL A   1      39.205  32.522  39.174  1.00  0.00    -0.203 F 
ATOM     75  F   UNL A   1      42.531  36.847  39.241  1.00  0.00    -0.200 F 
ATOM     76  C   UNL A   1      40.848  35.553  40.275  1.00  0.00     0.200 A 
ATOM     77  F   UNL A   1      39.178  34.218  41.277  1.00  0.00    -0.200 F 
ATOM     78  F   UNL A   1      40.843  36.378  41.331  1.00  0.00    -0.200 F 
ENDBRANCH  54  68
BRANCH  55  79
ATOM     79  C   UNL A   1      40.323  28.480  29.567  1.00  0.00     0.064 A 
ATOM     80  C   UNL A   1      39.625  27.272  29.442  1.00  0.00     0.173 A 
ATOM     81  C   UNL A   1      41.027  28.944  28.444  1.00  0.00     0.173 A 
ATOM     82  F   UNL A   1      38.941  26.781  30.485  1.00  0.00    -0.203 F 
ATOM     83  C   UNL A   1      39.673  26.532  28.261  1.00  0.00     0.198 A 
ATOM     84  C   UNL A   1      41.037  28.227  27.252  1.00  0.00     0.198 A 
ATOM     85  F   UNL A   1      41.699  30.103  28.502  1.00  0.00    -0.203 F 
ATOM     86  F   UNL A   1      39.061  25.342  28.195  1.00  0.00    -0.200 F 
ATOM     87  C   UNL A   1      40.376  27.011  27.166  1.00  0.00     0.200 A 
ATOM     88  F   UNL A   1      41.695  28.710  26.189  1.00  0.00    -0.200 F 
ATOM     89  F   UNL A   1      40.427  26.298  26.034  1.00  0.00    -0.200 F 
ENDBRANCH  55  79
BRANCH  67  90
ATOM     90  C   UNL A   1      44.433  28.276  35.189  1.00  0.00     0.064 A 
ATOM     91  C   UNL A   1      45.751  28.610  34.842  1.00  0.00     0.173 A 
ATOM     92  C   UNL A   1      44.222  27.077  35.886  1.00  0.00     0.173 A 
ATOM     93  F   UNL A   1      46.007  29.742  34.168  1.00  0.00    -0.203 F 
ATOM     94  C   UNL A   1      46.805  27.747  35.126  1.00  0.00     0.198 A 
ATOM     95  C   UNL A   1      45.285  26.241  36.213  1.00  0.00     0.198 A 
ATOM     96  F   UNL A   1      42.984  26.715  36.257  1.00  0.00    -0.203 F 
ATOM     97  F   UNL A   1      48.042  28.045  34.702  1.00  0.00    -0.200 F 
ATOM     98  C   UNL A   1      46.573  26.568  35.815  1.00  0.00     0.200 A 
ATOM     99  F   UNL A   1      45.062  25.115  36.902  1.00  0.00    -0.200 F 
ATOM    100  F   UNL A   1      47.589  25.737  36.084  1.00  0.00    -0.200 F 
ENDBRANCH  67  90
ENDBRANCH  41  42
ENDBRANCH  33  36
ENDBRANCH  31  32
ENDBRANCH  30  31
ENDBRANCH   1  30
TORSDOF 15
ENDMDL
MODEL 2
REMARK VINA RESULT:     -13.8      6.152     11.886
REMARK SMILES NC(=O)c1cc(NC(=O)/C=C\C(=O)NCCCCNC(=O)c2ccc(-c3c4nc(c(-c5c(F)c(F)c(F)c(F)c5F)c5ccc([nH]5)c(-c5c(F)c(F)c(F)c(F)c5F)c5nc(c(-c6c(F)c(F)c(F)c(F)c6F)c6ccc3[nH]6)C=C5)C=C4)cc2)ccc1N1CCOCC1
REMARK SMILES IDX 16 1 15 2 14 3 12 4 13 5 11 7 10 8 8 9 7 10 9 12 6 13 4 14
REMARK SMILES IDX 5 15 87 16 86 17 85 18 2 19 1 20 3 23 88 24 89 25 93 26
REMARK SMILES IDX 90 27 92 28 91 29 17 30 18 31 19 32 20 33 21 35 22 36 23 37
REMARK SMILES IDX 84 38 24 39 83 40 25 41 26 42 27 43 77 44 28 45 82 46 76 47
REMARK SMILES IDX 78 48 29 49 81 50 75 51 74 52 30 54 62 55 42 56 61 57 43 58
REMARK SMILES IDX 46 59 60 60 79 61 44 62 45 63 59 65 80 66 47 67 31 68 32 69
REMARK SMILES IDX 40 70 33 71 34 72 38 73 41 74 35 75 36 76 39 77 37 78 63 79
REMARK SMILES IDX 64 80 72 81 65 82 66 83 70 84 73 85 67 86 68 87 71 88 69 89
REMARK SMILES IDX 48 90 49 91 57 92 50 93 51 94 55 95 58 96 52 97 53 98 56 99
REMARK SMILES IDX 54 100
REMARK H PARENT 14 6 7 11 1 21 1 22 19 34 78 53 46 64
REMARK Flexibility Score: inf
ROOT
ATOM      1  C   UNL A   1      41.146  21.287  26.564  1.00  0.00     0.023 C 
ENDROOT
BRANCH   1   2
ATOM      2  C   UNL A   1      39.680  21.807  26.698  1.00  0.00     0.116 C 
BRANCH   2   3
ATOM      3  N   UNL A   1      38.845  22.493  25.379  1.00  0.00    -0.353 N 
ATOM      4  C   UNL A   1      37.031  22.883  24.704  1.00  0.00     0.244 C 
ATOM      5  O   UNL A   1      36.643  23.319  23.584  1.00  0.00    -0.270 OA
ATOM      6  H   UNL A   1      39.503  22.807  24.716  1.00  0.00     0.163 HD
BRANCH   4   7
ATOM      7  C   UNL A   1      35.510  22.863  25.575  1.00  0.00     0.077 C 
ATOM      8  C   UNL A   1      34.459  22.032  25.773  1.00  0.00     0.077 C 
BRANCH   8   9
ATOM      9  C   UNL A   1      34.226  20.729  25.089  1.00  0.00     0.248 C 
ATOM     10  N   UNL A   1      32.935  20.536  24.729  1.00  0.00    -0.322 N 
ATOM     11  H   UNL A   1      32.551  19.630  24.674  1.00  0.00     0.170 HD
ATOM     12  O   UNL A   1      35.093  19.874  24.999  1.00  0.00    -0.270 OA
BRANCH  10  13
ATOM     13  C   UNL A   1      32.173  21.652  24.443  1.00  0.00     0.042 A 
ATOM     14  C   UNL A   1      31.916  24.289  22.693  1.00  0.00     0.064 A 
ATOM     15  C   UNL A   1      32.443  22.544  22.824  1.00  0.00     0.042 A 
ATOM     16  C   UNL A   1      31.052  25.115  24.072  1.00  0.00     0.050 A 
ATOM     17  C   UNL A   1      30.705  24.169  25.609  1.00  0.00     0.029 A 
ATOM     18  C   UNL A   1      31.295  22.469  25.810  1.00  0.00     0.028 A 
BRANCH  14  19
ATOM     19  C   UNL A   1      32.897  25.062  21.903  1.00  0.00     0.250 C 
ATOM     20  N   UNL A   1      32.363  25.586  20.758  1.00  0.00    -0.366 N 
ATOM     21  H   UNL A   1      32.926  26.120  20.152  1.00  0.00     0.159 HD
ATOM     22  H   UNL A   1      31.416  25.430  20.540  1.00  0.00     0.159 HD
ATOM     23  O   UNL A   1      34.011  25.333  22.314  1.00  0.00    -0.269 OA
ENDBRANCH  14  19
BRANCH  16  24
ATOM     24  N   UNL A   1      30.861  26.505  24.119  1.00  0.00    -0.366 N 
ATOM     25  C   UNL A   1      29.751  27.265  23.503  1.00  0.00     0.145 C 
ATOM     26  C   UNL A   1      31.923  27.379  24.656  1.00  0.00     0.145 C 
ATOM     27  C   UNL A   1      30.276  28.368  22.545  1.00  0.00     0.181 C 
ATOM     28  C   UNL A   1      32.380  28.380  23.588  1.00  0.00     0.181 C 
ATOM     29  O   UNL A   1      31.282  29.194  23.154  1.00  0.00    -0.378 OA
ENDBRANCH  16  24
ENDBRANCH  10  13
ENDBRANCH   8   9
ENDBRANCH   4   7
ENDBRANCH   2   3
ENDBRANCH   1   2
BRANCH   1  30
ATOM     30  C   UNL A   1      41.330  19.852  26.072  1.00  0.00     0.023 C 
BRANCH  30  31
ATOM     31  C   UNL A   1      42.673  19.328  26.503  1.00  0.00     0.116 C 
BRANCH  31  32
ATOM     32  N   UNL A   1      43.456  18.946  25.334  1.00  0.00    -0.352 N 
ATOM     33  C   UNL A   1      44.153  19.765  24.495  1.00  0.00     0.251 C 
ATOM     34  H   UNL A   1      43.485  17.984  25.127  1.00  0.00     0.163 HD
ATOM     35  O   UNL A   1      44.505  19.385  23.387  1.00  0.00    -0.269 OA
BRANCH  33  36
ATOM     36  C   UNL A   1      44.439  21.126  24.962  1.00  0.00     0.039 A 
ATOM     37  C   UNL A   1      43.900  22.198  24.262  1.00  0.00     0.014 A 
ATOM     38  C   UNL A   1      45.193  21.320  26.126  1.00  0.00     0.014 A 
ATOM     39  C   UNL A   1      44.119  23.479  24.743  1.00  0.00     0.010 A 
ATOM     40  C   UNL A   1      45.279  22.579  26.683  1.00  0.00     0.010 A 
ATOM     41  C   UNL A   1      44.786  23.671  25.968  1.00  0.00    -0.014 A 
BRANCH  41  42
ATOM     42  C   UNL A   1      45.000  25.035  26.479  1.00  0.00     0.031 A 
ATOM     43  C   UNL A   1      46.354  25.671  26.367  1.00  0.00     0.074 A 
ATOM     44  C   UNL A   1      43.953  25.682  27.019  1.00  0.00     0.049 A 
ATOM     45  N   UNL A   1      46.708  26.894  26.661  1.00  0.00    -0.248 NA
ATOM     46  C   UNL A   1      47.464  24.829  25.887  1.00  0.00     0.031 C 
ATOM     47  C   UNL A   1      42.623  25.103  27.236  1.00  0.00     0.029 A 
ATOM     48  N   UNL A   1      43.832  26.970  27.457  1.00  0.00    -0.354 N 
ATOM     49  C   UNL A   1      48.071  26.961  26.407  1.00  0.00     0.074 A 
ATOM     50  C   UNL A   1      48.500  25.645  25.999  1.00  0.00     0.031 C 
ATOM     51  C   UNL A   1      41.803  26.054  27.703  1.00  0.00     0.029 A 
ATOM     52  C   UNL A   1      42.561  27.287  27.871  1.00  0.00     0.049 A 
ATOM     53  H   UNL A   1      44.581  27.609  27.475  1.00  0.00     0.167 HD
ATOM     54  C   UNL A   1      48.880  28.040  26.485  1.00  0.00     0.037 A 
ATOM     55  C   UNL A   1      42.075  28.448  28.339  1.00  0.00     0.037 A 
ATOM     56  C   UNL A   1      48.421  29.345  26.873  1.00  0.00     0.049 A 
ATOM     57  C   UNL A   1      43.003  29.630  28.402  1.00  0.00     0.074 A 
ATOM     58  C   UNL A   1      49.133  30.529  26.916  1.00  0.00     0.029 A 
ATOM     59  N   UNL A   1      47.132  29.634  27.301  1.00  0.00    -0.354 N 
ATOM     60  N   UNL A   1      44.266  29.712  28.059  1.00  0.00    -0.248 NA
ATOM     61  C   UNL A   1      42.433  30.884  28.907  1.00  0.00     0.031 C 
ATOM     62  C   UNL A   1      48.301  31.514  27.456  1.00  0.00     0.029 A 
ATOM     63  C   UNL A   1      47.043  30.968  27.658  1.00  0.00     0.049 A 
ATOM     64  H   UNL A   1      46.392  28.986  27.343  1.00  0.00     0.167 HD
ATOM     65  C   UNL A   1      44.639  31.029  28.288  1.00  0.00     0.074 A 
ATOM     66  C   UNL A   1      43.452  31.716  28.756  1.00  0.00     0.031 C 
ATOM     67  C   UNL A   1      45.850  31.620  28.136  1.00  0.00     0.037 A 
BRANCH  54  68
ATOM     68  C   UNL A   1      50.335  27.859  26.165  1.00  0.00     0.064 A 
ATOM     69  C   UNL A   1      51.294  27.611  27.160  1.00  0.00     0.173 A 
ATOM     70  C   UNL A   1      50.763  27.866  24.829  1.00  0.00     0.173 A 
ATOM     71  F   UNL A   1      50.943  27.612  28.454  1.00  0.00    -0.203 F 
ATOM     72  C   UNL A   1      52.627  27.385  26.827  1.00  0.00     0.198 A 
ATOM     73  C   UNL A   1      52.089  27.606  24.499  1.00  0.00     0.198 A 
ATOM     74  F   UNL A   1      49.889  28.108  23.840  1.00  0.00    -0.203 F 
ATOM     75  F   UNL A   1      53.534  27.188  27.795  1.00  0.00    -0.200 F 
ATOM     76  C   UNL A   1      53.021  27.369  25.497  1.00  0.00     0.200 A 
ATOM     77  F   UNL A   1      52.463  27.577  23.212  1.00  0.00    -0.200 F 
ATOM     78  F   UNL A   1      54.299  27.127  25.178  1.00  0.00    -0.200 F 
ENDBRANCH  54  68
BRANCH  55  79
ATOM     79  C   UNL A   1      40.662  28.542  28.790  1.00  0.00     0.064 A 
ATOM     80  C   UNL A   1      39.640  28.956  27.925  1.00  0.00     0.173 A 
ATOM     81  C   UNL A   1      40.310  28.247  30.117  1.00  0.00     0.173 A 
ATOM     82  F   UNL A   1      39.922  29.255  26.648  1.00  0.00    -0.203 F 
ATOM     83  C   UNL A   1      38.333  29.121  28.381  1.00  0.00     0.198 A 
ATOM     84  C   UNL A   1      38.997  28.369  30.559  1.00  0.00     0.198 A 
ATOM     85  F   UNL A   1      41.245  27.831  30.984  1.00  0.00    -0.203 F 
ATOM     86  F   UNL A   1      37.392  29.594  27.553  1.00  0.00    -0.200 F 
ATOM     87  C   UNL A   1      38.012  28.825  29.697  1.00  0.00     0.200 A 
ATOM     88  F   UNL A   1      38.688  28.054  31.825  1.00  0.00    -0.200 F 
ATOM     89  F   UNL A   1      36.758  28.989  30.137  1.00  0.00    -0.200 F 
ENDBRANCH  55  79
BRANCH  67  90
ATOM     90  C   UNL A   1      45.933  33.085  28.460  1.00  0.00     0.064 A 
ATOM     91  C   UNL A   1      46.284  33.541  29.740  1.00  0.00     0.173 A 
ATOM     92  C   UNL A   1      45.651  34.046  27.477  1.00  0.00     0.173 A 
ATOM     93  F   UNL A   1      46.555  32.664  30.719  1.00  0.00    -0.203 F 
ATOM     94  C   UNL A   1      46.288  34.900  30.039  1.00  0.00     0.198 A 
ATOM     95  C   UNL A   1      45.707  35.405  27.765  1.00  0.00     0.198 A 
ATOM     96  F   UNL A   1      45.325  33.667  26.231  1.00  0.00    -0.203 F 
ATOM     97  F   UNL A   1      46.536  35.305  31.292  1.00  0.00    -0.200 F 
ATOM     98  C   UNL A   1      46.006  35.830  29.051  1.00  0.00     0.200 A 
ATOM     99  F   UNL A   1      45.460  36.303  26.803  1.00  0.00    -0.200 F 
ATOM    100  F   UNL A   1      46.008  37.138  29.342  1.00  0.00    -0.200 F 
ENDBRANCH  67  90
ENDBRANCH  41  42
ENDBRANCH  33  36
ENDBRANCH  31  32
ENDBRANCH  30  31
ENDBRANCH   1  30
TORSDOF 15
ENDMDL
MODEL 3
REMARK VINA RESULT:     -13.8      1.076      2.007
REMARK SMILES NC(=O)c1cc(NC(=O)/C=C\C(=O)NCCCCNC(=O)c2ccc(-c3c4nc(c(-c5c(F)c(F)c(F)c(F)c5F)c5ccc([nH]5)c(-c5c(F)c(F)c(F)c(F)c5F)c5nc(c(-c6c(F)c(F)c(F)c(F)c6F)c6ccc3[nH]6)C=C5)C=C4)cc2)ccc1N1CCOCC1
REMARK SMILES IDX 16 1 15 2 14 3 12 4 13 5 11 7 10 8 8 9 7 10 9 12 6 13 4 14
REMARK SMILES IDX 5 15 87 16 86 17 85 18 2 19 1 20 3 23 88 24 89 25 93 26
REMARK SMILES IDX 90 27 92 28 91 29 17 30 18 31 19 32 20 33 21 35 22 36 23 37
REMARK SMILES IDX 84 38 24 39 83 40 25 41 26 42 27 43 77 44 28 45 82 46 76 47
REMARK SMILES IDX 78 48 29 49 81 50 75 51 74 52 30 54 62 55 42 56 61 57 43 58
REMARK SMILES IDX 46 59 60 60 79 61 44 62 45 63 59 65 80 66 47 67 31 68 32 69
REMARK SMILES IDX 40 70 33 71 34 72 38 73 41 74 35 75 36 76 39 77 37 78 63 79
REMARK SMILES IDX 64 80 72 81 65 82 66 83 70 84 73 85 67 86 68 87 71 88 69 89
REMARK SMILES IDX 48 90 49 91 57 92 50 93 51 94 55 95 58 96 52 97 53 98 56 99
REMARK SMILES IDX 54 100
REMARK H PARENT 14 6 7 11 1 21 1 22 19 34 78 53 46 64
REMARK Flexibility Score: inf
ROOT
ATOM      1  C   UNL A   1      34.051  34.194  29.155  1.00  0.00     0.023 C 
ENDROOT
BRANCH   1   2
ATOM      2  C   UNL A   1      34.159  33.282  27.892  1.00  0.00     0.116 C 
BRANCH   2   3
ATOM      3  N   UNL A   1      35.373  32.093  27.744  1.00  0.00    -0.353 N 
ATOM      4  C   UNL A   1      35.648  30.141  27.616  1.00  0.00     0.244 C 
ATOM      5  O   UNL A   1      36.707  29.455  27.629  1.00  0.00    -0.270 OA
ATOM      6  H   UNL A   1      36.251  32.538  27.711  1.00  0.00     0.163 HD
BRANCH   4   7
ATOM      7  C   UNL A   1      34.468  28.888  27.288  1.00  0.00     0.077 C 
ATOM      8  C   UNL A   1      33.252  28.758  26.704  1.00  0.00     0.077 C 
BRANCH   8   9
ATOM      9  C   UNL A   1      32.397  29.868  26.197  1.00  0.00     0.248 C 
ATOM     10  N   UNL A   1      32.162  29.799  24.866  1.00  0.00    -0.322 N 
ATOM     11  H   UNL A   1      32.005  30.612  24.332  1.00  0.00     0.170 HD
ATOM     12  O   UNL A   1      32.070  30.814  26.898  1.00  0.00    -0.270 OA
BRANCH  10  13
ATOM     13  C   UNL A   1      32.151  28.548  24.279  1.00  0.00     0.042 A 
ATOM     14  C   UNL A   1      31.350  25.493  24.602  1.00  0.00     0.064 A 
ATOM     15  C   UNL A   1      30.974  27.251  24.930  1.00  0.00     0.042 A 
ATOM     16  C   UNL A   1      32.780  25.013  23.578  1.00  0.00     0.050 A 
ATOM     17  C   UNL A   1      33.852  26.324  22.862  1.00  0.00     0.029 A 
ATOM     18  C   UNL A   1      33.566  28.071  23.242  1.00  0.00     0.028 A 
BRANCH  14  19
ATOM     19  C   UNL A   1      31.012  24.669  25.783  1.00  0.00     0.250 C 
ATOM     20  N   UNL A   1      30.217  23.600  25.475  1.00  0.00    -0.366 N 
ATOM     21  H   UNL A   1      29.927  22.981  26.183  1.00  0.00     0.159 HD
ATOM     22  H   UNL A   1      29.935  23.448  24.544  1.00  0.00     0.159 HD
ATOM     23  O   UNL A   1      31.521  24.839  26.876  1.00  0.00    -0.269 OA
ENDBRANCH  14  19
BRANCH  16  24
ATOM     24  N   UNL A   1      33.255  23.694  23.512  1.00  0.00    -0.366 N 
ATOM     25  C   UNL A   1      32.757  22.620  22.624  1.00  0.00     0.145 C 
ATOM     26  C   UNL A   1      34.212  23.202  24.522  1.00  0.00     0.145 C 
ATOM     27  C   UNL A   1      32.315  21.369  23.432  1.00  0.00     0.181 C 
ATOM     28  C   UNL A   1      33.623  22.002  25.276  1.00  0.00     0.181 C 
ATOM     29  O   UNL A   1      33.315  20.936  24.368  1.00  0.00    -0.378 OA
ENDBRANCH  16  24
ENDBRANCH  10  13
ENDBRANCH   8   9
ENDBRANCH   4   7
ENDBRANCH   2   3
ENDBRANCH   1   2
BRANCH   1  30
ATOM     30  C   UNL A   1      33.198  35.455  29.027  1.00  0.00     0.023 C 
BRANCH  30  31
ATOM     31  C   UNL A   1      33.508  36.403  30.154  1.00  0.00     0.116 C 
BRANCH  31  32
ATOM     32  N   UNL A   1      32.494  36.288  31.194  1.00  0.00    -0.352 N 
ATOM     33  C   UNL A   1      32.497  35.451  32.271  1.00  0.00     0.251 C 
ATOM     34  H   UNL A   1      31.715  36.885  31.109  1.00  0.00     0.163 HD
ATOM     35  O   UNL A   1      31.470  35.216  32.893  1.00  0.00    -0.269 OA
BRANCH  33  36
ATOM     36  C   UNL A   1      33.772  34.823  32.636  1.00  0.00     0.039 A 
ATOM     37  C   UNL A   1      33.788  33.462  32.917  1.00  0.00     0.014 A 
ATOM     38  C   UNL A   1      34.948  35.583  32.637  1.00  0.00     0.014 A 
ATOM     39  C   UNL A   1      35.004  32.861  33.198  1.00  0.00     0.010 A 
ATOM     40  C   UNL A   1      36.168  34.952  32.766  1.00  0.00     0.010 A 
ATOM     41  C   UNL A   1      36.200  33.598  33.098  1.00  0.00    -0.014 A 
BRANCH  41  42
ATOM     42  C   UNL A   1      37.488  32.945  33.382  1.00  0.00     0.031 A 
ATOM     43  C   UNL A   1      38.222  33.264  34.650  1.00  0.00     0.074 A 
ATOM     44  C   UNL A   1      37.960  32.056  32.492  1.00  0.00     0.049 A 
ATOM     45  N   UNL A   1      39.311  32.716  35.123  1.00  0.00    -0.248 NA
ATOM     46  C   UNL A   1      37.690  34.352  35.490  1.00  0.00     0.031 C 
ATOM     47  C   UNL A   1      37.343  31.750  31.197  1.00  0.00     0.029 A 
ATOM     48  N   UNL A   1      39.046  31.229  32.548  1.00  0.00    -0.354 N 
ATOM     49  C   UNL A   1      39.589  33.393  36.303  1.00  0.00     0.074 A 
ATOM     50  C   UNL A   1      38.602  34.435  36.447  1.00  0.00     0.031 C 
ATOM     51  C   UNL A   1      38.024  30.754  30.613  1.00  0.00     0.029 A 
ATOM     52  C   UNL A   1      39.151  30.395  31.463  1.00  0.00     0.049 A 
ATOM     53  H   UNL A   1      39.690  31.232  33.293  1.00  0.00     0.167 HD
ATOM     54  C   UNL A   1      40.572  33.141  37.195  1.00  0.00     0.037 A 
ATOM     55  C   UNL A   1      40.067  29.450  31.192  1.00  0.00     0.037 A 
ATOM     56  C   UNL A   1      41.529  32.081  37.037  1.00  0.00     0.049 A 
ATOM     57  C   UNL A   1      41.140  29.191  32.213  1.00  0.00     0.074 A 
ATOM     58  C   UNL A   1      42.522  31.683  37.912  1.00  0.00     0.029 A 
ATOM     59  N   UNL A   1      41.621  31.260  35.921  1.00  0.00    -0.354 N 
ATOM     60  N   UNL A   1      41.334  29.764  33.377  1.00  0.00    -0.248 NA
ATOM     61  C   UNL A   1      42.115  28.144  31.888  1.00  0.00     0.031 C 
ATOM     62  C   UNL A   1      43.273  30.683  37.287  1.00  0.00     0.029 A 
ATOM     63  C   UNL A   1      42.689  30.391  36.064  1.00  0.00     0.049 A 
ATOM     64  H   UNL A   1      41.017  31.292  35.144  1.00  0.00     0.167 HD
ATOM     65  C   UNL A   1      42.440  29.136  33.932  1.00  0.00     0.074 A 
ATOM     66  C   UNL A   1      42.843  28.109  32.993  1.00  0.00     0.031 C 
ATOM     67  C   UNL A   1      43.074  29.387  35.104  1.00  0.00     0.037 A 
BRANCH  54  68
ATOM     68  C   UNL A   1      40.675  34.024  38.403  1.00  0.00     0.064 A 
ATOM     69  C   UNL A   1      40.016  33.726  39.606  1.00  0.00     0.173 A 
ATOM     70  C   UNL A   1      41.508  35.153  38.375  1.00  0.00     0.173 A 
ATOM     71  F   UNL A   1      39.192  32.670  39.684  1.00  0.00    -0.203 F 
ATOM     72  C   UNL A   1      40.180  34.531  40.731  1.00  0.00     0.198 A 
ATOM     73  C   UNL A   1      41.697  35.934  39.511  1.00  0.00     0.198 A 
ATOM     74  F   UNL A   1      42.155  35.488  37.248  1.00  0.00    -0.203 F 
ATOM     75  F   UNL A   1      39.511  34.250  41.858  1.00  0.00    -0.200 F 
ATOM     76  C   UNL A   1      41.031  35.625  40.686  1.00  0.00     0.200 A 
ATOM     77  F   UNL A   1      42.531  36.982  39.468  1.00  0.00    -0.200 F 
ATOM     78  F   UNL A   1      41.208  36.384  41.776  1.00  0.00    -0.200 F 
ENDBRANCH  54  68
BRANCH  55  79
ATOM     79  C   UNL A   1      40.015  28.702  29.908  1.00  0.00     0.064 A 
ATOM     80  C   UNL A   1      39.416  27.439  29.818  1.00  0.00     0.173 A 
ATOM     81  C   UNL A   1      40.600  29.229  28.746  1.00  0.00     0.173 A 
ATOM     82  F   UNL A   1      38.847  26.887  30.900  1.00  0.00    -0.203 F 
ATOM     83  C   UNL A   1      39.447  26.710  28.630  1.00  0.00     0.198 A 
ATOM     84  C   UNL A   1      40.591  28.520  27.549  1.00  0.00     0.198 A 
ATOM     85  F   UNL A   1      41.174  30.441  28.771  1.00  0.00    -0.203 F 
ATOM     86  F   UNL A   1      38.936  25.472  28.593  1.00  0.00    -0.200 F 
ATOM     87  C   UNL A   1      40.032  27.252  27.496  1.00  0.00     0.200 A 
ATOM     88  F   UNL A   1      41.133  29.061  26.449  1.00  0.00    -0.200 F 
ATOM     89  F   UNL A   1      40.068  26.550  26.356  1.00  0.00    -0.200 F 
ENDBRANCH  55  79
BRANCH  67  90
ATOM     90  C   UNL A   1      44.253  28.516  35.435  1.00  0.00     0.064 A 
ATOM     91  C   UNL A   1      44.107  27.312  36.141  1.00  0.00     0.173 A 
ATOM     92  C   UNL A   1      45.546  28.894  35.045  1.00  0.00     0.173 A 
ATOM     93  F   UNL A   1      42.892  26.907  36.545  1.00  0.00    -0.203 F 
ATOM     94  C   UNL A   1      45.217  26.553  36.498  1.00  0.00     0.198 A 
ATOM     95  C   UNL A   1      46.649  28.107  35.359  1.00  0.00     0.198 A 
ATOM     96  F   UNL A   1      45.743  30.028  34.354  1.00  0.00    -0.203 F 
ATOM     97  F   UNL A   1      45.060  25.456  37.253  1.00  0.00    -0.200 F 
ATOM     98  C   UNL A   1      46.485  26.948  36.102  1.00  0.00     0.200 A 
ATOM     99  F   UNL A   1      47.871  28.476  34.953  1.00  0.00    -0.200 F 
ATOM    100  F   UNL A   1      47.554  26.217  36.449  1.00  0.00    -0.200 F 
ENDBRANCH  67  90
ENDBRANCH  41  42
ENDBRANCH  33  36
ENDBRANCH  31  32
ENDBRANCH  30  31
ENDBRANCH   1  30
TORSDOF 15
ENDMDL
