MODEL 1
REMARK VINA RESULT:     -10.8      0.000      0.000
REMARK SMILES O=C(CCCC[C@H](O)c1ccc(Cl)s1)NCCCCNC(=O)c1ccc(-c2c3nc(c(-c4c(F)c(F)c(F)c(F)c4F)c4ccc([nH]4)c(-c4c(F)c(F)c(F)c(F)c4F)c4nc(c(-c5c(F)c(F)c(F)c(F)c5F)c5ccc2[nH]5)C=C4)C=C3)cc1
REMARK SMILES IDX 16 1 15 2 1 3 2 4 3 6 4 7 5 8 6 9 7 10 9 11 10 12 14 13
REMARK SMILES IDX 11 14 12 15 13 16 8 17 17 19 18 20 19 21 20 22 21 23 22 25
REMARK SMILES IDX 23 26 24 27 85 28 25 29 84 30 26 31 27 32 28 33 78 34 29 35
REMARK SMILES IDX 83 36 77 37 79 38 30 39 82 40 76 41 75 42 31 44 63 45 43 46
REMARK SMILES IDX 62 47 44 48 47 49 61 50 80 51 45 52 46 53 60 55 81 56 48 57
REMARK SMILES IDX 32 58 33 59 41 60 34 61 35 62 39 63 42 64 36 65 37 66 40 67
REMARK SMILES IDX 38 68 64 69 65 70 73 71 66 72 67 73 71 74 74 75 68 76 69 77
REMARK SMILES IDX 72 78 70 79 49 80 50 81 58 82 51 83 52 84 56 85 59 86 53 87
REMARK SMILES IDX 54 88 57 89 55 90
REMARK H PARENT 15 5 8 18 20 24 79 43 47 54
REMARK Flexibility Score: inf
ROOT
ATOM      1  C   UNL A   1      31.984  29.725  27.037  1.00  0.00     0.116 C 
ENDROOT
BRANCH   1   2
ATOM      2  N   UNL A   1      32.924  28.780  26.472  1.00  0.00    -0.356 N 
ATOM      3  O   UNL A   1      31.621  26.923  26.820  1.00  0.00    -0.275 OA
ATOM      4  C   UNL A   1      32.643  27.436  26.377  1.00  0.00     0.219 C 
ATOM      5  H   UNL A   1      33.793  29.109  26.146  1.00  0.00     0.163 HD
BRANCH   4   6
ATOM      6  C   UNL A   1      33.698  26.633  25.646  1.00  0.00     0.100 C 
BRANCH   6   7
ATOM      7  C   UNL A   1      33.616  25.140  25.975  1.00  0.00     0.010 C 
BRANCH   7   8
ATOM      8  C   UNL A   1      33.793  24.169  24.797  1.00  0.00     0.004 C 
BRANCH   8   9
ATOM      9  C   UNL A   1      33.838  24.774  23.386  1.00  0.00     0.037 C 
BRANCH   9  10
ATOM     10  C   UNL A   1      32.575  24.542  22.546  1.00  0.00     0.154 C 
BRANCH  10  11
ATOM     11  C   UNL A   1      31.450  25.459  22.958  1.00  0.00     0.035 A 
ATOM     12  C   UNL A   1      30.334  25.146  23.716  1.00  0.00     0.020 A 
ATOM     13  S   UNL A   1      31.434  27.120  22.496  1.00  0.00    -0.126 S 
ATOM     14  C   UNL A   1      29.463  26.263  23.895  1.00  0.00     0.033 A 
ATOM     15  C   UNL A   1      29.956  27.379  23.272  1.00  0.00     0.093 A 
ATOM     16  Cl  UNL A   1      29.227  28.933  23.223  1.00  0.00    -0.072 Cl
ENDBRANCH  10  11
BRANCH  10  17
ATOM     17  O   UNL A   1      32.832  24.766  21.168  1.00  0.00    -0.388 OA
ATOM     18  H   UNL A   1      32.560  23.987  20.658  1.00  0.00     0.211 HD
ENDBRANCH  10  17
ENDBRANCH   9  10
ENDBRANCH   8   9
ENDBRANCH   7   8
ENDBRANCH   6   7
ENDBRANCH   4   6
ENDBRANCH   1   2
BRANCH   1  19
ATOM     19  C   UNL A   1      31.480  30.735  26.008  1.00  0.00     0.023 C 
BRANCH  19  20
ATOM     20  C   UNL A   1      31.298  32.165  26.524  1.00  0.00     0.023 C 
BRANCH  20  21
ATOM     21  C   UNL A   1      32.515  32.781  27.209  1.00  0.00     0.116 C 
BRANCH  21  22
ATOM     22  N   UNL A   1      32.302  34.164  27.600  1.00  0.00    -0.352 N 
ATOM     23  C   UNL A   1      32.941  34.921  28.550  1.00  0.00     0.251 C 
ATOM     24  H   UNL A   1      31.588  34.631  27.108  1.00  0.00     0.163 HD
ATOM     25  O   UNL A   1      32.504  36.037  28.837  1.00  0.00    -0.269 OA
BRANCH  23  26
ATOM     26  C   UNL A   1      34.134  34.407  29.258  1.00  0.00     0.039 A 
ATOM     27  C   UNL A   1      33.970  33.829  30.521  1.00  0.00     0.014 A 
ATOM     28  C   UNL A   1      35.413  34.514  28.705  1.00  0.00     0.014 A 
ATOM     29  C   UNL A   1      35.072  33.294  31.195  1.00  0.00     0.010 A 
ATOM     30  C   UNL A   1      36.501  33.920  29.346  1.00  0.00     0.010 A 
ATOM     31  C   UNL A   1      36.342  33.301  30.595  1.00  0.00    -0.014 A 
BRANCH  31  32
ATOM     32  C   UNL A   1      37.508  32.653  31.253  1.00  0.00     0.031 A 
ATOM     33  C   UNL A   1      38.231  31.520  30.580  1.00  0.00     0.074 A 
ATOM     34  C   UNL A   1      37.875  33.042  32.490  1.00  0.00     0.049 A 
ATOM     35  N   UNL A   1      39.217  30.783  31.029  1.00  0.00    -0.248 NA
ATOM     36  C   UNL A   1      37.771  31.148  29.235  1.00  0.00     0.031 C 
ATOM     37  C   UNL A   1      37.233  34.101  33.269  1.00  0.00     0.029 A 
ATOM     38  N   UNL A   1      38.873  32.583  33.316  1.00  0.00    -0.354 N 
ATOM     39  C   UNL A   1      39.480  29.853  30.032  1.00  0.00     0.074 A 
ATOM     40  C   UNL A   1      38.522  30.088  28.973  1.00  0.00     0.031 C 
ATOM     41  C   UNL A   1      37.864  34.226  34.447  1.00  0.00     0.029 A 
ATOM     42  C   UNL A   1      38.929  33.231  34.526  1.00  0.00     0.049 A 
ATOM     43  H   UNL A   1      39.490  31.858  33.064  1.00  0.00     0.167 HD
ATOM     44  C   UNL A   1      40.447  28.903  29.993  1.00  0.00     0.037 A 
ATOM     45  C   UNL A   1      39.741  33.040  35.583  1.00  0.00     0.037 A 
ATOM     46  C   UNL A   1      41.419  28.690  31.034  1.00  0.00     0.049 A 
ATOM     47  C   UNL A   1      40.799  31.971  35.517  1.00  0.00     0.074 A 
ATOM     48  C   UNL A   1      42.479  27.799  31.056  1.00  0.00     0.029 A 
ATOM     49  N   UNL A   1      41.450  29.375  32.240  1.00  0.00    -0.354 N 
ATOM     50  N   UNL A   1      41.080  31.143  34.542  1.00  0.00    -0.248 NA
ATOM     51  C   UNL A   1      41.655  31.815  36.702  1.00  0.00     0.031 C 
ATOM     52  C   UNL A   1      43.119  27.908  32.293  1.00  0.00     0.029 A 
ATOM     53  C   UNL A   1      42.493  28.906  33.024  1.00  0.00     0.049 A 
ATOM     54  H   UNL A   1      40.825  30.088  32.501  1.00  0.00     0.167 HD
ATOM     55  C   UNL A   1      42.161  30.391  34.979  1.00  0.00     0.074 A 
ATOM     56  C   UNL A   1      42.494  30.868  36.305  1.00  0.00     0.031 C 
ATOM     57  C   UNL A   1      42.820  29.394  34.338  1.00  0.00     0.037 A 
BRANCH  44  58
ATOM     58  C   UNL A   1      40.502  28.015  28.784  1.00  0.00     0.064 A 
ATOM     59  C   UNL A   1      41.264  28.352  27.655  1.00  0.00     0.173 A 
ATOM     60  C   UNL A   1      39.817  26.790  28.770  1.00  0.00     0.173 A 
ATOM     61  F   UNL A   1      41.931  29.516  27.613  1.00  0.00    -0.203 F 
ATOM     62  C   UNL A   1      41.316  27.509  26.547  1.00  0.00     0.198 A 
ATOM     63  C   UNL A   1      39.896  25.936  27.672  1.00  0.00     0.198 A 
ATOM     64  F   UNL A   1      39.079  26.416  29.826  1.00  0.00    -0.203 F 
ATOM     65  F   UNL A   1      42.012  27.875  25.462  1.00  0.00    -0.200 F 
ATOM     66  C   UNL A   1      40.638  26.300  26.559  1.00  0.00     0.200 A 
ATOM     67  F   UNL A   1      39.251  24.761  27.693  1.00  0.00    -0.200 F 
ATOM     68  F   UNL A   1      40.696  25.487  25.496  1.00  0.00    -0.200 F 
ENDBRANCH  44  58
BRANCH  45  69
ATOM     69  C   UNL A   1      39.602  33.896  36.790  1.00  0.00     0.064 A 
ATOM     70  C   UNL A   1      38.803  33.493  37.869  1.00  0.00     0.173 A 
ATOM     71  C   UNL A   1      40.252  35.135  36.887  1.00  0.00     0.173 A 
ATOM     72  F   UNL A   1      38.142  32.326  37.812  1.00  0.00    -0.203 F 
ATOM     73  C   UNL A   1      38.644  34.304  38.991  1.00  0.00     0.198 A 
ATOM     74  C   UNL A   1      40.116  35.932  38.021  1.00  0.00     0.198 A 
ATOM     75  F   UNL A   1      41.030  35.566  35.883  1.00  0.00    -0.203 F 
ATOM     76  F   UNL A   1      37.837  33.914  39.986  1.00  0.00    -0.200 F 
ATOM     77  C   UNL A   1      39.305  35.519  39.069  1.00  0.00     0.200 A 
ATOM     78  F   UNL A   1      40.766  37.101  38.098  1.00  0.00    -0.200 F 
ATOM     79  F   UNL A   1      39.154  36.299  40.149  1.00  0.00    -0.200 F 
ENDBRANCH  45  69
BRANCH  57  80
ATOM     80  C   UNL A   1      43.993  28.777  35.045  1.00  0.00     0.064 A 
ATOM     81  C   UNL A   1      43.849  27.645  35.862  1.00  0.00     0.173 A 
ATOM     82  C   UNL A   1      45.282  29.303  34.871  1.00  0.00     0.173 A 
ATOM     83  F   UNL A   1      42.635  27.115  36.073  1.00  0.00    -0.203 F 
ATOM     84  C   UNL A   1      44.950  27.079  36.499  1.00  0.00     0.198 A 
ATOM     85  C   UNL A   1      46.385  28.715  35.485  1.00  0.00     0.198 A 
ATOM     86  F   UNL A   1      45.475  30.380  34.096  1.00  0.00    -0.203 F 
ATOM     87  F   UNL A   1      44.782  26.027  37.312  1.00  0.00    -0.200 F 
ATOM     88  C   UNL A   1      46.218  27.609  36.304  1.00  0.00     0.200 A 
ATOM     89  F   UNL A   1      47.610  29.220  35.284  1.00  0.00    -0.200 F 
ATOM     90  F   UNL A   1      47.276  27.056  36.911  1.00  0.00    -0.200 F 
ENDBRANCH  57  80
ENDBRANCH  31  32
ENDBRANCH  23  26
ENDBRANCH  21  22
ENDBRANCH  20  21
ENDBRANCH  19  20
ENDBRANCH   1  19
TORSDOF 17
ENDMDL
MODEL 2
REMARK VINA RESULT:     -10.8      1.275      2.129
REMARK SMILES O=C(CCCC[C@H](O)c1ccc(Cl)s1)NCCCCNC(=O)c1ccc(-c2c3nc(c(-c4c(F)c(F)c(F)c(F)c4F)c4ccc([nH]4)c(-c4c(F)c(F)c(F)c(F)c4F)c4nc(c(-c5c(F)c(F)c(F)c(F)c5F)c5ccc2[nH]5)C=C4)C=C3)cc1
REMARK SMILES IDX 16 1 15 2 1 3 2 4 3 6 4 7 5 8 6 9 7 10 9 11 10 12 14 13
REMARK SMILES IDX 11 14 12 15 13 16 8 17 17 19 18 20 19 21 20 22 21 23 22 25
REMARK SMILES IDX 23 26 24 27 85 28 25 29 84 30 26 31 27 32 28 33 78 34 29 35
REMARK SMILES IDX 83 36 77 37 79 38 30 39 82 40 76 41 75 42 31 44 63 45 43 46
REMARK SMILES IDX 62 47 44 48 47 49 61 50 80 51 45 52 46 53 60 55 81 56 48 57
REMARK SMILES IDX 32 58 33 59 41 60 34 61 35 62 39 63 42 64 36 65 37 66 40 67
REMARK SMILES IDX 38 68 64 69 65 70 73 71 66 72 67 73 71 74 74 75 68 76 69 77
REMARK SMILES IDX 72 78 70 79 49 80 50 81 58 82 51 83 52 84 56 85 59 86 53 87
REMARK SMILES IDX 54 88 57 89 55 90
REMARK H PARENT 15 5 8 18 20 24 79 43 47 54
REMARK Flexibility Score: inf
ROOT
ATOM      1  C   UNL A   1      31.977  29.731  26.885  1.00  0.00     0.116 C 
ENDROOT
BRANCH   1   2
ATOM      2  N   UNL A   1      31.542  28.423  26.441  1.00  0.00    -0.356 N 
ATOM      3  O   UNL A   1      33.619  27.450  26.517  1.00  0.00    -0.275 OA
ATOM      4  C   UNL A   1      32.411  27.363  26.326  1.00  0.00     0.219 C 
ATOM      5  H   UNL A   1      30.593  28.289  26.213  1.00  0.00     0.163 HD
BRANCH   4   6
ATOM      6  C   UNL A   1      31.744  26.051  25.967  1.00  0.00     0.100 C 
BRANCH   6   7
ATOM      7  C   UNL A   1      30.252  26.225  25.671  1.00  0.00     0.010 C 
BRANCH   7   8
ATOM      8  C   UNL A   1      29.838  26.181  24.192  1.00  0.00     0.004 C 
BRANCH   8   9
ATOM      9  C   UNL A   1      29.045  27.378  23.646  1.00  0.00     0.037 C 
BRANCH   9  10
ATOM     10  C   UNL A   1      29.861  28.348  22.780  1.00  0.00     0.154 C 
BRANCH  10  11
ATOM     11  C   UNL A   1      29.190  29.693  22.660  1.00  0.00     0.035 A 
ATOM     12  C   UNL A   1      28.661  30.472  23.675  1.00  0.00     0.020 A 
ATOM     13  S   UNL A   1      28.996  30.463  21.130  1.00  0.00    -0.126 S 
ATOM     14  C   UNL A   1      28.082  31.684  23.191  1.00  0.00     0.033 A 
ATOM     15  C   UNL A   1      28.200  31.779  21.829  1.00  0.00     0.093 A 
ATOM     16  Cl  UNL A   1      27.634  33.060  20.837  1.00  0.00    -0.072 Cl
ENDBRANCH  10  11
BRANCH  10  17
ATOM     17  O   UNL A   1      31.153  28.557  23.329  1.00  0.00    -0.388 OA
ATOM     18  H   UNL A   1      31.118  28.441  24.292  1.00  0.00     0.211 HD
ENDBRANCH  10  17
ENDBRANCH   9  10
ENDBRANCH   8   9
ENDBRANCH   7   8
ENDBRANCH   6   7
ENDBRANCH   4   6
ENDBRANCH   1   2
BRANCH   1  19
ATOM     19  C   UNL A   1      31.528  30.847  25.944  1.00  0.00     0.023 C 
BRANCH  19  20
ATOM     20  C   UNL A   1      31.312  32.214  26.601  1.00  0.00     0.023 C 
BRANCH  20  21
ATOM     21  C   UNL A   1      32.543  32.835  27.252  1.00  0.00     0.116 C 
BRANCH  21  22
ATOM     22  N   UNL A   1      32.336  34.220  27.643  1.00  0.00    -0.352 N 
ATOM     23  C   UNL A   1      32.974  34.973  28.596  1.00  0.00     0.251 C 
ATOM     24  H   UNL A   1      31.629  34.692  27.146  1.00  0.00     0.163 HD
ATOM     25  O   UNL A   1      32.542  36.092  28.881  1.00  0.00    -0.269 OA
BRANCH  23  26
ATOM     26  C   UNL A   1      34.160  34.452  29.312  1.00  0.00     0.039 A 
ATOM     27  C   UNL A   1      33.976  33.804  30.538  1.00  0.00     0.014 A 
ATOM     28  C   UNL A   1      35.451  34.619  28.802  1.00  0.00     0.014 A 
ATOM     29  C   UNL A   1      35.072  33.263  31.214  1.00  0.00     0.010 A 
ATOM     30  C   UNL A   1      36.535  34.019  29.443  1.00  0.00     0.010 A 
ATOM     31  C   UNL A   1      36.357  33.332  30.653  1.00  0.00    -0.014 A 
BRANCH  31  32
ATOM     32  C   UNL A   1      37.521  32.679  31.311  1.00  0.00     0.031 A 
ATOM     33  C   UNL A   1      38.236  31.539  30.640  1.00  0.00     0.074 A 
ATOM     34  C   UNL A   1      37.894  33.069  32.545  1.00  0.00     0.049 A 
ATOM     35  N   UNL A   1      39.218  30.797  31.089  1.00  0.00    -0.248 NA
ATOM     36  C   UNL A   1      37.770  31.165  29.297  1.00  0.00     0.031 C 
ATOM     37  C   UNL A   1      37.260  34.135  33.322  1.00  0.00     0.029 A 
ATOM     38  N   UNL A   1      38.891  32.607  33.370  1.00  0.00    -0.354 N 
ATOM     39  C   UNL A   1      39.473  29.862  30.095  1.00  0.00     0.074 A 
ATOM     40  C   UNL A   1      38.514  30.099  29.037  1.00  0.00     0.031 C 
ATOM     41  C   UNL A   1      37.894  34.260  34.498  1.00  0.00     0.029 A 
ATOM     42  C   UNL A   1      38.953  33.259  34.578  1.00  0.00     0.049 A 
ATOM     43  H   UNL A   1      39.502  31.877  33.120  1.00  0.00     0.167 HD
ATOM     44  C   UNL A   1      40.434  28.907  30.057  1.00  0.00     0.037 A 
ATOM     45  C   UNL A   1      39.767  33.067  35.634  1.00  0.00     0.037 A 
ATOM     46  C   UNL A   1      41.407  28.691  31.095  1.00  0.00     0.049 A 
ATOM     47  C   UNL A   1      40.818  31.991  35.569  1.00  0.00     0.074 A 
ATOM     48  C   UNL A   1      42.461  27.794  31.118  1.00  0.00     0.029 A 
ATOM     49  N   UNL A   1      41.446  29.380  32.299  1.00  0.00    -0.354 N 
ATOM     50  N   UNL A   1      41.092  31.158  34.596  1.00  0.00    -0.248 NA
ATOM     51  C   UNL A   1      41.676  31.833  36.753  1.00  0.00     0.031 C 
ATOM     52  C   UNL A   1      43.105  27.903  32.354  1.00  0.00     0.029 A 
ATOM     53  C   UNL A   1      42.488  28.907  33.082  1.00  0.00     0.049 A 
ATOM     54  H   UNL A   1      40.825  30.098  32.559  1.00  0.00     0.167 HD
ATOM     55  C   UNL A   1      42.169  30.401  35.034  1.00  0.00     0.074 A 
ATOM     56  C   UNL A   1      42.508  30.880  36.357  1.00  0.00     0.031 C 
ATOM     57  C   UNL A   1      42.821  29.398  34.394  1.00  0.00     0.037 A 
BRANCH  44  58
ATOM     58  C   UNL A   1      40.480  28.014  28.850  1.00  0.00     0.064 A 
ATOM     59  C   UNL A   1      41.249  28.338  27.722  1.00  0.00     0.173 A 
ATOM     60  C   UNL A   1      39.781  26.797  28.838  1.00  0.00     0.173 A 
ATOM     61  F   UNL A   1      41.930  29.494  27.677  1.00  0.00    -0.203 F 
ATOM     62  C   UNL A   1      41.292  27.491  26.617  1.00  0.00     0.198 A 
ATOM     63  C   UNL A   1      39.851  25.939  27.744  1.00  0.00     0.198 A 
ATOM     64  F   UNL A   1      39.036  26.435  29.894  1.00  0.00    -0.203 F 
ATOM     65  F   UNL A   1      41.995  27.846  25.531  1.00  0.00    -0.200 F 
ATOM     66  C   UNL A   1      40.600  26.290  26.631  1.00  0.00     0.200 A 
ATOM     67  F   UNL A   1      39.193  24.772  27.767  1.00  0.00    -0.200 F 
ATOM     68  F   UNL A   1      40.650  25.474  25.570  1.00  0.00    -0.200 F 
ENDBRANCH  44  58
BRANCH  45  69
ATOM     69  C   UNL A   1      39.637  33.928  36.838  1.00  0.00     0.064 A 
ATOM     70  C   UNL A   1      38.850  33.525  37.927  1.00  0.00     0.173 A 
ATOM     71  C   UNL A   1      40.282  35.169  36.923  1.00  0.00     0.173 A 
ATOM     72  F   UNL A   1      38.194  32.355  37.882  1.00  0.00    -0.203 F 
ATOM     73  C   UNL A   1      38.698  34.340  39.047  1.00  0.00     0.198 A 
ATOM     74  C   UNL A   1      40.153  35.971  38.055  1.00  0.00     0.198 A 
ATOM     75  F   UNL A   1      41.047  35.600  35.909  1.00  0.00    -0.203 F 
ATOM     76  F   UNL A   1      37.904  33.952  40.052  1.00  0.00    -0.200 F 
ATOM     77  C   UNL A   1      39.355  35.560  39.113  1.00  0.00     0.200 A 
ATOM     78  F   UNL A   1      40.798  37.144  38.120  1.00  0.00    -0.200 F 
ATOM     79  F   UNL A   1      39.211  36.344  40.190  1.00  0.00    -0.200 F 
ENDBRANCH  45  69
BRANCH  57  80
ATOM     80  C   UNL A   1      43.991  28.776  35.100  1.00  0.00     0.064 A 
ATOM     81  C   UNL A   1      45.295  29.270  34.943  1.00  0.00     0.173 A 
ATOM     82  C   UNL A   1      43.799  27.696  35.975  1.00  0.00     0.173 A 
ATOM     83  F   UNL A   1      45.534  30.290  34.105  1.00  0.00    -0.203 F 
ATOM     84  C   UNL A   1      46.366  28.688  35.616  1.00  0.00     0.198 A 
ATOM     85  C   UNL A   1      44.868  27.137  36.670  1.00  0.00     0.198 A 
ATOM     86  F   UNL A   1      42.572  27.190  36.166  1.00  0.00    -0.203 F 
ATOM     87  F   UNL A   1      47.609  29.146  35.414  1.00  0.00    -0.200 F 
ATOM     88  C   UNL A   1      46.151  27.628  36.485  1.00  0.00     0.200 A 
ATOM     89  F   UNL A   1      44.656  26.122  37.520  1.00  0.00    -0.200 F 
ATOM     90  F   UNL A   1      47.183  27.076  37.138  1.00  0.00    -0.200 F 
ENDBRANCH  57  80
ENDBRANCH  31  32
ENDBRANCH  23  26
ENDBRANCH  21  22
ENDBRANCH  20  21
ENDBRANCH  19  20
ENDBRANCH   1  19
TORSDOF 17
ENDMDL
MODEL 3
REMARK VINA RESULT:     -10.8      1.713      2.586
REMARK SMILES O=C(CCCC[C@H](O)c1ccc(Cl)s1)NCCCCNC(=O)c1ccc(-c2c3nc(c(-c4c(F)c(F)c(F)c(F)c4F)c4ccc([nH]4)c(-c4c(F)c(F)c(F)c(F)c4F)c4nc(c(-c5c(F)c(F)c(F)c(F)c5F)c5ccc2[nH]5)C=C4)C=C3)cc1
REMARK SMILES IDX 16 1 15 2 1 3 2 4 3 6 4 7 5 8 6 9 7 10 9 11 10 12 14 13
REMARK SMILES IDX 11 14 12 15 13 16 8 17 17 19 18 20 19 21 20 22 21 23 22 25
REMARK SMILES IDX 23 26 24 27 85 28 25 29 84 30 26 31 27 32 28 33 78 34 29 35
REMARK SMILES IDX 83 36 77 37 79 38 30 39 82 40 76 41 75 42 31 44 63 45 43 46
REMARK SMILES IDX 62 47 44 48 47 49 61 50 80 51 45 52 46 53 60 55 81 56 48 57
REMARK SMILES IDX 32 58 33 59 41 60 34 61 35 62 39 63 42 64 36 65 37 66 40 67
REMARK SMILES IDX 38 68 64 69 65 70 73 71 66 72 67 73 71 74 74 75 68 76 69 77
REMARK SMILES IDX 72 78 70 79 49 80 50 81 58 82 51 83 52 84 56 85 59 86 53 87
REMARK SMILES IDX 54 88 57 89 55 90
REMARK H PARENT 15 5 8 18 20 24 79 43 47 54
REMARK Flexibility Score: inf
ROOT
ATOM      1  C   UNL A   1      32.659  29.956  26.745  1.00  0.00     0.116 C 
ENDROOT
BRANCH   1   2
ATOM      2  N   UNL A   1      32.672  28.559  26.366  1.00  0.00    -0.356 N 
ATOM      3  O   UNL A   1      31.136  27.880  27.930  1.00  0.00    -0.275 OA
ATOM      4  C   UNL A   1      31.867  27.627  26.979  1.00  0.00     0.219 C 
ATOM      5  H   UNL A   1      33.277  28.267  25.646  1.00  0.00     0.163 HD
BRANCH   4   6
ATOM      6  C   UNL A   1      31.935  26.246  26.359  1.00  0.00     0.100 C 
BRANCH   6   7
ATOM      7  C   UNL A   1      33.266  26.000  25.644  1.00  0.00     0.010 C 
BRANCH   7   8
ATOM      8  C   UNL A   1      33.956  24.657  25.926  1.00  0.00     0.004 C 
BRANCH   8   9
ATOM      9  C   UNL A   1      35.264  24.365  25.174  1.00  0.00     0.037 C 
BRANCH   9  10
ATOM     10  C   UNL A   1      35.097  23.536  23.893  1.00  0.00     0.154 C 
BRANCH  10  11
ATOM     11  C   UNL A   1      34.174  22.362  24.101  1.00  0.00     0.035 A 
ATOM     12  C   UNL A   1      32.906  22.175  23.574  1.00  0.00     0.020 A 
ATOM     13  S   UNL A   1      34.632  21.025  25.089  1.00  0.00    -0.126 S 
ATOM     14  C   UNL A   1      32.312  20.949  24.000  1.00  0.00     0.033 A 
ATOM     15  C   UNL A   1      33.153  20.252  24.828  1.00  0.00     0.093 A 
ATOM     16  Cl  UNL A   1      32.837  18.740  25.575  1.00  0.00    -0.072 Cl
ENDBRANCH  10  11
BRANCH  10  17
ATOM     17  O   UNL A   1      34.563  24.326  22.842  1.00  0.00    -0.388 OA
ATOM     18  H   UNL A   1      33.622  24.491  23.008  1.00  0.00     0.211 HD
ENDBRANCH  10  17
ENDBRANCH   9  10
ENDBRANCH   8   9
ENDBRANCH   7   8
ENDBRANCH   6   7
ENDBRANCH   4   6
ENDBRANCH   1   2
BRANCH   1  19
ATOM     19  C   UNL A   1      31.552  30.742  26.045  1.00  0.00     0.023 C 
BRANCH  19  20
ATOM     20  C   UNL A   1      31.400  32.200  26.489  1.00  0.00     0.023 C 
BRANCH  20  21
ATOM     21  C   UNL A   1      32.576  32.780  27.269  1.00  0.00     0.116 C 
BRANCH  21  22
ATOM     22  N   UNL A   1      32.368  34.165  27.657  1.00  0.00    -0.352 N 
ATOM     23  C   UNL A   1      33.002  34.920  28.612  1.00  0.00     0.251 C 
ATOM     24  H   UNL A   1      31.663  34.636  27.157  1.00  0.00     0.163 HD
ATOM     25  O   UNL A   1      32.570  36.038  28.893  1.00  0.00    -0.269 OA
BRANCH  23  26
ATOM     26  C   UNL A   1      34.186  34.399  29.332  1.00  0.00     0.039 A 
ATOM     27  C   UNL A   1      33.999  33.770  30.568  1.00  0.00     0.014 A 
ATOM     28  C   UNL A   1      35.477  34.548  28.819  1.00  0.00     0.014 A 
ATOM     29  C   UNL A   1      35.092  33.229  31.250  1.00  0.00     0.010 A 
ATOM     30  C   UNL A   1      36.558  33.949  29.466  1.00  0.00     0.010 A 
ATOM     31  C   UNL A   1      36.376  33.280  30.686  1.00  0.00    -0.014 A 
BRANCH  31  32
ATOM     32  C   UNL A   1      37.536  32.627  31.350  1.00  0.00     0.031 A 
ATOM     33  C   UNL A   1      38.243  31.474  30.693  1.00  0.00     0.074 A 
ATOM     34  C   UNL A   1      37.912  33.029  32.580  1.00  0.00     0.049 A 
ATOM     35  N   UNL A   1      39.221  30.731  31.150  1.00  0.00    -0.248 NA
ATOM     36  C   UNL A   1      37.774  31.088  29.354  1.00  0.00     0.031 C 
ATOM     37  C   UNL A   1      37.286  34.108  33.344  1.00  0.00     0.029 A 
ATOM     38  N   UNL A   1      38.907  32.571  33.410  1.00  0.00    -0.354 N 
ATOM     39  C   UNL A   1      39.469  29.783  30.167  1.00  0.00     0.074 A 
ATOM     40  C   UNL A   1      38.511  30.014  29.107  1.00  0.00     0.031 C 
ATOM     41  C   UNL A   1      37.922  34.243  34.519  1.00  0.00     0.029 A 
ATOM     42  C   UNL A   1      38.974  33.236  34.610  1.00  0.00     0.049 A 
ATOM     43  H   UNL A   1      39.513  31.834  33.168  1.00  0.00     0.167 HD
ATOM     44  C   UNL A   1      40.423  28.821  30.140  1.00  0.00     0.037 A 
ATOM     45  C   UNL A   1      39.787  33.051  35.668  1.00  0.00     0.037 A 
ATOM     46  C   UNL A   1      41.395  28.611  31.180  1.00  0.00     0.049 A 
ATOM     47  C   UNL A   1      40.831  31.967  35.615  1.00  0.00     0.074 A 
ATOM     48  C   UNL A   1      42.444  27.707  31.213  1.00  0.00     0.029 A 
ATOM     49  N   UNL A   1      41.439  29.314  32.376  1.00  0.00    -0.354 N 
ATOM     50  N   UNL A   1      41.099  31.121  34.652  1.00  0.00    -0.248 NA
ATOM     51  C   UNL A   1      41.688  31.818  36.800  1.00  0.00     0.031 C 
ATOM     52  C   UNL A   1      43.089  27.826  32.447  1.00  0.00     0.029 A 
ATOM     53  C   UNL A   1      42.479  28.843  33.164  1.00  0.00     0.049 A 
ATOM     54  H   UNL A   1      40.824  30.039  32.628  1.00  0.00     0.167 HD
ATOM     55  C   UNL A   1      42.171  30.362  35.098  1.00  0.00     0.074 A 
ATOM     56  C   UNL A   1      42.514  30.855  36.415  1.00  0.00     0.031 C 
ATOM     57  C   UNL A   1      42.816  29.347  34.470  1.00  0.00     0.037 A 
BRANCH  44  58
ATOM     58  C   UNL A   1      40.463  27.914  28.943  1.00  0.00     0.064 A 
ATOM     59  C   UNL A   1      39.736  26.714  28.902  1.00  0.00     0.173 A 
ATOM     60  C   UNL A   1      41.204  28.270  27.806  1.00  0.00     0.173 A 
ATOM     61  F   UNL A   1      39.018  26.323  29.967  1.00  0.00    -0.203 F 
ATOM     62  C   UNL A   1      39.773  25.892  27.779  1.00  0.00     0.198 A 
ATOM     63  C   UNL A   1      41.213  27.460  26.673  1.00  0.00     0.198 A 
ATOM     64  F   UNL A   1      41.911  29.410  27.789  1.00  0.00    -0.203 F 
ATOM     65  F   UNL A   1      39.109  24.727  27.782  1.00  0.00    -0.200 F 
ATOM     66  C   UNL A   1      40.505  26.268  26.664  1.00  0.00     0.200 A 
ATOM     67  F   UNL A   1      41.911  27.833  25.591  1.00  0.00    -0.200 F 
ATOM     68  F   UNL A   1      40.533  25.479  25.581  1.00  0.00    -0.200 F 
ENDBRANCH  44  58
BRANCH  45  69
ATOM     69  C   UNL A   1      39.663  33.927  36.862  1.00  0.00     0.064 A 
ATOM     70  C   UNL A   1      38.879  33.540  37.959  1.00  0.00     0.173 A 
ATOM     71  C   UNL A   1      40.311  35.168  36.929  1.00  0.00     0.173 A 
ATOM     72  F   UNL A   1      38.221  32.371  37.930  1.00  0.00    -0.203 F 
ATOM     73  C   UNL A   1      38.734  34.369  39.068  1.00  0.00     0.198 A 
ATOM     74  C   UNL A   1      40.189  35.984  38.052  1.00  0.00     0.198 A 
ATOM     75  F   UNL A   1      41.075  35.584  35.907  1.00  0.00    -0.203 F 
ATOM     76  F   UNL A   1      37.942  33.995  40.081  1.00  0.00    -0.200 F 
ATOM     77  C   UNL A   1      39.394  35.587  39.117  1.00  0.00     0.200 A 
ATOM     78  F   UNL A   1      40.837  37.155  38.100  1.00  0.00    -0.200 F 
ATOM     79  F   UNL A   1      39.255  36.385  40.186  1.00  0.00    -0.200 F 
ENDBRANCH  45  69
BRANCH  57  80
ATOM     80  C   UNL A   1      43.982  28.726  35.183  1.00  0.00     0.064 A 
ATOM     81  C   UNL A   1      45.288  29.214  35.025  1.00  0.00     0.173 A 
ATOM     82  C   UNL A   1      43.784  27.652  36.064  1.00  0.00     0.173 A 
ATOM     83  F   UNL A   1      45.533  30.228  34.182  1.00  0.00    -0.203 F 
ATOM     84  C   UNL A   1      46.355  28.633  35.705  1.00  0.00     0.198 A 
ATOM     85  C   UNL A   1      44.850  27.094  36.766  1.00  0.00     0.198 A 
ATOM     86  F   UNL A   1      42.555  27.151  36.255  1.00  0.00    -0.203 F 
ATOM     87  F   UNL A   1      47.601  29.085  35.502  1.00  0.00    -0.200 F 
ATOM     88  C   UNL A   1      46.135  27.579  36.580  1.00  0.00     0.200 A 
ATOM     89  F   UNL A   1      44.632  26.086  37.621  1.00  0.00    -0.200 F 
ATOM     90  F   UNL A   1      47.163  27.029  37.238  1.00  0.00    -0.200 F 
ENDBRANCH  57  80
ENDBRANCH  31  32
ENDBRANCH  23  26
ENDBRANCH  21  22
ENDBRANCH  20  21
ENDBRANCH  19  20
ENDBRANCH   1  19
TORSDOF 17
ENDMDL
