MODEL 1
REMARK VINA RESULT:     -12.8      0.000      0.000
REMARK SMILES CC1(C)C(NC(=O)[C@@H]2CCC[C@@H](C(=O)NCCCCNC(=O)c3ccc(-c4c5nc(c(-c6c(F)c(F)c(F)c(F)c6F)c6ccc([nH]6)c(-c6c(F)c(F)c(F)c(F)c6F)c6nc(c(-c7c(F)c(F)c(F)c(F)c7F)c7ccc4[nH]7)C=C6)C=C5)cc3)C2)C1(C)C
REMARK SMILES IDX 17 1 16 2 15 3 13 4 14 5 12 7 8 8 9 9 86 10 10 11 11 12 6 13
REMARK SMILES IDX 5 14 7 16 4 17 1 18 2 19 3 20 87 21 88 22 89 23 18 24 19 25
REMARK SMILES IDX 20 26 21 27 22 29 23 30 24 31 85 32 25 33 84 34 26 35 27 36
REMARK SMILES IDX 28 37 78 38 29 39 83 40 77 41 79 42 30 43 82 44 76 45 75 46
REMARK SMILES IDX 31 48 63 49 43 50 62 51 44 52 47 53 61 54 80 55 45 56 46 57
REMARK SMILES IDX 60 59 81 60 48 61 32 62 33 63 41 64 34 65 35 66 39 67 42 68
REMARK SMILES IDX 36 69 37 70 40 71 38 72 64 73 65 74 73 75 66 76 67 77 71 78
REMARK SMILES IDX 74 79 68 80 69 81 72 82 70 83 49 84 50 85 58 86 51 87 52 88
REMARK SMILES IDX 56 89 59 90 53 91 54 92 57 93 55 94
REMARK H PARENT 15 6 5 15 20 28 79 47 47 58
REMARK Flexibility Score: inf
ROOT
ATOM      1  C   UNL A   1      37.478  20.628  24.700  1.00  0.00     0.023 C 
ENDROOT
BRANCH   1   2
ATOM      2  C   UNL A   1      37.539  21.837  25.630  1.00  0.00     0.116 C 
BRANCH   2   3
ATOM      3  N   UNL A   1      36.725  22.947  25.172  1.00  0.00    -0.356 N 
ATOM      4  C   UNL A   1      35.403  23.206  25.392  1.00  0.00     0.223 C 
ATOM      5  O   UNL A   1      34.940  24.248  24.929  1.00  0.00    -0.275 OA
ATOM      6  H   UNL A   1      37.197  23.614  24.621  1.00  0.00     0.163 HD
BRANCH   4   7
ATOM      7  C   UNL A   1      34.565  22.216  26.205  1.00  0.00     0.079 C 
ATOM      8  C   UNL A   1      32.293  23.314  25.907  1.00  0.00     0.079 C 
ATOM      9  C   UNL A   1      31.735  22.060  25.240  1.00  0.00     0.013 C 
ATOM     10  C   UNL A   1      33.393  22.919  26.899  1.00  0.00     0.027 C 
ATOM     11  C   UNL A   1      32.851  21.346  24.475  1.00  0.00     0.002 C 
ATOM     12  C   UNL A   1      34.063  21.029  25.359  1.00  0.00     0.013 C 
BRANCH   8  13
ATOM     13  C   UNL A   1      31.242  24.121  26.658  1.00  0.00     0.223 C 
ATOM     14  N   UNL A   1      31.475  25.460  26.866  1.00  0.00    -0.352 N 
ATOM     15  H   UNL A   1      30.852  25.916  27.477  1.00  0.00     0.163 HD
ATOM     16  O   UNL A   1      30.241  23.597  27.150  1.00  0.00    -0.275 OA
BRANCH  14  17
ATOM     17  C   UNL A   1      32.511  26.273  26.305  1.00  0.00     0.094 C 
ATOM     18  C   UNL A   1      33.184  27.192  23.992  1.00  0.00     0.014 C 
ATOM     19  C   UNL A   1      32.209  27.217  25.151  1.00  0.00    -0.007 C 
ATOM     20  C   UNL A   1      30.787  27.442  24.678  1.00  0.00     0.014 C 
ATOM     21  C   UNL A   1      32.636  27.768  26.524  1.00  0.00    -0.007 C 
ATOM     22  C   UNL A   1      34.033  28.331  26.678  1.00  0.00     0.014 C 
ATOM     23  C   UNL A   1      31.657  28.458  27.446  1.00  0.00     0.014 C 
ENDBRANCH  14  17
ENDBRANCH   8  13
ENDBRANCH   4   7
ENDBRANCH   2   3
ENDBRANCH   1   2
BRANCH   1  24
ATOM     24  C   UNL A   1      38.463  19.501  25.009  1.00  0.00     0.023 C 
BRANCH  24  25
ATOM     25  C   UNL A   1      39.607  19.861  25.948  1.00  0.00     0.116 C 
BRANCH  25  26
ATOM     26  N   UNL A   1      40.696  18.899  25.929  1.00  0.00    -0.352 N 
ATOM     27  C   UNL A   1      42.046  19.111  26.088  1.00  0.00     0.251 C 
ATOM     28  H   UNL A   1      40.431  17.963  25.781  1.00  0.00     0.163 HD
ATOM     29  O   UNL A   1      42.842  18.193  25.925  1.00  0.00    -0.269 OA
BRANCH  27  30
ATOM     30  C   UNL A   1      42.541  20.463  26.426  1.00  0.00     0.039 A 
ATOM     31  C   UNL A   1      43.035  21.278  25.405  1.00  0.00     0.014 A 
ATOM     32  C   UNL A   1      42.498  20.930  27.741  1.00  0.00     0.014 A 
ATOM     33  C   UNL A   1      43.419  22.590  25.692  1.00  0.00     0.010 A 
ATOM     34  C   UNL A   1      42.813  22.258  28.014  1.00  0.00     0.010 A 
ATOM     35  C   UNL A   1      43.276  23.102  26.992  1.00  0.00    -0.014 A 
BRANCH  35  36
ATOM     36  C   UNL A   1      43.598  24.516  27.309  1.00  0.00     0.031 A 
ATOM     37  C   UNL A   1      45.028  24.976  27.335  1.00  0.00     0.074 A 
ATOM     38  C   UNL A   1      42.612  25.366  27.652  1.00  0.00     0.049 A 
ATOM     39  N   UNL A   1      45.520  26.141  27.672  1.00  0.00    -0.248 NA
ATOM     40  C   UNL A   1      46.043  23.979  26.960  1.00  0.00     0.031 C 
ATOM     41  C   UNL A   1      41.188  25.033  27.704  1.00  0.00     0.029 A 
ATOM     42  N   UNL A   1      42.659  26.684  28.034  1.00  0.00    -0.354 N 
ATOM     43  C   UNL A   1      46.899  26.011  27.568  1.00  0.00     0.074 A 
ATOM     44  C   UNL A   1      47.167  24.640  27.193  1.00  0.00     0.031 C 
ATOM     45  C   UNL A   1      40.496  26.123  28.071  1.00  0.00     0.029 A 
ATOM     46  C   UNL A   1      41.427  27.219  28.318  1.00  0.00     0.049 A 
ATOM     47  H   UNL A   1      43.497  27.196  28.097  1.00  0.00     0.167 HD
ATOM     48  C   UNL A   1      47.854  26.957  27.748  1.00  0.00     0.037 A 
ATOM     49  C   UNL A   1      41.088  28.453  28.737  1.00  0.00     0.037 A 
ATOM     50  C   UNL A   1      47.580  28.324  28.103  1.00  0.00     0.049 A 
ATOM     51  C   UNL A   1      42.166  29.481  28.950  1.00  0.00     0.074 A 
ATOM     52  C   UNL A   1      48.470  29.374  28.247  1.00  0.00     0.029 A 
ATOM     53  N   UNL A   1      46.318  28.832  28.378  1.00  0.00    -0.354 N 
ATOM     54  N   UNL A   1      43.462  29.369  28.783  1.00  0.00    -0.248 NA
ATOM     55  C   UNL A   1      41.733  30.808  29.408  1.00  0.00     0.031 C 
ATOM     56  C   UNL A   1      47.754  30.502  28.662  1.00  0.00     0.029 A 
ATOM     57  C   UNL A   1      46.409  30.172  28.719  1.00  0.00     0.049 A 
ATOM     58  H   UNL A   1      45.480  28.315  28.337  1.00  0.00     0.167 HD
ATOM     59  C   UNL A   1      43.995  30.616  29.082  1.00  0.00     0.074 A 
ATOM     60  C   UNL A   1      42.880  31.473  29.433  1.00  0.00     0.031 C 
ATOM     61  C   UNL A   1      45.290  31.015  29.060  1.00  0.00     0.037 A 
BRANCH  48  62
ATOM     62  C   UNL A   1      49.284  26.530  27.572  1.00  0.00     0.064 A 
ATOM     63  C   UNL A   1      50.122  26.282  28.670  1.00  0.00     0.173 A 
ATOM     64  C   UNL A   1      49.824  26.366  26.288  1.00  0.00     0.173 A 
ATOM     65  F   UNL A   1      49.659  26.436  29.922  1.00  0.00    -0.203 F 
ATOM     66  C   UNL A   1      51.458  25.935  28.490  1.00  0.00     0.198 A 
ATOM     67  C   UNL A   1      51.152  25.982  26.111  1.00  0.00     0.198 A 
ATOM     68  F   UNL A   1      49.067  26.580  25.202  1.00  0.00    -0.203 F 
ATOM     69  F   UNL A   1      52.257  25.775  29.556  1.00  0.00    -0.200 F 
ATOM     70  C   UNL A   1      51.971  25.781  27.212  1.00  0.00     0.200 A 
ATOM     71  F   UNL A   1      51.642  25.820  24.875  1.00  0.00    -0.200 F 
ATOM     72  F   UNL A   1      53.258  25.450  27.040  1.00  0.00    -0.200 F 
ENDBRANCH  48  62
BRANCH  49  73
ATOM     73  C   UNL A   1      39.656  28.795  28.941  1.00  0.00     0.064 A 
ATOM     74  C   UNL A   1      38.878  29.268  27.875  1.00  0.00     0.173 A 
ATOM     75  C   UNL A   1      39.034  28.640  30.187  1.00  0.00     0.173 A 
ATOM     76  F   UNL A   1      39.435  29.452  26.669  1.00  0.00    -0.203 F 
ATOM     77  C   UNL A   1      37.533  29.584  28.052  1.00  0.00     0.198 A 
ATOM     78  C   UNL A   1      37.682  28.931  30.356  1.00  0.00     0.198 A 
ATOM     79  F   UNL A   1      39.734  28.185  31.236  1.00  0.00    -0.203 F 
ATOM     80  F   UNL A   1      36.820  30.068  27.025  1.00  0.00    -0.200 F 
ATOM     81  C   UNL A   1      36.934  29.408  29.290  1.00  0.00     0.200 A 
ATOM     82  F   UNL A   1      37.103  28.746  31.550  1.00  0.00    -0.200 F 
ATOM     83  F   UNL A   1      35.637  29.702  29.457  1.00  0.00    -0.200 F 
ENDBRANCH  49  73
BRANCH  61  84
ATOM     84  C   UNL A   1      45.575  32.454  29.385  1.00  0.00     0.064 A 
ATOM     85  C   UNL A   1      45.890  32.871  30.687  1.00  0.00     0.173 A 
ATOM     86  C   UNL A   1      45.575  33.422  28.368  1.00  0.00     0.173 A 
ATOM     87  F   UNL A   1      45.888  31.988  31.697  1.00  0.00    -0.203 F 
ATOM     88  C   UNL A   1      46.173  34.206  30.962  1.00  0.00     0.198 A 
ATOM     89  C   UNL A   1      45.889  34.750  28.641  1.00  0.00     0.198 A 
ATOM     90  F   UNL A   1      45.286  33.076  27.105  1.00  0.00    -0.203 F 
ATOM     91  F   UNL A   1      46.426  34.590  32.221  1.00  0.00    -0.200 F 
ATOM     92  C   UNL A   1      46.180  35.142  29.939  1.00  0.00     0.200 A 
ATOM     93  F   UNL A   1      45.910  35.651  27.649  1.00  0.00    -0.200 F 
ATOM     94  F   UNL A   1      46.462  36.426  30.205  1.00  0.00    -0.200 F 
ENDBRANCH  61  84
ENDBRANCH  35  36
ENDBRANCH  27  30
ENDBRANCH  25  26
ENDBRANCH  24  25
ENDBRANCH   1  24
TORSDOF 13
ENDMDL
MODEL 2
REMARK VINA RESULT:     -12.6      0.604      7.425
REMARK SMILES CC1(C)C(NC(=O)[C@@H]2CCC[C@@H](C(=O)NCCCCNC(=O)c3ccc(-c4c5nc(c(-c6c(F)c(F)c(F)c(F)c6F)c6ccc([nH]6)c(-c6c(F)c(F)c(F)c(F)c6F)c6nc(c(-c7c(F)c(F)c(F)c(F)c7F)c7ccc4[nH]7)C=C6)C=C5)cc3)C2)C1(C)C
REMARK SMILES IDX 17 1 16 2 15 3 13 4 14 5 12 7 8 8 9 9 86 10 10 11 11 12 6 13
REMARK SMILES IDX 5 14 7 16 4 17 1 18 2 19 3 20 87 21 88 22 89 23 18 24 19 25
REMARK SMILES IDX 20 26 21 27 22 29 23 30 24 31 85 32 25 33 84 34 26 35 27 36
REMARK SMILES IDX 28 37 78 38 29 39 83 40 77 41 79 42 30 43 82 44 76 45 75 46
REMARK SMILES IDX 31 48 63 49 43 50 62 51 44 52 47 53 61 54 80 55 45 56 46 57
REMARK SMILES IDX 60 59 81 60 48 61 32 62 33 63 41 64 34 65 35 66 39 67 42 68
REMARK SMILES IDX 36 69 37 70 40 71 38 72 64 73 65 74 73 75 66 76 67 77 71 78
REMARK SMILES IDX 74 79 68 80 69 81 72 82 70 83 49 84 50 85 58 86 51 87 52 88
REMARK SMILES IDX 56 89 59 90 53 91 54 92 57 93 55 94
REMARK H PARENT 15 6 5 15 20 28 79 47 47 58
REMARK Flexibility Score: inf
ROOT
ATOM      1  C   UNL A   1      36.682  20.674  25.257  1.00  0.00     0.023 C 
ENDROOT
BRANCH   1   2
ATOM      2  C   UNL A   1      36.677  22.160  25.605  1.00  0.00     0.116 C 
BRANCH   2   3
ATOM      3  N   UNL A   1      36.176  22.994  24.529  1.00  0.00    -0.356 N 
ATOM      4  C   UNL A   1      34.940  23.016  23.950  1.00  0.00     0.223 C 
ATOM      5  O   UNL A   1      34.736  23.853  23.070  1.00  0.00    -0.275 OA
ATOM      6  H   UNL A   1      36.822  23.640  24.163  1.00  0.00     0.163 HD
BRANCH   4   7
ATOM      7  C   UNL A   1      33.869  22.027  24.417  1.00  0.00     0.079 C 
ATOM      8  C   UNL A   1      32.146  23.703  25.241  1.00  0.00     0.079 C 
ATOM      9  C   UNL A   1      31.110  23.178  24.252  1.00  0.00     0.013 C 
ATOM     10  C   UNL A   1      33.102  22.570  25.629  1.00  0.00     0.027 C 
ATOM     11  C   UNL A   1      31.813  22.678  22.989  1.00  0.00     0.002 C 
ATOM     12  C   UNL A   1      32.893  21.633  23.290  1.00  0.00     0.013 C 
BRANCH   8  13
ATOM     13  C   UNL A   1      31.535  24.268  26.517  1.00  0.00     0.223 C 
ATOM     14  N   UNL A   1      31.965  25.498  26.956  1.00  0.00    -0.352 N 
ATOM     15  H   UNL A   1      31.662  25.765  27.854  1.00  0.00     0.163 HD
ATOM     16  O   UNL A   1      30.738  23.626  27.203  1.00  0.00    -0.275 OA
BRANCH  14  17
ATOM     17  C   UNL A   1      32.799  26.437  26.271  1.00  0.00     0.094 C 
ATOM     18  C   UNL A   1      33.066  27.378  23.884  1.00  0.00     0.014 C 
ATOM     19  C   UNL A   1      32.233  27.294  25.148  1.00  0.00    -0.007 C 
ATOM     20  C   UNL A   1      30.751  27.295  24.839  1.00  0.00     0.014 C 
ATOM     21  C   UNL A   1      32.725  27.940  26.456  1.00  0.00    -0.007 C 
ATOM     22  C   UNL A   1      34.031  28.705  26.441  1.00  0.00     0.014 C 
ATOM     23  C   UNL A   1      31.764  28.506  27.476  1.00  0.00     0.014 C 
ENDBRANCH  14  17
ENDBRANCH   8  13
ENDBRANCH   4   7
ENDBRANCH   2   3
ENDBRANCH   1   2
BRANCH   1  24
ATOM     24  C   UNL A   1      38.033  20.094  24.841  1.00  0.00     0.023 C 
BRANCH  24  25
ATOM     25  C   UNL A   1      39.194  20.375  25.787  1.00  0.00     0.116 C 
BRANCH  25  26
ATOM     26  N   UNL A   1      40.161  19.292  25.855  1.00  0.00    -0.352 N 
ATOM     27  C   UNL A   1      41.506  19.344  26.137  1.00  0.00     0.251 C 
ATOM     28  H   UNL A   1      39.802  18.393  25.674  1.00  0.00     0.163 HD
ATOM     29  O   UNL A   1      42.201  18.339  26.037  1.00  0.00    -0.269 OA
BRANCH  27  30
ATOM     30  C   UNL A   1      42.122  20.627  26.534  1.00  0.00     0.039 A 
ATOM     31  C   UNL A   1      42.600  21.485  25.540  1.00  0.00     0.014 A 
ATOM     32  C   UNL A   1      42.211  20.991  27.879  1.00  0.00     0.014 A 
ATOM     33  C   UNL A   1      43.100  22.741  25.892  1.00  0.00     0.010 A 
ATOM     34  C   UNL A   1      42.642  22.269  28.223  1.00  0.00     0.010 A 
ATOM     35  C   UNL A   1      43.090  23.157  27.232  1.00  0.00    -0.014 A 
BRANCH  35  36
ATOM     36  C   UNL A   1      43.538  24.517  27.627  1.00  0.00     0.031 A 
ATOM     37  C   UNL A   1      42.527  25.569  27.984  1.00  0.00     0.074 A 
ATOM     38  C   UNL A   1      44.847  24.828  27.587  1.00  0.00     0.049 A 
ATOM     39  N   UNL A   1      42.709  26.834  28.270  1.00  0.00    -0.248 NA
ATOM     40  C   UNL A   1      41.118  25.148  27.990  1.00  0.00     0.031 C 
ATOM     41  C   UNL A   1      45.924  23.909  27.218  1.00  0.00     0.029 A 
ATOM     42  N   UNL A   1      45.495  26.010  27.847  1.00  0.00    -0.354 N 
ATOM     43  C   UNL A   1      41.441  27.362  28.470  1.00  0.00     0.074 A 
ATOM     44  C   UNL A   1      40.495  26.296  28.217  1.00  0.00     0.031 C 
ATOM     45  C   UNL A   1      47.099  24.553  27.300  1.00  0.00     0.029 A 
ATOM     46  C   UNL A   1      46.857  25.939  27.687  1.00  0.00     0.049 A 
ATOM     47  H   UNL A   1      45.026  26.831  28.123  1.00  0.00     0.167 HD
ATOM     48  C   UNL A   1      41.097  28.616  28.852  1.00  0.00     0.037 A 
ATOM     49  C   UNL A   1      47.802  26.887  27.831  1.00  0.00     0.037 A 
ATOM     50  C   UNL A   1      42.042  29.667  29.120  1.00  0.00     0.049 A 
ATOM     51  C   UNL A   1      47.395  28.279  28.236  1.00  0.00     0.074 A 
ATOM     52  C   UNL A   1      41.800  30.953  29.572  1.00  0.00     0.029 A 
ATOM     53  N   UNL A   1      43.416  29.557  28.952  1.00  0.00    -0.354 N 
ATOM     54  N   UNL A   1      46.199  28.750  28.490  1.00  0.00    -0.248 NA
ATOM     55  C   UNL A   1      48.472  29.268  28.375  1.00  0.00     0.031 C 
ATOM     56  C   UNL A   1      43.019  31.635  29.626  1.00  0.00     0.029 A 
ATOM     57  C   UNL A   1      44.030  30.758  29.265  1.00  0.00     0.049 A 
ATOM     58  H   UNL A   1      43.884  28.743  28.654  1.00  0.00     0.167 HD
ATOM     59  C   UNL A   1      46.381  30.079  28.851  1.00  0.00     0.074 A 
ATOM     60  C   UNL A   1      47.805  30.336  28.791  1.00  0.00     0.031 C 
ATOM     61  C   UNL A   1      45.451  30.999  29.207  1.00  0.00     0.037 A 
BRANCH  48  62
ATOM     62  C   UNL A   1      39.629  28.913  28.988  1.00  0.00     0.064 A 
ATOM     63  C   UNL A   1      38.958  28.773  30.213  1.00  0.00     0.173 A 
ATOM     64  C   UNL A   1      38.886  29.346  27.881  1.00  0.00     0.173 A 
ATOM     65  F   UNL A   1      39.620  28.351  31.302  1.00  0.00    -0.203 F 
ATOM     66  C   UNL A   1      37.589  29.006  30.311  1.00  0.00     0.198 A 
ATOM     67  C   UNL A   1      37.523  29.614  27.992  1.00  0.00     0.198 A 
ATOM     68  F   UNL A   1      39.477  29.506  26.687  1.00  0.00    -0.203 F 
ATOM     69  F   UNL A   1      36.957  28.794  31.476  1.00  0.00    -0.200 F 
ATOM     70  C   UNL A   1      36.873  29.430  29.203  1.00  0.00     0.200 A 
ATOM     71  F   UNL A   1      36.836  30.038  26.922  1.00  0.00    -0.200 F 
ATOM     72  F   UNL A   1      35.555  29.651  29.298  1.00  0.00    -0.200 F 
ENDBRANCH  48  62
BRANCH  49  73
ATOM     73  C   UNL A   1      49.232  26.538  27.631  1.00  0.00     0.064 A 
ATOM     74  C   UNL A   1      50.068  26.300  28.732  1.00  0.00     0.173 A 
ATOM     75  C   UNL A   1      49.787  26.416  26.349  1.00  0.00     0.173 A 
ATOM     76  F   UNL A   1      49.587  26.424  29.976  1.00  0.00    -0.203 F 
ATOM     77  C   UNL A   1      51.408  25.964  28.556  1.00  0.00     0.198 A 
ATOM     78  C   UNL A   1      51.121  26.053  26.175  1.00  0.00     0.198 A 
ATOM     79  F   UNL A   1      49.027  26.628  25.266  1.00  0.00    -0.203 F 
ATOM     80  F   UNL A   1      52.195  25.775  29.626  1.00  0.00    -0.200 F 
ATOM     81  C   UNL A   1      51.932  25.833  27.279  1.00  0.00     0.200 A 
ATOM     82  F   UNL A   1      51.620  25.914  24.940  1.00  0.00    -0.200 F 
ATOM     83  F   UNL A   1      53.219  25.499  27.111  1.00  0.00    -0.200 F 
ENDBRANCH  49  73
BRANCH  61  84
ATOM     84  C   UNL A   1      45.944  32.362  29.601  1.00  0.00     0.064 A 
ATOM     85  C   UNL A   1      46.036  33.413  28.676  1.00  0.00     0.173 A 
ATOM     86  C   UNL A   1      46.287  32.631  30.936  1.00  0.00     0.173 A 
ATOM     87  F   UNL A   1      45.735  33.203  27.386  1.00  0.00    -0.203 F 
ATOM     88  C   UNL A   1      46.474  34.674  29.068  1.00  0.00     0.198 A 
ATOM     89  C   UNL A   1      46.695  33.902  31.330  1.00  0.00     0.198 A 
ATOM     90  F   UNL A   1      46.211  31.664  31.862  1.00  0.00    -0.203 F 
ATOM     91  F   UNL A   1      46.599  35.651  28.158  1.00  0.00    -0.200 F 
ATOM     92  C   UNL A   1      46.795  34.921  30.394  1.00  0.00     0.200 A 
ATOM     93  F   UNL A   1      46.990  34.142  32.615  1.00  0.00    -0.200 F 
ATOM     94  F   UNL A   1      47.208  36.139  30.771  1.00  0.00    -0.200 F 
ENDBRANCH  61  84
ENDBRANCH  35  36
ENDBRANCH  27  30
ENDBRANCH  25  26
ENDBRANCH  24  25
ENDBRANCH   1  24
TORSDOF 13
ENDMDL
MODEL 3
REMARK VINA RESULT:     -12.6      0.953      7.243
REMARK SMILES CC1(C)C(NC(=O)[C@@H]2CCC[C@@H](C(=O)NCCCCNC(=O)c3ccc(-c4c5nc(c(-c6c(F)c(F)c(F)c(F)c6F)c6ccc([nH]6)c(-c6c(F)c(F)c(F)c(F)c6F)c6nc(c(-c7c(F)c(F)c(F)c(F)c7F)c7ccc4[nH]7)C=C6)C=C5)cc3)C2)C1(C)C
REMARK SMILES IDX 17 1 16 2 15 3 13 4 14 5 12 7 8 8 9 9 86 10 10 11 11 12 6 13
REMARK SMILES IDX 5 14 7 16 4 17 1 18 2 19 3 20 87 21 88 22 89 23 18 24 19 25
REMARK SMILES IDX 20 26 21 27 22 29 23 30 24 31 85 32 25 33 84 34 26 35 27 36
REMARK SMILES IDX 28 37 78 38 29 39 83 40 77 41 79 42 30 43 82 44 76 45 75 46
REMARK SMILES IDX 31 48 63 49 43 50 62 51 44 52 47 53 61 54 80 55 45 56 46 57
REMARK SMILES IDX 60 59 81 60 48 61 32 62 33 63 41 64 34 65 35 66 39 67 42 68
REMARK SMILES IDX 36 69 37 70 40 71 38 72 64 73 65 74 73 75 66 76 67 77 71 78
REMARK SMILES IDX 74 79 68 80 69 81 72 82 70 83 49 84 50 85 58 86 51 87 52 88
REMARK SMILES IDX 56 89 59 90 53 91 54 92 57 93 55 94
REMARK H PARENT 15 6 5 15 20 28 79 47 47 58
REMARK Flexibility Score: inf
ROOT
ATOM      1  C   UNL A   1      36.732  20.372  25.040  1.00  0.00     0.023 C 
ENDROOT
BRANCH   1   2
ATOM      2  C   UNL A   1      36.497  21.787  25.559  1.00  0.00     0.116 C 
BRANCH   2   3
ATOM      3  N   UNL A   1      36.093  22.714  24.518  1.00  0.00    -0.356 N 
ATOM      4  C   UNL A   1      34.878  22.866  23.913  1.00  0.00     0.223 C 
ATOM      5  O   UNL A   1      34.766  23.761  23.076  1.00  0.00    -0.275 OA
ATOM      6  H   UNL A   1      36.799  23.324  24.202  1.00  0.00     0.163 HD
BRANCH   4   7
ATOM      7  C   UNL A   1      33.719  21.946  24.303  1.00  0.00     0.079 C 
ATOM      8  C   UNL A   1      32.125  23.709  25.200  1.00  0.00     0.079 C 
ATOM      9  C   UNL A   1      31.070  23.332  24.164  1.00  0.00     0.013 C 
ATOM     10  C   UNL A   1      32.976  22.479  25.533  1.00  0.00     0.027 C 
ATOM     11  C   UNL A   1      31.755  22.850  22.884  1.00  0.00     0.002 C 
ATOM     12  C   UNL A   1      32.738  21.702  23.139  1.00  0.00     0.013 C 
BRANCH   8  13
ATOM     13  C   UNL A   1      31.537  24.247  26.498  1.00  0.00     0.223 C 
ATOM     14  N   UNL A   1      31.978  25.466  26.956  1.00  0.00    -0.352 N 
ATOM     15  H   UNL A   1      31.690  25.714  27.865  1.00  0.00     0.163 HD
ATOM     16  O   UNL A   1      30.749  23.592  27.182  1.00  0.00    -0.275 OA
BRANCH  14  17
ATOM     17  C   UNL A   1      32.803  26.418  26.278  1.00  0.00     0.094 C 
ATOM     18  C   UNL A   1      33.072  27.367  23.896  1.00  0.00     0.014 C 
ATOM     19  C   UNL A   1      32.233  27.269  25.154  1.00  0.00    -0.007 C 
ATOM     20  C   UNL A   1      30.752  27.251  24.836  1.00  0.00     0.014 C 
ATOM     21  C   UNL A   1      32.707  27.919  26.467  1.00  0.00    -0.007 C 
ATOM     22  C   UNL A   1      34.003  28.702  26.462  1.00  0.00     0.014 C 
ATOM     23  C   UNL A   1      31.732  28.470  27.482  1.00  0.00     0.014 C 
ENDBRANCH  14  17
ENDBRANCH   8  13
ENDBRANCH   4   7
ENDBRANCH   2   3
ENDBRANCH   1   2
BRANCH   1  24
ATOM     24  C   UNL A   1      38.178  20.024  24.689  1.00  0.00     0.023 C 
BRANCH  24  25
ATOM     25  C   UNL A   1      39.198  20.232  25.801  1.00  0.00     0.116 C 
BRANCH  25  26
ATOM     26  N   UNL A   1      40.159  19.148  25.916  1.00  0.00    -0.352 N 
ATOM     27  C   UNL A   1      41.511  19.207  26.159  1.00  0.00     0.251 C 
ATOM     28  H   UNL A   1      39.790  18.242  25.804  1.00  0.00     0.163 HD
ATOM     29  O   UNL A   1      42.196  18.191  26.107  1.00  0.00    -0.269 OA
BRANCH  27  30
ATOM     30  C   UNL A   1      42.146  20.509  26.453  1.00  0.00     0.039 A 
ATOM     31  C   UNL A   1      42.614  21.289  25.393  1.00  0.00     0.014 A 
ATOM     32  C   UNL A   1      42.262  20.965  27.768  1.00  0.00     0.014 A 
ATOM     33  C   UNL A   1      43.132  22.562  25.647  1.00  0.00     0.010 A 
ATOM     34  C   UNL A   1      42.711  22.260  28.013  1.00  0.00     0.010 A 
ATOM     35  C   UNL A   1      43.150  23.071  26.954  1.00  0.00    -0.014 A 
BRANCH  35  36
ATOM     36  C   UNL A   1      43.617  24.451  27.244  1.00  0.00     0.031 A 
ATOM     37  C   UNL A   1      42.659  25.473  27.785  1.00  0.00     0.074 A 
ATOM     38  C   UNL A   1      44.882  24.805  26.946  1.00  0.00     0.049 A 
ATOM     39  N   UNL A   1      42.848  26.747  28.022  1.00  0.00    -0.248 NA
ATOM     40  C   UNL A   1      41.294  25.005  28.071  1.00  0.00     0.031 C 
ATOM     41  C   UNL A   1      45.897  23.918  26.379  1.00  0.00     0.029 A 
ATOM     42  N   UNL A   1      45.524  26.012  27.066  1.00  0.00    -0.354 N 
ATOM     43  C   UNL A   1      41.625  27.234  28.463  1.00  0.00     0.074 A 
ATOM     44  C   UNL A   1      40.687  26.133  28.407  1.00  0.00     0.031 C 
ATOM     45  C   UNL A   1      47.041  24.602  26.226  1.00  0.00     0.029 A 
ATOM     46  C   UNL A   1      46.831  25.985  26.643  1.00  0.00     0.049 A 
ATOM     47  H   UNL A   1      45.090  26.820  27.423  1.00  0.00     0.167 HD
ATOM     48  C   UNL A   1      41.318  28.481  28.896  1.00  0.00     0.037 A 
ATOM     49  C   UNL A   1      47.751  26.966  26.592  1.00  0.00     0.037 A 
ATOM     50  C   UNL A   1      42.259  29.567  28.967  1.00  0.00     0.049 A 
ATOM     51  C   UNL A   1      47.382  28.348  27.059  1.00  0.00     0.074 A 
ATOM     52  C   UNL A   1      42.064  30.850  29.449  1.00  0.00     0.029 A 
ATOM     53  N   UNL A   1      43.576  29.501  28.533  1.00  0.00    -0.354 N 
ATOM     54  N   UNL A   1      46.242  28.783  27.540  1.00  0.00    -0.248 NA
ATOM     55  C   UNL A   1      48.429  29.375  26.978  1.00  0.00     0.031 C 
ATOM     56  C   UNL A   1      43.245  31.574  29.258  1.00  0.00     0.029 A 
ATOM     57  C   UNL A   1      44.197  30.727  28.711  1.00  0.00     0.049 A 
ATOM     58  H   UNL A   1      44.006  28.700  28.155  1.00  0.00     0.167 HD
ATOM     59  C   UNL A   1      46.443  30.122  27.849  1.00  0.00     0.074 A 
ATOM     60  C   UNL A   1      47.818  30.426  27.509  1.00  0.00     0.031 C 
ATOM     61  C   UNL A   1      45.569  31.015  28.374  1.00  0.00     0.037 A 
BRANCH  48  62
ATOM     62  C   UNL A   1      39.896  28.731  29.316  1.00  0.00     0.064 A 
ATOM     63  C   UNL A   1      39.459  28.486  30.627  1.00  0.00     0.173 A 
ATOM     64  C   UNL A   1      38.959  29.222  28.395  1.00  0.00     0.173 A 
ATOM     65  F   UNL A   1      40.312  28.004  31.545  1.00  0.00    -0.203 F 
ATOM     66  C   UNL A   1      38.127  28.676  30.987  1.00  0.00     0.198 A 
ATOM     67  C   UNL A   1      37.635  29.447  28.769  1.00  0.00     0.198 A 
ATOM     68  F   UNL A   1      39.323  29.482  27.130  1.00  0.00    -0.203 F 
ATOM     69  F   UNL A   1      37.719  28.366  32.226  1.00  0.00    -0.200 F 
ATOM     70  C   UNL A   1      37.218  29.161  30.060  1.00  0.00     0.200 A 
ATOM     71  F   UNL A   1      36.761  29.928  27.875  1.00  0.00    -0.200 F 
ATOM     72  F   UNL A   1      35.936  29.341  30.406  1.00  0.00    -0.200 F 
ENDBRANCH  48  62
BRANCH  49  73
ATOM     73  C   UNL A   1      49.126  26.663  26.118  1.00  0.00     0.064 A 
ATOM     74  C   UNL A   1      49.499  26.932  24.794  1.00  0.00     0.173 A 
ATOM     75  C   UNL A   1      50.096  26.120  26.974  1.00  0.00     0.173 A 
ATOM     76  F   UNL A   1      48.601  27.432  23.934  1.00  0.00    -0.203 F 
ATOM     77  C   UNL A   1      50.787  26.659  24.340  1.00  0.00     0.198 A 
ATOM     78  C   UNL A   1      51.391  25.872  26.526  1.00  0.00     0.198 A 
ATOM     79  F   UNL A   1      49.789  25.850  28.250  1.00  0.00    -0.203 F 
ATOM     80  F   UNL A   1      51.108  26.894  23.060  1.00  0.00    -0.200 F 
ATOM     81  C   UNL A   1      51.735  26.137  25.208  1.00  0.00     0.200 A 
ATOM     82  F   UNL A   1      52.308  25.381  27.370  1.00  0.00    -0.200 F 
ATOM     83  F   UNL A   1      52.978  25.884  24.773  1.00  0.00    -0.200 F 
ENDBRANCH  49  73
BRANCH  61  84
ATOM     84  C   UNL A   1      46.080  32.398  28.655  1.00  0.00     0.064 A 
ATOM     85  C   UNL A   1      46.690  32.730  29.875  1.00  0.00     0.173 A 
ATOM     86  C   UNL A   1      45.999  33.396  27.670  1.00  0.00     0.173 A 
ATOM     87  F   UNL A   1      46.778  31.817  30.854  1.00  0.00    -0.203 F 
ATOM     88  C   UNL A   1      47.177  34.013  30.106  1.00  0.00     0.198 A 
ATOM     89  C   UNL A   1      46.516  34.669  27.894  1.00  0.00     0.198 A 
ATOM     90  F   UNL A   1      45.432  33.131  26.485  1.00  0.00    -0.203 F 
ATOM     91  F   UNL A   1      47.714  34.320  31.296  1.00  0.00    -0.200 F 
ATOM     92  C   UNL A   1      47.098  34.979  29.113  1.00  0.00     0.200 A 
ATOM     93  F   UNL A   1      46.451  35.596  26.928  1.00  0.00    -0.200 F 
ATOM     94  F   UNL A   1      47.576  36.211  29.335  1.00  0.00    -0.200 F 
ENDBRANCH  61  84
ENDBRANCH  35  36
ENDBRANCH  27  30
ENDBRANCH  25  26
ENDBRANCH  24  25
ENDBRANCH   1  24
TORSDOF 13
ENDMDL
