MODEL 1
REMARK VINA RESULT:     -12.3      0.000      0.000
REMARK SMILES CN(C)C(=O)Nc1cccc(/C=C/C(=O)NCCCCNC(=O)c2ccc(-c3c4nc(c(-c5c(F)c(F)c(F)c(F)c5F)c5ccc([nH]5)c(-c5c(F)c(F)c(F)c(F)c5F)c5nc(c(-c6c(F)c(F)c(F)c(F)c6F)c6ccc3[nH]6)C=C5)C=C4)cc2)n1
REMARK SMILES IDX 18 1 17 2 16 3 14 4 15 5 13 7 12 8 11 9 7 10 8 11 87 12 9 13
REMARK SMILES IDX 10 14 6 15 1 16 2 17 3 18 4 19 5 20 19 22 20 23 21 24 22 25
REMARK SMILES IDX 23 27 24 28 25 29 86 30 26 31 85 32 27 33 28 34 29 35 79 36
REMARK SMILES IDX 30 37 84 38 78 39 80 40 31 41 83 42 77 43 76 44 32 46 64 47
REMARK SMILES IDX 44 48 63 49 45 50 48 51 62 52 81 53 46 54 47 55 61 57 82 58
REMARK SMILES IDX 49 59 33 60 34 61 42 62 35 63 36 64 40 65 43 66 37 67 38 68
REMARK SMILES IDX 41 69 39 70 65 71 66 72 74 73 67 74 68 75 72 76 75 77 69 78
REMARK SMILES IDX 70 79 73 80 71 81 50 82 51 83 59 84 52 85 53 86 57 87 60 88
REMARK SMILES IDX 54 89 55 90 58 91 56 92
REMARK H PARENT 16 6 6 21 21 26 80 45 48 56
REMARK Flexibility Score: inf
ROOT
ATOM      1  C   UNL A   1      37.105  20.399  25.031  1.00  0.00     0.023 C 
ENDROOT
BRANCH   1   2
ATOM      2  C   UNL A   1      37.336  21.677  24.218  1.00  0.00     0.116 C 
BRANCH   2   3
ATOM      3  N   UNL A   1      37.880  22.729  25.053  1.00  0.00    -0.353 N 
ATOM      4  C   UNL A   1      37.268  23.679  25.811  1.00  0.00     0.244 C 
ATOM      5  O   UNL A   1      37.962  24.422  26.501  1.00  0.00    -0.270 OA
ATOM      6  H   UNL A   1      38.863  22.762  25.076  1.00  0.00     0.163 HD
BRANCH   4   7
ATOM      7  C   UNL A   1      35.791  23.787  25.890  1.00  0.00     0.073 C 
ATOM      8  C   UNL A   1      34.986  24.237  24.917  1.00  0.00     0.034 C 
BRANCH   8   9
ATOM      9  C   UNL A   1      33.526  24.313  25.009  1.00  0.00     0.066 A 
ATOM     10  C   UNL A   1      31.655  25.333  25.884  1.00  0.00     0.134 A 
ATOM     11  C   UNL A   1      30.808  24.479  25.188  1.00  0.00     0.047 A 
ATOM     12  N   UNL A   1      32.996  25.303  25.757  1.00  0.00    -0.231 NA
ATOM     13  C   UNL A   1      31.368  23.464  24.423  1.00  0.00     0.006 A 
ATOM     14  C   UNL A   1      32.751  23.364  24.348  1.00  0.00     0.028 A 
BRANCH  10  15
ATOM     15  N   UNL A   1      31.179  26.274  26.786  1.00  0.00    -0.292 N 
ATOM     16  C   UNL A   1      31.809  29.794  25.936  1.00  0.00     0.148 C 
ATOM     17  N   UNL A   1      31.570  28.375  25.745  1.00  0.00    -0.331 N 
ATOM     18  C   UNL A   1      31.243  27.983  24.378  1.00  0.00     0.148 C 
ATOM     19  C   UNL A   1      31.369  27.612  26.881  1.00  0.00     0.322 C 
ATOM     20  O   UNL A   1      31.261  28.132  27.995  1.00  0.00    -0.248 OA
ATOM     21  H   UNL A   1      30.596  25.900  27.486  1.00  0.00     0.173 HD
ENDBRANCH  10  15
ENDBRANCH   8   9
ENDBRANCH   4   7
ENDBRANCH   2   3
ENDBRANCH   1   2
BRANCH   1  22
ATOM     22  C   UNL A   1      38.281  19.421  25.017  1.00  0.00     0.023 C 
BRANCH  22  23
ATOM     23  C   UNL A   1      39.493  19.866  25.826  1.00  0.00     0.116 C 
BRANCH  23  24
ATOM     24  N   UNL A   1      40.527  18.847  25.920  1.00  0.00    -0.352 N 
ATOM     25  C   UNL A   1      41.874  19.010  26.127  1.00  0.00     0.251 C 
ATOM     26  H   UNL A   1      40.221  17.917  25.823  1.00  0.00     0.163 HD
ATOM     27  O   UNL A   1      42.630  18.046  26.060  1.00  0.00    -0.269 OA
BRANCH  25  28
ATOM     28  C   UNL A   1      42.414  20.360  26.387  1.00  0.00     0.039 A 
ATOM     29  C   UNL A   1      42.945  21.085  25.320  1.00  0.00     0.014 A 
ATOM     30  C   UNL A   1      42.379  20.915  27.669  1.00  0.00     0.014 A 
ATOM     31  C   UNL A   1      43.396  22.388  25.530  1.00  0.00     0.010 A 
ATOM     32  C   UNL A   1      42.746  22.243  27.859  1.00  0.00     0.010 A 
ATOM     33  C   UNL A   1      43.271  22.989  26.794  1.00  0.00    -0.014 A 
BRANCH  33  34
ATOM     34  C   UNL A   1      43.690  24.397  27.003  1.00  0.00     0.031 A 
ATOM     35  C   UNL A   1      42.704  25.423  27.488  1.00  0.00     0.074 A 
ATOM     36  C   UNL A   1      44.956  24.758  26.720  1.00  0.00     0.049 A 
ATOM     37  N   UNL A   1      42.898  26.689  27.767  1.00  0.00    -0.248 NA
ATOM     38  C   UNL A   1      41.311  24.983  27.652  1.00  0.00     0.031 C 
ATOM     39  C   UNL A   1      45.980  23.872  26.163  1.00  0.00     0.029 A 
ATOM     40  N   UNL A   1      45.598  25.962  26.859  1.00  0.00    -0.354 N 
ATOM     41  C   UNL A   1      41.654  27.192  28.124  1.00  0.00     0.074 A 
ATOM     42  C   UNL A   1      40.702  26.116  27.965  1.00  0.00     0.031 C 
ATOM     43  C   UNL A   1      47.131  24.551  26.043  1.00  0.00     0.029 A 
ATOM     44  C   UNL A   1      46.919  25.927  26.484  1.00  0.00     0.049 A 
ATOM     45  H   UNL A   1      45.155  26.773  27.197  1.00  0.00     0.167 HD
ATOM     46  C   UNL A   1      41.342  28.432  28.572  1.00  0.00     0.037 A 
ATOM     47  C   UNL A   1      47.856  26.893  26.500  1.00  0.00     0.037 A 
ATOM     48  C   UNL A   1      42.301  29.490  28.746  1.00  0.00     0.049 A 
ATOM     49  C   UNL A   1      47.494  28.252  27.033  1.00  0.00     0.074 A 
ATOM     50  C   UNL A   1      42.105  30.755  29.270  1.00  0.00     0.029 A 
ATOM     51  N   UNL A   1      43.639  29.411  28.384  1.00  0.00    -0.354 N 
ATOM     52  N   UNL A   1      46.338  28.687  27.475  1.00  0.00    -0.248 NA
ATOM     53  C   UNL A   1      48.572  29.249  27.091  1.00  0.00     0.031 C 
ATOM     54  C   UNL A   1      43.308  31.463  29.166  1.00  0.00     0.029 A 
ATOM     55  C   UNL A   1      44.273  30.616  28.645  1.00  0.00     0.049 A 
ATOM     56  H   UNL A   1      44.074  28.615  27.999  1.00  0.00     0.167 HD
ATOM     57  C   UNL A   1      46.554  29.995  27.886  1.00  0.00     0.074 A 
ATOM     58  C   UNL A   1      47.957  30.278  27.657  1.00  0.00     0.031 C 
ATOM     59  C   UNL A   1      45.671  30.883  28.408  1.00  0.00     0.037 A 
BRANCH  46  60
ATOM     60  C   UNL A   1      39.900  28.710  28.895  1.00  0.00     0.064 A 
ATOM     61  C   UNL A   1      39.374  28.506  30.182  1.00  0.00     0.173 A 
ATOM     62  C   UNL A   1      39.033  29.206  27.910  1.00  0.00     0.173 A 
ATOM     63  F   UNL A   1      40.154  28.024  31.162  1.00  0.00    -0.203 F 
ATOM     64  C   UNL A   1      38.031  28.748  30.457  1.00  0.00     0.198 A 
ATOM     65  C   UNL A   1      37.699  29.483  28.197  1.00  0.00     0.198 A 
ATOM     66  F   UNL A   1      39.481  29.426  26.664  1.00  0.00    -0.203 F 
ATOM     67  F   UNL A   1      37.539  28.482  31.675  1.00  0.00    -0.200 F 
ATOM     68  C   UNL A   1      37.195  29.241  29.466  1.00  0.00     0.200 A 
ATOM     69  F   UNL A   1      36.897  29.974  27.242  1.00  0.00    -0.200 F 
ATOM     70  F   UNL A   1      35.903  29.476  29.732  1.00  0.00    -0.200 F 
ENDBRANCH  46  60
BRANCH  47  71
ATOM     71  C   UNL A   1      49.232  26.590  26.027  1.00  0.00     0.064 A 
ATOM     72  C   UNL A   1      49.631  26.886  24.717  1.00  0.00     0.173 A 
ATOM     73  C   UNL A   1      50.185  26.022  26.886  1.00  0.00     0.173 A 
ATOM     74  F   UNL A   1      48.753  27.416  23.853  1.00  0.00    -0.203 F 
ATOM     75  C   UNL A   1      50.925  26.610  24.278  1.00  0.00     0.198 A 
ATOM     76  C   UNL A   1      51.487  25.775  26.455  1.00  0.00     0.198 A 
ATOM     77  F   UNL A   1      49.857  25.731  28.154  1.00  0.00    -0.203 F 
ATOM     78  F   UNL A   1      51.269  26.865  23.008  1.00  0.00    -0.200 F 
ATOM     79  C   UNL A   1      51.853  26.062  25.150  1.00  0.00     0.200 A 
ATOM     80  F   UNL A   1      52.386  25.264  27.308  1.00  0.00    -0.200 F 
ATOM     81  F   UNL A   1      53.101  25.808  24.731  1.00  0.00    -0.200 F 
ENDBRANCH  47  71
BRANCH  59  82
ATOM     82  C   UNL A   1      46.201  32.231  28.804  1.00  0.00     0.064 A 
ATOM     83  C   UNL A   1      46.714  32.480  30.086  1.00  0.00     0.173 A 
ATOM     84  C   UNL A   1      46.226  33.282  27.874  1.00  0.00     0.173 A 
ATOM     85  F   UNL A   1      46.701  31.514  31.018  1.00  0.00    -0.203 F 
ATOM     86  C   UNL A   1      47.198  33.739  30.432  1.00  0.00     0.198 A 
ATOM     87  C   UNL A   1      46.745  34.528  28.212  1.00  0.00     0.198 A 
ATOM     88  F   UNL A   1      45.757  33.097  26.630  1.00  0.00    -0.203 F 
ATOM     89  F   UNL A   1      47.627  33.969  31.681  1.00  0.00    -0.200 F 
ATOM     90  C   UNL A   1      47.220  34.760  29.493  1.00  0.00     0.200 A 
ATOM     91  F   UNL A   1      46.782  35.507  27.297  1.00  0.00    -0.200 F 
ATOM     92  F   UNL A   1      47.694  35.968  29.827  1.00  0.00    -0.200 F 
ENDBRANCH  59  82
ENDBRANCH  33  34
ENDBRANCH  25  28
ENDBRANCH  23  24
ENDBRANCH  22  23
ENDBRANCH   1  22
TORSDOF 13
ENDMDL
MODEL 2
REMARK VINA RESULT:     -12.2      0.801      7.515
REMARK SMILES CN(C)C(=O)Nc1cccc(/C=C/C(=O)NCCCCNC(=O)c2ccc(-c3c4nc(c(-c5c(F)c(F)c(F)c(F)c5F)c5ccc([nH]5)c(-c5c(F)c(F)c(F)c(F)c5F)c5nc(c(-c6c(F)c(F)c(F)c(F)c6F)c6ccc3[nH]6)C=C5)C=C4)cc2)n1
REMARK SMILES IDX 18 1 17 2 16 3 14 4 15 5 13 7 12 8 11 9 7 10 8 11 87 12 9 13
REMARK SMILES IDX 10 14 6 15 1 16 2 17 3 18 4 19 5 20 19 22 20 23 21 24 22 25
REMARK SMILES IDX 23 27 24 28 25 29 86 30 26 31 85 32 27 33 28 34 29 35 79 36
REMARK SMILES IDX 30 37 84 38 78 39 80 40 31 41 83 42 77 43 76 44 32 46 64 47
REMARK SMILES IDX 44 48 63 49 45 50 48 51 62 52 81 53 46 54 47 55 61 57 82 58
REMARK SMILES IDX 49 59 33 60 34 61 42 62 35 63 36 64 40 65 43 66 37 67 38 68
REMARK SMILES IDX 41 69 39 70 65 71 66 72 74 73 67 74 68 75 72 76 75 77 69 78
REMARK SMILES IDX 70 79 73 80 71 81 50 82 51 83 59 84 52 85 53 86 57 87 60 88
REMARK SMILES IDX 54 89 55 90 58 91 56 92
REMARK H PARENT 16 6 6 21 21 26 80 45 48 56
REMARK Flexibility Score: inf
ROOT
ATOM      1  C   UNL A   1      37.136  20.387  25.028  1.00  0.00     0.023 C 
ENDROOT
BRANCH   1   2
ATOM      2  C   UNL A   1      37.388  21.657  24.210  1.00  0.00     0.116 C 
BRANCH   2   3
ATOM      3  N   UNL A   1      37.924  22.712  25.046  1.00  0.00    -0.353 N 
ATOM      4  C   UNL A   1      37.306  23.641  25.826  1.00  0.00     0.244 C 
ATOM      5  O   UNL A   1      37.998  24.392  26.511  1.00  0.00    -0.270 OA
ATOM      6  H   UNL A   1      38.907  22.766  25.052  1.00  0.00     0.163 HD
BRANCH   4   7
ATOM      7  C   UNL A   1      35.830  23.717  25.933  1.00  0.00     0.073 C 
ATOM      8  C   UNL A   1      35.007  24.276  25.034  1.00  0.00     0.034 C 
BRANCH   8   9
ATOM      9  C   UNL A   1      33.548  24.319  25.149  1.00  0.00     0.066 A 
ATOM     10  C   UNL A   1      31.665  25.336  26.003  1.00  0.00     0.134 A 
ATOM     11  C   UNL A   1      30.830  24.423  25.371  1.00  0.00     0.047 A 
ATOM     12  N   UNL A   1      33.004  25.334  25.853  1.00  0.00    -0.231 NA
ATOM     13  C   UNL A   1      31.404  23.383  24.653  1.00  0.00     0.006 A 
ATOM     14  C   UNL A   1      32.787  23.315  24.557  1.00  0.00     0.028 A 
BRANCH  10  15
ATOM     15  N   UNL A   1      31.180  26.313  26.862  1.00  0.00    -0.292 N 
ATOM     16  C   UNL A   1      31.802  29.797  25.867  1.00  0.00     0.148 C 
ATOM     17  N   UNL A   1      31.569  28.369  25.735  1.00  0.00    -0.331 N 
ATOM     18  C   UNL A   1      31.253  27.919  24.384  1.00  0.00     0.148 C 
ATOM     19  C   UNL A   1      31.365  27.654  26.901  1.00  0.00     0.322 C 
ATOM     20  O   UNL A   1      31.247  28.221  27.991  1.00  0.00    -0.248 OA
ATOM     21  H   UNL A   1      30.594  25.967  27.574  1.00  0.00     0.173 HD
ENDBRANCH  10  15
ENDBRANCH   8   9
ENDBRANCH   4   7
ENDBRANCH   2   3
ENDBRANCH   1   2
BRANCH   1  22
ATOM     22  C   UNL A   1      38.298  19.392  25.021  1.00  0.00     0.023 C 
BRANCH  22  23
ATOM     23  C   UNL A   1      39.518  19.826  25.822  1.00  0.00     0.116 C 
BRANCH  23  24
ATOM     24  N   UNL A   1      40.599  18.853  25.796  1.00  0.00    -0.352 N 
ATOM     25  C   UNL A   1      41.937  19.053  26.023  1.00  0.00     0.251 C 
ATOM     26  H   UNL A   1      40.336  17.927  25.589  1.00  0.00     0.163 HD
ATOM     27  O   UNL A   1      42.737  18.139  25.844  1.00  0.00    -0.269 OA
BRANCH  25  28
ATOM     28  C   UNL A   1      42.414  20.387  26.442  1.00  0.00     0.039 A 
ATOM     29  C   UNL A   1      42.954  21.237  25.478  1.00  0.00     0.014 A 
ATOM     30  C   UNL A   1      42.313  20.802  27.773  1.00  0.00     0.014 A 
ATOM     31  C   UNL A   1      43.346  22.526  25.839  1.00  0.00     0.010 A 
ATOM     32  C   UNL A   1      42.621  22.115  28.113  1.00  0.00     0.010 A 
ATOM     33  C   UNL A   1      43.154  22.986  27.153  1.00  0.00    -0.014 A 
BRANCH  33  34
ATOM     34  C   UNL A   1      43.509  24.379  27.522  1.00  0.00     0.031 A 
ATOM     35  C   UNL A   1      44.938  24.843  27.470  1.00  0.00     0.074 A 
ATOM     36  C   UNL A   1      42.542  25.218  27.939  1.00  0.00     0.049 A 
ATOM     37  N   UNL A   1      45.431  26.031  27.716  1.00  0.00    -0.248 NA
ATOM     38  C   UNL A   1      45.953  23.834  27.128  1.00  0.00     0.031 C 
ATOM     39  C   UNL A   1      41.134  24.859  28.114  1.00  0.00     0.029 A 
ATOM     40  N   UNL A   1      42.594  26.541  28.295  1.00  0.00    -0.354 N 
ATOM     41  C   UNL A   1      46.806  25.907  27.571  1.00  0.00     0.074 A 
ATOM     42  C   UNL A   1      47.077  24.517  27.280  1.00  0.00     0.031 C 
ATOM     43  C   UNL A   1      40.449  25.945  28.506  1.00  0.00     0.029 A 
ATOM     44  C   UNL A   1      41.374  27.066  28.642  1.00  0.00     0.049 A 
ATOM     45  H   UNL A   1      43.427  27.066  28.300  1.00  0.00     0.167 HD
ATOM     46  C   UNL A   1      47.754  26.873  27.645  1.00  0.00     0.037 A 
ATOM     47  C   UNL A   1      41.036  28.313  29.021  1.00  0.00     0.037 A 
ATOM     48  C   UNL A   1      47.471  28.258  27.916  1.00  0.00     0.049 A 
ATOM     49  C   UNL A   1      42.099  29.376  29.063  1.00  0.00     0.074 A 
ATOM     50  C   UNL A   1      48.346  29.330  27.931  1.00  0.00     0.029 A 
ATOM     51  N   UNL A   1      46.217  28.761  28.232  1.00  0.00    -0.354 N 
ATOM     52  N   UNL A   1      43.383  29.273  28.815  1.00  0.00    -0.248 NA
ATOM     53  C   UNL A   1      41.664  30.734  29.417  1.00  0.00     0.031 C 
ATOM     54  C   UNL A   1      47.633  30.470  28.320  1.00  0.00     0.029 A 
ATOM     55  C   UNL A   1      46.301  30.123  28.477  1.00  0.00     0.049 A 
ATOM     56  H   UNL A   1      45.390  28.229  28.277  1.00  0.00     0.167 HD
ATOM     57  C   UNL A   1      43.903  30.552  28.957  1.00  0.00     0.074 A 
ATOM     58  C   UNL A   1      42.792  31.418  29.296  1.00  0.00     0.031 C 
ATOM     59  C   UNL A   1      45.186  30.973  28.816  1.00  0.00     0.037 A 
BRANCH  46  60
ATOM     60  C   UNL A   1      49.185  26.459  27.440  1.00  0.00     0.064 A 
ATOM     61  C   UNL A   1      49.735  26.299  26.158  1.00  0.00     0.173 A 
ATOM     62  C   UNL A   1      50.025  26.237  28.542  1.00  0.00     0.173 A 
ATOM     63  F   UNL A   1      48.976  26.489  25.068  1.00  0.00    -0.203 F 
ATOM     64  C   UNL A   1      51.057  25.893  25.989  1.00  0.00     0.198 A 
ATOM     65  C   UNL A   1      51.357  25.867  28.369  1.00  0.00     0.198 A 
ATOM     66  F   UNL A   1      49.556  26.380  29.790  1.00  0.00    -0.203 F 
ATOM     67  F   UNL A   1      51.539  25.684  24.755  1.00  0.00    -0.200 F 
ATOM     68  C   UNL A   1      51.868  25.682  27.093  1.00  0.00     0.200 A 
ATOM     69  F   UNL A   1      52.143  25.679  29.438  1.00  0.00    -0.200 F 
ATOM     70  F   UNL A   1      53.140  25.295  26.929  1.00  0.00    -0.200 F 
ENDBRANCH  46  60
BRANCH  47  71
ATOM     71  C   UNL A   1      39.620  28.622  29.352  1.00  0.00     0.064 A 
ATOM     72  C   UNL A   1      39.126  28.457  30.653  1.00  0.00     0.173 A 
ATOM     73  C   UNL A   1      38.739  29.116  28.379  1.00  0.00     0.173 A 
ATOM     74  F   UNL A   1      39.925  27.973  31.616  1.00  0.00    -0.203 F 
ATOM     75  C   UNL A   1      37.801  28.756  30.964  1.00  0.00     0.198 A 
ATOM     76  C   UNL A   1      37.423  29.445  28.698  1.00  0.00     0.198 A 
ATOM     77  F   UNL A   1      39.165  29.304  27.120  1.00  0.00    -0.203 F 
ATOM     78  F   UNL A   1      37.344  28.550  32.207  1.00  0.00    -0.200 F 
ATOM     79  C   UNL A   1      36.953  29.257  29.988  1.00  0.00     0.200 A 
ATOM     80  F   UNL A   1      36.614  29.947  27.755  1.00  0.00    -0.200 F 
ATOM     81  F   UNL A   1      35.683  29.556  30.291  1.00  0.00    -0.200 F 
ENDBRANCH  47  71
BRANCH  59  82
ATOM     82  C   UNL A   1      45.453  32.440  28.992  1.00  0.00     0.064 A 
ATOM     83  C   UNL A   1      45.831  32.982  30.230  1.00  0.00     0.173 A 
ATOM     84  C   UNL A   1      45.360  33.312  27.897  1.00  0.00     0.173 A 
ATOM     85  F   UNL A   1      45.922  32.195  31.313  1.00  0.00    -0.203 F 
ATOM     86  C   UNL A   1      46.071  34.347  30.371  1.00  0.00     0.198 A 
ATOM     87  C   UNL A   1      45.637  34.669  28.033  1.00  0.00     0.198 A 
ATOM     88  F   UNL A   1      45.012  32.846  26.688  1.00  0.00    -0.203 F 
ATOM     89  F   UNL A   1      46.373  34.851  31.576  1.00  0.00    -0.200 F 
ATOM     90  C   UNL A   1      45.982  35.188  29.271  1.00  0.00     0.200 A 
ATOM     91  F   UNL A   1      45.567  35.476  26.965  1.00  0.00    -0.200 F 
ATOM     92  F   UNL A   1      46.220  36.499  29.409  1.00  0.00    -0.200 F 
ENDBRANCH  59  82
ENDBRANCH  33  34
ENDBRANCH  25  28
ENDBRANCH  23  24
ENDBRANCH  22  23
ENDBRANCH   1  22
TORSDOF 13
ENDMDL
MODEL 3
REMARK VINA RESULT:     -12.0      5.401      9.941
REMARK SMILES CN(C)C(=O)Nc1cccc(/C=C/C(=O)NCCCCNC(=O)c2ccc(-c3c4nc(c(-c5c(F)c(F)c(F)c(F)c5F)c5ccc([nH]5)c(-c5c(F)c(F)c(F)c(F)c5F)c5nc(c(-c6c(F)c(F)c(F)c(F)c6F)c6ccc3[nH]6)C=C5)C=C4)cc2)n1
REMARK SMILES IDX 18 1 17 2 16 3 14 4 15 5 13 7 12 8 11 9 7 10 8 11 87 12 9 13
REMARK SMILES IDX 10 14 6 15 1 16 2 17 3 18 4 19 5 20 19 22 20 23 21 24 22 25
REMARK SMILES IDX 23 27 24 28 25 29 86 30 26 31 85 32 27 33 28 34 29 35 79 36
REMARK SMILES IDX 30 37 84 38 78 39 80 40 31 41 83 42 77 43 76 44 32 46 64 47
REMARK SMILES IDX 44 48 63 49 45 50 48 51 62 52 81 53 46 54 47 55 61 57 82 58
REMARK SMILES IDX 49 59 33 60 34 61 42 62 35 63 36 64 40 65 43 66 37 67 38 68
REMARK SMILES IDX 41 69 39 70 65 71 66 72 74 73 67 74 68 75 72 76 75 77 69 78
REMARK SMILES IDX 70 79 73 80 71 81 50 82 51 83 59 84 52 85 53 86 57 87 60 88
REMARK SMILES IDX 54 89 55 90 58 91 56 92
REMARK H PARENT 16 6 6 21 21 26 80 45 48 56
REMARK Flexibility Score: inf
ROOT
ATOM      1  C   UNL A   1      31.745  30.196  26.395  1.00  0.00     0.023 C 
ENDROOT
BRANCH   1   2
ATOM      2  C   UNL A   1      33.210  29.769  26.267  1.00  0.00     0.116 C 
BRANCH   2   3
ATOM      3  N   UNL A   1      33.578  29.600  24.876  1.00  0.00    -0.353 N 
ATOM      4  C   UNL A   1      33.537  28.509  24.062  1.00  0.00     0.244 C 
ATOM      5  O   UNL A   1      33.837  28.643  22.878  1.00  0.00    -0.270 OA
ATOM      6  H   UNL A   1      33.917  30.417  24.443  1.00  0.00     0.163 HD
BRANCH   4   7
ATOM      7  C   UNL A   1      33.064  27.190  24.545  1.00  0.00     0.073 C 
ATOM      8  C   UNL A   1      33.797  26.294  25.221  1.00  0.00     0.034 C 
BRANCH   8   9
ATOM      9  C   UNL A   1      33.302  25.005  25.709  1.00  0.00     0.066 A 
ATOM     10  C   UNL A   1      33.528  22.715  25.808  1.00  0.00     0.134 A 
ATOM     11  C   UNL A   1      32.402  22.593  26.614  1.00  0.00     0.047 A 
ATOM     12  N   UNL A   1      34.019  23.903  25.406  1.00  0.00    -0.231 NA
ATOM     13  C   UNL A   1      31.674  23.736  26.916  1.00  0.00     0.006 A 
ATOM     14  C   UNL A   1      32.117  24.962  26.438  1.00  0.00     0.028 A 
BRANCH  10  15
ATOM     15  N   UNL A   1      34.223  21.610  25.336  1.00  0.00    -0.292 N 
ATOM     16  C   UNL A   1      32.344  19.332  23.147  1.00  0.00     0.148 C 
ATOM     17  N   UNL A   1      32.744  20.569  23.793  1.00  0.00    -0.331 N 
ATOM     18  C   UNL A   1      32.188  21.781  23.202  1.00  0.00     0.148 C 
ATOM     19  C   UNL A   1      33.815  20.506  24.665  1.00  0.00     0.322 C 
ATOM     20  O   UNL A   1      34.488  19.478  24.785  1.00  0.00    -0.248 OA
ATOM     21  H   UNL A   1      35.189  21.633  25.523  1.00  0.00     0.173 HD
ENDBRANCH  10  15
ENDBRANCH   8   9
ENDBRANCH   4   7
ENDBRANCH   2   3
ENDBRANCH   1   2
BRANCH   1  22
ATOM     22  C   UNL A   1      31.538  31.705  26.537  1.00  0.00     0.023 C 
BRANCH  22  23
ATOM     23  C   UNL A   1      32.750  32.473  27.048  1.00  0.00     0.116 C 
BRANCH  23  24
ATOM     24  N   UNL A   1      32.430  33.816  27.505  1.00  0.00    -0.352 N 
ATOM     25  C   UNL A   1      33.030  34.549  28.498  1.00  0.00     0.251 C 
ATOM     26  H   UNL A   1      31.684  34.259  27.040  1.00  0.00     0.163 HD
ATOM     27  O   UNL A   1      32.556  35.629  28.840  1.00  0.00    -0.269 OA
BRANCH  25  28
ATOM     28  C   UNL A   1      34.223  34.011  29.183  1.00  0.00     0.039 A 
ATOM     29  C   UNL A   1      34.045  33.050  30.178  1.00  0.00     0.014 A 
ATOM     30  C   UNL A   1      35.507  34.436  28.833  1.00  0.00     0.014 A 
ATOM     31  C   UNL A   1      35.161  32.478  30.788  1.00  0.00     0.010 A 
ATOM     32  C   UNL A   1      36.618  33.802  29.379  1.00  0.00     0.010 A 
ATOM     33  C   UNL A   1      36.457  32.826  30.372  1.00  0.00    -0.014 A 
BRANCH  33  34
ATOM     34  C   UNL A   1      37.644  32.170  30.975  1.00  0.00     0.031 A 
ATOM     35  C   UNL A   1      38.117  32.558  32.347  1.00  0.00     0.074 A 
ATOM     36  C   UNL A   1      38.316  31.243  30.265  1.00  0.00     0.049 A 
ATOM     37  N   UNL A   1      39.107  32.066  33.050  1.00  0.00    -0.248 NA
ATOM     38  C   UNL A   1      37.410  33.666  33.007  1.00  0.00     0.031 C 
ATOM     39  C   UNL A   1      38.004  30.844  28.892  1.00  0.00     0.029 A 
ATOM     40  N   UNL A   1      39.401  30.472  30.597  1.00  0.00    -0.354 N 
ATOM     41  C   UNL A   1      39.145  32.810  34.222  1.00  0.00     0.074 A 
ATOM     42  C   UNL A   1      38.125  33.828  34.109  1.00  0.00     0.031 C 
ATOM     43  C   UNL A   1      38.853  29.876  28.512  1.00  0.00     0.029 A 
ATOM     44  C   UNL A   1      39.787  29.609  29.602  1.00  0.00     0.049 A 
ATOM     45  H   UNL A   1      39.858  30.530  31.467  1.00  0.00     0.167 HD
ATOM     46  C   UNL A   1      39.942  32.640  35.305  1.00  0.00     0.037 A 
ATOM     47  C   UNL A   1      40.779  28.700  29.572  1.00  0.00     0.037 A 
ATOM     48  C   UNL A   1      40.942  31.611  35.415  1.00  0.00     0.049 A 
ATOM     49  C   UNL A   1      41.628  28.505  30.798  1.00  0.00     0.074 A 
ATOM     50  C   UNL A   1      41.743  31.299  36.498  1.00  0.00     0.029 A 
ATOM     51  N   UNL A   1      41.286  30.732  34.397  1.00  0.00    -0.354 N 
ATOM     52  N   UNL A   1      41.583  29.140  31.945  1.00  0.00    -0.248 NA
ATOM     53  C   UNL A   1      42.651  27.453  30.734  1.00  0.00     0.031 C 
ATOM     54  C   UNL A   1      42.618  30.275  36.114  1.00  0.00     0.029 A 
ATOM     55  C   UNL A   1      42.312  29.900  34.816  1.00  0.00     0.049 A 
ATOM     56  H   UNL A   1      40.864  30.705  33.507  1.00  0.00     0.167 HD
ATOM     57  C   UNL A   1      42.551  28.550  32.746  1.00  0.00     0.074 A 
ATOM     58  C   UNL A   1      43.155  27.493  31.960  1.00  0.00     0.031 C 
ATOM     59  C   UNL A   1      42.906  28.853  34.020  1.00  0.00     0.037 A 
BRANCH  46  60
ATOM     60  C   UNL A   1      39.767  33.597  36.451  1.00  0.00     0.064 A 
ATOM     61  C   UNL A   1      38.960  33.290  37.559  1.00  0.00     0.173 A 
ATOM     62  C   UNL A   1      40.433  34.832  36.454  1.00  0.00     0.173 A 
ATOM     63  F   UNL A   1      38.292  32.127  37.606  1.00  0.00    -0.203 F 
ATOM     64  C   UNL A   1      38.792  34.198  38.601  1.00  0.00     0.198 A 
ATOM     65  C   UNL A   1      40.293  35.723  37.515  1.00  0.00     0.198 A 
ATOM     66  F   UNL A   1      41.223  35.177  35.426  1.00  0.00    -0.203 F 
ATOM     67  F   UNL A   1      37.964  33.908  39.614  1.00  0.00    -0.200 F 
ATOM     68  C   UNL A   1      39.463  35.411  38.582  1.00  0.00     0.200 A 
ATOM     69  F   UNL A   1      40.955  36.888  37.502  1.00  0.00    -0.200 F 
ATOM     70  F   UNL A   1      39.304  36.284  39.586  1.00  0.00    -0.200 F 
ENDBRANCH  46  60
BRANCH  47  71
ATOM     71  C   UNL A   1      40.991  27.884  28.347  1.00  0.00     0.064 A 
ATOM     72  C   UNL A   1      41.846  28.318  27.325  1.00  0.00     0.173 A 
ATOM     73  C   UNL A   1      40.364  26.639  28.188  1.00  0.00     0.173 A 
ATOM     74  F   UNL A   1      42.457  29.508  27.423  1.00  0.00    -0.203 F 
ATOM     75  C   UNL A   1      42.051  27.547  26.181  1.00  0.00     0.198 A 
ATOM     76  C   UNL A   1      40.595  25.855  27.060  1.00  0.00     0.198 A 
ATOM     77  F   UNL A   1      39.546  26.172  29.143  1.00  0.00    -0.203 F 
ATOM     78  F   UNL A   1      42.841  28.004  25.201  1.00  0.00    -0.200 F 
ATOM     79  C   UNL A   1      41.431  26.313  26.054  1.00  0.00     0.200 A 
ATOM     80  F   UNL A   1      40.009  24.655  26.950  1.00  0.00    -0.200 F 
ATOM     81  F   UNL A   1      41.638  25.567  24.960  1.00  0.00    -0.200 F 
ENDBRANCH  47  71
BRANCH  59  82
ATOM     82  C   UNL A   1      43.972  28.009  34.658  1.00  0.00     0.064 A 
ATOM     83  C   UNL A   1      45.326  28.376  34.627  1.00  0.00     0.173 A 
ATOM     84  C   UNL A   1      43.629  26.832  35.340  1.00  0.00     0.173 A 
ATOM     85  F   UNL A   1      45.711  29.486  33.978  1.00  0.00    -0.203 F 
ATOM     86  C   UNL A   1      46.298  27.577  35.223  1.00  0.00     0.198 A 
ATOM     87  C   UNL A   1      44.598  26.055  35.966  1.00  0.00     0.198 A 
ATOM     88  F   UNL A   1      42.347  26.439  35.409  1.00  0.00    -0.203 F 
ATOM     89  F   UNL A   1      47.592  27.916  35.128  1.00  0.00    -0.200 F 
ATOM     90  C   UNL A   1      45.933  26.421  35.898  1.00  0.00     0.200 A 
ATOM     91  F   UNL A   1      44.241  24.949  36.633  1.00  0.00    -0.200 F 
ATOM     92  F   UNL A   1      46.870  25.658  36.477  1.00  0.00    -0.200 F 
ENDBRANCH  59  82
ENDBRANCH  33  34
ENDBRANCH  25  28
ENDBRANCH  23  24
ENDBRANCH  22  23
ENDBRANCH   1  22
TORSDOF 13
ENDMDL
