MODEL 1
REMARK VINA RESULT:     -12.4      0.000      0.000
REMARK SMILES CC(C)(C)C[N@H+]1[C@@H](C(=O)NCCCCNC(=O)c2ccc(-c3c4nc(c(-c5c(F)c(F)c(F)c(F)c5F)c5ccc([nH]5)c(-c5c(F)c(F)c(F)c(F)c5F)c5nc(c(-c6c(F)c(F)c(F)c(F)c6F)c6ccc3[nH]6)C=C5)C=C4)cc2)CC[C@H]2CCCC[C@@H]21
REMARK SMILES IDX 12 1 11 2 10 3 8 4 9 5 7 7 6 8 88 9 81 11 83 12 87 13 82 14
REMARK SMILES IDX 84 15 86 16 85 17 5 18 2 19 1 20 3 21 4 22 13 23 14 24 15 25
REMARK SMILES IDX 16 26 17 28 18 29 19 30 80 31 20 32 79 33 21 34 22 35 23 36
REMARK SMILES IDX 73 37 24 38 78 39 72 40 74 41 25 42 77 43 71 44 70 45 26 47
REMARK SMILES IDX 58 48 38 49 57 50 39 51 42 52 56 53 75 54 40 55 41 56 55 58
REMARK SMILES IDX 76 59 43 60 27 61 28 62 36 63 29 64 30 65 34 66 37 67 31 68
REMARK SMILES IDX 32 69 35 70 33 71 59 72 60 73 68 74 61 75 62 76 66 77 69 78
REMARK SMILES IDX 63 79 64 80 67 81 65 82 44 83 45 84 53 85 46 86 47 87 51 88
REMARK SMILES IDX 54 89 48 90 49 91 52 92 50 93
REMARK H PARENT 10 6 6 10 15 27 74 46 42 57
REMARK Flexibility Score: inf
ROOT
ATOM      1  C   UNL A   1      31.374  27.606  25.336  1.00  0.00     0.023 C 
ENDROOT
BRANCH   1   2
ATOM      2  C   UNL A   1      32.071  26.847  26.493  1.00  0.00     0.116 C 
BRANCH   2   3
ATOM      3  N   UNL A   1      31.377  25.624  26.848  1.00  0.00    -0.351 N 
ATOM      4  C   UNL A   1      31.580  24.292  26.799  1.00  0.00     0.278 C 
ATOM      5  O   UNL A   1      30.590  23.691  27.260  1.00  0.00    -0.268 OA
ATOM      6  H   UNL A   1      30.497  25.827  27.239  1.00  0.00     0.163 HD
BRANCH   4   7
ATOM      7  C   UNL A   1      32.866  23.476  26.389  1.00  0.00     0.274 C 
ATOM      8  N   UNL A   1      33.487  23.751  25.045  1.00  0.00    -0.322 N 
ATOM      9  C   UNL A   1      34.631  22.813  24.753  1.00  0.00     0.187 C 
ATOM     10  H   UNL A   1      33.832  24.709  25.099  1.00  0.00     0.349 HD
ATOM     11  C   UNL A   1      32.468  21.973  26.562  1.00  0.00     0.076 C 
ATOM     12  C   UNL A   1      34.708  21.536  25.626  1.00  0.00     0.048 C 
ATOM     13  C   UNL A   1      36.032  23.455  24.812  1.00  0.00     0.065 C 
ATOM     14  C   UNL A   1      33.327  20.961  25.827  1.00  0.00     0.016 C 
ATOM     15  C   UNL A   1      35.649  20.517  24.973  1.00  0.00     0.010 C 
ATOM     16  C   UNL A   1      37.063  22.489  24.193  1.00  0.00     0.006 C 
ATOM     17  C   UNL A   1      37.055  21.097  24.830  1.00  0.00     0.001 C 
BRANCH   8  18
ATOM     18  C   UNL A   1      32.503  23.648  23.927  1.00  0.00     0.269 C 
BRANCH  18  19
ATOM     19  C   UNL A   1      32.776  24.638  22.746  1.00  0.00     0.011 C 
ATOM     20  C   UNL A   1      31.453  25.264  22.364  1.00  0.00     0.017 C 
ATOM     21  C   UNL A   1      33.275  23.839  21.527  1.00  0.00     0.017 C 
ATOM     22  C   UNL A   1      33.755  25.777  23.035  1.00  0.00     0.017 C 
ENDBRANCH  18  19
ENDBRANCH   8  18
ENDBRANCH   4   7
ENDBRANCH   2   3
ENDBRANCH   1   2
BRANCH   1  23
ATOM     23  C   UNL A   1      32.207  28.619  24.554  1.00  0.00     0.023 C 
BRANCH  23  24
ATOM     24  C   UNL A   1      33.228  29.327  25.417  1.00  0.00     0.116 C 
BRANCH  24  25
ATOM     25  N   UNL A   1      32.693  30.543  26.032  1.00  0.00    -0.352 N 
ATOM     26  C   UNL A   1      33.177  31.320  27.057  1.00  0.00     0.251 C 
ATOM     27  H   UNL A   1      31.844  30.858  25.646  1.00  0.00     0.163 HD
ATOM     28  O   UNL A   1      32.487  32.212  27.543  1.00  0.00    -0.269 OA
BRANCH  26  29
ATOM     29  C   UNL A   1      34.525  31.055  27.596  1.00  0.00     0.039 A 
ATOM     30  C   UNL A   1      35.450  32.097  27.711  1.00  0.00     0.014 A 
ATOM     31  C   UNL A   1      34.848  29.777  28.043  1.00  0.00     0.014 A 
ATOM     32  C   UNL A   1      36.656  31.873  28.379  1.00  0.00     0.010 A 
ATOM     33  C   UNL A   1      35.967  29.598  28.835  1.00  0.00     0.010 A 
ATOM     34  C   UNL A   1      36.895  30.637  28.999  1.00  0.00    -0.014 A 
BRANCH  34  35
ATOM     35  C   UNL A   1      38.116  30.354  29.793  1.00  0.00     0.031 A 
ATOM     36  C   UNL A   1      39.145  29.411  29.230  1.00  0.00     0.074 A 
ATOM     37  C   UNL A   1      38.233  30.822  31.051  1.00  0.00     0.049 A 
ATOM     38  N   UNL A   1      40.154  28.828  29.824  1.00  0.00    -0.248 NA
ATOM     39  C   UNL A   1      38.971  29.016  27.821  1.00  0.00     0.031 C 
ATOM     40  C   UNL A   1      37.271  31.690  31.733  1.00  0.00     0.029 A 
ATOM     41  N   UNL A   1      39.209  30.609  31.992  1.00  0.00    -0.354 N 
ATOM     42  C   UNL A   1      40.688  27.958  28.881  1.00  0.00     0.074 A 
ATOM     43  C   UNL A   1      39.855  28.038  27.704  1.00  0.00     0.031 C 
ATOM     44  C   UNL A   1      37.719  31.960  32.970  1.00  0.00     0.029 A 
ATOM     45  C   UNL A   1      38.973  31.246  33.186  1.00  0.00     0.049 A 
ATOM     46  H   UNL A   1      40.004  30.052  31.827  1.00  0.00     0.167 HD
ATOM     47  C   UNL A   1      41.796  27.188  28.978  1.00  0.00     0.037 A 
ATOM     48  C   UNL A   1      39.688  31.241  34.327  1.00  0.00     0.037 A 
ATOM     49  C   UNL A   1      42.665  27.185  30.121  1.00  0.00     0.049 A 
ATOM     50  C   UNL A   1      40.953  30.428  34.388  1.00  0.00     0.074 A 
ATOM     51  C   UNL A   1      43.864  26.520  30.294  1.00  0.00     0.029 A 
ATOM     52  N   UNL A   1      42.432  27.907  31.283  1.00  0.00    -0.354 N 
ATOM     53  N   UNL A   1      41.481  29.651  33.474  1.00  0.00    -0.248 NA
ATOM     54  C   UNL A   1      41.722  30.493  35.638  1.00  0.00     0.031 C 
ATOM     55  C   UNL A   1      44.347  26.820  31.572  1.00  0.00     0.029 A 
ATOM     56  C   UNL A   1      43.465  27.701  32.180  1.00  0.00     0.049 A 
ATOM     57  H   UNL A   1      41.648  28.480  31.446  1.00  0.00     0.167 HD
ATOM     58  C   UNL A   1      42.656  29.159  34.023  1.00  0.00     0.074 A 
ATOM     59  C   UNL A   1      42.769  29.733  35.349  1.00  0.00     0.031 C 
ATOM     60  C   UNL A   1      43.561  28.307  33.483  1.00  0.00     0.037 A 
BRANCH  47  61
ATOM     61  C   UNL A   1      42.138  26.313  27.807  1.00  0.00     0.064 A 
ATOM     62  C   UNL A   1      41.518  25.068  27.610  1.00  0.00     0.173 A 
ATOM     63  C   UNL A   1      43.092  26.726  26.865  1.00  0.00     0.173 A 
ATOM     64  F   UNL A   1      40.611  24.620  28.491  1.00  0.00    -0.203 F 
ATOM     65  C   UNL A   1      41.871  24.253  26.539  1.00  0.00     0.198 A 
ATOM     66  C   UNL A   1      43.416  25.922  25.774  1.00  0.00     0.198 A 
ATOM     67  F   UNL A   1      43.712  27.907  27.001  1.00  0.00    -0.203 F 
ATOM     68  F   UNL A   1      41.313  23.041  26.411  1.00  0.00    -0.200 F 
ATOM     69  C   UNL A   1      42.813  24.683  25.618  1.00  0.00     0.200 A 
ATOM     70  F   UNL A   1      44.319  26.344  24.878  1.00  0.00    -0.200 F 
ATOM     71  F   UNL A   1      43.149  23.897  24.585  1.00  0.00    -0.200 F 
ENDBRANCH  47  61
BRANCH  48  72
ATOM     72  C   UNL A   1      39.250  32.065  35.485  1.00  0.00     0.064 A 
ATOM     73  C   UNL A   1      38.454  31.508  36.495  1.00  0.00     0.173 A 
ATOM     74  C   UNL A   1      39.615  33.412  35.611  1.00  0.00     0.173 A 
ATOM     75  F   UNL A   1      38.065  30.227  36.409  1.00  0.00    -0.203 F 
ATOM     76  C   UNL A   1      38.021  32.271  37.576  1.00  0.00     0.198 A 
ATOM     77  C   UNL A   1      39.202  34.170  36.707  1.00  0.00     0.198 A 
ATOM     78  F   UNL A   1      40.382  33.992  34.676  1.00  0.00    -0.203 F 
ATOM     79  F   UNL A   1      37.224  31.724  38.504  1.00  0.00    -0.200 F 
ATOM     80  C   UNL A   1      38.399  33.601  37.684  1.00  0.00     0.200 A 
ATOM     81  F   UNL A   1      39.581  35.451  36.816  1.00  0.00    -0.200 F 
ATOM     82  F   UNL A   1      37.985  34.335  38.726  1.00  0.00    -0.200 F 
ENDBRANCH  48  72
BRANCH  60  83
ATOM     83  C   UNL A   1      44.773  27.980  34.301  1.00  0.00     0.064 A 
ATOM     84  C   UNL A   1      45.935  28.761  34.234  1.00  0.00     0.173 A 
ATOM     85  C   UNL A   1      44.742  26.916  35.214  1.00  0.00     0.173 A 
ATOM     86  F   UNL A   1      46.014  29.781  33.365  1.00  0.00    -0.203 F 
ATOM     87  C   UNL A   1      47.032  28.477  35.042  1.00  0.00     0.198 A 
ATOM     88  C   UNL A   1      45.830  26.652  36.039  1.00  0.00     0.198 A 
ATOM     89  F   UNL A   1      43.649  26.147  35.320  1.00  0.00    -0.203 F 
ATOM     90  F   UNL A   1      48.146  29.215  34.939  1.00  0.00    -0.200 F 
ATOM     91  C   UNL A   1      46.975  27.429  35.951  1.00  0.00     0.200 A 
ATOM     92  F   UNL A   1      45.769  25.648  36.926  1.00  0.00    -0.200 F 
ATOM     93  F   UNL A   1      48.026  27.168  36.738  1.00  0.00    -0.200 F 
ENDBRANCH  60  83
ENDBRANCH  34  35
ENDBRANCH  26  29
ENDBRANCH  24  25
ENDBRANCH  23  24
ENDBRANCH   1  23
TORSDOF 13
ENDMDL
MODEL 2
REMARK VINA RESULT:     -12.4      0.098      1.605
REMARK SMILES CC(C)(C)C[N@H+]1[C@@H](C(=O)NCCCCNC(=O)c2ccc(-c3c4nc(c(-c5c(F)c(F)c(F)c(F)c5F)c5ccc([nH]5)c(-c5c(F)c(F)c(F)c(F)c5F)c5nc(c(-c6c(F)c(F)c(F)c(F)c6F)c6ccc3[nH]6)C=C5)C=C4)cc2)CC[C@H]2CCCC[C@@H]21
REMARK SMILES IDX 12 1 11 2 10 3 8 4 9 5 7 7 6 8 88 9 81 11 83 12 87 13 82 14
REMARK SMILES IDX 84 15 86 16 85 17 5 18 2 19 1 20 3 21 4 22 13 23 14 24 15 25
REMARK SMILES IDX 16 26 17 28 18 29 19 30 80 31 20 32 79 33 21 34 22 35 23 36
REMARK SMILES IDX 73 37 24 38 78 39 72 40 74 41 25 42 77 43 71 44 70 45 26 47
REMARK SMILES IDX 58 48 38 49 57 50 39 51 42 52 56 53 75 54 40 55 41 56 55 58
REMARK SMILES IDX 76 59 43 60 27 61 28 62 36 63 29 64 30 65 34 66 37 67 31 68
REMARK SMILES IDX 32 69 35 70 33 71 59 72 60 73 68 74 61 75 62 76 66 77 69 78
REMARK SMILES IDX 63 79 64 80 67 81 65 82 44 83 45 84 53 85 46 86 47 87 51 88
REMARK SMILES IDX 54 89 48 90 49 91 52 92 50 93
REMARK H PARENT 10 6 6 10 15 27 74 46 42 57
REMARK Flexibility Score: inf
ROOT
ATOM      1  C   UNL A   1      31.393  27.482  25.302  1.00  0.00     0.023 C 
ENDROOT
BRANCH   1   2
ATOM      2  C   UNL A   1      32.082  26.754  26.483  1.00  0.00     0.116 C 
BRANCH   2   3
ATOM      3  N   UNL A   1      31.403  25.526  26.847  1.00  0.00    -0.351 N 
ATOM      4  C   UNL A   1      31.620  24.196  26.807  1.00  0.00     0.278 C 
ATOM      5  O   UNL A   1      30.638  23.586  27.272  1.00  0.00    -0.268 OA
ATOM      6  H   UNL A   1      30.521  25.721  27.238  1.00  0.00     0.163 HD
BRANCH   4   7
ATOM      7  C   UNL A   1      32.915  23.392  26.399  1.00  0.00     0.274 C 
ATOM      8  N   UNL A   1      33.531  23.665  25.052  1.00  0.00    -0.322 N 
ATOM      9  C   UNL A   1      34.685  22.739  24.765  1.00  0.00     0.187 C 
ATOM     10  H   UNL A   1      33.865  24.627  25.100  1.00  0.00     0.349 HD
ATOM     11  C   UNL A   1      32.534  21.886  26.583  1.00  0.00     0.076 C 
ATOM     12  C   UNL A   1      34.778  21.468  25.646  1.00  0.00     0.048 C 
ATOM     13  C   UNL A   1      36.079  23.396  24.818  1.00  0.00     0.065 C 
ATOM     14  C   UNL A   1      33.404  20.878  25.854  1.00  0.00     0.016 C 
ATOM     15  C   UNL A   1      35.730  20.455  24.999  1.00  0.00     0.010 C 
ATOM     16  C   UNL A   1      37.120  22.438  24.203  1.00  0.00     0.006 C 
ATOM     17  C   UNL A   1      37.128  21.050  24.849  1.00  0.00     0.001 C 
BRANCH   8  18
ATOM     18  C   UNL A   1      32.547  23.543  23.937  1.00  0.00     0.269 C 
BRANCH  18  19
ATOM     19  C   UNL A   1      32.781  24.557  22.768  1.00  0.00     0.011 C 
ATOM     20  C   UNL A   1      31.445  25.184  22.436  1.00  0.00     0.017 C 
ATOM     21  C   UNL A   1      33.248  23.784  21.520  1.00  0.00     0.017 C 
ATOM     22  C   UNL A   1      33.763  25.695  23.051  1.00  0.00     0.017 C 
ENDBRANCH  18  19
ENDBRANCH   8  18
ENDBRANCH   4   7
ENDBRANCH   2   3
ENDBRANCH   1   2
BRANCH   1  23
ATOM     23  C   UNL A   1      32.169  28.602  24.613  1.00  0.00     0.023 C 
BRANCH  23  24
ATOM     24  C   UNL A   1      33.168  29.271  25.531  1.00  0.00     0.116 C 
BRANCH  24  25
ATOM     25  N   UNL A   1      32.670  30.537  26.072  1.00  0.00    -0.352 N 
ATOM     26  C   UNL A   1      33.181  31.363  27.045  1.00  0.00     0.251 C 
ATOM     27  H   UNL A   1      31.827  30.850  25.672  1.00  0.00     0.163 HD
ATOM     28  O   UNL A   1      32.518  32.301  27.477  1.00  0.00    -0.269 OA
BRANCH  26  29
ATOM     29  C   UNL A   1      34.525  31.095  27.593  1.00  0.00     0.039 A 
ATOM     30  C   UNL A   1      35.445  32.138  27.729  1.00  0.00     0.014 A 
ATOM     31  C   UNL A   1      34.847  29.812  28.027  1.00  0.00     0.014 A 
ATOM     32  C   UNL A   1      36.646  31.909  28.405  1.00  0.00     0.010 A 
ATOM     33  C   UNL A   1      35.960  29.626  28.827  1.00  0.00     0.010 A 
ATOM     34  C   UNL A   1      36.883  30.666  29.012  1.00  0.00    -0.014 A 
BRANCH  34  35
ATOM     35  C   UNL A   1      38.097  30.377  29.814  1.00  0.00     0.031 A 
ATOM     36  C   UNL A   1      39.130  29.436  29.254  1.00  0.00     0.074 A 
ATOM     37  C   UNL A   1      38.205  30.837  31.076  1.00  0.00     0.049 A 
ATOM     38  N   UNL A   1      40.133  28.848  29.852  1.00  0.00    -0.248 NA
ATOM     39  C   UNL A   1      38.966  29.049  27.841  1.00  0.00     0.031 C 
ATOM     40  C   UNL A   1      37.239  31.702  31.755  1.00  0.00     0.029 A 
ATOM     41  N   UNL A   1      39.174  30.618  32.023  1.00  0.00    -0.354 N 
ATOM     42  C   UNL A   1      40.673  27.983  28.908  1.00  0.00     0.074 A 
ATOM     43  C   UNL A   1      39.850  28.071  27.725  1.00  0.00     0.031 C 
ATOM     44  C   UNL A   1      37.678  31.965  32.997  1.00  0.00     0.029 A 
ATOM     45  C   UNL A   1      38.929  31.248  33.219  1.00  0.00     0.049 A 
ATOM     46  H   UNL A   1      39.969  30.060  31.861  1.00  0.00     0.167 HD
ATOM     47  C   UNL A   1      41.779  27.211  29.010  1.00  0.00     0.037 A 
ATOM     48  C   UNL A   1      39.635  31.235  34.365  1.00  0.00     0.037 A 
ATOM     49  C   UNL A   1      42.639  27.200  30.159  1.00  0.00     0.049 A 
ATOM     50  C   UNL A   1      40.898  30.420  34.432  1.00  0.00     0.074 A 
ATOM     51  C   UNL A   1      43.837  26.532  30.338  1.00  0.00     0.029 A 
ATOM     52  N   UNL A   1      42.399  27.915  31.324  1.00  0.00    -0.354 N 
ATOM     53  N   UNL A   1      41.433  29.648  33.517  1.00  0.00    -0.248 NA
ATOM     54  C   UNL A   1      41.658  30.476  35.688  1.00  0.00     0.031 C 
ATOM     55  C   UNL A   1      44.310  26.823  31.620  1.00  0.00     0.029 A 
ATOM     56  C   UNL A   1      43.425  27.703  32.227  1.00  0.00     0.049 A 
ATOM     57  H   UNL A   1      41.614  28.488  31.484  1.00  0.00     0.167 HD
ATOM     58  C   UNL A   1      42.603  29.151  34.072  1.00  0.00     0.074 A 
ATOM     59  C   UNL A   1      42.707  29.717  35.402  1.00  0.00     0.031 C 
ATOM     60  C   UNL A   1      43.511  28.301  33.534  1.00  0.00     0.037 A 
BRANCH  47  61
ATOM     61  C   UNL A   1      42.129  26.342  27.836  1.00  0.00     0.064 A 
ATOM     62  C   UNL A   1      43.097  26.730  26.894  1.00  0.00     0.173 A 
ATOM     63  C   UNL A   1      41.496  25.104  27.652  1.00  0.00     0.173 A 
ATOM     64  F   UNL A   1      43.720  27.912  27.015  1.00  0.00    -0.203 F 
ATOM     65  C   UNL A   1      43.386  25.930  25.792  1.00  0.00     0.198 A 
ATOM     66  C   UNL A   1      41.814  24.290  26.567  1.00  0.00     0.198 A 
ATOM     67  F   UNL A   1      40.568  24.683  28.522  1.00  0.00    -0.203 F 
ATOM     68  F   UNL A   1      44.265  26.354  24.873  1.00  0.00    -0.200 F 
ATOM     69  C   UNL A   1      42.750  24.709  25.633  1.00  0.00     0.200 A 
ATOM     70  F   UNL A   1      41.207  23.105  26.419  1.00  0.00    -0.200 F 
ATOM     71  F   UNL A   1      43.032  23.939  24.572  1.00  0.00    -0.200 F 
ENDBRANCH  47  61
BRANCH  48  72
ATOM     72  C   UNL A   1      39.190  32.052  35.524  1.00  0.00     0.064 A 
ATOM     73  C   UNL A   1      38.392  31.488  36.530  1.00  0.00     0.173 A 
ATOM     74  C   UNL A   1      39.549  33.401  35.657  1.00  0.00     0.173 A 
ATOM     75  F   UNL A   1      38.008  30.206  36.438  1.00  0.00    -0.203 F 
ATOM     76  C   UNL A   1      37.952  32.246  37.612  1.00  0.00     0.198 A 
ATOM     77  C   UNL A   1      39.128  34.153  36.754  1.00  0.00     0.198 A 
ATOM     78  F   UNL A   1      40.317  33.987  34.728  1.00  0.00    -0.203 F 
ATOM     79  F   UNL A   1      37.154  31.692  38.535  1.00  0.00    -0.200 F 
ATOM     80  C   UNL A   1      38.324  33.577  37.726  1.00  0.00     0.200 A 
ATOM     81  F   UNL A   1      39.502  35.435  36.869  1.00  0.00    -0.200 F 
ATOM     82  F   UNL A   1      37.903  34.306  38.769  1.00  0.00    -0.200 F 
ENDBRANCH  48  72
BRANCH  60  83
ATOM     83  C   UNL A   1      44.716  27.968  34.360  1.00  0.00     0.064 A 
ATOM     84  C   UNL A   1      44.744  26.843  35.195  1.00  0.00     0.173 A 
ATOM     85  C   UNL A   1      45.879  28.745  34.257  1.00  0.00     0.173 A 
ATOM     86  F   UNL A   1      43.650  26.078  35.335  1.00  0.00    -0.203 F 
ATOM     87  C   UNL A   1      45.891  26.517  35.913  1.00  0.00     0.198 A 
ATOM     88  C   UNL A   1      47.032  28.401  34.954  1.00  0.00     0.198 A 
ATOM     89  F   UNL A   1      45.902  29.826  33.463  1.00  0.00    -0.203 F 
ATOM     90  F   UNL A   1      45.887  25.455  36.732  1.00  0.00    -0.200 F 
ATOM     91  C   UNL A   1      47.037  27.289  35.784  1.00  0.00     0.200 A 
ATOM     92  F   UNL A   1      48.142  29.140  34.819  1.00  0.00    -0.200 F 
ATOM     93  F   UNL A   1      48.144  26.964  36.463  1.00  0.00    -0.200 F 
ENDBRANCH  60  83
ENDBRANCH  34  35
ENDBRANCH  26  29
ENDBRANCH  24  25
ENDBRANCH  23  24
ENDBRANCH   1  23
TORSDOF 13
ENDMDL
MODEL 3
REMARK VINA RESULT:     -12.2      2.141      3.446
REMARK SMILES CC(C)(C)C[N@H+]1[C@@H](C(=O)NCCCCNC(=O)c2ccc(-c3c4nc(c(-c5c(F)c(F)c(F)c(F)c5F)c5ccc([nH]5)c(-c5c(F)c(F)c(F)c(F)c5F)c5nc(c(-c6c(F)c(F)c(F)c(F)c6F)c6ccc3[nH]6)C=C5)C=C4)cc2)CC[C@H]2CCCC[C@@H]21
REMARK SMILES IDX 12 1 11 2 10 3 8 4 9 5 7 7 6 8 88 9 81 11 83 12 87 13 82 14
REMARK SMILES IDX 84 15 86 16 85 17 5 18 2 19 1 20 3 21 4 22 13 23 14 24 15 25
REMARK SMILES IDX 16 26 17 28 18 29 19 30 80 31 20 32 79 33 21 34 22 35 23 36
REMARK SMILES IDX 73 37 24 38 78 39 72 40 74 41 25 42 77 43 71 44 70 45 26 47
REMARK SMILES IDX 58 48 38 49 57 50 39 51 42 52 56 53 75 54 40 55 41 56 55 58
REMARK SMILES IDX 76 59 43 60 27 61 28 62 36 63 29 64 30 65 34 66 37 67 31 68
REMARK SMILES IDX 32 69 35 70 33 71 59 72 60 73 68 74 61 75 62 76 66 77 69 78
REMARK SMILES IDX 63 79 64 80 67 81 65 82 44 83 45 84 53 85 46 86 47 87 51 88
REMARK SMILES IDX 54 89 48 90 49 91 52 92 50 93
REMARK H PARENT 10 6 6 10 15 27 74 46 42 57
REMARK Flexibility Score: inf
ROOT
ATOM      1  C   UNL A   1      32.046  30.106  26.819  1.00  0.00     0.023 C 
ENDROOT
BRANCH   1   2
ATOM      2  C   UNL A   1      33.480  29.664  26.437  1.00  0.00     0.116 C 
BRANCH   2   3
ATOM      3  N   UNL A   1      33.659  29.550  25.002  1.00  0.00    -0.351 N 
ATOM      4  C   UNL A   1      33.739  28.586  24.063  1.00  0.00     0.278 C 
ATOM      5  O   UNL A   1      33.911  29.096  22.939  1.00  0.00    -0.268 OA
ATOM      6  H   UNL A   1      33.748  30.441  24.593  1.00  0.00     0.163 HD
BRANCH   4   7
ATOM      7  C   UNL A   1      33.526  27.028  24.188  1.00  0.00     0.274 C 
ATOM      8  N   UNL A   1      32.191  26.455  23.788  1.00  0.00    -0.322 N 
ATOM      9  C   UNL A   1      32.106  24.979  24.076  1.00  0.00     0.187 C 
ATOM     10  H   UNL A   1      32.121  26.616  22.783  1.00  0.00     0.349 HD
ATOM     11  C   UNL A   1      33.899  26.683  25.667  1.00  0.00     0.076 C 
ATOM     12  C   UNL A   1      33.161  24.410  25.055  1.00  0.00     0.048 C 
ATOM     13  C   UNL A   1      32.144  24.068  22.832  1.00  0.00     0.065 C 
ATOM     14  C   UNL A   1      33.371  25.365  26.205  1.00  0.00     0.016 C 
ATOM     15  C   UNL A   1      32.720  23.027  25.550  1.00  0.00     0.010 C 
ATOM     16  C   UNL A   1      31.733  22.636  23.233  1.00  0.00     0.006 C 
ATOM     17  C   UNL A   1      32.568  22.060  24.379  1.00  0.00     0.001 C 
BRANCH   8  18
ATOM     18  C   UNL A   1      31.050  27.131  24.472  1.00  0.00     0.269 C 
BRANCH  18  19
ATOM     19  C   UNL A   1      30.090  27.897  23.501  1.00  0.00     0.011 C 
ATOM     20  C   UNL A   1      30.619  27.709  22.097  1.00  0.00     0.017 C 
ATOM     21  C   UNL A   1      30.156  29.404  23.817  1.00  0.00     0.017 C 
ATOM     22  C   UNL A   1      28.629  27.447  23.505  1.00  0.00     0.017 C 
ENDBRANCH  18  19
ENDBRANCH   8  18
ENDBRANCH   4   7
ENDBRANCH   2   3
ENDBRANCH   1   2
BRANCH   1  23
ATOM     23  C   UNL A   1      31.756  31.605  26.852  1.00  0.00     0.023 C 
BRANCH  23  24
ATOM     24  C   UNL A   1      32.916  32.415  27.386  1.00  0.00     0.116 C 
BRANCH  24  25
ATOM     25  N   UNL A   1      32.566  33.819  27.605  1.00  0.00    -0.352 N 
ATOM     26  C   UNL A   1      33.038  34.732  28.518  1.00  0.00     0.251 C 
ATOM     27  H   UNL A   1      31.876  34.168  26.996  1.00  0.00     0.163 HD
ATOM     28  O   UNL A   1      32.488  35.822  28.650  1.00  0.00    -0.269 OA
BRANCH  26  29
ATOM     29  C   UNL A   1      34.194  34.382  29.365  1.00  0.00     0.039 A 
ATOM     30  C   UNL A   1      33.992  33.811  30.624  1.00  0.00     0.014 A 
ATOM     31  C   UNL A   1      35.485  34.567  28.877  1.00  0.00     0.014 A 
ATOM     32  C   UNL A   1      35.088  33.326  31.342  1.00  0.00     0.010 A 
ATOM     33  C   UNL A   1      36.546  33.952  29.514  1.00  0.00     0.010 A 
ATOM     34  C   UNL A   1      36.366  33.338  30.762  1.00  0.00    -0.014 A 
BRANCH  34  35
ATOM     35  C   UNL A   1      37.561  32.768  31.431  1.00  0.00     0.031 A 
ATOM     36  C   UNL A   1      38.298  31.639  30.760  1.00  0.00     0.074 A 
ATOM     37  C   UNL A   1      37.896  33.157  32.677  1.00  0.00     0.049 A 
ATOM     38  N   UNL A   1      39.203  30.829  31.245  1.00  0.00    -0.248 NA
ATOM     39  C   UNL A   1      37.911  31.339  29.370  1.00  0.00     0.031 C 
ATOM     40  C   UNL A   1      37.218  34.193  33.458  1.00  0.00     0.029 A 
ATOM     41  N   UNL A   1      38.883  32.703  33.515  1.00  0.00    -0.354 N 
ATOM     42  C   UNL A   1      39.440  29.895  30.246  1.00  0.00     0.074 A 
ATOM     43  C   UNL A   1      38.541  30.195  29.156  1.00  0.00     0.031 C 
ATOM     44  C   UNL A   1      37.828  34.317  34.649  1.00  0.00     0.029 A 
ATOM     45  C   UNL A   1      38.906  33.337  34.734  1.00  0.00     0.049 A 
ATOM     46  H   UNL A   1      39.514  31.990  33.268  1.00  0.00     0.167 HD
ATOM     47  C   UNL A   1      40.352  28.896  30.226  1.00  0.00     0.037 A 
ATOM     48  C   UNL A   1      39.704  33.138  35.800  1.00  0.00     0.037 A 
ATOM     49  C   UNL A   1      41.301  28.664  31.279  1.00  0.00     0.049 A 
ATOM     50  C   UNL A   1      40.756  32.064  35.728  1.00  0.00     0.074 A 
ATOM     51  C   UNL A   1      42.333  27.746  31.327  1.00  0.00     0.029 A 
ATOM     52  N   UNL A   1      41.343  29.382  32.466  1.00  0.00    -0.354 N 
ATOM     53  N   UNL A   1      41.011  31.220  34.758  1.00  0.00    -0.248 NA
ATOM     54  C   UNL A   1      41.632  31.917  36.898  1.00  0.00     0.031 C 
ATOM     55  C   UNL A   1      42.986  27.890  32.554  1.00  0.00     0.029 A 
ATOM     56  C   UNL A   1      42.383  28.924  33.255  1.00  0.00     0.049 A 
ATOM     57  H   UNL A   1      40.725  30.107  32.711  1.00  0.00     0.167 HD
ATOM     58  C   UNL A   1      42.093  30.463  35.185  1.00  0.00     0.074 A 
ATOM     59  C   UNL A   1      42.453  30.954  36.500  1.00  0.00     0.031 C 
ATOM     60  C   UNL A   1      42.731  29.451  34.550  1.00  0.00     0.037 A 
BRANCH  47  61
ATOM     61  C   UNL A   1      40.382  28.006  29.017  1.00  0.00     0.064 A 
ATOM     62  C   UNL A   1      41.142  28.329  27.881  1.00  0.00     0.173 A 
ATOM     63  C   UNL A   1      39.646  26.812  28.994  1.00  0.00     0.173 A 
ATOM     64  F   UNL A   1      41.850  29.468  27.845  1.00  0.00    -0.203 F 
ATOM     65  C   UNL A   1      41.132  27.512  26.754  1.00  0.00     0.198 A 
ATOM     66  C   UNL A   1      39.667  25.978  27.878  1.00  0.00     0.198 A 
ATOM     67  F   UNL A   1      38.906  26.452  30.052  1.00  0.00    -0.203 F 
ATOM     68  F   UNL A   1      41.813  27.877  25.659  1.00  0.00    -0.200 F 
ATOM     69  C   UNL A   1      40.401  26.334  26.756  1.00  0.00     0.200 A 
ATOM     70  F   UNL A   1      38.969  24.834  27.884  1.00  0.00    -0.200 F 
ATOM     71  F   UNL A   1      40.395  25.547  25.671  1.00  0.00    -0.200 F 
ENDBRANCH  47  61
BRANCH  48  72
ATOM     72  C   UNL A   1      39.569  33.999  37.003  1.00  0.00     0.064 A 
ATOM     73  C   UNL A   1      38.806  33.576  38.101  1.00  0.00     0.173 A 
ATOM     74  C   UNL A   1      40.195  35.251  37.088  1.00  0.00     0.173 A 
ATOM     75  F   UNL A   1      38.174  32.394  38.060  1.00  0.00    -0.203 F 
ATOM     76  C   UNL A   1      38.656  34.380  39.228  1.00  0.00     0.198 A 
ATOM     77  C   UNL A   1      40.065  36.045  38.228  1.00  0.00     0.198 A 
ATOM     78  F   UNL A   1      40.942  35.699  36.070  1.00  0.00    -0.203 F 
ATOM     79  F   UNL A   1      37.885  33.969  40.244  1.00  0.00    -0.200 F 
ATOM     80  C   UNL A   1      39.289  35.612  39.293  1.00  0.00     0.200 A 
ATOM     81  F   UNL A   1      40.690  37.228  38.293  1.00  0.00    -0.200 F 
ATOM     82  F   UNL A   1      39.147  36.385  40.379  1.00  0.00    -0.200 F 
ENDBRANCH  48  72
BRANCH  60  83
ATOM     83  C   UNL A   1      43.910  28.838  35.242  1.00  0.00     0.064 A 
ATOM     84  C   UNL A   1      45.210  29.321  35.041  1.00  0.00     0.173 A 
ATOM     85  C   UNL A   1      43.724  27.803  36.171  1.00  0.00     0.173 A 
ATOM     86  F   UNL A   1      45.437  30.300  34.152  1.00  0.00    -0.203 F 
ATOM     87  C   UNL A   1      46.287  28.777  35.735  1.00  0.00     0.198 A 
ATOM     88  C   UNL A   1      44.799  27.281  36.882  1.00  0.00     0.198 A 
ATOM     89  F   UNL A   1      42.497  27.315  36.403  1.00  0.00    -0.203 F 
ATOM     90  F   UNL A   1      47.528  29.230  35.504  1.00  0.00    -0.200 F 
ATOM     91  C   UNL A   1      46.080  27.765  36.662  1.00  0.00     0.200 A 
ATOM     92  F   UNL A   1      44.595  26.313  37.788  1.00  0.00    -0.200 F 
ATOM     93  F   UNL A   1      47.116  27.255  37.340  1.00  0.00    -0.200 F 
ENDBRANCH  60  83
ENDBRANCH  34  35
ENDBRANCH  26  29
ENDBRANCH  24  25
ENDBRANCH  23  24
ENDBRANCH   1  23
TORSDOF 13
ENDMDL
