MODEL 1
REMARK VINA RESULT:     -12.5      0.000      0.000
REMARK SMILES O=C(Cc1c[nH]c(=O)n(Cc2ccccc2)c1=O)NCCCCNC(=O)c1ccc(-c2c3nc(c(-c4c(F)c(F)c(F)c(F)c4F)c4ccc([nH]4)c(-c4c(F)c(F)c(F)c(F)c4F)c4nc(c(-c5c(F)c(F)c(F)c(F)c5F)c5ccc2[nH]5)C=C4)C=C3)cc1
REMARK SMILES IDX 21 1 20 2 19 3 1 4 2 5 3 7 4 8 5 9 17 10 6 11 9 12 18 13
REMARK SMILES IDX 7 14 8 16 10 17 11 18 12 19 16 20 13 21 15 22 14 23 22 24
REMARK SMILES IDX 23 25 24 26 25 27 26 29 27 30 28 31 89 32 29 33 88 34 30 35
REMARK SMILES IDX 31 36 32 37 82 38 33 39 87 40 81 41 83 42 34 43 86 44 80 45
REMARK SMILES IDX 79 46 35 48 67 49 47 50 66 51 48 52 51 53 65 54 84 55 49 56
REMARK SMILES IDX 50 57 64 59 85 60 52 61 36 62 37 63 45 64 38 65 39 66 43 67
REMARK SMILES IDX 46 68 40 69 41 70 44 71 42 72 68 73 69 74 77 75 70 76 71 77
REMARK SMILES IDX 75 78 78 79 72 80 73 81 76 82 74 83 53 84 54 85 62 86 55 87
REMARK SMILES IDX 56 88 60 89 63 90 57 91 58 92 61 93 59 94
REMARK H PARENT 19 6 6 15 24 28 83 47 51 58
REMARK Flexibility Score: inf
ROOT
ATOM      1  C   UNL A   1      31.727  30.529  26.397  1.00  0.00     0.023 C 
ENDROOT
BRANCH   1   2
ATOM      2  C   UNL A   1      31.289  29.976  25.041  1.00  0.00     0.116 C 
BRANCH   2   3
ATOM      3  N   UNL A   1      32.342  29.244  24.366  1.00  0.00    -0.356 N 
ATOM      4  O   UNL A   1      31.205  29.043  22.382  1.00  0.00    -0.275 OA
ATOM      5  C   UNL A   1      32.209  28.831  23.052  1.00  0.00     0.224 C 
ATOM      6  H   UNL A   1      33.172  29.036  24.854  1.00  0.00     0.163 HD
BRANCH   5   7
ATOM      7  C   UNL A   1      33.437  28.119  22.507  1.00  0.00     0.142 C 
BRANCH   7   8
ATOM      8  C   UNL A   1      33.196  26.639  22.459  1.00  0.00     0.043 A 
ATOM      9  C   UNL A   1      32.830  25.995  21.345  1.00  0.00     0.097 A 
ATOM     10  C   UNL A   1      33.447  25.829  23.689  1.00  0.00     0.260 A 
ATOM     11  N   UNL A   1      32.703  24.643  21.320  1.00  0.00    -0.314 N 
ATOM     12  N   UNL A   1      33.253  24.459  23.579  1.00  0.00    -0.256 N 
ATOM     13  O   UNL A   1      33.857  26.383  24.706  1.00  0.00    -0.269 OA
ATOM     14  C   UNL A   1      32.940  23.826  22.391  1.00  0.00     0.328 A 
ATOM     15  H   UNL A   1      32.423  24.223  20.475  1.00  0.00     0.171 HD
ATOM     16  O   UNL A   1      32.882  22.608  22.228  1.00  0.00    -0.248 OA
BRANCH  12  17
ATOM     17  C   UNL A   1      33.456  23.631  24.759  1.00  0.00     0.166 C 
BRANCH  17  18
ATOM     18  C   UNL A   1      34.784  22.900  24.730  1.00  0.00    -0.028 A 
ATOM     19  C   UNL A   1      34.844  21.514  24.943  1.00  0.00     0.005 A 
ATOM     20  C   UNL A   1      35.979  23.596  24.502  1.00  0.00     0.005 A 
ATOM     21  C   UNL A   1      36.065  20.841  24.939  1.00  0.00     0.000 A 
ATOM     22  C   UNL A   1      37.200  22.918  24.481  1.00  0.00     0.000 A 
ATOM     23  C   UNL A   1      37.244  21.543  24.705  1.00  0.00     0.000 A 
ENDBRANCH  17  18
ENDBRANCH  12  17
ENDBRANCH   7   8
ENDBRANCH   5   7
ENDBRANCH   2   3
ENDBRANCH   1   2
BRANCH   1  24
ATOM     24  C   UNL A   1      31.562  32.040  26.579  1.00  0.00     0.023 C 
BRANCH  24  25
ATOM     25  C   UNL A   1      32.711  32.746  27.292  1.00  0.00     0.116 C 
BRANCH  25  26
ATOM     26  N   UNL A   1      32.393  34.113  27.672  1.00  0.00    -0.352 N 
ATOM     27  C   UNL A   1      32.979  34.918  28.622  1.00  0.00     0.251 C 
ATOM     28  H   UNL A   1      31.649  34.524  27.176  1.00  0.00     0.163 HD
ATOM     29  O   UNL A   1      32.485  36.008  28.897  1.00  0.00    -0.269 OA
BRANCH  27  30
ATOM     30  C   UNL A   1      34.182  34.455  29.353  1.00  0.00     0.039 A 
ATOM     31  C   UNL A   1      35.463  34.692  28.852  1.00  0.00     0.014 A 
ATOM     32  C   UNL A   1      34.021  33.752  30.551  1.00  0.00     0.014 A 
ATOM     33  C   UNL A   1      36.561  34.072  29.444  1.00  0.00     0.010 A 
ATOM     34  C   UNL A   1      35.137  33.199  31.190  1.00  0.00     0.010 A 
ATOM     35  C   UNL A   1      36.409  33.303  30.610  1.00  0.00    -0.014 A 
BRANCH  35  36
ATOM     36  C   UNL A   1      37.587  32.595  31.181  1.00  0.00     0.031 A 
ATOM     37  C   UNL A   1      38.084  32.926  32.565  1.00  0.00     0.074 A 
ATOM     38  C   UNL A   1      38.173  31.604  30.480  1.00  0.00     0.049 A 
ATOM     39  N   UNL A   1      39.077  32.396  33.236  1.00  0.00    -0.248 NA
ATOM     40  C   UNL A   1      37.375  33.989  33.297  1.00  0.00     0.031 C 
ATOM     41  C   UNL A   1      37.782  31.179  29.135  1.00  0.00     0.029 A 
ATOM     42  N   UNL A   1      39.205  30.760  30.808  1.00  0.00    -0.354 N 
ATOM     43  C   UNL A   1      39.122  33.068  34.450  1.00  0.00     0.074 A 
ATOM     44  C   UNL A   1      38.074  34.064  34.421  1.00  0.00     0.031 C 
ATOM     45  C   UNL A   1      38.529  30.126  28.774  1.00  0.00     0.029 A 
ATOM     46  C   UNL A   1      39.491  29.836  29.833  1.00  0.00     0.049 A 
ATOM     47  H   UNL A   1      39.694  30.811  31.662  1.00  0.00     0.167 HD
ATOM     48  C   UNL A   1      39.951  32.861  35.501  1.00  0.00     0.037 A 
ATOM     49  C   UNL A   1      40.429  28.871  29.790  1.00  0.00     0.037 A 
ATOM     50  C   UNL A   1      40.974  31.851  35.548  1.00  0.00     0.049 A 
ATOM     51  C   UNL A   1      41.359  28.692  30.956  1.00  0.00     0.074 A 
ATOM     52  C   UNL A   1      41.843  31.554  36.584  1.00  0.00     0.029 A 
ATOM     53  N   UNL A   1      41.264  30.969  34.518  1.00  0.00    -0.354 N 
ATOM     54  N   UNL A   1      41.379  29.327  32.102  1.00  0.00    -0.248 NA
ATOM     55  C   UNL A   1      42.404  27.667  30.821  1.00  0.00     0.031 C 
ATOM     56  C   UNL A   1      42.683  30.516  36.168  1.00  0.00     0.029 A 
ATOM     57  C   UNL A   1      42.309  30.139  34.890  1.00  0.00     0.049 A 
ATOM     58  H   UNL A   1      40.796  30.937  33.652  1.00  0.00     0.167 HD
ATOM     59  C   UNL A   1      42.425  28.774  32.826  1.00  0.00     0.074 A 
ATOM     60  C   UNL A   1      43.003  27.734  32.003  1.00  0.00     0.031 C 
ATOM     61  C   UNL A   1      42.871  29.105  34.062  1.00  0.00     0.037 A 
BRANCH  48  62
ATOM     62  C   UNL A   1      39.794  33.737  36.710  1.00  0.00     0.064 A 
ATOM     63  C   UNL A   1      40.402  34.998  36.781  1.00  0.00     0.173 A 
ATOM     64  C   UNL A   1      38.940  33.357  37.757  1.00  0.00     0.173 A 
ATOM     65  F   UNL A   1      41.234  35.402  35.810  1.00  0.00    -0.203 F 
ATOM     66  C   UNL A   1      40.162  35.848  37.858  1.00  0.00     0.198 A 
ATOM     67  C   UNL A   1      38.685  34.218  38.822  1.00  0.00     0.198 A 
ATOM     68  F   UNL A   1      38.329  32.164  37.731  1.00  0.00    -0.203 F 
ATOM     69  F   UNL A   1      40.767  37.042  37.913  1.00  0.00    -0.200 F 
ATOM     70  C   UNL A   1      39.296  35.462  38.870  1.00  0.00     0.200 A 
ATOM     71  F   UNL A   1      37.837  33.850  39.792  1.00  0.00    -0.200 F 
ATOM     72  F   UNL A   1      39.048  36.292  39.894  1.00  0.00    -0.200 F 
ENDBRANCH  48  62
BRANCH  49  73
ATOM     73  C   UNL A   1      40.537  27.998  28.591  1.00  0.00     0.064 A 
ATOM     74  C   UNL A   1      39.872  26.767  28.533  1.00  0.00     0.173 A 
ATOM     75  C   UNL A   1      41.306  28.380  27.481  1.00  0.00     0.173 A 
ATOM     76  F   UNL A   1      39.143  26.350  29.579  1.00  0.00    -0.203 F 
ATOM     77  C   UNL A   1      39.981  25.943  27.416  1.00  0.00     0.198 A 
ATOM     78  C   UNL A   1      41.392  27.568  26.352  1.00  0.00     0.198 A 
ATOM     79  F   UNL A   1      41.961  29.549  27.488  1.00  0.00    -0.203 F 
ATOM     80  F   UNL A   1      39.369  24.751  27.402  1.00  0.00    -0.200 F 
ATOM     81  C   UNL A   1      40.735  26.346  26.323  1.00  0.00     0.200 A 
ATOM     82  F   UNL A   1      42.108  27.969  25.295  1.00  0.00    -0.200 F 
ATOM     83  F   UNL A   1      40.834  25.557  25.245  1.00  0.00    -0.200 F 
ENDBRANCH  49  73
BRANCH  61  84
ATOM     84  C   UNL A   1      44.032  28.331  34.611  1.00  0.00     0.064 A 
ATOM     85  C   UNL A   1      43.844  27.124  35.298  1.00  0.00     0.173 A 
ATOM     86  C   UNL A   1      45.348  28.765  34.387  1.00  0.00     0.173 A 
ATOM     87  F   UNL A   1      42.604  26.676  35.548  1.00  0.00    -0.203 F 
ATOM     88  C   UNL A   1      44.932  26.386  35.755  1.00  0.00     0.198 A 
ATOM     89  C   UNL A   1      46.433  28.011  34.821  1.00  0.00     0.198 A 
ATOM     90  F   UNL A   1      45.579  29.909  33.726  1.00  0.00    -0.203 F 
ATOM     91  F   UNL A   1      44.730  25.250  36.438  1.00  0.00    -0.200 F 
ATOM     92  C   UNL A   1      46.224  26.824  35.508  1.00  0.00     0.200 A 
ATOM     93  F   UNL A   1      47.682  28.428  34.570  1.00  0.00    -0.200 F 
ATOM     94  F   UNL A   1      47.271  26.103  35.935  1.00  0.00    -0.200 F 
ENDBRANCH  61  84
ENDBRANCH  35  36
ENDBRANCH  27  30
ENDBRANCH  25  26
ENDBRANCH  24  25
ENDBRANCH   1  24
TORSDOF 14
ENDMDL
MODEL 2
REMARK VINA RESULT:     -12.5      0.497      2.008
REMARK SMILES O=C(Cc1c[nH]c(=O)n(Cc2ccccc2)c1=O)NCCCCNC(=O)c1ccc(-c2c3nc(c(-c4c(F)c(F)c(F)c(F)c4F)c4ccc([nH]4)c(-c4c(F)c(F)c(F)c(F)c4F)c4nc(c(-c5c(F)c(F)c(F)c(F)c5F)c5ccc2[nH]5)C=C4)C=C3)cc1
REMARK SMILES IDX 21 1 20 2 19 3 1 4 2 5 3 7 4 8 5 9 17 10 6 11 9 12 18 13
REMARK SMILES IDX 7 14 8 16 10 17 11 18 12 19 16 20 13 21 15 22 14 23 22 24
REMARK SMILES IDX 23 25 24 26 25 27 26 29 27 30 28 31 89 32 29 33 88 34 30 35
REMARK SMILES IDX 31 36 32 37 82 38 33 39 87 40 81 41 83 42 34 43 86 44 80 45
REMARK SMILES IDX 79 46 35 48 67 49 47 50 66 51 48 52 51 53 65 54 84 55 49 56
REMARK SMILES IDX 50 57 64 59 85 60 52 61 36 62 37 63 45 64 38 65 39 66 43 67
REMARK SMILES IDX 46 68 40 69 41 70 44 71 42 72 68 73 69 74 77 75 70 76 71 77
REMARK SMILES IDX 75 78 78 79 72 80 73 81 76 82 74 83 53 84 54 85 62 86 55 87
REMARK SMILES IDX 56 88 60 89 63 90 57 91 58 92 61 93 59 94
REMARK H PARENT 19 6 6 15 24 28 83 47 51 58
REMARK Flexibility Score: inf
ROOT
ATOM      1  C   UNL A   1      31.762  30.540  26.429  1.00  0.00     0.023 C 
ENDROOT
BRANCH   1   2
ATOM      2  C   UNL A   1      31.348  30.083  25.030  1.00  0.00     0.116 C 
BRANCH   2   3
ATOM      3  N   UNL A   1      32.391  29.339  24.351  1.00  0.00    -0.356 N 
ATOM      4  O   UNL A   1      31.169  28.984  22.440  1.00  0.00    -0.275 OA
ATOM      5  C   UNL A   1      32.209  28.841  23.073  1.00  0.00     0.224 C 
ATOM      6  H   UNL A   1      33.248  29.184  24.811  1.00  0.00     0.163 HD
BRANCH   5   7
ATOM      7  C   UNL A   1      33.431  28.129  22.514  1.00  0.00     0.142 C 
BRANCH   7   8
ATOM      8  C   UNL A   1      33.210  26.645  22.517  1.00  0.00     0.043 A 
ATOM      9  C   UNL A   1      32.839  25.960  21.431  1.00  0.00     0.097 A 
ATOM     10  C   UNL A   1      33.489  25.881  23.770  1.00  0.00     0.260 A 
ATOM     11  N   UNL A   1      32.731  24.606  21.452  1.00  0.00    -0.314 N 
ATOM     12  N   UNL A   1      33.313  24.505  23.708  1.00  0.00    -0.256 N 
ATOM     13  O   UNL A   1      33.905  26.473  24.763  1.00  0.00    -0.269 OA
ATOM     14  C   UNL A   1      32.993  23.828  22.546  1.00  0.00     0.328 A 
ATOM     15  H   UNL A   1      32.445  24.155  20.625  1.00  0.00     0.171 HD
ATOM     16  O   UNL A   1      32.950  22.605  22.424  1.00  0.00    -0.248 OA
BRANCH  12  17
ATOM     17  C   UNL A   1      33.543  23.719  24.912  1.00  0.00     0.166 C 
BRANCH  17  18
ATOM     18  C   UNL A   1      34.953  23.165  24.979  1.00  0.00    -0.028 A 
ATOM     19  C   UNL A   1      35.197  21.799  24.770  1.00  0.00     0.005 A 
ATOM     20  C   UNL A   1      36.039  24.005  25.263  1.00  0.00     0.005 A 
ATOM     21  C   UNL A   1      36.489  21.281  24.852  1.00  0.00     0.000 A 
ATOM     22  C   UNL A   1      37.335  23.488  25.329  1.00  0.00     0.000 A 
ATOM     23  C   UNL A   1      37.559  22.127  25.129  1.00  0.00     0.000 A 
ENDBRANCH  17  18
ENDBRANCH  12  17
ENDBRANCH   7   8
ENDBRANCH   5   7
ENDBRANCH   2   3
ENDBRANCH   1   2
BRANCH   1  24
ATOM     24  C   UNL A   1      31.500  32.015  26.746  1.00  0.00     0.023 C 
BRANCH  24  25
ATOM     25  C   UNL A   1      32.701  32.801  27.259  1.00  0.00     0.116 C 
BRANCH  25  26
ATOM     26  N   UNL A   1      32.373  34.167  27.634  1.00  0.00    -0.352 N 
ATOM     27  C   UNL A   1      32.960  34.985  28.573  1.00  0.00     0.251 C 
ATOM     28  H   UNL A   1      31.618  34.566  27.144  1.00  0.00     0.163 HD
ATOM     29  O   UNL A   1      32.456  36.071  28.846  1.00  0.00    -0.269 OA
BRANCH  27  30
ATOM     30  C   UNL A   1      34.175  34.541  29.293  1.00  0.00     0.039 A 
ATOM     31  C   UNL A   1      35.442  34.691  28.727  1.00  0.00     0.014 A 
ATOM     32  C   UNL A   1      34.041  33.943  30.550  1.00  0.00     0.014 A 
ATOM     33  C   UNL A   1      36.543  34.083  29.325  1.00  0.00     0.010 A 
ATOM     34  C   UNL A   1      35.163  33.405  31.190  1.00  0.00     0.010 A 
ATOM     35  C   UNL A   1      36.414  33.416  30.556  1.00  0.00    -0.014 A 
BRANCH  35  36
ATOM     36  C   UNL A   1      37.590  32.716  31.138  1.00  0.00     0.031 A 
ATOM     37  C   UNL A   1      38.164  33.152  32.462  1.00  0.00     0.074 A 
ATOM     38  C   UNL A   1      38.105  31.642  30.509  1.00  0.00     0.049 A 
ATOM     39  N   UNL A   1      39.168  32.645  33.135  1.00  0.00    -0.248 NA
ATOM     40  C   UNL A   1      37.531  34.307  33.122  1.00  0.00     0.031 C 
ATOM     41  C   UNL A   1      37.635  31.111  29.228  1.00  0.00     0.029 A 
ATOM     42  N   UNL A   1      39.120  30.789  30.869  1.00  0.00    -0.354 N 
ATOM     43  C   UNL A   1      39.296  33.424  34.278  1.00  0.00     0.074 A 
ATOM     44  C   UNL A   1      38.285  34.456  34.201  1.00  0.00     0.031 C 
ATOM     45  C   UNL A   1      38.325  29.999  28.934  1.00  0.00     0.029 A 
ATOM     46  C   UNL A   1      39.324  29.769  29.973  1.00  0.00     0.049 A 
ATOM     47  H   UNL A   1      39.650  30.899  31.691  1.00  0.00     0.167 HD
ATOM     48  C   UNL A   1      40.165  33.281  35.307  1.00  0.00     0.037 A 
ATOM     49  C   UNL A   1      40.223  28.765  29.979  1.00  0.00     0.037 A 
ATOM     50  C   UNL A   1      41.151  32.238  35.403  1.00  0.00     0.049 A 
ATOM     51  C   UNL A   1      41.200  28.656  31.115  1.00  0.00     0.074 A 
ATOM     52  C   UNL A   1      42.057  32.001  36.423  1.00  0.00     0.029 A 
ATOM     53  N   UNL A   1      41.359  31.253  34.449  1.00  0.00    -0.354 N 
ATOM     54  N   UNL A   1      41.298  29.393  32.195  1.00  0.00    -0.248 NA
ATOM     55  C   UNL A   1      42.199  27.581  31.031  1.00  0.00     0.031 C 
ATOM     56  C   UNL A   1      42.837  30.897  36.070  1.00  0.00     0.029 A 
ATOM     57  C   UNL A   1      42.389  30.419  34.850  1.00  0.00     0.049 A 
ATOM     58  H   UNL A   1      40.849  31.161  33.611  1.00  0.00     0.167 HD
ATOM     59  C   UNL A   1      42.356  28.866  32.921  1.00  0.00     0.074 A 
ATOM     60  C   UNL A   1      42.856  27.732  32.174  1.00  0.00     0.031 C 
ATOM     61  C   UNL A   1      42.872  29.291  34.099  1.00  0.00     0.037 A 
BRANCH  48  62
ATOM     62  C   UNL A   1      40.098  34.270  36.433  1.00  0.00     0.064 A 
ATOM     63  C   UNL A   1      39.266  34.058  37.542  1.00  0.00     0.173 A 
ATOM     64  C   UNL A   1      40.954  35.382  36.455  1.00  0.00     0.173 A 
ATOM     65  F   UNL A   1      38.423  33.015  37.564  1.00  0.00    -0.203 F 
ATOM     66  C   UNL A   1      39.293  34.926  38.631  1.00  0.00     0.198 A 
ATOM     67  C   UNL A   1      40.994  36.235  37.555  1.00  0.00     0.198 A 
ATOM     68  F   UNL A   1      41.775  35.623  35.421  1.00  0.00    -0.203 F 
ATOM     69  F   UNL A   1      38.477  34.713  39.673  1.00  0.00    -0.200 F 
ATOM     70  C   UNL A   1      40.164  36.005  38.642  1.00  0.00     0.200 A 
ATOM     71  F   UNL A   1      41.845  37.269  37.569  1.00  0.00    -0.200 F 
ATOM     72  F   UNL A   1      40.204  36.825  39.702  1.00  0.00    -0.200 F 
ENDBRANCH  48  62
BRANCH  49  73
ATOM     73  C   UNL A   1      40.241  27.783  28.864  1.00  0.00     0.064 A 
ATOM     74  C   UNL A   1      40.959  28.039  27.688  1.00  0.00     0.173 A 
ATOM     75  C   UNL A   1      39.544  26.569  28.953  1.00  0.00     0.173 A 
ATOM     76  F   UNL A   1      41.622  29.197  27.549  1.00  0.00    -0.203 F 
ATOM     77  C   UNL A   1      40.967  27.125  26.638  1.00  0.00     0.198 A 
ATOM     78  C   UNL A   1      39.577  25.642  27.914  1.00  0.00     0.198 A 
ATOM     79  F   UNL A   1      38.843  26.276  30.058  1.00  0.00    -0.203 F 
ATOM     80  F   UNL A   1      41.627  27.413  25.508  1.00  0.00    -0.200 F 
ATOM     81  C   UNL A   1      40.283  25.924  26.753  1.00  0.00     0.200 A 
ATOM     82  F   UNL A   1      38.926  24.478  28.037  1.00  0.00    -0.200 F 
ATOM     83  F   UNL A   1      40.297  25.041  25.746  1.00  0.00    -0.200 F 
ENDBRANCH  49  73
BRANCH  61  84
ATOM     84  C   UNL A   1      44.029  28.523  34.666  1.00  0.00     0.064 A 
ATOM     85  C   UNL A   1      45.353  28.905  34.410  1.00  0.00     0.173 A 
ATOM     86  C   UNL A   1      43.810  27.438  35.529  1.00  0.00     0.173 A 
ATOM     87  F   UNL A   1      45.612  29.928  33.580  1.00  0.00    -0.203 F 
ATOM     88  C   UNL A   1      46.418  28.220  34.987  1.00  0.00     0.198 A 
ATOM     89  C   UNL A   1      44.877  26.772  36.125  1.00  0.00     0.198 A 
ATOM     90  F   UNL A   1      42.561  27.041  35.813  1.00  0.00    -0.203 F 
ATOM     91  F   UNL A   1      47.678  28.581  34.703  1.00  0.00    -0.200 F 
ATOM     92  C   UNL A   1      46.180  27.161  35.850  1.00  0.00     0.200 A 
ATOM     93  F   UNL A   1      44.645  25.758  36.970  1.00  0.00    -0.200 F 
ATOM     94  F   UNL A   1      47.207  26.512  36.416  1.00  0.00    -0.200 F 
ENDBRANCH  61  84
ENDBRANCH  35  36
ENDBRANCH  27  30
ENDBRANCH  25  26
ENDBRANCH  24  25
ENDBRANCH   1  24
TORSDOF 14
ENDMDL
MODEL 3
REMARK VINA RESULT:     -12.4      0.667      7.496
REMARK SMILES O=C(Cc1c[nH]c(=O)n(Cc2ccccc2)c1=O)NCCCCNC(=O)c1ccc(-c2c3nc(c(-c4c(F)c(F)c(F)c(F)c4F)c4ccc([nH]4)c(-c4c(F)c(F)c(F)c(F)c4F)c4nc(c(-c5c(F)c(F)c(F)c(F)c5F)c5ccc2[nH]5)C=C4)C=C3)cc1
REMARK SMILES IDX 21 1 20 2 19 3 1 4 2 5 3 7 4 8 5 9 17 10 6 11 9 12 18 13
REMARK SMILES IDX 7 14 8 16 10 17 11 18 12 19 16 20 13 21 15 22 14 23 22 24
REMARK SMILES IDX 23 25 24 26 25 27 26 29 27 30 28 31 89 32 29 33 88 34 30 35
REMARK SMILES IDX 31 36 32 37 82 38 33 39 87 40 81 41 83 42 34 43 86 44 80 45
REMARK SMILES IDX 79 46 35 48 67 49 47 50 66 51 48 52 51 53 65 54 84 55 49 56
REMARK SMILES IDX 50 57 64 59 85 60 52 61 36 62 37 63 45 64 38 65 39 66 43 67
REMARK SMILES IDX 46 68 40 69 41 70 44 71 42 72 68 73 69 74 77 75 70 76 71 77
REMARK SMILES IDX 75 78 78 79 72 80 73 81 76 82 74 83 53 84 54 85 62 86 55 87
REMARK SMILES IDX 56 88 60 89 63 90 57 91 58 92 61 93 59 94
REMARK H PARENT 19 6 6 15 24 28 83 47 51 58
REMARK Flexibility Score: inf
ROOT
ATOM      1  C   UNL A   1      31.744  30.547  26.328  1.00  0.00     0.023 C 
ENDROOT
BRANCH   1   2
ATOM      2  C   UNL A   1      31.306  30.013  24.964  1.00  0.00     0.116 C 
BRANCH   2   3
ATOM      3  N   UNL A   1      32.353  29.273  24.288  1.00  0.00    -0.356 N 
ATOM      4  O   UNL A   1      31.226  29.111  22.295  1.00  0.00    -0.275 OA
ATOM      5  C   UNL A   1      32.222  28.877  22.969  1.00  0.00     0.224 C 
ATOM      6  H   UNL A   1      33.176  29.047  24.779  1.00  0.00     0.163 HD
BRANCH   5   7
ATOM      7  C   UNL A   1      33.443  28.152  22.423  1.00  0.00     0.142 C 
BRANCH   7   8
ATOM      8  C   UNL A   1      33.209  26.670  22.426  1.00  0.00     0.043 A 
ATOM      9  C   UNL A   1      32.869  25.983  21.331  1.00  0.00     0.097 A 
ATOM     10  C   UNL A   1      33.437  25.910  23.692  1.00  0.00     0.260 A 
ATOM     11  N   UNL A   1      32.747  24.630  21.355  1.00  0.00    -0.314 N 
ATOM     12  N   UNL A   1      33.249  24.535  23.630  1.00  0.00    -0.256 N 
ATOM     13  O   UNL A   1      33.823  26.504  24.696  1.00  0.00    -0.269 OA
ATOM     14  C   UNL A   1      32.964  23.856  22.461  1.00  0.00     0.328 A 
ATOM     15  H   UNL A   1      32.486  24.178  20.521  1.00  0.00     0.171 HD
ATOM     16  O   UNL A   1      32.914  22.633  22.344  1.00  0.00    -0.248 OA
BRANCH  12  17
ATOM     17  C   UNL A   1      33.430  23.754  24.846  1.00  0.00     0.166 C 
BRANCH  17  18
ATOM     18  C   UNL A   1      34.834  23.194  24.968  1.00  0.00    -0.028 A 
ATOM     19  C   UNL A   1      35.076  21.823  24.793  1.00  0.00     0.005 A 
ATOM     20  C   UNL A   1      35.915  24.034  25.272  1.00  0.00     0.005 A 
ATOM     21  C   UNL A   1      36.363  21.301  24.926  1.00  0.00     0.000 A 
ATOM     22  C   UNL A   1      37.205  23.512  25.389  1.00  0.00     0.000 A 
ATOM     23  C   UNL A   1      37.428  22.146  25.222  1.00  0.00     0.000 A 
ENDBRANCH  17  18
ENDBRANCH  12  17
ENDBRANCH   7   8
ENDBRANCH   5   7
ENDBRANCH   2   3
ENDBRANCH   1   2
BRANCH   1  24
ATOM     24  C   UNL A   1      31.598  32.058  26.524  1.00  0.00     0.023 C 
BRANCH  24  25
ATOM     25  C   UNL A   1      32.670  32.717  27.384  1.00  0.00     0.116 C 
BRANCH  25  26
ATOM     26  N   UNL A   1      32.405  34.121  27.652  1.00  0.00    -0.352 N 
ATOM     27  C   UNL A   1      32.985  34.964  28.573  1.00  0.00     0.251 C 
ATOM     28  H   UNL A   1      31.706  34.530  27.092  1.00  0.00     0.163 HD
ATOM     29  O   UNL A   1      32.534  36.093  28.746  1.00  0.00    -0.269 OA
BRANCH  27  30
ATOM     30  C   UNL A   1      34.127  34.499  29.394  1.00  0.00     0.039 A 
ATOM     31  C   UNL A   1      35.422  34.472  28.875  1.00  0.00     0.014 A 
ATOM     32  C   UNL A   1      33.891  34.061  30.701  1.00  0.00     0.014 A 
ATOM     33  C   UNL A   1      36.439  33.840  29.588  1.00  0.00     0.010 A 
ATOM     34  C   UNL A   1      34.934  33.502  31.448  1.00  0.00     0.010 A 
ATOM     35  C   UNL A   1      36.203  33.331  30.876  1.00  0.00    -0.014 A 
BRANCH  35  36
ATOM     36  C   UNL A   1      37.286  32.600  31.586  1.00  0.00     0.031 A 
ATOM     37  C   UNL A   1      38.016  31.466  30.912  1.00  0.00     0.074 A 
ATOM     38  C   UNL A   1      37.661  32.996  32.818  1.00  0.00     0.049 A 
ATOM     39  N   UNL A   1      39.003  30.733  31.365  1.00  0.00    -0.248 NA
ATOM     40  C   UNL A   1      37.588  31.107  29.550  1.00  0.00     0.031 C 
ATOM     41  C   UNL A   1      37.043  34.085  33.576  1.00  0.00     0.029 A 
ATOM     42  N   UNL A   1      38.666  32.548  33.640  1.00  0.00    -0.354 N 
ATOM     43  C   UNL A   1      39.298  29.822  30.359  1.00  0.00     0.074 A 
ATOM     44  C   UNL A   1      38.372  30.073  29.277  1.00  0.00     0.031 C 
ATOM     45  C   UNL A   1      37.711  34.252  34.728  1.00  0.00     0.029 A 
ATOM     46  C   UNL A   1      38.765  33.247  34.818  1.00  0.00     0.049 A 
ATOM     47  H   UNL A   1      39.259  31.797  33.407  1.00  0.00     0.167 HD
ATOM     48  C   UNL A   1      40.265  28.874  30.332  1.00  0.00     0.037 A 
ATOM     49  C   UNL A   1      39.604  33.091  35.861  1.00  0.00     0.037 A 
ATOM     50  C   UNL A   1      41.209  28.640  31.393  1.00  0.00     0.049 A 
ATOM     51  C   UNL A   1      40.642  32.004  35.818  1.00  0.00     0.074 A 
ATOM     52  C   UNL A   1      42.240  27.717  31.440  1.00  0.00     0.029 A 
ATOM     53  N   UNL A   1      41.243  29.338  32.591  1.00  0.00    -0.354 N 
ATOM     54  N   UNL A   1      40.915  31.161  34.852  1.00  0.00    -0.248 NA
ATOM     55  C   UNL A   1      41.482  31.840  37.013  1.00  0.00     0.031 C 
ATOM     56  C   UNL A   1      42.874  27.831  32.680  1.00  0.00     0.029 A 
ATOM     57  C   UNL A   1      42.266  28.853  33.388  1.00  0.00     0.049 A 
ATOM     58  H   UNL A   1      40.631  30.069  32.837  1.00  0.00     0.167 HD
ATOM     59  C   UNL A   1      41.962  30.378  35.317  1.00  0.00     0.074 A 
ATOM     60  C   UNL A   1      42.293  30.860  36.641  1.00  0.00     0.031 C 
ATOM     61  C   UNL A   1      42.588  29.346  34.702  1.00  0.00     0.037 A 
BRANCH  48  62
ATOM     62  C   UNL A   1      40.372  28.006  29.113  1.00  0.00     0.064 A 
ATOM     63  C   UNL A   1      39.642  26.814  28.999  1.00  0.00     0.173 A 
ATOM     64  C   UNL A   1      41.127  28.424  28.007  1.00  0.00     0.173 A 
ATOM     65  F   UNL A   1      38.914  26.367  30.033  1.00  0.00    -0.203 F 
ATOM     66  C   UNL A   1      39.665  26.072  27.821  1.00  0.00     0.198 A 
ATOM     67  C   UNL A   1      41.130  27.692  26.822  1.00  0.00     0.198 A 
ATOM     68  F   UNL A   1      41.837  29.561  28.064  1.00  0.00    -0.203 F 
ATOM     69  F   UNL A   1      38.972  24.928  27.739  1.00  0.00    -0.200 F 
ATOM     70  C   UNL A   1      40.399  26.517  26.731  1.00  0.00     0.200 A 
ATOM     71  F   UNL A   1      41.828  28.130  25.766  1.00  0.00    -0.200 F 
ATOM     72  F   UNL A   1      40.399  25.813  25.590  1.00  0.00    -0.200 F 
ENDBRANCH  48  62
BRANCH  49  73
ATOM     73  C   UNL A   1      39.493  33.988  37.040  1.00  0.00     0.064 A 
ATOM     74  C   UNL A   1      40.157  35.221  37.073  1.00  0.00     0.173 A 
ATOM     75  C   UNL A   1      38.720  33.632  38.155  1.00  0.00     0.173 A 
ATOM     76  F   UNL A   1      40.926  35.595  36.040  1.00  0.00    -0.203 F 
ATOM     77  C   UNL A   1      40.064  36.059  38.182  1.00  0.00     0.198 A 
ATOM     78  C   UNL A   1      38.603  34.483  39.252  1.00  0.00     0.198 A 
ATOM     79  F   UNL A   1      38.064  32.463  38.171  1.00  0.00    -0.203 F 
ATOM     80  F   UNL A   1      40.742  37.213  38.205  1.00  0.00    -0.200 F 
ATOM     81  C   UNL A   1      39.281  35.693  39.268  1.00  0.00     0.200 A 
ATOM     82  F   UNL A   1      37.835  34.131  40.290  1.00  0.00    -0.200 F 
ATOM     83  F   UNL A   1      39.185  36.501  40.331  1.00  0.00    -0.200 F 
ENDBRANCH  49  73
BRANCH  61  84
ATOM     84  C   UNL A   1      43.704  28.670  35.442  1.00  0.00     0.064 A 
ATOM     85  C   UNL A   1      45.032  29.093  35.301  1.00  0.00     0.173 A 
ATOM     86  C   UNL A   1      43.432  27.638  36.353  1.00  0.00     0.173 A 
ATOM     87  F   UNL A   1      45.342  30.067  34.433  1.00  0.00    -0.203 F 
ATOM     88  C   UNL A   1      46.053  28.496  36.036  1.00  0.00     0.198 A 
ATOM     89  C   UNL A   1      44.451  27.061  37.104  1.00  0.00     0.198 A 
ATOM     90  F   UNL A   1      42.175  27.204  36.529  1.00  0.00    -0.203 F 
ATOM     91  F   UNL A   1      47.322  28.893  35.863  1.00  0.00    -0.200 F 
ATOM     92  C   UNL A   1      45.761  27.488  36.943  1.00  0.00     0.200 A 
ATOM     93  F   UNL A   1      44.166  26.097  37.991  1.00  0.00    -0.200 F 
ATOM     94  F   UNL A   1      46.744  26.925  37.660  1.00  0.00    -0.200 F 
ENDBRANCH  61  84
ENDBRANCH  35  36
ENDBRANCH  27  30
ENDBRANCH  25  26
ENDBRANCH  24  25
ENDBRANCH   1  24
TORSDOF 14
ENDMDL
