MODEL 1
REMARK VINA RESULT:     -12.7      0.000      0.000
REMARK SMILES C[C@@H]1[C@H](C(=O)NCCCCNC(=O)c2ccc(-c3c4nc(c(-c5c(F)c(F)c(F)c(F)c5F)c5ccc([nH]5)c(-c5c(F)c(F)c(F)c(F)c5F)c5nc(c(-c6c(F)c(F)c(F)c(F)c6F)c6ccc3[nH]6)C=C5)C=C4)cc2)CCN1c1ccc(C(F)(F)F)cc1
REMARK SMILES IDX 8 1 7 2 6 3 4 4 5 5 3 7 1 8 2 9 79 10 77 11 78 12 80 13
REMARK SMILES IDX 81 14 89 15 82 16 88 17 83 18 84 19 85 20 86 21 87 22 9 23
REMARK SMILES IDX 10 24 11 25 12 26 13 28 14 29 15 30 76 31 16 32 75 33 17 34
REMARK SMILES IDX 18 35 19 36 69 37 20 38 74 39 68 40 70 41 21 42 73 43 67 44
REMARK SMILES IDX 66 45 22 47 54 48 34 49 53 50 35 51 38 52 52 53 71 54 36 55
REMARK SMILES IDX 37 56 51 58 72 59 39 60 23 61 24 62 32 63 25 64 26 65 30 66
REMARK SMILES IDX 33 67 27 68 28 69 31 70 29 71 55 72 56 73 64 74 57 75 58 76
REMARK SMILES IDX 62 77 65 78 59 79 60 80 63 81 61 82 40 83 41 84 49 85 42 86
REMARK SMILES IDX 43 87 47 88 50 89 44 90 45 91 48 92 46 93
REMARK H PARENT 6 6 11 27 70 46 38 57
REMARK Flexibility Score: inf
ROOT
ATOM      1  C   UNL A   1      36.641  20.694  25.415  1.00  0.00     0.023 C 
ENDROOT
BRANCH   1   2
ATOM      2  C   UNL A   1      35.434  20.538  24.489  1.00  0.00     0.116 C 
BRANCH   2   3
ATOM      3  N   UNL A   1      34.489  19.564  25.001  1.00  0.00    -0.356 N 
ATOM      4  C   UNL A   1      33.162  19.655  25.263  1.00  0.00     0.225 C 
ATOM      5  O   UNL A   1      32.631  18.664  25.777  1.00  0.00    -0.275 OA
ATOM      6  H   UNL A   1      34.880  18.681  25.190  1.00  0.00     0.163 HD
BRANCH   4   7
ATOM      7  C   UNL A   1      32.317  20.878  24.946  1.00  0.00     0.102 C 
ATOM      8  C   UNL A   1      33.395  22.071  27.027  1.00  0.00     0.032 C 
ATOM      9  C   UNL A   1      32.389  22.101  25.889  1.00  0.00     0.091 C 
ATOM     10  N   UNL A   1      32.606  23.239  24.970  1.00  0.00    -0.368 N 
ATOM     11  C   UNL A   1      32.475  21.412  23.519  1.00  0.00     0.037 C 
ATOM     12  C   UNL A   1      32.134  22.891  23.634  1.00  0.00     0.118 C 
BRANCH  10  13
ATOM     13  C   UNL A   1      32.420  24.527  25.447  1.00  0.00     0.037 A 
ATOM     14  C   UNL A   1      31.172  25.018  25.841  1.00  0.00     0.026 A 
ATOM     15  C   UNL A   1      33.524  25.382  25.572  1.00  0.00     0.026 A 
ATOM     16  C   UNL A   1      31.032  26.316  26.350  1.00  0.00     0.015 A 
ATOM     17  C   UNL A   1      33.396  26.677  26.082  1.00  0.00     0.015 A 
ATOM     18  C   UNL A   1      32.144  27.157  26.483  1.00  0.00     0.056 A 
BRANCH  18  19
ATOM     19  C   UNL A   1      31.982  28.550  27.039  1.00  0.00     0.416 C 
ATOM     20  F   UNL A   1      31.621  29.452  26.086  1.00  0.00    -0.166 F 
ATOM     21  F   UNL A   1      31.021  28.618  28.002  1.00  0.00    -0.166 F 
ATOM     22  F   UNL A   1      33.116  29.045  27.610  1.00  0.00    -0.166 F 
ENDBRANCH  18  19
ENDBRANCH  10  13
ENDBRANCH   4   7
ENDBRANCH   2   3
ENDBRANCH   1   2
BRANCH   1  23
ATOM     23  C   UNL A   1      37.890  19.927  25.002  1.00  0.00     0.023 C 
BRANCH  23  24
ATOM     24  C   UNL A   1      39.154  20.309  25.751  1.00  0.00     0.116 C 
BRANCH  24  25
ATOM     25  N   UNL A   1      40.094  19.206  25.890  1.00  0.00    -0.352 N 
ATOM     26  C   UNL A   1      41.450  19.243  26.118  1.00  0.00     0.251 C 
ATOM     27  H   UNL A   1      39.703  18.305  25.807  1.00  0.00     0.163 HD
ATOM     28  O   UNL A   1      42.117  18.219  26.080  1.00  0.00    -0.269 OA
BRANCH  26  29
ATOM     29  C   UNL A   1      42.098  20.544  26.379  1.00  0.00     0.039 A 
ATOM     30  C   UNL A   1      42.516  21.325  25.299  1.00  0.00     0.014 A 
ATOM     31  C   UNL A   1      42.251  21.006  27.688  1.00  0.00     0.014 A 
ATOM     32  C   UNL A   1      43.021  22.604  25.532  1.00  0.00     0.010 A 
ATOM     33  C   UNL A   1      42.660  22.313  27.910  1.00  0.00     0.010 A 
ATOM     34  C   UNL A   1      43.062  23.121  26.837  1.00  0.00    -0.014 A 
BRANCH  34  35
ATOM     35  C   UNL A   1      43.558  24.490  27.116  1.00  0.00     0.031 A 
ATOM     36  C   UNL A   1      42.606  25.526  27.648  1.00  0.00     0.074 A 
ATOM     37  C   UNL A   1      44.828  24.823  26.815  1.00  0.00     0.049 A 
ATOM     38  N   UNL A   1      42.798  26.803  27.854  1.00  0.00    -0.248 NA
ATOM     39  C   UNL A   1      41.238  25.070  27.949  1.00  0.00     0.031 C 
ATOM     40  C   UNL A   1      45.828  23.921  26.241  1.00  0.00     0.029 A 
ATOM     41  N   UNL A   1      45.490  26.018  26.941  1.00  0.00    -0.354 N 
ATOM     42  C   UNL A   1      41.574  27.304  28.277  1.00  0.00     0.074 A 
ATOM     43  C   UNL A   1      40.630  26.209  28.239  1.00  0.00     0.031 C 
ATOM     44  C   UNL A   1      46.984  24.587  26.090  1.00  0.00     0.029 A 
ATOM     45  C   UNL A   1      46.797  25.969  26.522  1.00  0.00     0.049 A 
ATOM     46  H   UNL A   1      45.068  26.833  27.297  1.00  0.00     0.167 HD
ATOM     47  C   UNL A   1      41.271  28.557  28.688  1.00  0.00     0.037 A 
ATOM     48  C   UNL A   1      47.735  26.934  26.493  1.00  0.00     0.037 A 
ATOM     49  C   UNL A   1      42.225  29.629  28.769  1.00  0.00     0.049 A 
ATOM     50  C   UNL A   1      47.384  28.311  26.988  1.00  0.00     0.074 A 
ATOM     51  C   UNL A   1      42.039  30.920  29.231  1.00  0.00     0.029 A 
ATOM     52  N   UNL A   1      43.554  29.528  28.383  1.00  0.00    -0.354 N 
ATOM     53  N   UNL A   1      46.239  28.759  27.444  1.00  0.00    -0.248 NA
ATOM     54  C   UNL A   1      48.457  29.314  26.974  1.00  0.00     0.031 C 
ATOM     55  C   UNL A   1      43.249  31.609  29.095  1.00  0.00     0.029 A 
ATOM     56  C   UNL A   1      44.199  30.736  28.590  1.00  0.00     0.049 A 
ATOM     57  H   UNL A   1      43.976  28.717  28.016  1.00  0.00     0.167 HD
ATOM     58  C   UNL A   1      46.461  30.082  27.801  1.00  0.00     0.074 A 
ATOM     59  C   UNL A   1      47.854  30.361  27.518  1.00  0.00     0.031 C 
ATOM     60  C   UNL A   1      45.591  30.984  28.318  1.00  0.00     0.037 A 
BRANCH  47  61
ATOM     61  C   UNL A   1      39.850  28.825  29.093  1.00  0.00     0.064 A 
ATOM     62  C   UNL A   1      39.415  28.643  30.416  1.00  0.00     0.173 A 
ATOM     63  C   UNL A   1      38.914  29.277  28.153  1.00  0.00     0.173 A 
ATOM     64  F   UNL A   1      40.267  28.196  31.351  1.00  0.00    -0.203 F 
ATOM     65  C   UNL A   1      38.088  28.866  30.771  1.00  0.00     0.198 A 
ATOM     66  C   UNL A   1      37.595  29.532  28.519  1.00  0.00     0.198 A 
ATOM     67  F   UNL A   1      39.276  29.471  26.875  1.00  0.00    -0.203 F 
ATOM     68  F   UNL A   1      37.683  28.625  32.026  1.00  0.00    -0.200 F 
ATOM     69  C   UNL A   1      37.180  29.316  29.825  1.00  0.00     0.200 A 
ATOM     70  F   UNL A   1      36.720  29.976  27.605  1.00  0.00    -0.200 F 
ATOM     71  F   UNL A   1      35.903  29.532  30.169  1.00  0.00    -0.200 F 
ENDBRANCH  47  61
BRANCH  48  72
ATOM     72  C   UNL A   1      49.110  26.620  26.023  1.00  0.00     0.064 A 
ATOM     73  C   UNL A   1      49.498  26.911  24.707  1.00  0.00     0.173 A 
ATOM     74  C   UNL A   1      50.059  26.031  26.869  1.00  0.00     0.173 A 
ATOM     75  F   UNL A   1      48.619  27.458  23.856  1.00  0.00    -0.203 F 
ATOM     76  C   UNL A   1      50.778  26.605  24.250  1.00  0.00     0.198 A 
ATOM     77  C   UNL A   1      51.347  25.749  26.418  1.00  0.00     0.198 A 
ATOM     78  F   UNL A   1      49.740  25.740  28.138  1.00  0.00    -0.203 F 
ATOM     79  F   UNL A   1      51.109  26.853  22.975  1.00  0.00    -0.200 F 
ATOM     80  C   UNL A   1      51.703  26.029  25.107  1.00  0.00     0.200 A 
ATOM     81  F   UNL A   1      52.243  25.204  27.252  1.00  0.00    -0.200 F 
ATOM     82  F   UNL A   1      52.935  25.737  24.667  1.00  0.00    -0.200 F 
ENDBRANCH  48  72
BRANCH  60  83
ATOM     83  C   UNL A   1      46.132  32.342  28.657  1.00  0.00     0.064 A 
ATOM     84  C   UNL A   1      46.673  32.626  29.918  1.00  0.00     0.173 A 
ATOM     85  C   UNL A   1      46.149  33.357  27.687  1.00  0.00     0.173 A 
ATOM     86  F   UNL A   1      46.666  31.692  30.881  1.00  0.00    -0.203 F 
ATOM     87  C   UNL A   1      47.191  33.886  30.204  1.00  0.00     0.198 A 
ATOM     88  C   UNL A   1      46.692  34.606  27.968  1.00  0.00     0.198 A 
ATOM     89  F   UNL A   1      45.648  33.131  26.463  1.00  0.00    -0.203 F 
ATOM     90  F   UNL A   1      47.664  34.151  31.430  1.00  0.00    -0.200 F 
ATOM     91  C   UNL A   1      47.207  34.872  29.229  1.00  0.00     0.200 A 
ATOM     92  F   UNL A   1      46.719  35.553  27.020  1.00  0.00    -0.200 F 
ATOM     93  F   UNL A   1      47.713  36.081  29.505  1.00  0.00    -0.200 F 
ENDBRANCH  60  83
ENDBRANCH  34  35
ENDBRANCH  26  29
ENDBRANCH  24  25
ENDBRANCH  23  24
ENDBRANCH   1  23
TORSDOF 13
ENDMDL
MODEL 2
REMARK VINA RESULT:     -12.7      0.097      1.596
REMARK SMILES C[C@@H]1[C@H](C(=O)NCCCCNC(=O)c2ccc(-c3c4nc(c(-c5c(F)c(F)c(F)c(F)c5F)c5ccc([nH]5)c(-c5c(F)c(F)c(F)c(F)c5F)c5nc(c(-c6c(F)c(F)c(F)c(F)c6F)c6ccc3[nH]6)C=C5)C=C4)cc2)CCN1c1ccc(C(F)(F)F)cc1
REMARK SMILES IDX 8 1 7 2 6 3 4 4 5 5 3 7 1 8 2 9 79 10 77 11 78 12 80 13
REMARK SMILES IDX 81 14 89 15 82 16 88 17 83 18 84 19 85 20 86 21 87 22 9 23
REMARK SMILES IDX 10 24 11 25 12 26 13 28 14 29 15 30 76 31 16 32 75 33 17 34
REMARK SMILES IDX 18 35 19 36 69 37 20 38 74 39 68 40 70 41 21 42 73 43 67 44
REMARK SMILES IDX 66 45 22 47 54 48 34 49 53 50 35 51 38 52 52 53 71 54 36 55
REMARK SMILES IDX 37 56 51 58 72 59 39 60 23 61 24 62 32 63 25 64 26 65 30 66
REMARK SMILES IDX 33 67 27 68 28 69 31 70 29 71 55 72 56 73 64 74 57 75 58 76
REMARK SMILES IDX 62 77 65 78 59 79 60 80 63 81 61 82 40 83 41 84 49 85 42 86
REMARK SMILES IDX 43 87 47 88 50 89 44 90 45 91 48 92 46 93
REMARK H PARENT 6 6 11 27 70 46 38 57
REMARK Flexibility Score: inf
ROOT
ATOM      1  C   UNL A   1      36.599  20.687  25.429  1.00  0.00     0.023 C 
ENDROOT
BRANCH   1   2
ATOM      2  C   UNL A   1      35.395  20.548  24.497  1.00  0.00     0.116 C 
BRANCH   2   3
ATOM      3  N   UNL A   1      34.436  19.585  25.001  1.00  0.00    -0.356 N 
ATOM      4  C   UNL A   1      33.104  19.686  25.238  1.00  0.00     0.225 C 
ATOM      5  O   UNL A   1      32.558  18.703  25.752  1.00  0.00    -0.275 OA
ATOM      6  H   UNL A   1      34.818  18.701  25.207  1.00  0.00     0.163 HD
BRANCH   4   7
ATOM      7  C   UNL A   1      32.272  20.909  24.893  1.00  0.00     0.102 C 
ATOM      8  C   UNL A   1      33.296  22.108  26.997  1.00  0.00     0.032 C 
ATOM      9  C   UNL A   1      32.322  22.136  25.832  1.00  0.00     0.091 C 
ATOM     10  N   UNL A   1      32.568  23.270  24.915  1.00  0.00    -0.368 N 
ATOM     11  C   UNL A   1      32.471  21.437  23.468  1.00  0.00     0.037 C 
ATOM     12  C   UNL A   1      32.131  22.917  23.568  1.00  0.00     0.118 C 
BRANCH  10  13
ATOM     13  C   UNL A   1      32.373  24.561  25.381  1.00  0.00     0.037 A 
ATOM     14  C   UNL A   1      31.107  25.085  25.656  1.00  0.00     0.026 A 
ATOM     15  C   UNL A   1      33.483  25.383  25.617  1.00  0.00     0.026 A 
ATOM     16  C   UNL A   1      30.955  26.384  26.159  1.00  0.00     0.015 A 
ATOM     17  C   UNL A   1      33.342  26.678  26.122  1.00  0.00     0.015 A 
ATOM     18  C   UNL A   1      32.072  27.192  26.404  1.00  0.00     0.056 A 
BRANCH  18  19
ATOM     19  C   UNL A   1      31.896  28.587  26.952  1.00  0.00     0.416 C 
ATOM     20  F   UNL A   1      31.403  29.452  26.024  1.00  0.00    -0.166 F 
ATOM     21  F   UNL A   1      31.028  28.629  28.001  1.00  0.00    -0.166 F 
ATOM     22  F   UNL A   1      33.053  29.145  27.406  1.00  0.00    -0.166 F 
ENDBRANCH  18  19
ENDBRANCH  10  13
ENDBRANCH   4   7
ENDBRANCH   2   3
ENDBRANCH   1   2
BRANCH   1  23
ATOM     23  C   UNL A   1      37.846  19.919  25.011  1.00  0.00     0.023 C 
BRANCH  23  24
ATOM     24  C   UNL A   1      39.116  20.307  25.749  1.00  0.00     0.116 C 
BRANCH  24  25
ATOM     25  N   UNL A   1      40.054  19.204  25.894  1.00  0.00    -0.352 N 
ATOM     26  C   UNL A   1      41.409  19.241  26.126  1.00  0.00     0.251 C 
ATOM     27  H   UNL A   1      39.663  18.303  25.813  1.00  0.00     0.163 HD
ATOM     28  O   UNL A   1      42.076  18.216  26.093  1.00  0.00    -0.269 OA
BRANCH  26  29
ATOM     29  C   UNL A   1      42.058  20.543  26.384  1.00  0.00     0.039 A 
ATOM     30  C   UNL A   1      42.440  21.339  25.302  1.00  0.00     0.014 A 
ATOM     31  C   UNL A   1      42.245  20.989  27.694  1.00  0.00     0.014 A 
ATOM     32  C   UNL A   1      42.945  22.618  25.536  1.00  0.00     0.010 A 
ATOM     33  C   UNL A   1      42.654  22.296  27.920  1.00  0.00     0.010 A 
ATOM     34  C   UNL A   1      43.020  23.119  26.846  1.00  0.00    -0.014 A 
BRANCH  34  35
ATOM     35  C   UNL A   1      43.516  24.488  27.128  1.00  0.00     0.031 A 
ATOM     36  C   UNL A   1      42.565  25.522  27.664  1.00  0.00     0.074 A 
ATOM     37  C   UNL A   1      44.786  24.821  26.826  1.00  0.00     0.049 A 
ATOM     38  N   UNL A   1      42.757  26.799  27.873  1.00  0.00    -0.248 NA
ATOM     39  C   UNL A   1      41.198  25.065  27.966  1.00  0.00     0.031 C 
ATOM     40  C   UNL A   1      45.785  23.922  26.248  1.00  0.00     0.029 A 
ATOM     41  N   UNL A   1      45.448  26.016  26.954  1.00  0.00    -0.354 N 
ATOM     42  C   UNL A   1      41.534  27.298  28.299  1.00  0.00     0.074 A 
ATOM     43  C   UNL A   1      40.590  26.204  28.259  1.00  0.00     0.031 C 
ATOM     44  C   UNL A   1      46.940  24.588  26.096  1.00  0.00     0.029 A 
ATOM     45  C   UNL A   1      46.754  25.969  26.532  1.00  0.00     0.049 A 
ATOM     46  H   UNL A   1      45.027  26.830  27.312  1.00  0.00     0.167 HD
ATOM     47  C   UNL A   1      41.231  28.550  28.714  1.00  0.00     0.037 A 
ATOM     48  C   UNL A   1      47.692  26.934  26.504  1.00  0.00     0.037 A 
ATOM     49  C   UNL A   1      42.185  29.622  28.796  1.00  0.00     0.049 A 
ATOM     50  C   UNL A   1      47.341  28.309  27.003  1.00  0.00     0.074 A 
ATOM     51  C   UNL A   1      42.000  30.912  29.262  1.00  0.00     0.029 A 
ATOM     52  N   UNL A   1      43.514  29.522  28.408  1.00  0.00    -0.354 N 
ATOM     53  N   UNL A   1      46.197  28.757  27.462  1.00  0.00    -0.248 NA
ATOM     54  C   UNL A   1      48.414  29.313  26.990  1.00  0.00     0.031 C 
ATOM     55  C   UNL A   1      43.210  31.602  29.126  1.00  0.00     0.029 A 
ATOM     56  C   UNL A   1      44.158  30.730  28.616  1.00  0.00     0.049 A 
ATOM     57  H   UNL A   1      43.935  28.713  28.038  1.00  0.00     0.167 HD
ATOM     58  C   UNL A   1      46.420  30.078  27.822  1.00  0.00     0.074 A 
ATOM     59  C   UNL A   1      47.812  30.359  27.537  1.00  0.00     0.031 C 
ATOM     60  C   UNL A   1      45.550  30.980  28.343  1.00  0.00     0.037 A 
BRANCH  47  61
ATOM     61  C   UNL A   1      39.811  28.817  29.122  1.00  0.00     0.064 A 
ATOM     62  C   UNL A   1      38.855  29.277  28.201  1.00  0.00     0.173 A 
ATOM     63  C   UNL A   1      39.396  28.604  30.444  1.00  0.00     0.173 A 
ATOM     64  F   UNL A   1      39.204  29.512  26.928  1.00  0.00    -0.203 F 
ATOM     65  C   UNL A   1      37.550  29.550  28.599  1.00  0.00     0.198 A 
ATOM     66  C   UNL A   1      38.081  28.846  30.831  1.00  0.00     0.198 A 
ATOM     67  F   UNL A   1      40.267  28.163  31.365  1.00  0.00    -0.203 F 
ATOM     68  F   UNL A   1      36.672  30.047  27.716  1.00  0.00    -0.200 F 
ATOM     69  C   UNL A   1      37.161  29.328  29.911  1.00  0.00     0.200 A 
ATOM     70  F   UNL A   1      37.704  28.623  32.098  1.00  0.00    -0.200 F 
ATOM     71  F   UNL A   1      35.903  29.590  30.292  1.00  0.00    -0.200 F 
ENDBRANCH  47  61
BRANCH  48  72
ATOM     72  C   UNL A   1      49.066  26.622  26.031  1.00  0.00     0.064 A 
ATOM     73  C   UNL A   1      49.452  26.916  24.715  1.00  0.00     0.173 A 
ATOM     74  C   UNL A   1      50.017  26.030  26.874  1.00  0.00     0.173 A 
ATOM     75  F   UNL A   1      48.571  27.465  23.867  1.00  0.00    -0.203 F 
ATOM     76  C   UNL A   1      50.731  26.611  24.255  1.00  0.00     0.198 A 
ATOM     77  C   UNL A   1      51.304  25.749  26.420  1.00  0.00     0.198 A 
ATOM     78  F   UNL A   1      49.700  25.736  28.142  1.00  0.00    -0.203 F 
ATOM     79  F   UNL A   1      51.060  26.863  22.981  1.00  0.00    -0.200 F 
ATOM     80  C   UNL A   1      51.658  26.033  25.109  1.00  0.00     0.200 A 
ATOM     81  F   UNL A   1      52.201  25.203  27.251  1.00  0.00    -0.200 F 
ATOM     82  F   UNL A   1      52.889  25.743  24.667  1.00  0.00    -0.200 F 
ENDBRANCH  48  72
BRANCH  60  83
ATOM     83  C   UNL A   1      46.091  32.336  28.684  1.00  0.00     0.064 A 
ATOM     84  C   UNL A   1      46.086  33.387  27.756  1.00  0.00     0.173 A 
ATOM     85  C   UNL A   1      46.578  32.598  29.974  1.00  0.00     0.173 A 
ATOM     86  F   UNL A   1      45.644  33.180  26.506  1.00  0.00    -0.203 F 
ATOM     87  C   UNL A   1      46.572  34.645  28.100  1.00  0.00     0.198 A 
ATOM     88  C   UNL A   1      47.037  33.864  30.323  1.00  0.00     0.198 A 
ATOM     89  F   UNL A   1      46.597  31.627  30.900  1.00  0.00    -0.203 F 
ATOM     90  F   UNL A   1      46.599  35.624  27.184  1.00  0.00    -0.200 F 
ATOM     91  C   UNL A   1      47.039  34.884  29.383  1.00  0.00     0.200 A 
ATOM     92  F   UNL A   1      47.476  34.097  31.567  1.00  0.00    -0.200 F 
ATOM     93  F   UNL A   1      47.499  36.099  29.714  1.00  0.00    -0.200 F 
ENDBRANCH  60  83
ENDBRANCH  34  35
ENDBRANCH  26  29
ENDBRANCH  24  25
ENDBRANCH  23  24
ENDBRANCH   1  23
TORSDOF 13
ENDMDL
MODEL 3
REMARK VINA RESULT:     -12.7      5.307     10.320
REMARK SMILES C[C@@H]1[C@H](C(=O)NCCCCNC(=O)c2ccc(-c3c4nc(c(-c5c(F)c(F)c(F)c(F)c5F)c5ccc([nH]5)c(-c5c(F)c(F)c(F)c(F)c5F)c5nc(c(-c6c(F)c(F)c(F)c(F)c6F)c6ccc3[nH]6)C=C5)C=C4)cc2)CCN1c1ccc(C(F)(F)F)cc1
REMARK SMILES IDX 8 1 7 2 6 3 4 4 5 5 3 7 1 8 2 9 79 10 77 11 78 12 80 13
REMARK SMILES IDX 81 14 89 15 82 16 88 17 83 18 84 19 85 20 86 21 87 22 9 23
REMARK SMILES IDX 10 24 11 25 12 26 13 28 14 29 15 30 76 31 16 32 75 33 17 34
REMARK SMILES IDX 18 35 19 36 69 37 20 38 74 39 68 40 70 41 21 42 73 43 67 44
REMARK SMILES IDX 66 45 22 47 54 48 34 49 53 50 35 51 38 52 52 53 71 54 36 55
REMARK SMILES IDX 37 56 51 58 72 59 39 60 23 61 24 62 32 63 25 64 26 65 30 66
REMARK SMILES IDX 33 67 27 68 28 69 31 70 29 71 55 72 56 73 64 74 57 75 58 76
REMARK SMILES IDX 62 77 65 78 59 79 60 80 63 81 61 82 40 83 41 84 49 85 42 86
REMARK SMILES IDX 43 87 47 88 50 89 44 90 45 91 48 92 46 93
REMARK H PARENT 6 6 11 27 70 46 38 57
REMARK Flexibility Score: inf
ROOT
ATOM      1  C   UNL A   1      33.676  26.802  25.717  1.00  0.00     0.023 C 
ENDROOT
BRANCH   1   2
ATOM      2  C   UNL A   1      33.798  25.836  24.537  1.00  0.00     0.116 C 
BRANCH   2   3
ATOM      3  N   UNL A   1      32.883  26.181  23.466  1.00  0.00    -0.356 N 
ATOM      4  C   UNL A   1      31.885  25.477  22.877  1.00  0.00     0.225 C 
ATOM      5  O   UNL A   1      31.320  26.016  21.919  1.00  0.00    -0.275 OA
ATOM      6  H   UNL A   1      33.009  27.088  23.103  1.00  0.00     0.163 HD
BRANCH   4   7
ATOM      7  C   UNL A   1      31.430  24.103  23.339  1.00  0.00     0.102 C 
ATOM      8  C   UNL A   1      33.538  23.083  22.142  1.00  0.00     0.032 C 
ATOM      9  C   UNL A   1      32.245  22.862  22.910  1.00  0.00     0.091 C 
ATOM     10  N   UNL A   1      32.457  22.127  24.176  1.00  0.00    -0.368 N 
ATOM     11  C   UNL A   1      31.202  23.980  24.850  1.00  0.00     0.037 C 
ATOM     12  C   UNL A   1      31.430  22.503  25.142  1.00  0.00     0.118 C 
BRANCH  10  13
ATOM     13  C   UNL A   1      32.894  20.813  24.120  1.00  0.00     0.037 A 
ATOM     14  C   UNL A   1      34.025  20.358  24.804  1.00  0.00     0.026 A 
ATOM     15  C   UNL A   1      32.168  19.877  23.370  1.00  0.00     0.026 A 
ATOM     16  C   UNL A   1      34.413  19.013  24.749  1.00  0.00     0.015 A 
ATOM     17  C   UNL A   1      32.544  18.533  23.311  1.00  0.00     0.015 A 
ATOM     18  C   UNL A   1      33.672  18.084  24.006  1.00  0.00     0.056 A 
BRANCH  18  19
ATOM     19  C   UNL A   1      34.096  16.637  23.960  1.00  0.00     0.416 C 
ATOM     20  F   UNL A   1      35.172  16.384  24.755  1.00  0.00    -0.166 F 
ATOM     21  F   UNL A   1      33.114  15.792  24.379  1.00  0.00    -0.166 F 
ATOM     22  F   UNL A   1      34.445  16.210  22.713  1.00  0.00    -0.166 F 
ENDBRANCH  18  19
ENDBRANCH  10  13
ENDBRANCH   4   7
ENDBRANCH   2   3
ENDBRANCH   1   2
BRANCH   1  23
ATOM     23  C   UNL A   1      32.740  27.985  25.503  1.00  0.00     0.023 C 
BRANCH  23  24
ATOM     24  C   UNL A   1      33.430  29.295  25.168  1.00  0.00     0.116 C 
BRANCH  24  25
ATOM     25  N   UNL A   1      32.785  30.453  25.771  1.00  0.00    -0.352 N 
ATOM     26  C   UNL A   1      33.164  31.182  26.874  1.00  0.00     0.251 C 
ATOM     27  H   UNL A   1      31.959  30.756  25.327  1.00  0.00     0.163 HD
ATOM     28  O   UNL A   1      32.435  32.053  27.327  1.00  0.00    -0.269 OA
BRANCH  26  29
ATOM     29  C   UNL A   1      34.453  30.877  27.527  1.00  0.00     0.039 A 
ATOM     30  C   UNL A   1      35.402  31.892  27.668  1.00  0.00     0.014 A 
ATOM     31  C   UNL A   1      34.700  29.600  28.037  1.00  0.00     0.014 A 
ATOM     32  C   UNL A   1      36.572  31.643  28.386  1.00  0.00     0.010 A 
ATOM     33  C   UNL A   1      35.816  29.385  28.834  1.00  0.00     0.010 A 
ATOM     34  C   UNL A   1      36.769  30.399  29.006  1.00  0.00    -0.014 A 
BRANCH  34  35
ATOM     35  C   UNL A   1      37.983  30.113  29.809  1.00  0.00     0.031 A 
ATOM     36  C   UNL A   1      39.037  29.198  29.253  1.00  0.00     0.074 A 
ATOM     37  C   UNL A   1      38.095  30.603  31.059  1.00  0.00     0.049 A 
ATOM     38  N   UNL A   1      40.115  28.726  29.826  1.00  0.00    -0.248 NA
ATOM     39  C   UNL A   1      38.829  28.712  27.878  1.00  0.00     0.031 C 
ATOM     40  C   UNL A   1      37.111  31.455  31.729  1.00  0.00     0.029 A 
ATOM     41  N   UNL A   1      39.088  30.443  31.993  1.00  0.00    -0.354 N 
ATOM     42  C   UNL A   1      40.691  27.871  28.896  1.00  0.00     0.074 A 
ATOM     43  C   UNL A   1      39.814  27.838  27.747  1.00  0.00     0.031 C 
ATOM     44  C   UNL A   1      37.561  31.764  32.955  1.00  0.00     0.029 A 
ATOM     45  C   UNL A   1      38.846  31.105  33.171  1.00  0.00     0.049 A 
ATOM     46  H   UNL A   1      39.895  29.903  31.833  1.00  0.00     0.167 HD
ATOM     47  C   UNL A   1      41.861  27.197  28.981  1.00  0.00     0.037 A 
ATOM     48  C   UNL A   1      39.583  31.171  34.296  1.00  0.00     0.037 A 
ATOM     49  C   UNL A   1      42.752  27.271  30.107  1.00  0.00     0.049 A 
ATOM     50  C   UNL A   1      40.896  30.440  34.354  1.00  0.00     0.074 A 
ATOM     51  C   UNL A   1      43.991  26.678  30.270  1.00  0.00     0.029 A 
ATOM     52  N   UNL A   1      42.497  27.994  31.264  1.00  0.00    -0.354 N 
ATOM     53  N   UNL A   1      41.463  29.683  33.446  1.00  0.00    -0.248 NA
ATOM     54  C   UNL A   1      41.679  30.582  35.589  1.00  0.00     0.031 C 
ATOM     55  C   UNL A   1      44.472  27.018  31.540  1.00  0.00     0.029 A 
ATOM     56  C   UNL A   1      43.552  27.857  32.149  1.00  0.00     0.049 A 
ATOM     57  H   UNL A   1      41.684  28.526  31.430  1.00  0.00     0.167 HD
ATOM     58  C   UNL A   1      42.678  29.285  33.984  1.00  0.00     0.074 A 
ATOM     59  C   UNL A   1      42.773  29.893  35.295  1.00  0.00     0.031 C 
ATOM     60  C   UNL A   1      43.632  28.488  33.441  1.00  0.00     0.037 A 
BRANCH  47  61
ATOM     61  C   UNL A   1      42.245  26.331  27.815  1.00  0.00     0.064 A 
ATOM     62  C   UNL A   1      41.719  25.039  27.655  1.00  0.00     0.173 A 
ATOM     63  C   UNL A   1      43.140  26.799  26.844  1.00  0.00     0.173 A 
ATOM     64  F   UNL A   1      40.871  24.537  28.565  1.00  0.00    -0.203 F 
ATOM     65  C   UNL A   1      42.106  24.235  26.586  1.00  0.00     0.198 A 
ATOM     66  C   UNL A   1      43.499  26.005  25.757  1.00  0.00     0.198 A 
ATOM     67  F   UNL A   1      43.670  28.028  26.946  1.00  0.00    -0.203 F 
ATOM     68  F   UNL A   1      41.639  22.983  26.488  1.00  0.00    -0.200 F 
ATOM     69  C   UNL A   1      42.990  24.721  25.635  1.00  0.00     0.200 A 
ATOM     70  F   UNL A   1      44.347  26.479  24.833  1.00  0.00    -0.200 F 
ATOM     71  F   UNL A   1      43.361  23.947  24.605  1.00  0.00    -0.200 F 
ENDBRANCH  47  61
BRANCH  48  72
ATOM     72  C   UNL A   1      39.118  31.997  35.441  1.00  0.00     0.064 A 
ATOM     73  C   UNL A   1      39.423  33.365  35.506  1.00  0.00     0.173 A 
ATOM     74  C   UNL A   1      38.364  31.445  36.486  1.00  0.00     0.173 A 
ATOM     75  F   UNL A   1      40.156  33.932  34.539  1.00  0.00    -0.203 F 
ATOM     76  C   UNL A   1      39.008  34.144  36.583  1.00  0.00     0.198 A 
ATOM     77  C   UNL A   1      37.928  32.232  37.551  1.00  0.00     0.198 A 
ATOM     78  F   UNL A   1      38.041  30.145  36.468  1.00  0.00    -0.203 F 
ATOM     79  F   UNL A   1      39.349  35.439  36.641  1.00  0.00    -0.200 F 
ATOM     80  C   UNL A   1      38.256  33.579  37.602  1.00  0.00     0.200 A 
ATOM     81  F   UNL A   1      37.191  31.686  38.527  1.00  0.00    -0.200 F 
ATOM     82  F   UNL A   1      37.855  34.330  38.637  1.00  0.00    -0.200 F 
ENDBRANCH  48  72
BRANCH  60  83
ATOM     83  C   UNL A   1      44.881  28.269  34.243  1.00  0.00     0.064 A 
ATOM     84  C   UNL A   1      45.011  27.186  35.124  1.00  0.00     0.173 A 
ATOM     85  C   UNL A   1      45.978  29.131  34.090  1.00  0.00     0.173 A 
ATOM     86  F   UNL A   1      43.983  26.344  35.314  1.00  0.00    -0.203 F 
ATOM     87  C   UNL A   1      46.187  26.988  35.842  1.00  0.00     0.198 A 
ATOM     88  C   UNL A   1      47.161  28.913  34.788  1.00  0.00     0.198 A 
ATOM     89  F   UNL A   1      45.905  30.177  33.254  1.00  0.00    -0.203 F 
ATOM     90  F   UNL A   1      46.274  25.972  36.712  1.00  0.00    -0.200 F 
ATOM     91  C   UNL A   1      47.262  27.846  35.669  1.00  0.00     0.200 A 
ATOM     92  F   UNL A   1      48.204  29.736  34.609  1.00  0.00    -0.200 F 
ATOM     93  F   UNL A   1      48.395  27.648  36.355  1.00  0.00    -0.200 F 
ENDBRANCH  60  83
ENDBRANCH  34  35
ENDBRANCH  26  29
ENDBRANCH  24  25
ENDBRANCH  23  24
ENDBRANCH   1  23
TORSDOF 13
ENDMDL
