MODEL 1
REMARK VINA RESULT:     -12.4      0.000      0.000
REMARK SMILES O=C(CNC(=O)OCC1=Cc2ccccc2S1(=O)=O)NCCCCNC(=O)c1ccc(-c2c3nc(c(-c4c(F)c(F)c(F)c(F)c4F)c4ccc([nH]4)c(-c4c(F)c(F)c(F)c(F)c4F)c4nc(c(-c5c(F)c(F)c(F)c(F)c5F)c5ccc2[nH]5)C=C4)C=C3)cc1
REMARK SMILES IDX 21 1 20 2 1 3 2 4 3 6 4 7 5 8 6 10 7 11 8 12 9 13 10 14
REMARK SMILES IDX 17 15 11 16 16 17 18 18 19 19 12 20 15 21 13 22 14 23 22 24
REMARK SMILES IDX 23 25 24 26 25 27 26 28 27 30 28 31 29 32 90 33 30 34 89 35
REMARK SMILES IDX 31 36 32 37 33 38 83 39 34 40 88 41 82 42 84 43 35 44 87 45
REMARK SMILES IDX 81 46 80 47 36 49 68 50 48 51 67 52 49 53 52 54 66 55 85 56
REMARK SMILES IDX 50 57 51 58 65 60 86 61 53 62 37 63 38 64 46 65 39 66 40 67
REMARK SMILES IDX 44 68 47 69 41 70 42 71 45 72 43 73 69 74 70 75 78 76 71 77
REMARK SMILES IDX 72 78 76 79 79 80 73 81 74 82 77 83 75 84 54 85 55 86 63 87
REMARK SMILES IDX 56 88 57 89 61 90 64 91 58 92 59 93 62 94 60 95
REMARK H PARENT 20 5 4 9 25 29 84 48 52 59
REMARK Flexibility Score: inf
ROOT
ATOM      1  C   UNL A   1      32.289  29.855  27.041  1.00  0.00     0.116 C 
ENDROOT
BRANCH   1   2
ATOM      2  N   UNL A   1      32.468  28.509  26.543  1.00  0.00    -0.355 N 
ATOM      3  O   UNL A   1      34.745  28.404  26.830  1.00  0.00    -0.273 OA
ATOM      4  C   UNL A   1      33.686  27.857  26.538  1.00  0.00     0.239 C 
ATOM      5  H   UNL A   1      31.681  28.033  26.191  1.00  0.00     0.163 HD
BRANCH   4   6
ATOM      6  C   UNL A   1      33.623  26.416  26.008  1.00  0.00     0.219 C 
BRANCH   6   7
ATOM      7  N   UNL A   1      32.511  25.714  26.629  1.00  0.00    -0.312 N 
ATOM      8  C   UNL A   1      31.462  25.115  26.014  1.00  0.00     0.407 C 
ATOM      9  H   UNL A   1      32.521  25.670  27.613  1.00  0.00     0.167 HD
ATOM     10  O   UNL A   1      30.482  24.758  26.653  1.00  0.00    -0.225 OA
BRANCH   8  11
ATOM     11  O   UNL A   1      31.623  24.958  24.679  1.00  0.00    -0.444 OA
BRANCH  11  12
ATOM     12  C   UNL A   1      30.402  24.887  23.926  1.00  0.00     0.283 C 
BRANCH  12  13
ATOM     13  C   UNL A   1      29.924  26.242  23.551  1.00  0.00     0.087 C 
ATOM     14  C   UNL A   1      28.699  26.778  23.720  1.00  0.00     0.029 C 
ATOM     15  S   UNL A   1      30.985  27.317  22.679  1.00  0.00     0.206 S 
ATOM     16  C   UNL A   1      28.588  28.123  23.163  1.00  0.00    -0.005 A 
ATOM     17  C   UNL A   1      29.766  28.562  22.566  1.00  0.00     0.079 A 
ATOM     18  O   UNL A   1      32.033  27.824  23.541  1.00  0.00    -0.219 OA
ATOM     19  O   UNL A   1      31.220  26.826  21.338  1.00  0.00    -0.219 OA
ATOM     20  C   UNL A   1      27.488  28.964  23.170  1.00  0.00     0.009 A 
ATOM     21  C   UNL A   1      29.923  29.808  21.987  1.00  0.00     0.021 A 
ATOM     22  C   UNL A   1      27.608  30.234  22.586  1.00  0.00     0.001 A 
ATOM     23  C   UNL A   1      28.817  30.654  22.003  1.00  0.00     0.001 A 
ENDBRANCH  12  13
ENDBRANCH  11  12
ENDBRANCH   8  11
ENDBRANCH   6   7
ENDBRANCH   4   6
ENDBRANCH   1   2
BRANCH   1  24
ATOM     24  C   UNL A   1      31.558  30.761  26.052  1.00  0.00     0.023 C 
BRANCH  24  25
ATOM     25  C   UNL A   1      31.359  32.207  26.514  1.00  0.00     0.023 C 
BRANCH  25  26
ATOM     26  C   UNL A   1      32.527  32.834  27.272  1.00  0.00     0.116 C 
BRANCH  26  27
ATOM     27  N   UNL A   1      32.299  34.225  27.632  1.00  0.00    -0.352 N 
ATOM     28  C   UNL A   1      32.953  35.017  28.546  1.00  0.00     0.251 C 
ATOM     29  H   UNL A   1      31.564  34.666  27.147  1.00  0.00     0.163 HD
ATOM     30  O   UNL A   1      32.528  36.144  28.789  1.00  0.00    -0.269 OA
BRANCH  28  31
ATOM     31  C   UNL A   1      34.143  34.517  29.271  1.00  0.00     0.039 A 
ATOM     32  C   UNL A   1      33.965  33.931  30.529  1.00  0.00     0.014 A 
ATOM     33  C   UNL A   1      35.428  34.627  28.734  1.00  0.00     0.014 A 
ATOM     34  C   UNL A   1      35.059  33.390  31.210  1.00  0.00     0.010 A 
ATOM     35  C   UNL A   1      36.507  34.024  29.382  1.00  0.00     0.010 A 
ATOM     36  C   UNL A   1      36.334  33.394  30.623  1.00  0.00    -0.014 A 
BRANCH  36  37
ATOM     37  C   UNL A   1      37.490  32.730  31.285  1.00  0.00     0.031 A 
ATOM     38  C   UNL A   1      38.197  31.584  30.614  1.00  0.00     0.074 A 
ATOM     39  C   UNL A   1      37.862  33.115  32.520  1.00  0.00     0.049 A 
ATOM     40  N   UNL A   1      39.170  30.832  31.065  1.00  0.00    -0.248 NA
ATOM     41  C   UNL A   1      37.732  31.219  29.267  1.00  0.00     0.031 C 
ATOM     42  C   UNL A   1      37.232  34.182  33.300  1.00  0.00     0.029 A 
ATOM     43  N   UNL A   1      38.852  32.642  33.348  1.00  0.00    -0.354 N 
ATOM     44  C   UNL A   1      39.425  29.902  30.066  1.00  0.00     0.074 A 
ATOM     45  C   UNL A   1      38.469  30.149  29.008  1.00  0.00     0.031 C 
ATOM     46  C   UNL A   1      37.859  34.294  34.482  1.00  0.00     0.029 A 
ATOM     47  C   UNL A   1      38.908  33.281  34.563  1.00  0.00     0.049 A 
ATOM     48  H   UNL A   1      39.463  31.913  33.095  1.00  0.00     0.167 HD
ATOM     49  C   UNL A   1      40.381  28.943  30.025  1.00  0.00     0.037 A 
ATOM     50  C   UNL A   1      39.705  33.068  35.627  1.00  0.00     0.037 A 
ATOM     51  C   UNL A   1      41.342  28.707  31.072  1.00  0.00     0.049 A 
ATOM     52  C   UNL A   1      40.751  31.988  35.563  1.00  0.00     0.074 A 
ATOM     53  C   UNL A   1      42.382  27.795  31.099  1.00  0.00     0.029 A 
ATOM     54  N   UNL A   1      41.377  29.389  32.280  1.00  0.00    -0.354 N 
ATOM     55  N   UNL A   1      41.023  31.158  34.586  1.00  0.00    -0.248 NA
ATOM     56  C   UNL A   1      41.604  31.820  36.747  1.00  0.00     0.031 C 
ATOM     57  C   UNL A   1      43.017  27.890  32.343  1.00  0.00     0.029 A 
ATOM     58  C   UNL A   1      42.408  28.900  33.069  1.00  0.00     0.049 A 
ATOM     59  H   UNL A   1      40.762  30.112  32.539  1.00  0.00     0.167 HD
ATOM     60  C   UNL A   1      42.095  30.391  35.024  1.00  0.00     0.074 A 
ATOM     61  C   UNL A   1      42.433  30.864  36.349  1.00  0.00     0.031 C 
ATOM     62  C   UNL A   1      42.739  29.385  34.384  1.00  0.00     0.037 A 
BRANCH  49  63
ATOM     63  C   UNL A   1      40.440  28.074  28.801  1.00  0.00     0.064 A 
ATOM     64  C   UNL A   1      41.195  28.440  27.676  1.00  0.00     0.173 A 
ATOM     65  C   UNL A   1      39.769  26.842  28.767  1.00  0.00     0.173 A 
ATOM     66  F   UNL A   1      41.849  29.611  27.654  1.00  0.00    -0.203 F 
ATOM     67  C   UNL A   1      41.249  27.622  26.551  1.00  0.00     0.198 A 
ATOM     68  C   UNL A   1      39.852  26.011  27.652  1.00  0.00     0.198 A 
ATOM     69  F   UNL A   1      39.041  26.438  29.819  1.00  0.00    -0.203 F 
ATOM     70  F   UNL A   1      41.936  28.017  25.469  1.00  0.00    -0.200 F 
ATOM     71  C   UNL A   1      40.584  26.405  26.543  1.00  0.00     0.200 A 
ATOM     72  F   UNL A   1      39.223  24.828  27.652  1.00  0.00    -0.200 F 
ATOM     73  F   UNL A   1      40.645  25.614  25.462  1.00  0.00    -0.200 F 
ENDBRANCH  49  63
BRANCH  50  74
ATOM     74  C   UNL A   1      39.555  33.908  36.845  1.00  0.00     0.064 A 
ATOM     75  C   UNL A   1      38.781  33.473  37.931  1.00  0.00     0.173 A 
ATOM     76  C   UNL A   1      40.174  35.163  36.947  1.00  0.00     0.173 A 
ATOM     77  F   UNL A   1      38.151  32.291  37.871  1.00  0.00    -0.203 F 
ATOM     78  C   UNL A   1      38.613  34.270  39.061  1.00  0.00     0.198 A 
ATOM     79  C   UNL A   1      40.030  35.945  38.091  1.00  0.00     0.198 A 
ATOM     80  F   UNL A   1      40.929  35.624  35.940  1.00  0.00    -0.203 F 
ATOM     81  F   UNL A   1      37.828  33.851  40.063  1.00  0.00    -0.200 F 
ATOM     82  C   UNL A   1      39.243  35.503  39.143  1.00  0.00     0.200 A 
ATOM     83  F   UNL A   1      40.652  37.130  38.172  1.00  0.00    -0.200 F 
ATOM     84  F   UNL A   1      39.085  36.267  40.232  1.00  0.00    -0.200 F 
ENDBRANCH  50  74
BRANCH  62  85
ATOM     85  C   UNL A   1      43.902  28.749  35.093  1.00  0.00     0.064 A 
ATOM     86  C   UNL A   1      45.212  29.219  34.929  1.00  0.00     0.173 A 
ATOM     87  C   UNL A   1      43.694  27.679  35.976  1.00  0.00     0.173 A 
ATOM     88  F   UNL A   1      45.467  30.229  34.084  1.00  0.00    -0.203 F 
ATOM     89  C   UNL A   1      46.276  28.625  35.604  1.00  0.00     0.198 A 
ATOM     90  C   UNL A   1      44.754  27.107  36.673  1.00  0.00     0.198 A 
ATOM     91  F   UNL A   1      42.459  27.194  36.173  1.00  0.00    -0.203 F 
ATOM     92  F   UNL A   1      47.526  29.059  35.394  1.00  0.00    -0.200 F 
ATOM     93  C   UNL A   1      46.045  27.576  36.481  1.00  0.00     0.200 A 
ATOM     94  F   UNL A   1      44.528  26.102  37.530  1.00  0.00    -0.200 F 
ATOM     95  F   UNL A   1      47.069  27.010  37.135  1.00  0.00    -0.200 F 
ENDBRANCH  62  85
ENDBRANCH  36  37
ENDBRANCH  28  31
ENDBRANCH  26  27
ENDBRANCH  25  26
ENDBRANCH  24  25
ENDBRANCH   1  24
TORSDOF 15
ENDMDL
MODEL 2
REMARK VINA RESULT:     -12.3      2.337      3.634
REMARK SMILES O=C(CNC(=O)OCC1=Cc2ccccc2S1(=O)=O)NCCCCNC(=O)c1ccc(-c2c3nc(c(-c4c(F)c(F)c(F)c(F)c4F)c4ccc([nH]4)c(-c4c(F)c(F)c(F)c(F)c4F)c4nc(c(-c5c(F)c(F)c(F)c(F)c5F)c5ccc2[nH]5)C=C4)C=C3)cc1
REMARK SMILES IDX 21 1 20 2 1 3 2 4 3 6 4 7 5 8 6 10 7 11 8 12 9 13 10 14
REMARK SMILES IDX 17 15 11 16 16 17 18 18 19 19 12 20 15 21 13 22 14 23 22 24
REMARK SMILES IDX 23 25 24 26 25 27 26 28 27 30 28 31 29 32 90 33 30 34 89 35
REMARK SMILES IDX 31 36 32 37 33 38 83 39 34 40 88 41 82 42 84 43 35 44 87 45
REMARK SMILES IDX 81 46 80 47 36 49 68 50 48 51 67 52 49 53 52 54 66 55 85 56
REMARK SMILES IDX 50 57 51 58 65 60 86 61 53 62 37 63 38 64 46 65 39 66 40 67
REMARK SMILES IDX 44 68 47 69 41 70 42 71 45 72 43 73 69 74 70 75 78 76 71 77
REMARK SMILES IDX 72 78 76 79 79 80 73 81 74 82 77 83 75 84 54 85 55 86 63 87
REMARK SMILES IDX 56 88 57 89 61 90 64 91 58 92 59 93 62 94 60 95
REMARK H PARENT 20 5 4 9 25 29 84 48 52 59
REMARK Flexibility Score: inf
ROOT
ATOM      1  C   UNL A   1      32.733  30.086  26.585  1.00  0.00     0.116 C 
ENDROOT
BRANCH   1   2
ATOM      2  N   UNL A   1      32.801  28.692  26.207  1.00  0.00    -0.355 N 
ATOM      3  O   UNL A   1      31.527  27.870  27.934  1.00  0.00    -0.273 OA
ATOM      4  C   UNL A   1      32.131  27.688  26.881  1.00  0.00     0.239 C 
ATOM      5  H   UNL A   1      33.353  28.445  25.429  1.00  0.00     0.163 HD
BRANCH   4   6
ATOM      6  C   UNL A   1      32.313  26.292  26.268  1.00  0.00     0.219 C 
BRANCH   6   7
ATOM      7  N   UNL A   1      31.397  25.356  26.901  1.00  0.00    -0.312 N 
ATOM      8  C   UNL A   1      31.400  24.004  26.809  1.00  0.00     0.407 C 
ATOM      9  H   UNL A   1      30.692  25.751  27.463  1.00  0.00     0.167 HD
ATOM     10  O   UNL A   1      30.447  23.347  27.204  1.00  0.00    -0.225 OA
BRANCH   8  11
ATOM     11  O   UNL A   1      32.529  23.491  26.265  1.00  0.00    -0.444 OA
BRANCH  11  12
ATOM     12  C   UNL A   1      32.457  23.230  24.854  1.00  0.00     0.283 C 
BRANCH  12  13
ATOM     13  C   UNL A   1      32.833  21.827  24.548  1.00  0.00     0.087 C 
ATOM     14  C   UNL A   1      32.148  20.909  23.838  1.00  0.00     0.029 C 
ATOM     15  S   UNL A   1      34.285  21.155  25.243  1.00  0.00     0.206 S 
ATOM     16  C   UNL A   1      32.811  19.608  23.806  1.00  0.00    -0.005 A 
ATOM     17  C   UNL A   1      34.003  19.589  24.525  1.00  0.00     0.079 A 
ATOM     18  O   UNL A   1      35.466  21.706  24.610  1.00  0.00    -0.219 OA
ATOM     19  O   UNL A   1      34.143  21.000  26.675  1.00  0.00    -0.219 OA
ATOM     20  C   UNL A   1      32.397  18.452  23.166  1.00  0.00     0.009 A 
ATOM     21  C   UNL A   1      34.825  18.482  24.629  1.00  0.00     0.021 A 
ATOM     22  C   UNL A   1      33.204  17.307  23.254  1.00  0.00     0.001 A 
ATOM     23  C   UNL A   1      34.411  17.324  23.976  1.00  0.00     0.001 A 
ENDBRANCH  12  13
ENDBRANCH  11  12
ENDBRANCH   8  11
ENDBRANCH   6   7
ENDBRANCH   4   6
ENDBRANCH   1   2
BRANCH   1  24
ATOM     24  C   UNL A   1      31.473  30.779  26.071  1.00  0.00     0.023 C 
BRANCH  24  25
ATOM     25  C   UNL A   1      31.317  32.245  26.486  1.00  0.00     0.023 C 
BRANCH  25  26
ATOM     26  C   UNL A   1      32.481  32.845  27.272  1.00  0.00     0.116 C 
BRANCH  26  27
ATOM     27  N   UNL A   1      32.271  34.237  27.636  1.00  0.00    -0.352 N 
ATOM     28  C   UNL A   1      32.935  35.018  28.554  1.00  0.00     0.251 C 
ATOM     29  H   UNL A   1      31.545  34.691  27.151  1.00  0.00     0.163 HD
ATOM     30  O   UNL A   1      32.526  36.150  28.800  1.00  0.00    -0.269 OA
BRANCH  28  31
ATOM     31  C   UNL A   1      34.116  34.498  29.280  1.00  0.00     0.039 A 
ATOM     32  C   UNL A   1      33.927  33.922  30.541  1.00  0.00     0.014 A 
ATOM     33  C   UNL A   1      35.403  34.580  28.742  1.00  0.00     0.014 A 
ATOM     34  C   UNL A   1      35.012  33.363  31.224  1.00  0.00     0.010 A 
ATOM     35  C   UNL A   1      36.470  33.960  29.391  1.00  0.00     0.010 A 
ATOM     36  C   UNL A   1      36.286  33.340  30.636  1.00  0.00    -0.014 A 
BRANCH  36  37
ATOM     37  C   UNL A   1      37.430  32.657  31.300  1.00  0.00     0.031 A 
ATOM     38  C   UNL A   1      38.116  31.497  30.632  1.00  0.00     0.074 A 
ATOM     39  C   UNL A   1      37.808  33.037  32.535  1.00  0.00     0.049 A 
ATOM     40  N   UNL A   1      39.075  30.728  31.086  1.00  0.00    -0.248 NA
ATOM     41  C   UNL A   1      37.645  31.137  29.286  1.00  0.00     0.031 C 
ATOM     42  C   UNL A   1      37.197  34.117  33.311  1.00  0.00     0.029 A 
ATOM     43  N   UNL A   1      38.789  32.548  33.364  1.00  0.00    -0.354 N 
ATOM     44  C   UNL A   1      39.314  29.791  30.089  1.00  0.00     0.074 A 
ATOM     45  C   UNL A   1      38.364  30.053  29.029  1.00  0.00     0.031 C 
ATOM     46  C   UNL A   1      37.825  34.221  34.493  1.00  0.00     0.029 A 
ATOM     47  C   UNL A   1      38.855  33.189  34.578  1.00  0.00     0.049 A 
ATOM     48  H   UNL A   1      39.387  31.808  33.113  1.00  0.00     0.167 HD
ATOM     49  C   UNL A   1      40.253  28.816  30.050  1.00  0.00     0.037 A 
ATOM     50  C   UNL A   1      39.648  32.965  35.643  1.00  0.00     0.037 A 
ATOM     51  C   UNL A   1      41.209  28.565  31.098  1.00  0.00     0.049 A 
ATOM     52  C   UNL A   1      40.674  31.866  35.581  1.00  0.00     0.074 A 
ATOM     53  C   UNL A   1      42.233  27.634  31.128  1.00  0.00     0.029 A 
ATOM     54  N   UNL A   1      41.256  29.249  32.305  1.00  0.00    -0.354 N 
ATOM     55  N   UNL A   1      40.932  31.029  34.606  1.00  0.00    -0.248 NA
ATOM     56  C   UNL A   1      41.524  31.685  36.767  1.00  0.00     0.031 C 
ATOM     57  C   UNL A   1      42.869  27.720  32.372  1.00  0.00     0.029 A 
ATOM     58  C   UNL A   1      42.278  28.744  33.095  1.00  0.00     0.049 A 
ATOM     59  H   UNL A   1      40.653  29.983  32.562  1.00  0.00     0.167 HD
ATOM     60  C   UNL A   1      41.989  30.244  35.047  1.00  0.00     0.074 A 
ATOM     61  C   UNL A   1      42.335  30.714  36.372  1.00  0.00     0.031 C 
ATOM     62  C   UNL A   1      42.616  29.225  34.410  1.00  0.00     0.037 A 
BRANCH  49  63
ATOM     63  C   UNL A   1      40.298  27.943  28.829  1.00  0.00     0.064 A 
ATOM     64  C   UNL A   1      41.037  28.306  27.692  1.00  0.00     0.173 A 
ATOM     65  C   UNL A   1      39.627  26.711  28.807  1.00  0.00     0.173 A 
ATOM     66  F   UNL A   1      41.690  29.477  27.658  1.00  0.00    -0.203 F 
ATOM     67  C   UNL A   1      41.078  27.484  26.569  1.00  0.00     0.198 A 
ATOM     68  C   UNL A   1      39.697  25.876  27.693  1.00  0.00     0.198 A 
ATOM     69  F   UNL A   1      38.913  26.309  29.869  1.00  0.00    -0.203 F 
ATOM     70  F   UNL A   1      41.751  27.877  25.478  1.00  0.00    -0.200 F 
ATOM     71  C   UNL A   1      40.414  26.267  26.574  1.00  0.00     0.200 A 
ATOM     72  F   UNL A   1      39.068  24.692  27.705  1.00  0.00    -0.200 F 
ATOM     73  F   UNL A   1      40.462  25.473  25.495  1.00  0.00    -0.200 F 
ENDBRANCH  49  63
BRANCH  50  74
ATOM     74  C   UNL A   1      39.512  33.810  36.859  1.00  0.00     0.064 A 
ATOM     75  C   UNL A   1      38.725  33.394  37.942  1.00  0.00     0.173 A 
ATOM     76  C   UNL A   1      40.158  35.051  36.961  1.00  0.00     0.173 A 
ATOM     77  F   UNL A   1      38.069  32.226  37.882  1.00  0.00    -0.203 F 
ATOM     78  C   UNL A   1      38.571  34.197  39.070  1.00  0.00     0.198 A 
ATOM     79  C   UNL A   1      40.028  35.838  38.103  1.00  0.00     0.198 A 
ATOM     80  F   UNL A   1      40.927  35.493  35.956  1.00  0.00    -0.203 F 
ATOM     81  F   UNL A   1      37.772  33.798  40.070  1.00  0.00    -0.200 F 
ATOM     82  C   UNL A   1      39.227  35.416  39.153  1.00  0.00     0.200 A 
ATOM     83  F   UNL A   1      40.676  37.009  38.184  1.00  0.00    -0.200 F 
ATOM     84  F   UNL A   1      39.082  36.185  40.239  1.00  0.00    -0.200 F 
ENDBRANCH  50  74
BRANCH  62  85
ATOM     85  C   UNL A   1      43.767  28.570  35.121  1.00  0.00     0.064 A 
ATOM     86  C   UNL A   1      45.084  29.028  34.970  1.00  0.00     0.173 A 
ATOM     87  C   UNL A   1      43.541  27.494  35.992  1.00  0.00     0.173 A 
ATOM     88  F   UNL A   1      45.355  30.043  34.137  1.00  0.00    -0.203 F 
ATOM     89  C   UNL A   1      46.136  28.416  35.647  1.00  0.00     0.198 A 
ATOM     90  C   UNL A   1      44.591  26.905  36.691  1.00  0.00     0.198 A 
ATOM     91  F   UNL A   1      42.300  27.020  36.176  1.00  0.00    -0.203 F 
ATOM     92  F   UNL A   1      47.392  28.839  35.451  1.00  0.00    -0.200 F 
ATOM     93  C   UNL A   1      45.888  27.361  36.513  1.00  0.00     0.200 A 
ATOM     94  F   UNL A   1      44.348  25.894  37.537  1.00  0.00    -0.200 F 
ATOM     95  F   UNL A   1      46.901  26.778  37.169  1.00  0.00    -0.200 F 
ENDBRANCH  62  85
ENDBRANCH  36  37
ENDBRANCH  28  31
ENDBRANCH  26  27
ENDBRANCH  25  26
ENDBRANCH  24  25
ENDBRANCH   1  24
TORSDOF 15
ENDMDL
MODEL 3
REMARK VINA RESULT:     -12.3      1.748      7.616
REMARK SMILES O=C(CNC(=O)OCC1=Cc2ccccc2S1(=O)=O)NCCCCNC(=O)c1ccc(-c2c3nc(c(-c4c(F)c(F)c(F)c(F)c4F)c4ccc([nH]4)c(-c4c(F)c(F)c(F)c(F)c4F)c4nc(c(-c5c(F)c(F)c(F)c(F)c5F)c5ccc2[nH]5)C=C4)C=C3)cc1
REMARK SMILES IDX 21 1 20 2 1 3 2 4 3 6 4 7 5 8 6 10 7 11 8 12 9 13 10 14
REMARK SMILES IDX 17 15 11 16 16 17 18 18 19 19 12 20 15 21 13 22 14 23 22 24
REMARK SMILES IDX 23 25 24 26 25 27 26 28 27 30 28 31 29 32 90 33 30 34 89 35
REMARK SMILES IDX 31 36 32 37 33 38 83 39 34 40 88 41 82 42 84 43 35 44 87 45
REMARK SMILES IDX 81 46 80 47 36 49 68 50 48 51 67 52 49 53 52 54 66 55 85 56
REMARK SMILES IDX 50 57 51 58 65 60 86 61 53 62 37 63 38 64 46 65 39 66 40 67
REMARK SMILES IDX 44 68 47 69 41 70 42 71 45 72 43 73 69 74 70 75 78 76 71 77
REMARK SMILES IDX 72 78 76 79 79 80 73 81 74 82 77 83 75 84 54 85 55 86 63 87
REMARK SMILES IDX 56 88 57 89 61 90 64 91 58 92 59 93 62 94 60 95
REMARK H PARENT 20 5 4 9 25 29 84 48 52 59
REMARK Flexibility Score: inf
ROOT
ATOM      1  C   UNL A   1      35.435  33.175  28.002  1.00  0.00     0.116 C 
ENDROOT
BRANCH   1   2
ATOM      2  N   UNL A   1      35.477  31.730  27.956  1.00  0.00    -0.355 N 
ATOM      3  O   UNL A   1      33.297  31.406  27.305  1.00  0.00    -0.273 OA
ATOM      4  C   UNL A   1      34.412  30.952  27.543  1.00  0.00     0.239 C 
ATOM      5  H   UNL A   1      36.307  31.278  28.232  1.00  0.00     0.163 HD
BRANCH   4   6
ATOM      6  C   UNL A   1      34.706  29.444  27.529  1.00  0.00     0.219 C 
BRANCH   6   7
ATOM      7  N   UNL A   1      33.520  28.710  27.942  1.00  0.00    -0.312 N 
ATOM      8  C   UNL A   1      32.522  28.238  27.156  1.00  0.00     0.407 C 
ATOM      9  H   UNL A   1      33.431  28.537  28.908  1.00  0.00     0.167 HD
ATOM     10  O   UNL A   1      31.475  27.838  27.645  1.00  0.00    -0.225 OA
BRANCH   8  11
ATOM     11  O   UNL A   1      32.811  28.252  25.832  1.00  0.00    -0.444 OA
BRANCH  11  12
ATOM     12  C   UNL A   1      31.874  27.548  25.001  1.00  0.00     0.283 C 
BRANCH  12  13
ATOM     13  C   UNL A   1      30.937  28.488  24.336  1.00  0.00     0.087 C 
ATOM     14  C   UNL A   1      30.706  29.786  24.618  1.00  0.00     0.029 C 
ATOM     15  S   UNL A   1      29.878  27.902  23.080  1.00  0.00     0.206 S 
ATOM     16  C   UNL A   1      29.660  30.370  23.783  1.00  0.00    -0.005 A 
ATOM     17  C   UNL A   1      29.115  29.460  22.881  1.00  0.00     0.079 A 
ATOM     18  O   UNL A   1      30.616  27.631  21.863  1.00  0.00    -0.219 OA
ATOM     19  O   UNL A   1      28.882  27.006  23.628  1.00  0.00    -0.219 OA
ATOM     20  C   UNL A   1      29.180  31.669  23.795  1.00  0.00     0.009 A 
ATOM     21  C   UNL A   1      28.126  29.774  21.968  1.00  0.00     0.021 A 
ATOM     22  C   UNL A   1      28.172  32.023  22.886  1.00  0.00     0.001 A 
ATOM     23  C   UNL A   1      27.652  31.084  21.977  1.00  0.00     0.001 A 
ENDBRANCH  12  13
ENDBRANCH  11  12
ENDBRANCH   8  11
ENDBRANCH   6   7
ENDBRANCH   4   6
ENDBRANCH   1   2
BRANCH   1  24
ATOM     24  C   UNL A   1      34.711  33.708  29.237  1.00  0.00     0.023 C 
BRANCH  24  25
ATOM     25  C   UNL A   1      33.459  34.541  28.952  1.00  0.00     0.023 C 
BRANCH  25  26
ATOM     26  C   UNL A   1      33.457  35.960  29.517  1.00  0.00     0.116 C 
BRANCH  26  27
ATOM     27  N   UNL A   1      32.516  36.142  30.611  1.00  0.00    -0.352 N 
ATOM     28  C   UNL A   1      32.590  35.716  31.916  1.00  0.00     0.251 C 
ATOM     29  H   UNL A   1      31.703  36.647  30.382  1.00  0.00     0.163 HD
ATOM     30  O   UNL A   1      31.627  35.873  32.664  1.00  0.00    -0.269 OA
BRANCH  28  31
ATOM     31  C   UNL A   1      33.803  35.037  32.426  1.00  0.00     0.039 A 
ATOM     32  C   UNL A   1      33.684  33.734  32.921  1.00  0.00     0.014 A 
ATOM     33  C   UNL A   1      35.049  35.669  32.433  1.00  0.00     0.014 A 
ATOM     34  C   UNL A   1      34.820  33.041  33.350  1.00  0.00     0.010 A 
ATOM     35  C   UNL A   1      36.192  34.953  32.793  1.00  0.00     0.010 A 
ATOM     36  C   UNL A   1      36.091  33.630  33.250  1.00  0.00    -0.014 A 
BRANCH  36  37
ATOM     37  C   UNL A   1      37.322  32.871  33.600  1.00  0.00     0.031 A 
ATOM     38  C   UNL A   1      38.064  33.170  34.874  1.00  0.00     0.074 A 
ATOM     39  C   UNL A   1      37.811  31.959  32.739  1.00  0.00     0.049 A 
ATOM     40  N   UNL A   1      39.194  32.670  35.311  1.00  0.00    -0.248 NA
ATOM     41  C   UNL A   1      37.471  34.181  35.763  1.00  0.00     0.031 C 
ATOM     42  C   UNL A   1      37.213  31.608  31.450  1.00  0.00     0.029 A 
ATOM     43  N   UNL A   1      38.934  31.170  32.808  1.00  0.00    -0.354 N 
ATOM     44  C   UNL A   1      39.451  33.312  36.516  1.00  0.00     0.074 A 
ATOM     45  C   UNL A   1      38.389  34.275  36.714  1.00  0.00     0.031 C 
ATOM     46  C   UNL A   1      37.962  30.664  30.858  1.00  0.00     0.029 A 
ATOM     47  C   UNL A   1      39.116  30.371  31.704  1.00  0.00     0.049 A 
ATOM     48  H   UNL A   1      39.550  31.176  33.576  1.00  0.00     0.167 HD
ATOM     49  C   UNL A   1      40.467  33.104  37.387  1.00  0.00     0.037 A 
ATOM     50  C   UNL A   1      40.106  29.511  31.402  1.00  0.00     0.037 A 
ATOM     51  C   UNL A   1      41.516  32.134  37.197  1.00  0.00     0.049 A 
ATOM     52  C   UNL A   1      41.232  29.307  32.380  1.00  0.00     0.074 A 
ATOM     53  C   UNL A   1      42.559  31.813  38.048  1.00  0.00     0.029 A 
ATOM     54  N   UNL A   1      41.655  31.332  36.073  1.00  0.00    -0.354 N 
ATOM     55  N   UNL A   1      41.428  29.873  33.545  1.00  0.00    -0.248 NA
ATOM     56  C   UNL A   1      42.270  28.338  32.003  1.00  0.00     0.031 C 
ATOM     57  C   UNL A   1      43.358  30.852  37.419  1.00  0.00     0.029 A 
ATOM     58  C   UNL A   1      42.781  30.532  36.201  1.00  0.00     0.049 A 
ATOM     59  H   UNL A   1      41.046  31.330  35.300  1.00  0.00     0.167 HD
ATOM     60  C   UNL A   1      42.592  29.311  34.052  1.00  0.00     0.074 A 
ATOM     61  C   UNL A   1      43.050  28.347  33.075  1.00  0.00     0.031 C 
ATOM     62  C   UNL A   1      43.223  29.571  35.223  1.00  0.00     0.037 A 
BRANCH  49  63
ATOM     63  C   UNL A   1      40.494  33.939  38.635  1.00  0.00     0.064 A 
ATOM     64  C   UNL A   1      41.188  35.159  38.688  1.00  0.00     0.173 A 
ATOM     65  C   UNL A   1      39.788  33.539  39.779  1.00  0.00     0.173 A 
ATOM     66  F   UNL A   1      41.887  35.584  37.624  1.00  0.00    -0.203 F 
ATOM     67  C   UNL A   1      41.200  35.929  39.847  1.00  0.00     0.198 A 
ATOM     68  C   UNL A   1      39.775  34.327  40.927  1.00  0.00     0.198 A 
ATOM     69  F   UNL A   1      39.100  32.387  39.781  1.00  0.00    -0.203 F 
ATOM     70  F   UNL A   1      41.910  37.065  39.888  1.00  0.00    -0.200 F 
ATOM     71  C   UNL A   1      40.487  35.516  40.963  1.00  0.00     0.200 A 
ATOM     72  F   UNL A   1      39.072  33.936  41.999  1.00  0.00    -0.200 F 
ATOM     73  F   UNL A   1      40.492  36.264  42.076  1.00  0.00    -0.200 F 
ENDBRANCH  49  63
BRANCH  50  74
ATOM     74  C   UNL A   1      40.071  28.762  30.117  1.00  0.00     0.064 A 
ATOM     75  C   UNL A   1      39.457  27.504  30.033  1.00  0.00     0.173 A 
ATOM     76  C   UNL A   1      40.657  29.281  28.954  1.00  0.00     0.173 A 
ATOM     77  F   UNL A   1      38.903  26.955  31.124  1.00  0.00    -0.203 F 
ATOM     78  C   UNL A   1      39.449  26.786  28.839  1.00  0.00     0.198 A 
ATOM     79  C   UNL A   1      40.621  28.576  27.753  1.00  0.00     0.198 A 
ATOM     80  F   UNL A   1      41.253  30.482  28.980  1.00  0.00    -0.203 F 
ATOM     81  F   UNL A   1      38.898  25.565  28.798  1.00  0.00    -0.200 F 
ATOM     82  C   UNL A   1      40.025  27.325  27.698  1.00  0.00     0.200 A 
ATOM     83  F   UNL A   1      41.166  29.107  26.650  1.00  0.00    -0.200 F 
ATOM     84  F   UNL A   1      40.014  26.636  26.550  1.00  0.00    -0.200 F 
ENDBRANCH  50  74
BRANCH  62  85
ATOM     85  C   UNL A   1      44.460  28.776  35.532  1.00  0.00     0.064 A 
ATOM     86  C   UNL A   1      44.400  27.555  36.220  1.00  0.00     0.173 A 
ATOM     87  C   UNL A   1      45.717  29.225  35.101  1.00  0.00     0.173 A 
ATOM     88  F   UNL A   1      43.225  27.090  36.668  1.00  0.00    -0.203 F 
ATOM     89  C   UNL A   1      45.556  26.826  36.486  1.00  0.00     0.198 A 
ATOM     90  C   UNL A   1      46.867  28.479  35.341  1.00  0.00     0.198 A 
ATOM     91  F   UNL A   1      45.830  30.384  34.434  1.00  0.00    -0.203 F 
ATOM     92  F   UNL A   1      45.481  25.687  37.187  1.00  0.00    -0.200 F 
ATOM     93  C   UNL A   1      46.787  27.284  36.039  1.00  0.00     0.200 A 
ATOM     94  F   UNL A   1      48.054  28.916  34.897  1.00  0.00    -0.200 F 
ATOM     95  F   UNL A   1      47.898  26.577  36.291  1.00  0.00    -0.200 F 
ENDBRANCH  62  85
ENDBRANCH  36  37
ENDBRANCH  28  31
ENDBRANCH  26  27
ENDBRANCH  25  26
ENDBRANCH  24  25
ENDBRANCH   1  24
TORSDOF 15
ENDMDL
