MODEL 1
REMARK VINA RESULT:     -12.0      0.000      0.000
REMARK SMILES C[C@H](Sc1ccc(N)c(Cl)c1)C(=O)NCCCCNC(=O)c1ccc(-c2c3nc(c(-c4c(F)c(F)c(F)c(F)c4F)c4ccc([nH]4)c(-c4c(F)c(F)c(F)c(F)c4F)c4nc(c(-c5c(F)c(F)c(F)c(F)c5F)c5ccc2[nH]5)C=C4)C=C3)cc1
REMARK SMILES IDX 16 1 15 2 14 3 12 4 13 5 2 7 1 8 3 9 4 10 5 11 11 12 6 13
REMARK SMILES IDX 9 14 7 15 10 16 8 17 17 20 18 21 19 22 20 23 21 25 22 26
REMARK SMILES IDX 23 27 84 28 24 29 83 30 25 31 26 32 27 33 77 34 28 35 82 36
REMARK SMILES IDX 76 37 78 38 29 39 81 40 75 41 74 42 30 44 62 45 42 46 61 47
REMARK SMILES IDX 43 48 46 49 60 50 79 51 44 52 45 53 59 55 80 56 47 57 31 58
REMARK SMILES IDX 32 59 40 60 33 61 34 62 38 63 41 64 35 65 36 66 39 67 37 68
REMARK SMILES IDX 63 69 64 70 72 71 65 72 66 73 70 74 73 75 67 76 68 77 71 78
REMARK SMILES IDX 69 79 48 80 49 81 57 82 50 83 51 84 55 85 58 86 52 87 53 88
REMARK SMILES IDX 56 89 54 90
REMARK H PARENT 14 6 8 18 8 19 19 24 78 43 46 54
REMARK Flexibility Score: inf
ROOT
ATOM      1  C   UNL A   1      32.076  30.472  26.791  1.00  0.00     0.023 C 
ENDROOT
BRANCH   1   2
ATOM      2  C   UNL A   1      31.645  29.754  25.514  1.00  0.00     0.116 C 
BRANCH   2   3
ATOM      3  N   UNL A   1      32.773  29.559  24.630  1.00  0.00    -0.355 N 
ATOM      4  C   UNL A   1      33.469  28.459  24.248  1.00  0.00     0.233 C 
ATOM      5  O   UNL A   1      34.492  28.684  23.587  1.00  0.00    -0.274 OA
ATOM      6  H   UNL A   1      33.102  30.392  24.223  1.00  0.00     0.163 HD
BRANCH   4   7
ATOM      7  C   UNL A   1      33.047  27.015  24.532  1.00  0.00     0.137 C 
ATOM      8  C   UNL A   1      34.022  26.159  25.322  1.00  0.00     0.030 C 
BRANCH   7   9
ATOM      9  S   UNL A   1      32.094  26.234  23.161  1.00  0.00    -0.113 SA
BRANCH   9  10
ATOM     10  C   UNL A   1      30.435  26.864  23.213  1.00  0.00     0.010 A 
ATOM     11  C   UNL A   1      29.396  26.269  23.931  1.00  0.00     0.017 A 
ATOM     12  C   UNL A   1      30.187  28.094  22.590  1.00  0.00     0.037 A 
ATOM     13  C   UNL A   1      28.103  26.810  23.907  1.00  0.00     0.028 A 
ATOM     14  C   UNL A   1      28.902  28.650  22.591  1.00  0.00     0.065 A 
ATOM     15  C   UNL A   1      27.825  27.976  23.189  1.00  0.00     0.050 A 
ATOM     16  Cl  UNL A   1      28.654  30.147  21.758  1.00  0.00    -0.082 Cl
BRANCH  15  17
ATOM     17  N   UNL A   1      26.527  28.473  23.168  1.00  0.00    -0.398 N 
ATOM     18  H   UNL A   1      26.241  29.131  23.841  1.00  0.00     0.156 HD
ATOM     19  H   UNL A   1      25.894  28.167  22.480  1.00  0.00     0.156 HD
ENDBRANCH  15  17
ENDBRANCH   9  10
ENDBRANCH   7   9
ENDBRANCH   4   7
ENDBRANCH   2   3
ENDBRANCH   1   2
BRANCH   1  20
ATOM     20  C   UNL A   1      31.770  31.963  26.839  1.00  0.00     0.023 C 
BRANCH  20  21
ATOM     21  C   UNL A   1      32.845  32.832  27.476  1.00  0.00     0.116 C 
BRANCH  21  22
ATOM     22  N   UNL A   1      32.434  34.203  27.755  1.00  0.00    -0.352 N 
ATOM     23  C   UNL A   1      32.989  35.105  28.636  1.00  0.00     0.251 C 
ATOM     24  H   UNL A   1      31.656  34.527  27.245  1.00  0.00     0.163 HD
ATOM     25  O   UNL A   1      32.485  36.215  28.791  1.00  0.00    -0.269 OA
BRANCH  23  26
ATOM     26  C   UNL A   1      34.156  34.682  29.445  1.00  0.00     0.039 A 
ATOM     27  C   UNL A   1      33.943  34.174  30.728  1.00  0.00     0.014 A 
ATOM     28  C   UNL A   1      35.435  34.656  28.882  1.00  0.00     0.014 A 
ATOM     29  C   UNL A   1      34.987  33.527  31.397  1.00  0.00     0.010 A 
ATOM     30  C   UNL A   1      36.443  33.929  29.505  1.00  0.00     0.010 A 
ATOM     31  C   UNL A   1      36.226  33.339  30.762  1.00  0.00    -0.014 A 
BRANCH  31  32
ATOM     32  C   UNL A   1      37.307  32.516  31.370  1.00  0.00     0.031 A 
ATOM     33  C   UNL A   1      37.814  32.849  32.746  1.00  0.00     0.074 A 
ATOM     34  C   UNL A   1      37.910  31.550  30.649  1.00  0.00     0.049 A 
ATOM     35  N   UNL A   1      38.851  32.372  33.388  1.00  0.00    -0.248 NA
ATOM     36  C   UNL A   1      37.082  33.893  33.480  1.00  0.00     0.031 C 
ATOM     37  C   UNL A   1      37.563  31.168  29.279  1.00  0.00     0.029 A 
ATOM     38  N   UNL A   1      38.963  30.723  30.963  1.00  0.00    -0.354 N 
ATOM     39  C   UNL A   1      38.915  33.083  34.578  1.00  0.00     0.074 A 
ATOM     40  C   UNL A   1      37.844  34.056  34.549  1.00  0.00     0.031 C 
ATOM     41  C   UNL A   1      38.370  30.171  28.879  1.00  0.00     0.029 A 
ATOM     42  C   UNL A   1      39.317  29.868  29.947  1.00  0.00     0.049 A 
ATOM     43  H   UNL A   1      39.419  30.742  31.835  1.00  0.00     0.167 HD
ATOM     44  C   UNL A   1      39.772  32.925  35.614  1.00  0.00     0.037 A 
ATOM     45  C   UNL A   1      40.300  28.949  29.881  1.00  0.00     0.037 A 
ATOM     46  C   UNL A   1      40.802  31.922  35.667  1.00  0.00     0.049 A 
ATOM     47  C   UNL A   1      41.206  28.753  31.067  1.00  0.00     0.074 A 
ATOM     48  C   UNL A   1      41.679  31.637  36.699  1.00  0.00     0.029 A 
ATOM     49  N   UNL A   1      41.083  31.029  34.644  1.00  0.00    -0.354 N 
ATOM     50  N   UNL A   1      41.225  29.400  32.207  1.00  0.00    -0.248 NA
ATOM     51  C   UNL A   1      42.224  27.699  30.958  1.00  0.00     0.031 C 
ATOM     52  C   UNL A   1      42.507  30.585  36.291  1.00  0.00     0.029 A 
ATOM     53  C   UNL A   1      42.122  30.193  35.019  1.00  0.00     0.049 A 
ATOM     54  H   UNL A   1      40.614  30.993  33.779  1.00  0.00     0.167 HD
ATOM     55  C   UNL A   1      42.235  28.816  32.959  1.00  0.00     0.074 A 
ATOM     56  C   UNL A   1      42.799  27.756  32.151  1.00  0.00     0.031 C 
ATOM     57  C   UNL A   1      42.660  29.133  34.206  1.00  0.00     0.037 A 
BRANCH  44  58
ATOM     58  C   UNL A   1      39.621  33.857  36.782  1.00  0.00     0.064 A 
ATOM     59  C   UNL A   1      38.844  33.511  37.899  1.00  0.00     0.173 A 
ATOM     60  C   UNL A   1      40.263  35.103  36.788  1.00  0.00     0.173 A 
ATOM     61  F   UNL A   1      38.196  32.337  37.933  1.00  0.00    -0.203 F 
ATOM     62  C   UNL A   1      38.686  34.396  38.962  1.00  0.00     0.198 A 
ATOM     63  C   UNL A   1      40.128  35.972  37.867  1.00  0.00     0.198 A 
ATOM     64  F   UNL A   1      41.021  35.479  35.747  1.00  0.00    -0.203 F 
ATOM     65  F   UNL A   1      37.890  34.070  39.989  1.00  0.00    -0.200 F 
ATOM     66  C   UNL A   1      39.332  35.622  38.948  1.00  0.00     0.200 A 
ATOM     67  F   UNL A   1      40.761  37.154  37.859  1.00  0.00    -0.200 F 
ATOM     68  F   UNL A   1      39.179  36.473  39.972  1.00  0.00    -0.200 F 
ENDBRANCH  44  58
BRANCH  45  69
ATOM     69  C   UNL A   1      40.459  28.117  28.660  1.00  0.00     0.064 A 
ATOM     70  C   UNL A   1      39.815  26.876  28.551  1.00  0.00     0.173 A 
ATOM     71  C   UNL A   1      41.249  28.540  27.583  1.00  0.00     0.173 A 
ATOM     72  F   UNL A   1      39.067  26.420  29.566  1.00  0.00    -0.203 F 
ATOM     73  C   UNL A   1      39.970  26.082  27.417  1.00  0.00     0.198 A 
ATOM     74  C   UNL A   1      41.385  27.755  26.439  1.00  0.00     0.198 A 
ATOM     75  F   UNL A   1      41.882  29.721  27.637  1.00  0.00    -0.203 F 
ATOM     76  F   UNL A   1      39.376  24.882  27.356  1.00  0.00    -0.200 F 
ATOM     77  C   UNL A   1      40.751  26.524  26.359  1.00  0.00     0.200 A 
ATOM     78  F   UNL A   1      42.131  28.190  25.414  1.00  0.00    -0.200 F 
ATOM     79  F   UNL A   1      40.896  25.761  25.267  1.00  0.00    -0.200 F 
ENDBRANCH  45  69
BRANCH  57  80
ATOM     80  C   UNL A   1      43.765  28.304  34.788  1.00  0.00     0.064 A 
ATOM     81  C   UNL A   1      45.109  28.680  34.660  1.00  0.00     0.173 A 
ATOM     82  C   UNL A   1      43.469  27.146  35.522  1.00  0.00     0.173 A 
ATOM     83  F   UNL A   1      45.441  29.771  33.954  1.00  0.00    -0.203 F 
ATOM     84  C   UNL A   1      46.122  27.915  35.233  1.00  0.00     0.198 A 
ATOM     85  C   UNL A   1      44.482  26.397  36.113  1.00  0.00     0.198 A 
ATOM     86  F   UNL A   1      42.197  26.748  35.675  1.00  0.00    -0.203 F 
ATOM     87  F   UNL A   1      47.404  28.272  35.069  1.00  0.00    -0.200 F 
ATOM     88  C   UNL A   1      45.807  26.779  35.965  1.00  0.00     0.200 A 
ATOM     89  F   UNL A   1      44.177  25.305  36.828  1.00  0.00    -0.200 F 
ATOM     90  F   UNL A   1      46.783  26.049  36.522  1.00  0.00    -0.200 F 
ENDBRANCH  57  80
ENDBRANCH  31  32
ENDBRANCH  23  26
ENDBRANCH  21  22
ENDBRANCH  20  21
ENDBRANCH   1  20
TORSDOF 14
ENDMDL
MODEL 2
REMARK VINA RESULT:     -12.0      0.558      7.452
REMARK SMILES C[C@H](Sc1ccc(N)c(Cl)c1)C(=O)NCCCCNC(=O)c1ccc(-c2c3nc(c(-c4c(F)c(F)c(F)c(F)c4F)c4ccc([nH]4)c(-c4c(F)c(F)c(F)c(F)c4F)c4nc(c(-c5c(F)c(F)c(F)c(F)c5F)c5ccc2[nH]5)C=C4)C=C3)cc1
REMARK SMILES IDX 16 1 15 2 14 3 12 4 13 5 2 7 1 8 3 9 4 10 5 11 11 12 6 13
REMARK SMILES IDX 9 14 7 15 10 16 8 17 17 20 18 21 19 22 20 23 21 25 22 26
REMARK SMILES IDX 23 27 84 28 24 29 83 30 25 31 26 32 27 33 77 34 28 35 82 36
REMARK SMILES IDX 76 37 78 38 29 39 81 40 75 41 74 42 30 44 62 45 42 46 61 47
REMARK SMILES IDX 43 48 46 49 60 50 79 51 44 52 45 53 59 55 80 56 47 57 31 58
REMARK SMILES IDX 32 59 40 60 33 61 34 62 38 63 41 64 35 65 36 66 39 67 37 68
REMARK SMILES IDX 63 69 64 70 72 71 65 72 66 73 70 74 73 75 67 76 68 77 71 78
REMARK SMILES IDX 69 79 48 80 49 81 57 82 50 83 51 84 55 85 58 86 52 87 53 88
REMARK SMILES IDX 56 89 54 90
REMARK H PARENT 14 6 8 18 8 19 19 24 78 43 46 54
REMARK Flexibility Score: inf
ROOT
ATOM      1  C   UNL A   1      32.483  29.731  27.178  1.00  0.00     0.023 C 
ENDROOT
BRANCH   1   2
ATOM      2  C   UNL A   1      33.874  29.253  26.768  1.00  0.00     0.116 C 
BRANCH   2   3
ATOM      3  N   UNL A   1      34.003  29.227  25.328  1.00  0.00    -0.355 N 
ATOM      4  C   UNL A   1      33.852  28.245  24.404  1.00  0.00     0.233 C 
ATOM      5  O   UNL A   1      34.199  28.545  23.253  1.00  0.00    -0.274 OA
ATOM      6  H   UNL A   1      34.251  30.097  24.939  1.00  0.00     0.163 HD
BRANCH   4   7
ATOM      7  C   UNL A   1      33.253  26.865  24.684  1.00  0.00     0.137 C 
ATOM      8  C   UNL A   1      34.059  25.936  25.576  1.00  0.00     0.030 C 
BRANCH   7   9
ATOM      9  S   UNL A   1      32.338  26.146  23.255  1.00  0.00    -0.113 SA
BRANCH   9  10
ATOM     10  C   UNL A   1      30.702  26.837  23.243  1.00  0.00     0.010 A 
ATOM     11  C   UNL A   1      29.607  26.261  23.888  1.00  0.00     0.017 A 
ATOM     12  C   UNL A   1      30.533  28.093  22.646  1.00  0.00     0.037 A 
ATOM     13  C   UNL A   1      28.338  26.852  23.815  1.00  0.00     0.028 A 
ATOM     14  C   UNL A   1      29.271  28.697  22.599  1.00  0.00     0.065 A 
ATOM     15  C   UNL A   1      28.140  28.048  23.121  1.00  0.00     0.050 A 
ATOM     16  Cl  UNL A   1      29.121  30.226  21.801  1.00  0.00    -0.082 Cl
BRANCH  15  17
ATOM     17  N   UNL A   1      26.864  28.594  23.050  1.00  0.00    -0.398 N 
ATOM     18  H   UNL A   1      26.076  28.032  23.227  1.00  0.00     0.156 HD
ATOM     19  H   UNL A   1      26.748  29.545  22.821  1.00  0.00     0.156 HD
ENDBRANCH  15  17
ENDBRANCH   9  10
ENDBRANCH   7   9
ENDBRANCH   4   7
ENDBRANCH   2   3
ENDBRANCH   1   2
BRANCH   1  20
ATOM     20  C   UNL A   1      32.176  31.191  26.877  1.00  0.00     0.023 C 
BRANCH  20  21
ATOM     21  C   UNL A   1      33.122  32.204  27.508  1.00  0.00     0.116 C 
BRANCH  21  22
ATOM     22  N   UNL A   1      32.579  33.552  27.626  1.00  0.00    -0.352 N 
ATOM     23  C   UNL A   1      33.027  34.593  28.410  1.00  0.00     0.251 C 
ATOM     24  H   UNL A   1      31.788  33.744  27.072  1.00  0.00     0.163 HD
ATOM     25  O   UNL A   1      32.420  35.661  28.433  1.00  0.00    -0.269 OA
BRANCH  23  26
ATOM     26  C   UNL A   1      34.208  34.373  29.278  1.00  0.00     0.039 A 
ATOM     27  C   UNL A   1      34.021  33.820  30.547  1.00  0.00     0.014 A 
ATOM     28  C   UNL A   1      35.498  34.580  28.784  1.00  0.00     0.014 A 
ATOM     29  C   UNL A   1      35.128  33.359  31.268  1.00  0.00     0.010 A 
ATOM     30  C   UNL A   1      36.585  34.034  29.457  1.00  0.00     0.010 A 
ATOM     31  C   UNL A   1      36.411  33.400  30.699  1.00  0.00    -0.014 A 
BRANCH  31  32
ATOM     32  C   UNL A   1      37.587  32.774  31.361  1.00  0.00     0.031 A 
ATOM     33  C   UNL A   1      38.298  31.629  30.694  1.00  0.00     0.074 A 
ATOM     34  C   UNL A   1      37.946  33.151  32.604  1.00  0.00     0.049 A 
ATOM     35  N   UNL A   1      39.230  30.840  31.166  1.00  0.00    -0.248 NA
ATOM     36  C   UNL A   1      37.870  31.300  29.325  1.00  0.00     0.031 C 
ATOM     37  C   UNL A   1      37.301  34.202  33.393  1.00  0.00     0.029 A 
ATOM     38  N   UNL A   1      38.933  32.676  33.435  1.00  0.00    -0.354 N 
ATOM     39  C   UNL A   1      39.469  29.902  30.170  1.00  0.00     0.074 A 
ATOM     40  C   UNL A   1      38.551  30.190  29.089  1.00  0.00     0.031 C 
ATOM     41  C   UNL A   1      37.920  34.307  34.581  1.00  0.00     0.029 A 
ATOM     42  C   UNL A   1      38.980  33.307  34.655  1.00  0.00     0.049 A 
ATOM     43  H   UNL A   1      39.549  31.953  33.179  1.00  0.00     0.167 HD
ATOM     44  C   UNL A   1      40.385  28.906  30.147  1.00  0.00     0.037 A 
ATOM     45  C   UNL A   1      39.782  33.096  35.717  1.00  0.00     0.037 A 
ATOM     46  C   UNL A   1      41.334  28.653  31.199  1.00  0.00     0.049 A 
ATOM     47  C   UNL A   1      40.830  32.019  35.647  1.00  0.00     0.074 A 
ATOM     48  C   UNL A   1      42.346  27.711  31.242  1.00  0.00     0.029 A 
ATOM     49  N   UNL A   1      41.393  29.360  32.390  1.00  0.00    -0.354 N 
ATOM     50  N   UNL A   1      41.078  31.171  34.679  1.00  0.00    -0.248 NA
ATOM     51  C   UNL A   1      41.711  31.872  36.814  1.00  0.00     0.031 C 
ATOM     52  C   UNL A   1      43.005  27.833  32.471  1.00  0.00     0.029 A 
ATOM     53  C   UNL A   1      42.424  28.874  33.177  1.00  0.00     0.049 A 
ATOM     54  H   UNL A   1      40.792  30.099  32.640  1.00  0.00     0.167 HD
ATOM     55  C   UNL A   1      42.156  30.408  35.107  1.00  0.00     0.074 A 
ATOM     56  C   UNL A   1      42.524  30.902  36.418  1.00  0.00     0.031 C 
ATOM     57  C   UNL A   1      42.783  29.388  34.474  1.00  0.00     0.037 A 
BRANCH  44  58
ATOM     58  C   UNL A   1      40.410  28.021  28.934  1.00  0.00     0.064 A 
ATOM     59  C   UNL A   1      39.685  26.820  28.888  1.00  0.00     0.173 A 
ATOM     60  C   UNL A   1      41.158  28.381  27.805  1.00  0.00     0.173 A 
ATOM     61  F   UNL A   1      38.967  26.424  29.950  1.00  0.00    -0.203 F 
ATOM     62  C   UNL A   1      39.740  25.993  27.770  1.00  0.00     0.198 A 
ATOM     63  C   UNL A   1      41.186  27.567  26.675  1.00  0.00     0.198 A 
ATOM     64  F   UNL A   1      41.865  29.521  27.795  1.00  0.00    -0.203 F 
ATOM     65  F   UNL A   1      39.089  24.822  27.772  1.00  0.00    -0.200 F 
ATOM     66  C   UNL A   1      40.485  26.370  26.663  1.00  0.00     0.200 A 
ATOM     67  F   UNL A   1      41.898  27.935  25.602  1.00  0.00    -0.200 F 
ATOM     68  F   UNL A   1      40.537  25.572  25.587  1.00  0.00    -0.200 F 
ENDBRANCH  44  58
BRANCH  45  69
ATOM     69  C   UNL A   1      39.649  33.947  36.929  1.00  0.00     0.064 A 
ATOM     70  C   UNL A   1      38.878  33.523  38.020  1.00  0.00     0.173 A 
ATOM     71  C   UNL A   1      40.284  35.193  37.023  1.00  0.00     0.173 A 
ATOM     72  F   UNL A   1      38.233  32.348  37.967  1.00  0.00    -0.203 F 
ATOM     73  C   UNL A   1      38.735  34.319  39.154  1.00  0.00     0.198 A 
ATOM     74  C   UNL A   1      40.159  35.979  38.167  1.00  0.00     0.198 A 
ATOM     75  F   UNL A   1      41.036  35.642  36.007  1.00  0.00    -0.203 F 
ATOM     76  F   UNL A   1      37.960  33.907  40.167  1.00  0.00    -0.200 F 
ATOM     77  C   UNL A   1      39.379  35.546  39.229  1.00  0.00     0.200 A 
ATOM     78  F   UNL A   1      40.793  37.158  38.240  1.00  0.00    -0.200 F 
ATOM     79  F   UNL A   1      39.244  36.310  40.321  1.00  0.00    -0.200 F 
ENDBRANCH  45  69
BRANCH  57  80
ATOM     80  C   UNL A   1      43.951  28.760  35.171  1.00  0.00     0.064 A 
ATOM     81  C   UNL A   1      45.256  29.242  34.997  1.00  0.00     0.173 A 
ATOM     82  C   UNL A   1      43.755  27.691  36.059  1.00  0.00     0.173 A 
ATOM     83  F   UNL A   1      45.494  30.252  34.146  1.00  0.00    -0.203 F 
ATOM     84  C   UNL A   1      46.327  28.667  35.676  1.00  0.00     0.198 A 
ATOM     85  C   UNL A   1      44.825  27.134  36.754  1.00  0.00     0.198 A 
ATOM     86  F   UNL A   1      42.524  27.197  36.261  1.00  0.00    -0.203 F 
ATOM     87  F   UNL A   1      47.571  29.121  35.469  1.00  0.00    -0.200 F 
ATOM     88  C   UNL A   1      46.109  27.619  36.558  1.00  0.00     0.200 A 
ATOM     89  F   UNL A   1      44.612  26.128  37.614  1.00  0.00    -0.200 F 
ATOM     90  F   UNL A   1      47.140  27.072  37.217  1.00  0.00    -0.200 F 
ENDBRANCH  57  80
ENDBRANCH  31  32
ENDBRANCH  23  26
ENDBRANCH  21  22
ENDBRANCH  20  21
ENDBRANCH   1  20
TORSDOF 14
ENDMDL
MODEL 3
REMARK VINA RESULT:     -11.9      3.041      4.717
REMARK SMILES C[C@H](Sc1ccc(N)c(Cl)c1)C(=O)NCCCCNC(=O)c1ccc(-c2c3nc(c(-c4c(F)c(F)c(F)c(F)c4F)c4ccc([nH]4)c(-c4c(F)c(F)c(F)c(F)c4F)c4nc(c(-c5c(F)c(F)c(F)c(F)c5F)c5ccc2[nH]5)C=C4)C=C3)cc1
REMARK SMILES IDX 16 1 15 2 14 3 12 4 13 5 2 7 1 8 3 9 4 10 5 11 11 12 6 13
REMARK SMILES IDX 9 14 7 15 10 16 8 17 17 20 18 21 19 22 20 23 21 25 22 26
REMARK SMILES IDX 23 27 84 28 24 29 83 30 25 31 26 32 27 33 77 34 28 35 82 36
REMARK SMILES IDX 76 37 78 38 29 39 81 40 75 41 74 42 30 44 62 45 42 46 61 47
REMARK SMILES IDX 43 48 46 49 60 50 79 51 44 52 45 53 59 55 80 56 47 57 31 58
REMARK SMILES IDX 32 59 40 60 33 61 34 62 38 63 41 64 35 65 36 66 39 67 37 68
REMARK SMILES IDX 63 69 64 70 72 71 65 72 66 73 70 74 73 75 67 76 68 77 71 78
REMARK SMILES IDX 69 79 48 80 49 81 57 82 50 83 51 84 55 85 58 86 52 87 53 88
REMARK SMILES IDX 56 89 54 90
REMARK H PARENT 14 6 8 18 8 19 19 24 78 43 46 54
REMARK Flexibility Score: inf
ROOT
ATOM      1  C   UNL A   1      32.120  27.794  27.180  1.00  0.00     0.023 C 
ENDROOT
BRANCH   1   2
ATOM      2  C   UNL A   1      31.965  26.634  26.198  1.00  0.00     0.116 C 
BRANCH   2   3
ATOM      3  N   UNL A   1      31.413  25.472  26.860  1.00  0.00    -0.355 N 
ATOM      4  C   UNL A   1      31.191  24.197  26.456  1.00  0.00     0.233 C 
ATOM      5  O   UNL A   1      30.548  23.495  27.249  1.00  0.00    -0.274 OA
ATOM      6  H   UNL A   1      31.143  25.641  27.791  1.00  0.00     0.163 HD
BRANCH   4   7
ATOM      7  C   UNL A   1      31.716  23.588  25.152  1.00  0.00     0.137 C 
ATOM      8  C   UNL A   1      30.891  23.833  23.900  1.00  0.00     0.030 C 
BRANCH   7   9
ATOM      9  S   UNL A   1      32.528  21.948  25.370  1.00  0.00    -0.113 SA
BRANCH   9  10
ATOM     10  C   UNL A   1      34.284  22.205  25.428  1.00  0.00     0.010 A 
ATOM     11  C   UNL A   1      34.886  23.411  25.789  1.00  0.00     0.017 A 
ATOM     12  C   UNL A   1      35.110  21.094  25.209  1.00  0.00     0.037 A 
ATOM     13  C   UNL A   1      36.281  23.547  25.788  1.00  0.00     0.028 A 
ATOM     14  C   UNL A   1      36.504  21.223  25.238  1.00  0.00     0.065 A 
ATOM     15  C   UNL A   1      37.109  22.472  25.457  1.00  0.00     0.050 A 
ATOM     16  Cl  UNL A   1      37.465  19.823  24.908  1.00  0.00    -0.082 Cl
BRANCH  15  17
ATOM     17  N   UNL A   1      38.487  22.648  25.445  1.00  0.00    -0.398 N 
ATOM     18  H   UNL A   1      38.869  23.538  25.275  1.00  0.00     0.156 HD
ATOM     19  H   UNL A   1      39.083  21.880  25.607  1.00  0.00     0.156 HD
ENDBRANCH  15  17
ENDBRANCH   9  10
ENDBRANCH   7   9
ENDBRANCH   4   7
ENDBRANCH   2   3
ENDBRANCH   1   2
BRANCH   1  20
ATOM     20  C   UNL A   1      31.598  29.139  26.691  1.00  0.00     0.023 C 
BRANCH  20  21
ATOM     21  C   UNL A   1      32.660  30.116  26.204  1.00  0.00     0.116 C 
BRANCH  21  22
ATOM     22  N   UNL A   1      32.520  31.472  26.718  1.00  0.00    -0.352 N 
ATOM     23  C   UNL A   1      33.424  32.212  27.450  1.00  0.00     0.251 C 
ATOM     24  H   UNL A   1      31.667  31.920  26.516  1.00  0.00     0.163 HD
ATOM     25  O   UNL A   1      33.128  33.333  27.855  1.00  0.00    -0.269 OA
BRANCH  23  26
ATOM     26  C   UNL A   1      34.726  31.598  27.801  1.00  0.00     0.039 A 
ATOM     27  C   UNL A   1      35.830  32.426  28.013  1.00  0.00     0.014 A 
ATOM     28  C   UNL A   1      34.815  30.228  28.058  1.00  0.00     0.014 A 
ATOM     29  C   UNL A   1      36.985  31.900  28.601  1.00  0.00     0.010 A 
ATOM     30  C   UNL A   1      35.925  29.728  28.729  1.00  0.00     0.010 A 
ATOM     31  C   UNL A   1      37.016  30.562  29.027  1.00  0.00    -0.014 A 
BRANCH  31  32
ATOM     32  C   UNL A   1      38.159  30.008  29.801  1.00  0.00     0.031 A 
ATOM     33  C   UNL A   1      38.398  30.466  31.213  1.00  0.00     0.074 A 
ATOM     34  C   UNL A   1      39.046  29.186  29.205  1.00  0.00     0.049 A 
ATOM     35  N   UNL A   1      39.420  30.240  32.000  1.00  0.00    -0.248 NA
ATOM     36  C   UNL A   1      37.368  31.335  31.803  1.00  0.00     0.031 C 
ATOM     37  C   UNL A   1      38.972  28.714  27.821  1.00  0.00     0.029 A 
ATOM     38  N   UNL A   1      40.202  28.616  29.685  1.00  0.00    -0.354 N 
ATOM     39  C   UNL A   1      39.172  30.967  33.156  1.00  0.00     0.074 A 
ATOM     40  C   UNL A   1      37.930  31.680  32.950  1.00  0.00     0.031 C 
ATOM     41  C   UNL A   1      40.021  27.912  27.570  1.00  0.00     0.029 A 
ATOM     42  C   UNL A   1      40.862  27.842  28.760  1.00  0.00     0.049 A 
ATOM     43  H   UNL A   1      40.525  28.748  30.604  1.00  0.00     0.167 HD
ATOM     44  C   UNL A   1      39.900  31.018  34.297  1.00  0.00     0.037 A 
ATOM     45  C   UNL A   1      42.021  27.161  28.858  1.00  0.00     0.037 A 
ATOM     46  C   UNL A   1      41.106  30.267  34.523  1.00  0.00     0.049 A 
ATOM     47  C   UNL A   1      42.784  27.189  30.155  1.00  0.00     0.074 A 
ATOM     48  C   UNL A   1      41.880  30.199  35.667  1.00  0.00     0.029 A 
ATOM     49  N   UNL A   1      41.704  29.441  33.584  1.00  0.00    -0.354 N 
ATOM     50  N   UNL A   1      42.513  27.842  31.259  1.00  0.00    -0.248 NA
ATOM     51  C   UNL A   1      44.011  26.382  30.221  1.00  0.00     0.031 C 
ATOM     52  C   UNL A   1      42.962  29.348  35.413  1.00  0.00     0.029 A 
ATOM     53  C   UNL A   1      42.841  28.860  34.122  1.00  0.00     0.049 A 
ATOM     54  H   UNL A   1      41.372  29.289  32.669  1.00  0.00     0.167 HD
ATOM     55  C   UNL A   1      43.518  27.508  32.156  1.00  0.00     0.074 A 
ATOM     56  C   UNL A   1      44.399  26.584  31.473  1.00  0.00     0.031 C 
ATOM     57  C   UNL A   1      43.697  27.931  33.430  1.00  0.00     0.037 A 
BRANCH  44  58
ATOM     58  C   UNL A   1      39.399  31.913  35.393  1.00  0.00     0.064 A 
ATOM     59  C   UNL A   1      39.782  33.260  35.473  1.00  0.00     0.173 A 
ATOM     60  C   UNL A   1      38.521  31.420  36.370  1.00  0.00     0.173 A 
ATOM     61  F   UNL A   1      40.633  33.774  34.572  1.00  0.00    -0.203 F 
ATOM     62  C   UNL A   1      39.335  34.072  36.512  1.00  0.00     0.198 A 
ATOM     63  C   UNL A   1      38.050  32.243  37.390  1.00  0.00     0.198 A 
ATOM     64  F   UNL A   1      38.119  30.141  36.337  1.00  0.00    -0.203 F 
ATOM     65  F   UNL A   1      39.763  35.338  36.602  1.00  0.00    -0.200 F 
ATOM     66  C   UNL A   1      38.465  33.565  37.465  1.00  0.00     0.200 A 
ATOM     67  F   UNL A   1      37.203  31.757  38.306  1.00  0.00    -0.200 F 
ATOM     68  F   UNL A   1      38.036  34.347  38.465  1.00  0.00    -0.200 F 
ENDBRANCH  44  58
BRANCH  45  69
ATOM     69  C   UNL A   1      42.514  26.364  27.705  1.00  0.00     0.064 A 
ATOM     70  C   UNL A   1      43.440  26.908  26.803  1.00  0.00     0.173 A 
ATOM     71  C   UNL A   1      42.076  25.053  27.479  1.00  0.00     0.173 A 
ATOM     72  F   UNL A   1      43.870  28.168  26.966  1.00  0.00    -0.203 F 
ATOM     73  C   UNL A   1      43.897  26.176  25.710  1.00  0.00     0.198 A 
ATOM     74  C   UNL A   1      42.552  24.312  26.399  1.00  0.00     0.198 A 
ATOM     75  F   UNL A   1      41.195  24.486  28.315  1.00  0.00    -0.203 F 
ATOM     76  F   UNL A   1      44.751  26.734  24.841  1.00  0.00    -0.200 F 
ATOM     77  C   UNL A   1      43.456  24.875  25.511  1.00  0.00     0.200 A 
ATOM     78  F   UNL A   1      42.132  23.051  26.216  1.00  0.00    -0.200 F 
ATOM     79  F   UNL A   1      43.899  24.170  24.461  1.00  0.00    -0.200 F 
ENDBRANCH  45  69
BRANCH  57  80
ATOM     80  C   UNL A   1      44.868  27.375  34.182  1.00  0.00     0.064 A 
ATOM     81  C   UNL A   1      44.774  26.180  34.909  1.00  0.00     0.173 A 
ATOM     82  C   UNL A   1      46.112  28.022  34.134  1.00  0.00     0.173 A 
ATOM     83  F   UNL A   1      43.601  25.534  34.995  1.00  0.00    -0.203 F 
ATOM     84  C   UNL A   1      45.879  25.660  35.576  1.00  0.00     0.198 A 
ATOM     85  C   UNL A   1      47.222  27.487  34.783  1.00  0.00     0.198 A 
ATOM     86  F   UNL A   1      46.253  29.166  33.448  1.00  0.00    -0.203 F 
ATOM     87  F   UNL A   1      45.759  24.535  36.294  1.00  0.00    -0.200 F 
ATOM     88  C   UNL A   1      47.103  26.310  35.506  1.00  0.00     0.200 A 
ATOM     89  F   UNL A   1      48.406  28.110  34.707  1.00  0.00    -0.200 F 
ATOM     90  F   UNL A   1      48.169  25.803  36.143  1.00  0.00    -0.200 F 
ENDBRANCH  57  80
ENDBRANCH  31  32
ENDBRANCH  23  26
ENDBRANCH  21  22
ENDBRANCH  20  21
ENDBRANCH   1  20
TORSDOF 14
ENDMDL
