MODEL 1
REMARK VINA RESULT:     -12.4      0.000      0.000
REMARK SMILES O=C(NCCCCNC(=O)c1ncccc1-c1cc(Cl)cc(Cl)c1)c1ccc(-c2c3nc(c(-c4c(F)c(F)c(F)c(F)c4F)c4ccc([nH]4)c(-c4c(F)c(F)c(F)c(F)c4F)c4nc(c(-c5c(F)c(F)c(F)c(F)c5F)c5ccc2[nH]5)C=C4)C=C3)cc1
REMARK SMILES IDX 5 1 4 2 3 3 1 4 2 5 25 7 26 8 87 9 27 10 86 11 28 12 29 13
REMARK SMILES IDX 30 14 80 15 31 16 85 17 79 18 81 19 32 20 84 21 78 22 77 23
REMARK SMILES IDX 33 25 65 26 45 27 64 28 46 29 49 30 63 31 82 32 47 33 48 34
REMARK SMILES IDX 62 36 83 37 50 38 34 39 35 40 43 41 36 42 37 43 41 44 44 45
REMARK SMILES IDX 38 46 39 47 42 48 40 49 66 50 67 51 75 52 68 53 69 54 73 55
REMARK SMILES IDX 76 56 70 57 71 58 74 59 72 60 51 61 52 62 60 63 53 64 54 65
REMARK SMILES IDX 58 66 61 67 55 68 56 69 59 70 57 71 6 72 7 73 8 74 9 75
REMARK SMILES IDX 10 77 11 78 12 79 16 80 13 81 15 82 14 83 17 84 18 85 24 86
REMARK SMILES IDX 19 87 22 88 20 89 21 90 23 91
REMARK H PARENT 3 6 81 24 49 35 8 76
REMARK Flexibility Score: inf
ROOT
ATOM      1  C   UNL A   1      31.402  31.908  26.876  1.00  0.00     0.023 C 
ENDROOT
BRANCH   1   2
ATOM      2  C   UNL A   1      32.699  32.665  27.135  1.00  0.00     0.116 C 
BRANCH   2   3
ATOM      3  N   UNL A   1      32.480  34.027  27.598  1.00  0.00    -0.352 N 
ATOM      4  O   UNL A   1      32.668  35.800  28.987  1.00  0.00    -0.269 OA
ATOM      5  C   UNL A   1      33.085  34.701  28.631  1.00  0.00     0.251 C 
ATOM      6  H   UNL A   1      31.800  34.538  27.101  1.00  0.00     0.163 HD
BRANCH   5   7
ATOM      7  C   UNL A   1      34.233  34.088  29.331  1.00  0.00     0.039 A 
ATOM      8  C   UNL A   1      34.028  33.219  30.405  1.00  0.00     0.014 A 
ATOM      9  C   UNL A   1      35.531  34.377  28.899  1.00  0.00     0.014 A 
ATOM     10  C   UNL A   1      35.114  32.743  31.128  1.00  0.00     0.010 A 
ATOM     11  C   UNL A   1      36.625  33.829  29.575  1.00  0.00     0.010 A 
ATOM     12  C   UNL A   1      36.425  33.023  30.706  1.00  0.00    -0.014 A 
BRANCH  12  13
ATOM     13  C   UNL A   1      37.562  32.360  31.389  1.00  0.00     0.031 A 
ATOM     14  C   UNL A   1      38.294  31.208  30.764  1.00  0.00     0.074 A 
ATOM     15  C   UNL A   1      37.925  32.820  32.603  1.00  0.00     0.049 A 
ATOM     16  N   UNL A   1      39.294  30.512  31.244  1.00  0.00    -0.248 NA
ATOM     17  C   UNL A   1      37.847  30.773  29.431  1.00  0.00     0.031 C 
ATOM     18  C   UNL A   1      37.267  33.921  33.314  1.00  0.00     0.029 A 
ATOM     19  N   UNL A   1      38.928  32.432  33.452  1.00  0.00    -0.354 N 
ATOM     20  C   UNL A   1      39.584  29.548  30.289  1.00  0.00     0.074 A 
ATOM     21  C   UNL A   1      38.646  29.737  29.201  1.00  0.00     0.031 C 
ATOM     22  C   UNL A   1      37.898  34.135  34.477  1.00  0.00     0.029 A 
ATOM     23  C   UNL A   1      38.960  33.147  34.624  1.00  0.00     0.049 A 
ATOM     24  H   UNL A   1      39.565  31.710  33.242  1.00  0.00     0.167 HD
ATOM     25  C   UNL A   1      40.548  28.598  30.323  1.00  0.00     0.037 A 
ATOM     26  C   UNL A   1      39.733  33.003  35.715  1.00  0.00     0.037 A 
ATOM     27  C   UNL A   1      41.494  28.439  31.399  1.00  0.00     0.049 A 
ATOM     28  C   UNL A   1      40.774  31.921  35.729  1.00  0.00     0.074 A 
ATOM     29  C   UNL A   1      42.565  27.565  31.483  1.00  0.00     0.029 A 
ATOM     30  N   UNL A   1      41.477  29.162  32.582  1.00  0.00    -0.354 N 
ATOM     31  N   UNL A   1      41.082  31.062  34.788  1.00  0.00    -0.248 NA
ATOM     32  C   UNL A   1      41.567  31.782  36.957  1.00  0.00     0.031 C 
ATOM     33  C   UNL A   1      43.159  27.718  32.739  1.00  0.00     0.029 A 
ATOM     34  C   UNL A   1      42.490  28.722  33.420  1.00  0.00     0.049 A 
ATOM     35  H   UNL A   1      40.839  29.881  32.796  1.00  0.00     0.167 HD
ATOM     36  C   UNL A   1      42.105  30.283  35.307  1.00  0.00     0.074 A 
ATOM     37  C   UNL A   1      42.387  30.793  36.633  1.00  0.00     0.031 C 
ATOM     38  C   UNL A   1      42.746  29.232  34.741  1.00  0.00     0.037 A 
BRANCH  25  39
ATOM     39  C   UNL A   1      40.641  27.633  29.178  1.00  0.00     0.064 A 
ATOM     40  C   UNL A   1      39.774  26.537  29.064  1.00  0.00     0.173 A 
ATOM     41  C   UNL A   1      41.536  27.876  28.123  1.00  0.00     0.173 A 
ATOM     42  F   UNL A   1      38.903  26.260  30.046  1.00  0.00    -0.203 F 
ATOM     43  C   UNL A   1      39.801  25.718  27.937  1.00  0.00     0.198 A 
ATOM     44  C   UNL A   1      41.546  27.067  26.990  1.00  0.00     0.198 A 
ATOM     45  F   UNL A   1      42.380  28.917  28.180  1.00  0.00    -0.203 F 
ATOM     46  F   UNL A   1      38.974  24.667  27.855  1.00  0.00    -0.200 F 
ATOM     47  C   UNL A   1      40.678  25.990  26.897  1.00  0.00     0.200 A 
ATOM     48  F   UNL A   1      42.384  27.340  25.980  1.00  0.00    -0.200 F 
ATOM     49  F   UNL A   1      40.687  25.214  25.805  1.00  0.00    -0.200 F 
ENDBRANCH  25  39
BRANCH  26  50
ATOM     50  C   UNL A   1      39.517  33.877  36.896  1.00  0.00     0.064 A 
ATOM     51  C   UNL A   1      40.080  35.158  36.964  1.00  0.00     0.173 A 
ATOM     52  C   UNL A   1      38.749  33.442  37.988  1.00  0.00     0.173 A 
ATOM     53  F   UNL A   1      40.838  35.610  35.954  1.00  0.00    -0.203 F 
ATOM     54  C   UNL A   1      39.899  35.963  38.086  1.00  0.00     0.198 A 
ATOM     55  C   UNL A   1      38.541  34.261  39.094  1.00  0.00     0.198 A 
ATOM     56  F   UNL A   1      38.185  32.226  37.971  1.00  0.00    -0.203 F 
ATOM     57  F   UNL A   1      40.489  37.164  38.147  1.00  0.00    -0.200 F 
ATOM     58  C   UNL A   1      39.125  35.517  39.147  1.00  0.00     0.200 A 
ATOM     59  F   UNL A   1      37.779  33.831  40.109  1.00  0.00    -0.200 F 
ATOM     60  F   UNL A   1      38.950  36.293  40.225  1.00  0.00    -0.200 F 
ENDBRANCH  26  50
BRANCH  38  61
ATOM     61  C   UNL A   1      43.810  28.566  35.560  1.00  0.00     0.064 A 
ATOM     62  C   UNL A   1      45.155  28.952  35.456  1.00  0.00     0.173 A 
ATOM     63  C   UNL A   1      43.482  27.555  36.475  1.00  0.00     0.173 A 
ATOM     64  F   UNL A   1      45.519  29.900  34.579  1.00  0.00    -0.203 F 
ATOM     65  C   UNL A   1      46.136  28.331  36.223  1.00  0.00     0.198 A 
ATOM     66  C   UNL A   1      44.462  26.957  37.260  1.00  0.00     0.198 A 
ATOM     67  F   UNL A   1      42.209  27.155  36.614  1.00  0.00    -0.203 F 
ATOM     68  F   UNL A   1      47.422  28.681  36.071  1.00  0.00    -0.200 F 
ATOM     69  C   UNL A   1      45.790  27.340  37.128  1.00  0.00     0.200 A 
ATOM     70  F   UNL A   1      44.124  26.008  38.143  1.00  0.00    -0.200 F 
ATOM     71  F   UNL A   1      46.735  26.747  37.870  1.00  0.00    -0.200 F 
ENDBRANCH  38  61
ENDBRANCH  12  13
ENDBRANCH   5   7
ENDBRANCH   2   3
ENDBRANCH   1   2
BRANCH   1  72
ATOM     72  C   UNL A   1      31.407  30.991  25.655  1.00  0.00     0.023 C 
BRANCH  72  73
ATOM     73  C   UNL A   1      32.187  29.696  25.824  1.00  0.00     0.116 C 
BRANCH  73  74
ATOM     74  N   UNL A   1      31.403  28.603  26.365  1.00  0.00    -0.351 N 
ATOM     75  C   UNL A   1      31.291  27.328  25.849  1.00  0.00     0.270 C 
ATOM     76  H   UNL A   1      30.897  28.790  27.187  1.00  0.00     0.163 HD
ATOM     77  O   UNL A   1      30.682  26.459  26.465  1.00  0.00    -0.267 OA
BRANCH  75  78
ATOM     78  C   UNL A   1      31.940  27.020  24.542  1.00  0.00     0.135 A 
ATOM     79  N   UNL A   1      33.080  26.282  24.652  1.00  0.00    -0.250 NA
ATOM     80  C   UNL A   1      31.329  27.383  23.329  1.00  0.00     0.013 A 
ATOM     81  C   UNL A   1      33.657  25.885  23.504  1.00  0.00     0.112 A 
ATOM     82  C   UNL A   1      31.968  26.924  22.167  1.00  0.00     0.013 A 
ATOM     83  C   UNL A   1      33.139  26.169  22.253  1.00  0.00     0.021 A 
BRANCH  80  84
ATOM     84  C   UNL A   1      30.059  28.126  23.252  1.00  0.00    -0.013 A 
ATOM     85  C   UNL A   1      30.028  29.422  22.707  1.00  0.00     0.029 A 
ATOM     86  C   UNL A   1      28.842  27.539  23.634  1.00  0.00     0.029 A 
ATOM     87  C   UNL A   1      28.812  30.077  22.494  1.00  0.00     0.043 A 
ATOM     88  C   UNL A   1      27.634  28.213  23.434  1.00  0.00     0.043 A 
ATOM     89  Cl  UNL A   1      28.805  31.617  21.727  1.00  0.00    -0.084 Cl
ATOM     90  C   UNL A   1      27.612  29.477  22.852  1.00  0.00     0.041 A 
ATOM     91  Cl  UNL A   1      26.153  27.460  23.878  1.00  0.00    -0.084 Cl
ENDBRANCH  80  84
ENDBRANCH  75  78
ENDBRANCH  73  74
ENDBRANCH  72  73
ENDBRANCH   1  72
TORSDOF 12
ENDMDL
MODEL 2
REMARK VINA RESULT:     -12.3      3.161      4.708
REMARK SMILES O=C(NCCCCNC(=O)c1ncccc1-c1cc(Cl)cc(Cl)c1)c1ccc(-c2c3nc(c(-c4c(F)c(F)c(F)c(F)c4F)c4ccc([nH]4)c(-c4c(F)c(F)c(F)c(F)c4F)c4nc(c(-c5c(F)c(F)c(F)c(F)c5F)c5ccc2[nH]5)C=C4)C=C3)cc1
REMARK SMILES IDX 5 1 4 2 3 3 1 4 2 5 25 7 26 8 87 9 27 10 86 11 28 12 29 13
REMARK SMILES IDX 30 14 80 15 31 16 85 17 79 18 81 19 32 20 84 21 78 22 77 23
REMARK SMILES IDX 33 25 65 26 45 27 64 28 46 29 49 30 63 31 82 32 47 33 48 34
REMARK SMILES IDX 62 36 83 37 50 38 34 39 35 40 43 41 36 42 37 43 41 44 44 45
REMARK SMILES IDX 38 46 39 47 42 48 40 49 66 50 67 51 75 52 68 53 69 54 73 55
REMARK SMILES IDX 76 56 70 57 71 58 74 59 72 60 51 61 52 62 60 63 53 64 54 65
REMARK SMILES IDX 58 66 61 67 55 68 56 69 59 70 57 71 6 72 7 73 8 74 9 75
REMARK SMILES IDX 10 77 11 78 12 79 16 80 13 81 15 82 14 83 17 84 18 85 24 86
REMARK SMILES IDX 19 87 22 88 20 89 21 90 23 91
REMARK H PARENT 3 6 81 24 49 35 8 76
REMARK Flexibility Score: inf
ROOT
ATOM      1  C   UNL A   1      33.747  28.863  23.566  1.00  0.00     0.023 C 
ENDROOT
BRANCH   1   2
ATOM      2  C   UNL A   1      33.737  28.938  25.088  1.00  0.00     0.116 C 
BRANCH   2   3
ATOM      3  N   UNL A   1      33.030  30.105  25.594  1.00  0.00    -0.352 N 
ATOM      4  O   UNL A   1      32.492  31.718  27.082  1.00  0.00    -0.269 OA
ATOM      5  C   UNL A   1      33.285  30.856  26.716  1.00  0.00     0.251 C 
ATOM      6  H   UNL A   1      32.258  30.399  25.056  1.00  0.00     0.163 HD
BRANCH   5   7
ATOM      7  C   UNL A   1      34.515  30.607  27.498  1.00  0.00     0.039 A 
ATOM      8  C   UNL A   1      34.732  29.367  28.103  1.00  0.00     0.014 A 
ATOM      9  C   UNL A   1      35.468  31.624  27.617  1.00  0.00     0.014 A 
ATOM     10  C   UNL A   1      35.833  29.184  28.931  1.00  0.00     0.010 A 
ATOM     11  C   UNL A   1      36.618  31.411  28.381  1.00  0.00     0.010 A 
ATOM     12  C   UNL A   1      36.800  30.195  29.059  1.00  0.00    -0.014 A 
BRANCH  12  13
ATOM     13  C   UNL A   1      38.049  29.911  29.806  1.00  0.00     0.031 A 
ATOM     14  C   UNL A   1      39.112  29.008  29.249  1.00  0.00     0.074 A 
ATOM     15  C   UNL A   1      38.208  30.486  31.014  1.00  0.00     0.049 A 
ATOM     16  N   UNL A   1      40.249  28.647  29.789  1.00  0.00    -0.248 NA
ATOM     17  C   UNL A   1      38.871  28.429  27.917  1.00  0.00     0.031 C 
ATOM     18  C   UNL A   1      37.227  31.363  31.661  1.00  0.00     0.029 A 
ATOM     19  N   UNL A   1      39.242  30.428  31.912  1.00  0.00    -0.354 N 
ATOM     20  C   UNL A   1      40.849  27.787  28.880  1.00  0.00     0.074 A 
ATOM     21  C   UNL A   1      39.946  27.668  27.754  1.00  0.00     0.031 C 
ATOM     22  C   UNL A   1      37.716  31.780  32.837  1.00  0.00     0.029 A 
ATOM     23  C   UNL A   1      39.012  31.150  33.058  1.00  0.00     0.049 A 
ATOM     24  H   UNL A   1      40.071  29.920  31.751  1.00  0.00     0.167 HD
ATOM     25  C   UNL A   1      42.046  27.162  28.983  1.00  0.00     0.037 A 
ATOM     26  C   UNL A   1      39.744  31.264  34.180  1.00  0.00     0.037 A 
ATOM     27  C   UNL A   1      42.949  27.312  30.097  1.00  0.00     0.049 A 
ATOM     28  C   UNL A   1      41.053  30.534  34.270  1.00  0.00     0.074 A 
ATOM     29  C   UNL A   1      44.222  26.791  30.249  1.00  0.00     0.029 A 
ATOM     30  N   UNL A   1      42.668  28.027  31.252  1.00  0.00    -0.354 N 
ATOM     31  N   UNL A   1      41.639  29.780  33.372  1.00  0.00    -0.248 NA
ATOM     32  C   UNL A   1      41.797  30.663  35.529  1.00  0.00     0.031 C 
ATOM     33  C   UNL A   1      44.689  27.142  31.520  1.00  0.00     0.029 A 
ATOM     34  C   UNL A   1      43.728  27.923  32.140  1.00  0.00     0.049 A 
ATOM     35  H   UNL A   1      41.840  28.533  31.416  1.00  0.00     0.167 HD
ATOM     36  C   UNL A   1      42.821  29.348  33.955  1.00  0.00     0.074 A 
ATOM     37  C   UNL A   1      42.883  29.950  35.271  1.00  0.00     0.031 C 
ATOM     38  C   UNL A   1      43.765  28.517  33.450  1.00  0.00     0.037 A 
BRANCH  25  39
ATOM     39  C   UNL A   1      42.466  26.239  27.877  1.00  0.00     0.064 A 
ATOM     40  C   UNL A   1      41.947  24.942  27.761  1.00  0.00     0.173 A 
ATOM     41  C   UNL A   1      43.314  26.701  26.858  1.00  0.00     0.173 A 
ATOM     42  F   UNL A   1      41.136  24.451  28.709  1.00  0.00    -0.203 F 
ATOM     43  C   UNL A   1      42.263  24.141  26.665  1.00  0.00     0.198 A 
ATOM     44  C   UNL A   1      43.611  25.906  25.754  1.00  0.00     0.198 A 
ATOM     45  F   UNL A   1      43.830  27.938  26.918  1.00  0.00    -0.203 F 
ATOM     46  F   UNL A   1      41.767  22.898  26.580  1.00  0.00    -0.200 F 
ATOM     47  C   UNL A   1      43.085  24.627  25.658  1.00  0.00     0.200 A 
ATOM     48  F   UNL A   1      44.394  26.382  24.777  1.00  0.00    -0.200 F 
ATOM     49  F   UNL A   1      43.369  23.863  24.595  1.00  0.00    -0.200 F 
ENDBRANCH  25  39
BRANCH  26  50
ATOM     50  C   UNL A   1      39.231  32.065  35.321  1.00  0.00     0.064 A 
ATOM     51  C   UNL A   1      39.499  33.436  35.424  1.00  0.00     0.173 A 
ATOM     52  C   UNL A   1      38.467  31.470  36.337  1.00  0.00     0.173 A 
ATOM     53  F   UNL A   1      40.243  34.045  34.488  1.00  0.00    -0.203 F 
ATOM     54  C   UNL A   1      39.041  34.177  36.511  1.00  0.00     0.198 A 
ATOM     55  C   UNL A   1      37.980  32.219  37.404  1.00  0.00     0.198 A 
ATOM     56  F   UNL A   1      38.178  30.162  36.283  1.00  0.00    -0.203 F 
ATOM     57  F   UNL A   1      39.354  35.476  36.612  1.00  0.00    -0.200 F 
ATOM     58  C   UNL A   1      38.277  33.570  37.496  1.00  0.00     0.200 A 
ATOM     59  F   UNL A   1      37.229  31.631  38.345  1.00  0.00    -0.200 F 
ATOM     60  F   UNL A   1      37.834  34.284  38.539  1.00  0.00    -0.200 F 
ENDBRANCH  26  50
BRANCH  38  61
ATOM     61  C   UNL A   1      44.939  28.211  34.330  1.00  0.00     0.064 A 
ATOM     62  C   UNL A   1      44.943  27.091  35.174  1.00  0.00     0.173 A 
ATOM     63  C   UNL A   1      46.080  29.028  34.311  1.00  0.00     0.173 A 
ATOM     64  F   UNL A   1      43.867  26.293  35.241  1.00  0.00    -0.203 F 
ATOM     65  C   UNL A   1      46.039  26.813  35.985  1.00  0.00     0.198 A 
ATOM     66  C   UNL A   1      47.184  28.730  35.102  1.00  0.00     0.198 A 
ATOM     67  F   UNL A   1      46.125  30.109  33.517  1.00  0.00    -0.203 F 
ATOM     68  F   UNL A   1      46.003  25.765  36.821  1.00  0.00    -0.200 F 
ATOM     69  C   UNL A   1      47.161  27.627  35.944  1.00  0.00     0.200 A 
ATOM     70  F   UNL A   1      48.272  29.512  35.053  1.00  0.00    -0.200 F 
ATOM     71  F   UNL A   1      48.217  27.355  36.722  1.00  0.00    -0.200 F 
ENDBRANCH  38  61
ENDBRANCH  12  13
ENDBRANCH   5   7
ENDBRANCH   2   3
ENDBRANCH   1   2
BRANCH   1  72
ATOM     72  C   UNL A   1      33.384  27.504  22.970  1.00  0.00     0.023 C 
BRANCH  72  73
ATOM     73  C   UNL A   1      33.864  26.301  23.767  1.00  0.00     0.116 C 
BRANCH  73  74
ATOM     74  N   UNL A   1      33.934  25.075  22.995  1.00  0.00    -0.351 N 
ATOM     75  C   UNL A   1      33.460  23.833  23.368  1.00  0.00     0.270 C 
ATOM     76  H   UNL A   1      34.365  25.134  22.114  1.00  0.00     0.163 HD
ATOM     77  O   UNL A   1      33.481  22.897  22.575  1.00  0.00    -0.267 OA
BRANCH  75  78
ATOM     78  C   UNL A   1      32.904  23.657  24.740  1.00  0.00     0.135 A 
ATOM     79  N   UNL A   1      31.574  23.937  24.837  1.00  0.00    -0.250 NA
ATOM     80  C   UNL A   1      33.695  23.135  25.778  1.00  0.00     0.013 A 
ATOM     81  C   UNL A   1      30.990  23.699  26.025  1.00  0.00     0.112 A 
ATOM     82  C   UNL A   1      33.025  22.891  26.987  1.00  0.00     0.013 A 
ATOM     83  C   UNL A   1      31.663  23.173  27.113  1.00  0.00     0.021 A 
BRANCH  80  84
ATOM     84  C   UNL A   1      35.115  22.781  25.615  1.00  0.00    -0.013 A 
ATOM     85  C   UNL A   1      36.118  23.727  25.895  1.00  0.00     0.029 A 
ATOM     86  C   UNL A   1      35.512  21.481  25.263  1.00  0.00     0.029 A 
ATOM     87  C   UNL A   1      37.466  23.361  25.886  1.00  0.00     0.043 A 
ATOM     88  C   UNL A   1      36.865  21.133  25.237  1.00  0.00     0.043 A 
ATOM     89  Cl  UNL A   1      38.659  24.514  26.338  1.00  0.00    -0.084 Cl
ATOM     90  C   UNL A   1      37.847  22.065  25.561  1.00  0.00     0.041 A 
ATOM     91  Cl  UNL A   1      37.325  19.525  24.836  1.00  0.00    -0.084 Cl
ENDBRANCH  80  84
ENDBRANCH  75  78
ENDBRANCH  73  74
ENDBRANCH  72  73
ENDBRANCH   1  72
TORSDOF 12
ENDMDL
MODEL 3
REMARK VINA RESULT:     -12.3      1.480      2.388
REMARK SMILES O=C(NCCCCNC(=O)c1ncccc1-c1cc(Cl)cc(Cl)c1)c1ccc(-c2c3nc(c(-c4c(F)c(F)c(F)c(F)c4F)c4ccc([nH]4)c(-c4c(F)c(F)c(F)c(F)c4F)c4nc(c(-c5c(F)c(F)c(F)c(F)c5F)c5ccc2[nH]5)C=C4)C=C3)cc1
REMARK SMILES IDX 5 1 4 2 3 3 1 4 2 5 25 7 26 8 87 9 27 10 86 11 28 12 29 13
REMARK SMILES IDX 30 14 80 15 31 16 85 17 79 18 81 19 32 20 84 21 78 22 77 23
REMARK SMILES IDX 33 25 65 26 45 27 64 28 46 29 49 30 63 31 82 32 47 33 48 34
REMARK SMILES IDX 62 36 83 37 50 38 34 39 35 40 43 41 36 42 37 43 41 44 44 45
REMARK SMILES IDX 38 46 39 47 42 48 40 49 66 50 67 51 75 52 68 53 69 54 73 55
REMARK SMILES IDX 76 56 70 57 71 58 74 59 72 60 51 61 52 62 60 63 53 64 54 65
REMARK SMILES IDX 58 66 61 67 55 68 56 69 59 70 57 71 6 72 7 73 8 74 9 75
REMARK SMILES IDX 10 77 11 78 12 79 16 80 13 81 15 82 14 83 17 84 18 85 24 86
REMARK SMILES IDX 19 87 22 88 20 89 21 90 23 91
REMARK H PARENT 3 6 81 24 49 35 8 76
REMARK Flexibility Score: inf
ROOT
ATOM      1  C   UNL A   1      31.433  32.118  27.123  1.00  0.00     0.023 C 
ENDROOT
BRANCH   1   2
ATOM      2  C   UNL A   1      32.681  32.992  27.102  1.00  0.00     0.116 C 
BRANCH   2   3
ATOM      3  N   UNL A   1      32.447  34.329  27.626  1.00  0.00    -0.352 N 
ATOM      4  O   UNL A   1      32.615  36.039  29.093  1.00  0.00    -0.269 OA
ATOM      5  C   UNL A   1      33.044  34.962  28.689  1.00  0.00     0.251 C 
ATOM      6  H   UNL A   1      31.762  34.855  27.152  1.00  0.00     0.163 HD
BRANCH   5   7
ATOM      7  C   UNL A   1      34.199  34.331  29.361  1.00  0.00     0.039 A 
ATOM      8  C   UNL A   1      34.008  33.490  30.459  1.00  0.00     0.014 A 
ATOM      9  C   UNL A   1      35.489  34.574  28.878  1.00  0.00     0.014 A 
ATOM     10  C   UNL A   1      35.106  32.997  31.154  1.00  0.00     0.010 A 
ATOM     11  C   UNL A   1      36.590  34.009  29.527  1.00  0.00     0.010 A 
ATOM     12  C   UNL A   1      36.408  33.231  30.680  1.00  0.00    -0.014 A 
BRANCH  12  13
ATOM     13  C   UNL A   1      37.549  32.550  31.338  1.00  0.00     0.031 A 
ATOM     14  C   UNL A   1      38.263  31.401  30.685  1.00  0.00     0.074 A 
ATOM     15  C   UNL A   1      37.934  32.990  32.552  1.00  0.00     0.049 A 
ATOM     16  N   UNL A   1      39.264  30.691  31.141  1.00  0.00    -0.248 NA
ATOM     17  C   UNL A   1      37.794  30.989  29.353  1.00  0.00     0.031 C 
ATOM     18  C   UNL A   1      37.295  34.085  33.288  1.00  0.00     0.029 A 
ATOM     19  N   UNL A   1      38.946  32.582  33.381  1.00  0.00    -0.354 N 
ATOM     20  C   UNL A   1      39.533  29.739  30.168  1.00  0.00     0.074 A 
ATOM     21  C   UNL A   1      38.581  29.951  29.097  1.00  0.00     0.031 C 
ATOM     22  C   UNL A   1      37.944  34.277  34.445  1.00  0.00     0.029 A 
ATOM     23  C   UNL A   1      39.000  33.279  34.563  1.00  0.00     0.049 A 
ATOM     24  H   UNL A   1      39.574  31.858  33.152  1.00  0.00     0.167 HD
ATOM     25  C   UNL A   1      40.490  28.781  30.174  1.00  0.00     0.037 A 
ATOM     26  C   UNL A   1      39.788  33.114  35.640  1.00  0.00     0.037 A 
ATOM     27  C   UNL A   1      41.451  28.599  31.234  1.00  0.00     0.049 A 
ATOM     28  C   UNL A   1      40.820  32.024  35.623  1.00  0.00     0.074 A 
ATOM     29  C   UNL A   1      42.515  27.716  31.289  1.00  0.00     0.029 A 
ATOM     30  N   UNL A   1      41.456  29.305  32.428  1.00  0.00    -0.354 N 
ATOM     31  N   UNL A   1      41.108  31.176  34.666  1.00  0.00    -0.248 NA
ATOM     32  C   UNL A   1      41.630  31.861  36.837  1.00  0.00     0.031 C 
ATOM     33  C   UNL A   1      43.129  27.847  32.539  1.00  0.00     0.029 A 
ATOM     34  C   UNL A   1      42.478  28.846  33.243  1.00  0.00     0.049 A 
ATOM     35  H   UNL A   1      40.827  30.026  32.661  1.00  0.00     0.167 HD
ATOM     36  C   UNL A   1      42.132  30.382  35.158  1.00  0.00     0.074 A 
ATOM     37  C   UNL A   1      42.438  30.871  36.487  1.00  0.00     0.031 C 
ATOM     38  C   UNL A   1      42.756  29.334  34.568  1.00  0.00     0.037 A 
BRANCH  25  39
ATOM     39  C   UNL A   1      40.558  27.832  29.014  1.00  0.00     0.064 A 
ATOM     40  C   UNL A   1      39.743  26.694  28.942  1.00  0.00     0.173 A 
ATOM     41  C   UNL A   1      41.372  28.129  27.908  1.00  0.00     0.173 A 
ATOM     42  F   UNL A   1      38.951  26.364  29.973  1.00  0.00    -0.203 F 
ATOM     43  C   UNL A   1      39.740  25.887  27.806  1.00  0.00     0.198 A 
ATOM     44  C   UNL A   1      41.351  27.332  26.767  1.00  0.00     0.198 A 
ATOM     45  F   UNL A   1      42.164  29.212  27.924  1.00  0.00    -0.203 F 
ATOM     46  F   UNL A   1      38.963  24.796  27.763  1.00  0.00    -0.200 F 
ATOM     47  C   UNL A   1      40.534  26.213  26.716  1.00  0.00     0.200 A 
ATOM     48  F   UNL A   1      42.108  27.656  25.710  1.00  0.00    -0.200 F 
ATOM     49  F   UNL A   1      40.513  25.447  25.616  1.00  0.00    -0.200 F 
ENDBRANCH  25  39
BRANCH  26  50
ATOM     50  C   UNL A   1      39.596  33.972  36.837  1.00  0.00     0.064 A 
ATOM     51  C   UNL A   1      40.211  35.227  36.936  1.00  0.00     0.173 A 
ATOM     52  C   UNL A   1      38.798  33.549  37.911  1.00  0.00     0.173 A 
ATOM     53  F   UNL A   1      40.999  35.666  35.944  1.00  0.00    -0.203 F 
ATOM     54  C   UNL A   1      40.052  36.016  38.073  1.00  0.00     0.198 A 
ATOM     55  C   UNL A   1      38.613  34.353  39.032  1.00  0.00     0.198 A 
ATOM     56  F   UNL A   1      38.184  32.357  37.864  1.00  0.00    -0.203 F 
ATOM     57  F   UNL A   1      40.692  37.190  38.164  1.00  0.00    -0.200 F 
ATOM     58  C   UNL A   1      39.249  35.582  39.116  1.00  0.00     0.200 A 
ATOM     59  F   UNL A   1      37.822  33.935  40.030  1.00  0.00    -0.200 F 
ATOM     60  F   UNL A   1      39.094  36.343  40.208  1.00  0.00    -0.200 F 
ENDBRANCH  26  50
BRANCH  38  61
ATOM     61  C   UNL A   1      43.827  28.649  35.362  1.00  0.00     0.064 A 
ATOM     62  C   UNL A   1      45.175  29.017  35.234  1.00  0.00     0.173 A 
ATOM     63  C   UNL A   1      43.504  27.636  36.276  1.00  0.00     0.173 A 
ATOM     64  F   UNL A   1      45.535  29.967  34.358  1.00  0.00    -0.203 F 
ATOM     65  C   UNL A   1      46.163  28.378  35.978  1.00  0.00     0.198 A 
ATOM     66  C   UNL A   1      44.491  27.019  37.038  1.00  0.00     0.198 A 
ATOM     67  F   UNL A   1      42.228  27.251  36.436  1.00  0.00    -0.203 F 
ATOM     68  F   UNL A   1      47.449  28.712  35.805  1.00  0.00    -0.200 F 
ATOM     69  C   UNL A   1      45.820  27.386  36.883  1.00  0.00     0.200 A 
ATOM     70  F   UNL A   1      44.157  26.067  37.921  1.00  0.00    -0.200 F 
ATOM     71  F   UNL A   1      46.772  26.775  37.602  1.00  0.00    -0.200 F 
ENDBRANCH  38  61
ENDBRANCH  12  13
ENDBRANCH   5   7
ENDBRANCH   2   3
ENDBRANCH   1   2
BRANCH   1  72
ATOM     72  C   UNL A   1      31.128  31.373  25.825  1.00  0.00     0.023 C 
BRANCH  72  73
ATOM     73  C   UNL A   1      31.634  29.940  25.768  1.00  0.00     0.116 C 
BRANCH  73  74
ATOM     74  N   UNL A   1      32.285  29.594  24.519  1.00  0.00    -0.351 N 
ATOM     75  C   UNL A   1      31.673  29.182  23.353  1.00  0.00     0.270 C 
ATOM     76  H   UNL A   1      33.266  29.660  24.502  1.00  0.00     0.163 HD
ATOM     77  O   UNL A   1      32.331  29.027  22.328  1.00  0.00    -0.267 OA
BRANCH  75  78
ATOM     78  C   UNL A   1      30.200  28.950  23.354  1.00  0.00     0.135 A 
ATOM     79  N   UNL A   1      29.468  30.054  23.036  1.00  0.00    -0.250 NA
ATOM     80  C   UNL A   1      29.672  27.664  23.558  1.00  0.00     0.013 A 
ATOM     81  C   UNL A   1      28.139  29.886  22.920  1.00  0.00     0.112 A 
ATOM     82  C   UNL A   1      28.282  27.548  23.405  1.00  0.00     0.013 A 
ATOM     83  C   UNL A   1      27.508  28.665  23.083  1.00  0.00     0.021 A 
BRANCH  80  84
ATOM     84  C   UNL A   1      30.505  26.480  23.834  1.00  0.00    -0.013 A 
ATOM     85  C   UNL A   1      30.442  25.846  25.088  1.00  0.00     0.029 A 
ATOM     86  C   UNL A   1      31.312  25.903  22.841  1.00  0.00     0.029 A 
ATOM     87  C   UNL A   1      31.113  24.642  25.313  1.00  0.00     0.043 A 
ATOM     88  C   UNL A   1      31.995  24.708  23.085  1.00  0.00     0.043 A 
ATOM     89  Cl  UNL A   1      30.928  23.839  26.823  1.00  0.00    -0.084 Cl
ATOM     90  C   UNL A   1      31.889  24.066  24.315  1.00  0.00     0.041 A 
ATOM     91  Cl  UNL A   1      32.950  24.002  21.841  1.00  0.00    -0.084 Cl
ENDBRANCH  80  84
ENDBRANCH  75  78
ENDBRANCH  73  74
ENDBRANCH  72  73
ENDBRANCH   1  72
TORSDOF 12
ENDMDL
