MODEL 1
REMARK VINA RESULT:     -12.4      0.000      0.000
REMARK SMILES CC(=O)NCCNC(=O)C[N@H+]1CC[C@@H](C(=O)NCCCCNC(=O)c2ccc(-c3c4nc(c(-c5c(F)c(F)c(F)c(F)c5F)c5ccc([nH]5)c(-c5c(F)c(F)c(F)c(F)c5F)c5nc(c(-c6c(F)c(F)c(F)c(F)c6F)c6ccc3[nH]6)C=C5)C=C4)cc2)[C@H]1C
REMARK SMILES IDX 18 1 17 2 15 3 16 4 14 6 11 7 12 8 88 9 13 11 89 12 10 13
REMARK SMILES IDX 8 14 7 15 9 17 6 18 5 19 4 20 1 21 2 22 3 23 19 25 20 26
REMARK SMILES IDX 21 27 22 28 23 29 24 31 25 32 26 33 87 34 27 35 86 36 28 37
REMARK SMILES IDX 29 38 30 39 80 40 31 41 85 42 79 43 81 44 32 45 84 46 78 47
REMARK SMILES IDX 77 48 33 50 65 51 45 52 64 53 46 54 49 55 63 56 82 57 47 58
REMARK SMILES IDX 48 59 62 61 83 62 50 63 34 64 35 65 43 66 36 67 37 68 41 69
REMARK SMILES IDX 44 70 38 71 39 72 42 73 40 74 66 75 67 76 75 77 68 78 69 79
REMARK SMILES IDX 73 80 76 81 70 82 71 83 74 84 72 85 51 86 52 87 60 88 53 89
REMARK SMILES IDX 54 90 58 91 61 92 55 93 56 94 59 95 57 96
REMARK H PARENT 17 5 11 10 7 16 4 24 22 30 81 49 49 60
REMARK Flexibility Score: inf
ROOT
ATOM      1  C   UNL A   1      33.223  30.078  26.183  1.00  0.00     0.116 C 
ENDROOT
BRANCH   1   2
ATOM      2  N   UNL A   1      33.263  29.401  24.907  1.00  0.00    -0.356 N 
ATOM      3  C   UNL A   1      33.514  28.119  24.560  1.00  0.00     0.229 C 
ATOM      4  O   UNL A   1      33.628  27.911  23.346  1.00  0.00    -0.275 OA
ATOM      5  H   UNL A   1      33.069  29.989  24.142  1.00  0.00     0.163 HD
BRANCH   3   6
ATOM      6  C   UNL A   1      33.574  26.943  25.522  1.00  0.00     0.142 C 
ATOM      7  N   UNL A   1      32.475  24.987  26.458  1.00  0.00    -0.324 N 
ATOM      8  C   UNL A   1      33.860  24.684  26.078  1.00  0.00     0.263 C 
ATOM      9  C   UNL A   1      32.395  26.481  26.405  1.00  0.00     0.194 C 
ATOM     10  H   UNL A   1      32.240  24.653  27.393  1.00  0.00     0.348 HD
ATOM     11  C   UNL A   1      34.158  25.660  24.953  1.00  0.00     0.081 C 
ATOM     12  C   UNL A   1      31.023  27.094  26.182  1.00  0.00     0.076 C 
BRANCH   7  13
ATOM     13  C   UNL A   1      31.470  24.264  25.646  1.00  0.00     0.363 C 
BRANCH  13  14
ATOM     14  C   UNL A   1      30.828  23.091  26.409  1.00  0.00     0.275 C 
ATOM     15  N   UNL A   1      31.158  21.795  26.107  1.00  0.00    -0.349 N 
ATOM     16  H   UNL A   1      30.734  21.117  26.682  1.00  0.00     0.163 HD
ATOM     17  O   UNL A   1      30.009  23.272  27.311  1.00  0.00    -0.269 OA
BRANCH  15  18
ATOM     18  C   UNL A   1      32.034  21.254  25.077  1.00  0.00     0.137 C 
BRANCH  18  19
ATOM     19  C   UNL A   1      33.234  20.474  25.632  1.00  0.00     0.137 C 
BRANCH  19  20
ATOM     20  N   UNL A   1      32.891  19.144  26.102  1.00  0.00    -0.355 N 
ATOM     21  C   UNL A   1      32.845  18.152  23.847  1.00  0.00     0.114 C 
ATOM     22  C   UNL A   1      32.752  18.016  25.344  1.00  0.00     0.216 C 
ATOM     23  O   UNL A   1      32.555  16.934  25.890  1.00  0.00    -0.275 OA
ATOM     24  H   UNL A   1      32.743  19.045  27.071  1.00  0.00     0.163 HD
ENDBRANCH  19  20
ENDBRANCH  18  19
ENDBRANCH  15  18
ENDBRANCH  13  14
ENDBRANCH   7  13
ENDBRANCH   3   6
ENDBRANCH   1   2
BRANCH   1  25
ATOM     25  C   UNL A   1      31.800  30.528  26.525  1.00  0.00     0.023 C 
BRANCH  25  26
ATOM     26  C   UNL A   1      31.610  32.035  26.673  1.00  0.00     0.023 C 
BRANCH  26  27
ATOM     27  C   UNL A   1      32.765  32.762  27.339  1.00  0.00     0.116 C 
BRANCH  27  28
ATOM     28  N   UNL A   1      32.455  34.149  27.651  1.00  0.00    -0.352 N 
ATOM     29  C   UNL A   1      32.995  34.972  28.614  1.00  0.00     0.251 C 
ATOM     30  H   UNL A   1      31.755  34.559  27.092  1.00  0.00     0.163 HD
ATOM     31  O   UNL A   1      32.508  36.068  28.834  1.00  0.00    -0.269 OA
BRANCH  29  32
ATOM     32  C   UNL A   1      34.153  34.497  29.399  1.00  0.00     0.039 A 
ATOM     33  C   UNL A   1      33.931  33.888  30.636  1.00  0.00     0.014 A 
ATOM     34  C   UNL A   1      35.450  34.621  28.894  1.00  0.00     0.014 A 
ATOM     35  C   UNL A   1      35.007  33.333  31.332  1.00  0.00     0.010 A 
ATOM     36  C   UNL A   1      36.502  33.986  29.540  1.00  0.00     0.010 A 
ATOM     37  C   UNL A   1      36.293  33.342  30.768  1.00  0.00    -0.014 A 
BRANCH  37  38
ATOM     38  C   UNL A   1      37.444  32.699  31.449  1.00  0.00     0.031 A 
ATOM     39  C   UNL A   1      38.152  31.549  30.790  1.00  0.00     0.074 A 
ATOM     40  C   UNL A   1      37.792  33.090  32.690  1.00  0.00     0.049 A 
ATOM     41  N   UNL A   1      39.110  30.788  31.254  1.00  0.00    -0.248 NA
ATOM     42  C   UNL A   1      37.694  31.179  29.440  1.00  0.00     0.031 C 
ATOM     43  C   UNL A   1      37.141  34.153  33.457  1.00  0.00     0.029 A 
ATOM     44  N   UNL A   1      38.776  32.630  33.528  1.00  0.00    -0.354 N 
ATOM     45  C   UNL A   1      39.348  29.840  30.268  1.00  0.00     0.074 A 
ATOM     46  C   UNL A   1      38.395  30.081  29.208  1.00  0.00     0.031 C 
ATOM     47  C   UNL A   1      37.758  34.282  34.642  1.00  0.00     0.029 A 
ATOM     48  C   UNL A   1      38.825  33.289  34.733  1.00  0.00     0.049 A 
ATOM     49  H   UNL A   1      39.388  31.896  33.290  1.00  0.00     0.167 HD
ATOM     50  C   UNL A   1      40.296  28.873  30.237  1.00  0.00     0.037 A 
ATOM     51  C   UNL A   1      39.639  33.108  35.789  1.00  0.00     0.037 A 
ATOM     52  C   UNL A   1      41.268  28.666  31.277  1.00  0.00     0.049 A 
ATOM     53  C   UNL A   1      40.698  32.041  35.723  1.00  0.00     0.074 A 
ATOM     54  C   UNL A   1      42.318  27.767  31.311  1.00  0.00     0.029 A 
ATOM     55  N   UNL A   1      41.308  29.376  32.469  1.00  0.00    -0.354 N 
ATOM     56  N   UNL A   1      40.962  31.197  34.755  1.00  0.00    -0.248 NA
ATOM     57  C   UNL A   1      41.575  31.906  36.894  1.00  0.00     0.031 C 
ATOM     58  C   UNL A   1      42.970  27.904  32.541  1.00  0.00     0.029 A 
ATOM     59  C   UNL A   1      42.354  28.921  33.255  1.00  0.00     0.049 A 
ATOM     60  H   UNL A   1      40.685  30.096  32.720  1.00  0.00     0.167 HD
ATOM     61  C   UNL A   1      42.048  30.449  35.187  1.00  0.00     0.074 A 
ATOM     62  C   UNL A   1      42.404  30.950  36.499  1.00  0.00     0.031 C 
ATOM     63  C   UNL A   1      42.694  29.438  34.556  1.00  0.00     0.037 A 
BRANCH  50  64
ATOM     64  C   UNL A   1      40.326  27.975  29.035  1.00  0.00     0.064 A 
ATOM     65  C   UNL A   1      41.069  28.303  27.889  1.00  0.00     0.173 A 
ATOM     66  C   UNL A   1      39.617  26.765  29.031  1.00  0.00     0.173 A 
ATOM     67  F   UNL A   1      41.753  29.456  27.835  1.00  0.00    -0.203 F 
ATOM     68  C   UNL A   1      41.067  27.473  26.771  1.00  0.00     0.198 A 
ATOM     69  C   UNL A   1      39.645  25.921  27.924  1.00  0.00     0.198 A 
ATOM     70  F   UNL A   1      38.894  26.401  30.100  1.00  0.00    -0.203 F 
ATOM     71  F   UNL A   1      41.733  27.839  25.668  1.00  0.00    -0.200 F 
ATOM     72  C   UNL A   1      40.360  26.281  26.792  1.00  0.00     0.200 A 
ATOM     73  F   UNL A   1      38.970  24.764  27.947  1.00  0.00    -0.200 F 
ATOM     74  F   UNL A   1      40.361  25.483  25.714  1.00  0.00    -0.200 F 
ENDBRANCH  50  64
BRANCH  51  75
ATOM     75  C   UNL A   1      39.510  33.984  36.983  1.00  0.00     0.064 A 
ATOM     76  C   UNL A   1      38.776  33.564  38.101  1.00  0.00     0.173 A 
ATOM     77  C   UNL A   1      40.119  35.245  37.038  1.00  0.00     0.173 A 
ATOM     78  F   UNL A   1      38.160  32.373  38.088  1.00  0.00    -0.203 F 
ATOM     79  C   UNL A   1      38.642  34.380  39.222  1.00  0.00     0.198 A 
ATOM     80  C   UNL A   1      40.007  36.050  38.170  1.00  0.00     0.198 A 
ATOM     81  F   UNL A   1      40.838  35.690  35.996  1.00  0.00    -0.203 F 
ATOM     82  F   UNL A   1      37.903  33.970  40.261  1.00  0.00    -0.200 F 
ATOM     83  C   UNL A   1      39.262  35.620  39.258  1.00  0.00     0.200 A 
ATOM     84  F   UNL A   1      40.619  37.241  38.206  1.00  0.00    -0.200 F 
ATOM     85  F   UNL A   1      39.139  36.401  40.339  1.00  0.00    -0.200 F 
ENDBRANCH  51  75
BRANCH  63  86
ATOM     86  C   UNL A   1      43.869  28.826  35.261  1.00  0.00     0.064 A 
ATOM     87  C   UNL A   1      43.715  27.743  36.138  1.00  0.00     0.173 A 
ATOM     88  C   UNL A   1      45.167  29.303  35.022  1.00  0.00     0.173 A 
ATOM     89  F   UNL A   1      42.493  27.263  36.410  1.00  0.00    -0.203 F 
ATOM     90  C   UNL A   1      44.818  27.174  36.768  1.00  0.00     0.198 A 
ATOM     91  C   UNL A   1      46.269  28.713  35.631  1.00  0.00     0.198 A 
ATOM     92  F   UNL A   1      45.365  30.334  34.186  1.00  0.00    -0.203 F 
ATOM     93  F   UNL A   1      44.645  26.167  37.636  1.00  0.00    -0.200 F 
ATOM     94  C   UNL A   1      46.094  27.653  36.509  1.00  0.00     0.200 A 
ATOM     95  F   UNL A   1      47.502  29.169  35.370  1.00  0.00    -0.200 F 
ATOM     96  F   UNL A   1      47.154  27.097  37.110  1.00  0.00    -0.200 F 
ENDBRANCH  63  86
ENDBRANCH  37  38
ENDBRANCH  29  32
ENDBRANCH  27  28
ENDBRANCH  26  27
ENDBRANCH  25  26
ENDBRANCH   1  25
TORSDOF 16
ENDMDL
MODEL 2
REMARK VINA RESULT:     -12.2      0.709      7.434
REMARK SMILES CC(=O)NCCNC(=O)C[N@H+]1CC[C@@H](C(=O)NCCCCNC(=O)c2ccc(-c3c4nc(c(-c5c(F)c(F)c(F)c(F)c5F)c5ccc([nH]5)c(-c5c(F)c(F)c(F)c(F)c5F)c5nc(c(-c6c(F)c(F)c(F)c(F)c6F)c6ccc3[nH]6)C=C5)C=C4)cc2)[C@H]1C
REMARK SMILES IDX 18 1 17 2 15 3 16 4 14 6 11 7 12 8 88 9 13 11 89 12 10 13
REMARK SMILES IDX 8 14 7 15 9 17 6 18 5 19 4 20 1 21 2 22 3 23 19 25 20 26
REMARK SMILES IDX 21 27 22 28 23 29 24 31 25 32 26 33 87 34 27 35 86 36 28 37
REMARK SMILES IDX 29 38 30 39 80 40 31 41 85 42 79 43 81 44 32 45 84 46 78 47
REMARK SMILES IDX 77 48 33 50 65 51 45 52 64 53 46 54 49 55 63 56 82 57 47 58
REMARK SMILES IDX 48 59 62 61 83 62 50 63 34 64 35 65 43 66 36 67 37 68 41 69
REMARK SMILES IDX 44 70 38 71 39 72 42 73 40 74 66 75 67 76 75 77 68 78 69 79
REMARK SMILES IDX 73 80 76 81 70 82 71 83 74 84 72 85 51 86 52 87 60 88 53 89
REMARK SMILES IDX 54 90 58 91 61 92 55 93 56 94 59 95 57 96
REMARK H PARENT 17 5 11 10 7 16 4 24 22 30 81 49 49 60
REMARK Flexibility Score: inf
ROOT
ATOM      1  C   UNL A   1      32.767  30.191  25.748  1.00  0.00     0.116 C 
ENDROOT
BRANCH   1   2
ATOM      2  N   UNL A   1      32.507  29.467  24.525  1.00  0.00    -0.356 N 
ATOM      3  C   UNL A   1      32.863  28.235  24.098  1.00  0.00     0.229 C 
ATOM      4  O   UNL A   1      32.605  27.989  22.914  1.00  0.00    -0.275 OA
ATOM      5  H   UNL A   1      31.965  29.970  23.875  1.00  0.00     0.163 HD
BRANCH   3   6
ATOM      6  C   UNL A   1      33.456  27.140  24.971  1.00  0.00     0.142 C 
ATOM      7  N   UNL A   1      33.116  25.065  26.190  1.00  0.00    -0.324 N 
ATOM      8  C   UNL A   1      34.331  25.002  25.370  1.00  0.00     0.263 C 
ATOM      9  C   UNL A   1      32.741  26.514  26.187  1.00  0.00     0.194 C 
ATOM     10  H   UNL A   1      33.268  24.741  27.146  1.00  0.00     0.348 HD
ATOM     11  C   UNL A   1      34.055  25.959  24.223  1.00  0.00     0.081 C 
ATOM     12  C   UNL A   1      31.282  26.852  26.438  1.00  0.00     0.076 C 
BRANCH   7  13
ATOM     13  C   UNL A   1      32.058  24.130  25.747  1.00  0.00     0.363 C 
BRANCH  13  14
ATOM     14  C   UNL A   1      31.541  23.237  26.890  1.00  0.00     0.275 C 
ATOM     15  N   UNL A   1      32.308  22.212  27.381  1.00  0.00    -0.349 N 
ATOM     16  H   UNL A   1      31.913  21.731  28.143  1.00  0.00     0.163 HD
ATOM     17  O   UNL A   1      30.434  23.412  27.403  1.00  0.00    -0.269 OA
BRANCH  15  18
ATOM     18  C   UNL A   1      33.613  21.720  26.961  1.00  0.00     0.137 C 
BRANCH  18  19
ATOM     19  C   UNL A   1      33.554  20.741  25.780  1.00  0.00     0.137 C 
BRANCH  19  20
ATOM     20  N   UNL A   1      33.003  19.445  26.130  1.00  0.00    -0.355 N 
ATOM     21  C   UNL A   1      32.602  18.772  23.794  1.00  0.00     0.114 C 
ATOM     22  C   UNL A   1      32.598  18.466  25.268  1.00  0.00     0.216 C 
ATOM     23  O   UNL A   1      32.242  17.376  25.707  1.00  0.00    -0.275 OA
ATOM     24  H   UNL A   1      32.912  19.252  27.092  1.00  0.00     0.163 HD
ENDBRANCH  19  20
ENDBRANCH  18  19
ENDBRANCH  15  18
ENDBRANCH  13  14
ENDBRANCH   7  13
ENDBRANCH   3   6
ENDBRANCH   1   2
BRANCH   1  25
ATOM     25  C   UNL A   1      31.469  30.715  26.365  1.00  0.00     0.023 C 
BRANCH  25  26
ATOM     26  C   UNL A   1      31.405  32.227  26.567  1.00  0.00     0.023 C 
BRANCH  26  27
ATOM     27  C   UNL A   1      32.608  32.828  27.273  1.00  0.00     0.116 C 
BRANCH  27  28
ATOM     28  N   UNL A   1      32.401  34.215  27.660  1.00  0.00    -0.352 N 
ATOM     29  C   UNL A   1      33.023  34.952  28.643  1.00  0.00     0.251 C 
ATOM     30  H   UNL A   1      31.713  34.697  27.145  1.00  0.00     0.163 HD
ATOM     31  O   UNL A   1      32.617  36.066  28.931  1.00  0.00    -0.269 OA
BRANCH  29  32
ATOM     32  C   UNL A   1      34.171  34.365  29.365  1.00  0.00     0.039 A 
ATOM     33  C   UNL A   1      33.931  33.562  30.482  1.00  0.00     0.014 A 
ATOM     34  C   UNL A   1      35.476  34.578  28.914  1.00  0.00     0.014 A 
ATOM     35  C   UNL A   1      34.998  32.909  31.102  1.00  0.00     0.010 A 
ATOM     36  C   UNL A   1      36.521  33.855  29.471  1.00  0.00     0.010 A 
ATOM     37  C   UNL A   1      36.295  33.018  30.575  1.00  0.00    -0.014 A 
BRANCH  37  38
ATOM     38  C   UNL A   1      37.439  32.282  31.166  1.00  0.00     0.031 A 
ATOM     39  C   UNL A   1      37.941  32.657  32.532  1.00  0.00     0.074 A 
ATOM     40  C   UNL A   1      38.076  31.341  30.443  1.00  0.00     0.049 A 
ATOM     41  N   UNL A   1      38.982  32.209  33.186  1.00  0.00    -0.248 NA
ATOM     42  C   UNL A   1      37.193  33.707  33.244  1.00  0.00     0.031 C 
ATOM     43  C   UNL A   1      37.721  30.932  29.083  1.00  0.00     0.029 A 
ATOM     44  N   UNL A   1      39.165  30.565  30.749  1.00  0.00    -0.354 N 
ATOM     45  C   UNL A   1      39.027  32.938  34.367  1.00  0.00     0.074 A 
ATOM     46  C   UNL A   1      37.948  33.899  34.314  1.00  0.00     0.031 C 
ATOM     47  C   UNL A   1      38.558  29.963  28.682  1.00  0.00     0.029 A 
ATOM     48  C   UNL A   1      39.530  29.706  29.741  1.00  0.00     0.049 A 
ATOM     49  H   UNL A   1      39.641  30.618  31.610  1.00  0.00     0.167 HD
ATOM     50  C   UNL A   1      39.874  32.799  35.414  1.00  0.00     0.037 A 
ATOM     51  C   UNL A   1      40.537  28.815  29.680  1.00  0.00     0.037 A 
ATOM     52  C   UNL A   1      40.920  31.813  35.477  1.00  0.00     0.049 A 
ATOM     53  C   UNL A   1      41.453  28.664  30.863  1.00  0.00     0.074 A 
ATOM     54  C   UNL A   1      41.784  31.536  36.521  1.00  0.00     0.029 A 
ATOM     55  N   UNL A   1      41.238  30.938  34.449  1.00  0.00    -0.354 N 
ATOM     56  N   UNL A   1      41.442  29.309  32.005  1.00  0.00    -0.248 NA
ATOM     57  C   UNL A   1      42.517  27.658  30.752  1.00  0.00     0.031 C 
ATOM     58  C   UNL A   1      42.653  30.519  36.109  1.00  0.00     0.029 A 
ATOM     59  C   UNL A   1      42.300  30.131  34.826  1.00  0.00     0.049 A 
ATOM     60  H   UNL A   1      40.778  30.895  33.579  1.00  0.00     0.167 HD
ATOM     61  C   UNL A   1      42.477  28.771  32.757  1.00  0.00     0.074 A 
ATOM     62  C   UNL A   1      43.087  27.736  31.947  1.00  0.00     0.031 C 
ATOM     63  C   UNL A   1      42.887  29.104  34.006  1.00  0.00     0.037 A 
BRANCH  50  64
ATOM     64  C   UNL A   1      39.696  33.733  36.575  1.00  0.00     0.064 A 
ATOM     65  C   UNL A   1      40.334  34.984  36.618  1.00  0.00     0.173 A 
ATOM     66  C   UNL A   1      38.869  33.383  37.652  1.00  0.00     0.173 A 
ATOM     67  F   UNL A   1      41.148  35.362  35.621  1.00  0.00    -0.203 F 
ATOM     68  C   UNL A   1      40.181  35.829  37.714  1.00  0.00     0.198 A 
ATOM     69  C   UNL A   1      38.692  34.245  38.730  1.00  0.00     0.198 A 
ATOM     70  F   UNL A   1      38.233  32.202  37.660  1.00  0.00    -0.203 F 
ATOM     71  F   UNL A   1      40.849  36.990  37.760  1.00  0.00    -0.200 F 
ATOM     72  C   UNL A   1      39.356  35.462  38.766  1.00  0.00     0.200 A 
ATOM     73  F   UNL A   1      37.886  33.895  39.742  1.00  0.00    -0.200 F 
ATOM     74  F   UNL A   1      39.209  36.278  39.819  1.00  0.00    -0.200 F 
ENDBRANCH  50  64
BRANCH  51  75
ATOM     75  C   UNL A   1      40.706  27.969  28.470  1.00  0.00     0.064 A 
ATOM     76  C   UNL A   1      41.493  28.408  27.395  1.00  0.00     0.173 A 
ATOM     77  C   UNL A   1      40.099  26.710  28.363  1.00  0.00     0.173 A 
ATOM     78  F   UNL A   1      42.079  29.614  27.444  1.00  0.00    -0.203 F 
ATOM     79  C   UNL A   1      41.652  27.627  26.253  1.00  0.00     0.198 A 
ATOM     80  C   UNL A   1      40.280  25.918  27.231  1.00  0.00     0.198 A 
ATOM     81  F   UNL A   1      39.341  26.242  29.367  1.00  0.00    -0.203 F 
ATOM     82  F   UNL A   1      42.377  28.087  25.226  1.00  0.00    -0.200 F 
ATOM     83  C   UNL A   1      41.050  26.380  26.174  1.00  0.00     0.200 A 
ATOM     84  F   UNL A   1      39.708  24.708  27.164  1.00  0.00    -0.200 F 
ATOM     85  F   UNL A   1      41.209  25.625  25.078  1.00  0.00    -0.200 F 
ENDBRANCH  51  75
BRANCH  63  86
ATOM     86  C   UNL A   1      44.031  28.322  34.584  1.00  0.00     0.064 A 
ATOM     87  C   UNL A   1      45.355  28.764  34.466  1.00  0.00     0.173 A 
ATOM     88  C   UNL A   1      43.790  27.140  35.302  1.00  0.00     0.173 A 
ATOM     89  F   UNL A   1      45.636  29.879  33.775  1.00  0.00    -0.203 F 
ATOM     90  C   UNL A   1      46.403  28.038  35.026  1.00  0.00     0.198 A 
ATOM     91  C   UNL A   1      44.836  26.433  35.885  1.00  0.00     0.198 A 
ATOM     92  F   UNL A   1      42.538  26.681  35.448  1.00  0.00    -0.203 F 
ATOM     93  F   UNL A   1      47.666  28.455  34.864  1.00  0.00    -0.200 F 
ATOM     94  C   UNL A   1      46.142  26.878  35.742  1.00  0.00     0.200 A 
ATOM     95  F   UNL A   1      44.582  25.320  36.587  1.00  0.00    -0.200 F 
ATOM     96  F   UNL A   1      47.151  26.186  36.288  1.00  0.00    -0.200 F 
ENDBRANCH  63  86
ENDBRANCH  37  38
ENDBRANCH  29  32
ENDBRANCH  27  28
ENDBRANCH  26  27
ENDBRANCH  25  26
ENDBRANCH   1  25
TORSDOF 16
ENDMDL
MODEL 3
REMARK VINA RESULT:     -12.1      2.320      8.327
REMARK SMILES CC(=O)NCCNC(=O)C[N@H+]1CC[C@@H](C(=O)NCCCCNC(=O)c2ccc(-c3c4nc(c(-c5c(F)c(F)c(F)c(F)c5F)c5ccc([nH]5)c(-c5c(F)c(F)c(F)c(F)c5F)c5nc(c(-c6c(F)c(F)c(F)c(F)c6F)c6ccc3[nH]6)C=C5)C=C4)cc2)[C@H]1C
REMARK SMILES IDX 18 1 17 2 15 3 16 4 14 6 11 7 12 8 88 9 13 11 89 12 10 13
REMARK SMILES IDX 8 14 7 15 9 17 6 18 5 19 4 20 1 21 2 22 3 23 19 25 20 26
REMARK SMILES IDX 21 27 22 28 23 29 24 31 25 32 26 33 87 34 27 35 86 36 28 37
REMARK SMILES IDX 29 38 30 39 80 40 31 41 85 42 79 43 81 44 32 45 84 46 78 47
REMARK SMILES IDX 77 48 33 50 65 51 45 52 64 53 46 54 49 55 63 56 82 57 47 58
REMARK SMILES IDX 48 59 62 61 83 62 50 63 34 64 35 65 43 66 36 67 37 68 41 69
REMARK SMILES IDX 44 70 38 71 39 72 42 73 40 74 66 75 67 76 75 77 68 78 69 79
REMARK SMILES IDX 73 80 76 81 70 82 71 83 74 84 72 85 51 86 52 87 60 88 53 89
REMARK SMILES IDX 54 90 58 91 61 92 55 93 56 94 59 95 57 96
REMARK H PARENT 17 5 11 10 7 16 4 24 22 30 81 49 49 60
REMARK Flexibility Score: inf
ROOT
ATOM      1  C   UNL A   1      32.496  30.436  25.571  1.00  0.00     0.116 C 
ENDROOT
BRANCH   1   2
ATOM      2  N   UNL A   1      33.665  30.051  26.328  1.00  0.00    -0.356 N 
ATOM      3  C   UNL A   1      34.233  28.852  26.586  1.00  0.00     0.229 C 
ATOM      4  O   UNL A   1      35.150  28.867  27.416  1.00  0.00    -0.275 OA
ATOM      5  H   UNL A   1      34.140  30.811  26.734  1.00  0.00     0.163 HD
BRANCH   3   6
ATOM      6  C   UNL A   1      33.893  27.548  25.881  1.00  0.00     0.142 C 
ATOM      7  N   UNL A   1      32.198  26.146  24.847  1.00  0.00    -0.324 N 
ATOM      8  C   UNL A   1      33.400  26.228  24.008  1.00  0.00     0.263 C 
ATOM      9  C   UNL A   1      32.626  26.712  26.164  1.00  0.00     0.194 C 
ATOM     10  H   UNL A   1      31.864  25.189  24.964  1.00  0.00     0.348 HD
ATOM     11  C   UNL A   1      34.011  27.572  24.366  1.00  0.00     0.081 C 
ATOM     12  C   UNL A   1      31.542  27.296  27.053  1.00  0.00     0.076 C 
BRANCH   7  13
ATOM     13  C   UNL A   1      31.009  26.780  24.234  1.00  0.00     0.363 C 
BRANCH  13  14
ATOM     14  C   UNL A   1      31.080  26.809  22.696  1.00  0.00     0.275 C 
ATOM     15  N   UNL A   1      30.962  27.990  22.011  1.00  0.00    -0.349 N 
ATOM     16  H   UNL A   1      31.071  27.913  21.035  1.00  0.00     0.163 HD
ATOM     17  O   UNL A   1      31.250  25.784  22.034  1.00  0.00    -0.269 OA
BRANCH  15  18
ATOM     18  C   UNL A   1      30.704  29.342  22.488  1.00  0.00     0.137 C 
BRANCH  18  19
ATOM     19  C   UNL A   1      29.488  30.008  21.831  1.00  0.00     0.137 C 
BRANCH  19  20
ATOM     20  N   UNL A   1      29.507  31.456  21.912  1.00  0.00    -0.355 N 
ATOM     21  C   UNL A   1      27.646  31.582  23.522  1.00  0.00     0.114 C 
ATOM     22  C   UNL A   1      28.728  32.244  22.711  1.00  0.00     0.216 C 
ATOM     23  O   UNL A   1      28.923  33.456  22.748  1.00  0.00    -0.275 OA
ATOM     24  H   UNL A   1      30.151  31.920  21.329  1.00  0.00     0.163 HD
ENDBRANCH  19  20
ENDBRANCH  18  19
ENDBRANCH  15  18
ENDBRANCH  13  14
ENDBRANCH   7  13
ENDBRANCH   3   6
ENDBRANCH   1   2
BRANCH   1  25
ATOM     25  C   UNL A   1      31.394  30.966  26.492  1.00  0.00     0.023 C 
BRANCH  25  26
ATOM     26  C   UNL A   1      31.366  32.482  26.670  1.00  0.00     0.023 C 
BRANCH  26  27
ATOM     27  C   UNL A   1      32.577  33.064  27.379  1.00  0.00     0.116 C 
BRANCH  27  28
ATOM     28  N   UNL A   1      32.384  34.450  27.780  1.00  0.00    -0.352 N 
ATOM     29  C   UNL A   1      33.026  35.175  28.759  1.00  0.00     0.251 C 
ATOM     30  H   UNL A   1      31.692  34.940  27.280  1.00  0.00     0.163 HD
ATOM     31  O   UNL A   1      32.632  36.289  29.062  1.00  0.00    -0.269 OA
BRANCH  29  32
ATOM     32  C   UNL A   1      34.181  34.574  29.459  1.00  0.00     0.039 A 
ATOM     33  C   UNL A   1      33.975  33.939  30.686  1.00  0.00     0.014 A 
ATOM     34  C   UNL A   1      35.454  34.607  28.884  1.00  0.00     0.014 A 
ATOM     35  C   UNL A   1      35.036  33.270  31.299  1.00  0.00     0.010 A 
ATOM     36  C   UNL A   1      36.481  33.862  29.447  1.00  0.00     0.010 A 
ATOM     37  C   UNL A   1      36.285  33.191  30.663  1.00  0.00    -0.014 A 
BRANCH  37  38
ATOM     38  C   UNL A   1      37.411  32.427  31.254  1.00  0.00     0.031 A 
ATOM     39  C   UNL A   1      37.925  32.792  32.618  1.00  0.00     0.074 A 
ATOM     40  C   UNL A   1      38.024  31.470  30.531  1.00  0.00     0.049 A 
ATOM     41  N   UNL A   1      38.955  32.320  33.271  1.00  0.00    -0.248 NA
ATOM     42  C   UNL A   1      37.204  33.861  33.330  1.00  0.00     0.031 C 
ATOM     43  C   UNL A   1      37.656  31.069  29.172  1.00  0.00     0.029 A 
ATOM     44  N   UNL A   1      39.094  30.668  30.836  1.00  0.00    -0.354 N 
ATOM     45  C   UNL A   1      39.020  33.049  34.450  1.00  0.00     0.074 A 
ATOM     46  C   UNL A   1      37.965  34.036  34.398  1.00  0.00     0.031 C 
ATOM     47  C   UNL A   1      38.468  30.078  28.771  1.00  0.00     0.029 A 
ATOM     48  C   UNL A   1      39.436  29.799  29.828  1.00  0.00     0.049 A 
ATOM     49  H   UNL A   1      39.572  30.711  31.696  1.00  0.00     0.167 HD
ATOM     50  C   UNL A   1      39.866  32.891  35.496  1.00  0.00     0.037 A 
ATOM     51  C   UNL A   1      40.421  28.884  29.767  1.00  0.00     0.037 A 
ATOM     52  C   UNL A   1      40.887  31.880  35.559  1.00  0.00     0.049 A 
ATOM     53  C   UNL A   1      41.335  28.712  30.949  1.00  0.00     0.074 A 
ATOM     54  C   UNL A   1      41.746  31.584  36.602  1.00  0.00     0.029 A 
ATOM     55  N   UNL A   1      41.182  30.996  34.531  1.00  0.00    -0.354 N 
ATOM     56  N   UNL A   1      41.342  29.359  32.090  1.00  0.00    -0.248 NA
ATOM     57  C   UNL A   1      42.374  27.681  30.838  1.00  0.00     0.031 C 
ATOM     58  C   UNL A   1      42.589  30.545  36.190  1.00  0.00     0.029 A 
ATOM     59  C   UNL A   1      42.224  30.164  34.908  1.00  0.00     0.049 A 
ATOM     60  H   UNL A   1      40.720  30.963  33.663  1.00  0.00     0.167 HD
ATOM     61  C   UNL A   1      42.364  28.797  32.841  1.00  0.00     0.074 A 
ATOM     62  C   UNL A   1      42.947  27.747  32.031  1.00  0.00     0.031 C 
ATOM     63  C   UNL A   1      42.785  29.121  34.088  1.00  0.00     0.037 A 
BRANCH  50  64
ATOM     64  C   UNL A   1      39.713  33.831  36.656  1.00  0.00     0.064 A 
ATOM     65  C   UNL A   1      40.367  35.074  36.688  1.00  0.00     0.173 A 
ATOM     66  C   UNL A   1      38.893  33.495  37.744  1.00  0.00     0.173 A 
ATOM     67  F   UNL A   1      41.174  35.438  35.681  1.00  0.00    -0.203 F 
ATOM     68  C   UNL A   1      40.237  35.924  37.783  1.00  0.00     0.198 A 
ATOM     69  C   UNL A   1      38.739  34.363  38.821  1.00  0.00     0.198 A 
ATOM     70  F   UNL A   1      38.243  32.322  37.763  1.00  0.00    -0.203 F 
ATOM     71  F   UNL A   1      40.920  37.076  37.817  1.00  0.00    -0.200 F 
ATOM     72  C   UNL A   1      39.419  35.571  38.845  1.00  0.00     0.200 A 
ATOM     73  F   UNL A   1      37.941  34.025  39.843  1.00  0.00    -0.200 F 
ATOM     74  F   UNL A   1      39.295  36.392  39.897  1.00  0.00    -0.200 F 
ENDBRANCH  50  64
BRANCH  51  75
ATOM     75  C   UNL A   1      40.567  28.032  28.558  1.00  0.00     0.064 A 
ATOM     76  C   UNL A   1      41.331  28.468  27.465  1.00  0.00     0.173 A 
ATOM     77  C   UNL A   1      39.961  26.772  28.470  1.00  0.00     0.173 A 
ATOM     78  F   UNL A   1      41.915  29.675  27.496  1.00  0.00    -0.203 F 
ATOM     79  C   UNL A   1      41.468  27.681  26.324  1.00  0.00     0.198 A 
ATOM     80  C   UNL A   1      40.120  25.974  27.338  1.00  0.00     0.198 A 
ATOM     81  F   UNL A   1      39.225  26.307  29.491  1.00  0.00    -0.203 F 
ATOM     82  F   UNL A   1      42.171  28.138  25.280  1.00  0.00    -0.200 F 
ATOM     83  C   UNL A   1      40.868  26.433  26.263  1.00  0.00     0.200 A 
ATOM     84  F   UNL A   1      39.550  24.763  27.289  1.00  0.00    -0.200 F 
ATOM     85  F   UNL A   1      41.006  25.673  25.168  1.00  0.00    -0.200 F 
ENDBRANCH  51  75
BRANCH  63  86
ATOM     86  C   UNL A   1      43.910  28.313  34.665  1.00  0.00     0.064 A 
ATOM     87  C   UNL A   1      45.243  28.735  34.568  1.00  0.00     0.173 A 
ATOM     88  C   UNL A   1      43.644  27.124  35.362  1.00  0.00     0.173 A 
ATOM     89  F   UNL A   1      45.548  29.857  33.899  1.00  0.00    -0.203 F 
ATOM     90  C   UNL A   1      46.273  27.984  35.127  1.00  0.00     0.198 A 
ATOM     91  C   UNL A   1      44.673  26.391  35.945  1.00  0.00     0.198 A 
ATOM     92  F   UNL A   1      42.384  26.681  35.487  1.00  0.00    -0.203 F 
ATOM     93  F   UNL A   1      47.544  28.384  34.986  1.00  0.00    -0.200 F 
ATOM     94  C   UNL A   1      45.987  26.817  35.822  1.00  0.00     0.200 A 
ATOM     95  F   UNL A   1      44.394  25.271  36.626  1.00  0.00    -0.200 F 
ATOM     96  F   UNL A   1      46.979  26.101  36.367  1.00  0.00    -0.200 F 
ENDBRANCH  63  86
ENDBRANCH  37  38
ENDBRANCH  29  32
ENDBRANCH  27  28
ENDBRANCH  26  27
ENDBRANCH  25  26
ENDBRANCH   1  25
TORSDOF 16
ENDMDL
