MODEL 1
REMARK VINA RESULT:     -10.9      0.000      0.000
REMARK SMILES CN(CCOCC1CC1)C(=O)N1CC[C@H](C(=O)NCCCCNC(=O)c2ccc(-c3c4nc(c(-c5c(F)c(F)c(F)c(F)c5F)c5ccc([nH]5)c(-c5c(F)c(F)c(F)c(F)c5F)c5nc(c(-c6c(F)c(F)c(F)c(F)c6F)c6ccc3[nH]6)C=C5)C=C4)cc2)C1
REMARK SMILES IDX 16 1 17 2 18 3 15 5 12 6 13 7 89 8 14 9 10 10 11 11 2 12
REMARK SMILES IDX 1 13 3 14 4 15 5 16 6 17 7 18 8 19 9 20 19 21 20 22 21 23
REMARK SMILES IDX 22 24 23 25 24 26 25 28 26 29 27 30 88 31 28 32 87 33 29 34
REMARK SMILES IDX 30 35 31 36 81 37 32 38 86 39 80 40 82 41 33 42 85 43 79 44
REMARK SMILES IDX 78 45 34 47 66 48 46 49 65 50 47 51 50 52 64 53 83 54 48 55
REMARK SMILES IDX 49 56 63 58 84 59 51 60 35 61 36 62 44 63 37 64 38 65 42 66
REMARK SMILES IDX 45 67 39 68 40 69 43 70 41 71 67 72 68 73 76 74 69 75 70 76
REMARK SMILES IDX 74 77 77 78 71 79 72 80 75 81 73 82 52 83 53 84 61 85 54 86
REMARK SMILES IDX 55 87 59 88 62 89 56 90 57 91 60 92 58 93
REMARK H PARENT 18 4 23 27 82 46 50 57
REMARK Flexibility Score: inf
ROOT
ATOM      1  C   UNL A   1      35.442  23.189  26.067  1.00  0.00     0.224 C 
ATOM      2  O   UNL A   1      34.499  23.123  26.863  1.00  0.00    -0.275 OA
ATOM      3  N   UNL A   1      36.550  22.457  26.363  1.00  0.00    -0.356 N 
ATOM      4  H   UNL A   1      36.515  21.999  27.233  1.00  0.00     0.163 HD
ENDROOT
BRANCH   1   5
ATOM      5  C   UNL A   1      35.340  24.097  24.848  1.00  0.00     0.100 C 
ATOM      6  N   UNL A   1      33.274  25.041  24.116  1.00  0.00    -0.324 N 
ATOM      7  C   UNL A   1      33.757  24.215  23.018  1.00  0.00     0.122 C 
ATOM      8  C   UNL A   1      34.396  25.277  25.027  1.00  0.00     0.134 C 
ATOM      9  C   UNL A   1      34.877  23.362  23.598  1.00  0.00     0.037 C 
BRANCH   6  10
ATOM     10  C   UNL A   1      32.098  25.692  24.397  1.00  0.00     0.319 C 
ATOM     11  O   UNL A   1      31.823  26.705  23.737  1.00  0.00    -0.248 OA
BRANCH  10  12
ATOM     12  N   UNL A   1      31.227  25.289  25.389  1.00  0.00    -0.325 N 
ATOM     13  C   UNL A   1      29.924  25.957  25.423  1.00  0.00     0.148 C 
BRANCH  12  14
ATOM     14  C   UNL A   1      31.373  24.214  26.368  1.00  0.00     0.149 C 
BRANCH  14  15
ATOM     15  C   UNL A   1      30.872  22.841  25.886  1.00  0.00     0.181 C 
BRANCH  15  16
ATOM     16  O   UNL A   1      31.738  22.211  24.944  1.00  0.00    -0.379 OA
BRANCH  16  17
ATOM     17  C   UNL A   1      32.130  20.889  25.319  1.00  0.00     0.163 C 
BRANCH  17  18
ATOM     18  C   UNL A   1      33.020  20.268  24.292  1.00  0.00     0.015 C 
ATOM     19  C   UNL A   1      34.380  19.770  24.715  1.00  0.00     0.006 C 
ATOM     20  C   UNL A   1      33.339  18.794  24.252  1.00  0.00     0.006 C 
ENDBRANCH  17  18
ENDBRANCH  16  17
ENDBRANCH  15  16
ENDBRANCH  14  15
ENDBRANCH  12  14
ENDBRANCH  10  12
ENDBRANCH   6  10
ENDBRANCH   1   5
BRANCH   3  21
ATOM     21  C   UNL A   1      37.773  22.239  25.619  1.00  0.00     0.116 C 
BRANCH  21  22
ATOM     22  C   UNL A   1      37.684  21.080  24.633  1.00  0.00     0.023 C 
BRANCH  22  23
ATOM     23  C   UNL A   1      38.389  19.809  25.089  1.00  0.00     0.023 C 
BRANCH  23  24
ATOM     24  C   UNL A   1      39.595  20.036  25.988  1.00  0.00     0.116 C 
BRANCH  24  25
ATOM     25  N   UNL A   1      40.562  18.946  25.956  1.00  0.00    -0.352 N 
ATOM     26  C   UNL A   1      41.929  19.027  26.103  1.00  0.00     0.251 C 
ATOM     27  H   UNL A   1      40.194  18.044  25.813  1.00  0.00     0.163 HD
ATOM     28  O   UNL A   1      42.643  18.046  25.961  1.00  0.00    -0.269 OA
BRANCH  26  29
ATOM     29  C   UNL A   1      42.517  20.350  26.389  1.00  0.00     0.039 A 
ATOM     30  C   UNL A   1      43.023  21.105  25.330  1.00  0.00     0.014 A 
ATOM     31  C   UNL A   1      42.464  20.874  27.682  1.00  0.00     0.014 A 
ATOM     32  C   UNL A   1      43.402  22.429  25.557  1.00  0.00     0.010 A 
ATOM     33  C   UNL A   1      42.762  22.214  27.888  1.00  0.00     0.010 A 
ATOM     34  C   UNL A   1      43.231  23.005  26.827  1.00  0.00    -0.014 A 
BRANCH  34  35
ATOM     35  C   UNL A   1      43.534  24.436  27.071  1.00  0.00     0.031 A 
ATOM     36  C   UNL A   1      44.921  24.957  26.831  1.00  0.00     0.074 A 
ATOM     37  C   UNL A   1      42.584  25.242  27.585  1.00  0.00     0.049 A 
ATOM     38  N   UNL A   1      45.411  26.149  27.062  1.00  0.00    -0.248 NA
ATOM     39  C   UNL A   1      45.899  24.001  26.289  1.00  0.00     0.031 C 
ATOM     40  C   UNL A   1      41.218  24.837  27.918  1.00  0.00     0.029 A 
ATOM     41  N   UNL A   1      42.630  26.570  27.931  1.00  0.00    -0.354 N 
ATOM     42  C   UNL A   1      46.752  26.077  26.714  1.00  0.00     0.074 A 
ATOM     43  C   UNL A   1      47.015  24.713  26.310  1.00  0.00     0.031 C 
ATOM     44  C   UNL A   1      40.548  25.898  28.398  1.00  0.00     0.029 A 
ATOM     45  C   UNL A   1      41.447  27.048  28.440  1.00  0.00     0.049 A 
ATOM     46  H   UNL A   1      43.433  27.127  27.824  1.00  0.00     0.167 HD
ATOM     47  C   UNL A   1      47.675  27.067  26.706  1.00  0.00     0.037 A 
ATOM     48  C   UNL A   1      41.128  28.274  28.895  1.00  0.00     0.037 A 
ATOM     49  C   UNL A   1      47.400  28.430  27.076  1.00  0.00     0.049 A 
ATOM     50  C   UNL A   1      42.168  29.360  28.865  1.00  0.00     0.074 A 
ATOM     51  C   UNL A   1      48.246  29.523  27.033  1.00  0.00     0.029 A 
ATOM     52  N   UNL A   1      46.181  28.884  27.558  1.00  0.00    -0.354 N 
ATOM     53  N   UNL A   1      43.414  29.301  28.460  1.00  0.00    -0.248 NA
ATOM     54  C   UNL A   1      41.757  30.685  29.349  1.00  0.00     0.031 C 
ATOM     55  C   UNL A   1      47.552  30.631  27.531  1.00  0.00     0.029 A 
ATOM     56  C   UNL A   1      46.258  30.238  27.836  1.00  0.00     0.049 A 
ATOM     57  H   UNL A   1      45.380  28.326  27.684  1.00  0.00     0.167 HD
ATOM     58  C   UNL A   1      43.927  30.581  28.614  1.00  0.00     0.074 A 
ATOM     59  C   UNL A   1      42.854  31.401  29.136  1.00  0.00     0.031 C 
ATOM     60  C   UNL A   1      45.176  31.039  28.348  1.00  0.00     0.037 A 
BRANCH  47  61
ATOM     61  C   UNL A   1      49.068  26.711  26.274  1.00  0.00     0.064 A 
ATOM     62  C   UNL A   1      50.012  26.202  27.181  1.00  0.00     0.173 A 
ATOM     63  C   UNL A   1      49.457  26.856  24.934  1.00  0.00     0.173 A 
ATOM     64  F   UNL A   1      49.694  26.058  28.476  1.00  0.00    -0.203 F 
ATOM     65  C   UNL A   1      51.301  25.882  26.768  1.00  0.00     0.198 A 
ATOM     66  C   UNL A   1      50.739  26.504  24.519  1.00  0.00     0.198 A 
ATOM     67  F   UNL A   1      48.593  27.333  24.026  1.00  0.00    -0.203 F 
ATOM     68  F   UNL A   1      52.201  25.449  27.662  1.00  0.00    -0.200 F 
ATOM     69  C   UNL A   1      51.662  26.026  25.436  1.00  0.00     0.200 A 
ATOM     70  F   UNL A   1      51.082  26.632  23.230  1.00  0.00    -0.200 F 
ATOM     71  F   UNL A   1      52.903  25.712  25.039  1.00  0.00    -0.200 F 
ENDBRANCH  47  61
BRANCH  48  72
ATOM     72  C   UNL A   1      39.753  28.550  29.388  1.00  0.00     0.064 A 
ATOM     73  C   UNL A   1      38.770  29.059  28.527  1.00  0.00     0.173 A 
ATOM     74  C   UNL A   1      39.393  28.312  30.722  1.00  0.00     0.173 A 
ATOM     75  F   UNL A   1      39.072  29.321  27.247  1.00  0.00    -0.203 F 
ATOM     76  C   UNL A   1      37.485  29.339  28.988  1.00  0.00     0.198 A 
ATOM     77  C   UNL A   1      38.100  28.567  31.175  1.00  0.00     0.198 A 
ATOM     78  F   UNL A   1      40.295  27.820  31.584  1.00  0.00    -0.203 F 
ATOM     79  F   UNL A   1      36.578  29.866  28.155  1.00  0.00    -0.200 F 
ATOM     80  C   UNL A   1      37.150  29.089  30.310  1.00  0.00     0.200 A 
ATOM     81  F   UNL A   1      37.776  28.311  32.449  1.00  0.00    -0.200 F 
ATOM     82  F   UNL A   1      35.912  29.354  30.751  1.00  0.00    -0.200 F 
ENDBRANCH  48  72
BRANCH  60  83
ATOM     83  C   UNL A   1      45.439  32.496  28.585  1.00  0.00     0.064 A 
ATOM     84  C   UNL A   1      45.973  32.960  29.795  1.00  0.00     0.173 A 
ATOM     85  C   UNL A   1      45.199  33.434  27.568  1.00  0.00     0.173 A 
ATOM     86  F   UNL A   1      46.204  32.104  30.803  1.00  0.00    -0.203 F 
ATOM     87  C   UNL A   1      46.236  34.313  29.988  1.00  0.00     0.198 A 
ATOM     88  C   UNL A   1      45.492  34.782  27.754  1.00  0.00     0.198 A 
ATOM     89  F   UNL A   1      44.696  33.039  26.389  1.00  0.00    -0.203 F 
ATOM     90  F   UNL A   1      46.704  34.740  31.169  1.00  0.00    -0.200 F 
ATOM     91  C   UNL A   1      46.004  35.221  28.966  1.00  0.00     0.200 A 
ATOM     92  F   UNL A   1      45.279  35.655  26.760  1.00  0.00    -0.200 F 
ATOM     93  F   UNL A   1      46.266  36.522  29.150  1.00  0.00    -0.200 F 
ENDBRANCH  60  83
ENDBRANCH  34  35
ENDBRANCH  26  29
ENDBRANCH  24  25
ENDBRANCH  23  24
ENDBRANCH  22  23
ENDBRANCH  21  22
ENDBRANCH   3  21
TORSDOF 18
ENDMDL
MODEL 2
REMARK VINA RESULT:     -10.8      1.485      3.121
REMARK SMILES CN(CCOCC1CC1)C(=O)N1CC[C@H](C(=O)NCCCCNC(=O)c2ccc(-c3c4nc(c(-c5c(F)c(F)c(F)c(F)c5F)c5ccc([nH]5)c(-c5c(F)c(F)c(F)c(F)c5F)c5nc(c(-c6c(F)c(F)c(F)c(F)c6F)c6ccc3[nH]6)C=C5)C=C4)cc2)C1
REMARK SMILES IDX 16 1 17 2 18 3 15 5 12 6 13 7 89 8 14 9 10 10 11 11 2 12
REMARK SMILES IDX 1 13 3 14 4 15 5 16 6 17 7 18 8 19 9 20 19 21 20 22 21 23
REMARK SMILES IDX 22 24 23 25 24 26 25 28 26 29 27 30 88 31 28 32 87 33 29 34
REMARK SMILES IDX 30 35 31 36 81 37 32 38 86 39 80 40 82 41 33 42 85 43 79 44
REMARK SMILES IDX 78 45 34 47 66 48 46 49 65 50 47 51 50 52 64 53 83 54 48 55
REMARK SMILES IDX 49 56 63 58 84 59 51 60 35 61 36 62 44 63 37 64 38 65 42 66
REMARK SMILES IDX 45 67 39 68 40 69 43 70 41 71 67 72 68 73 76 74 69 75 70 76
REMARK SMILES IDX 74 77 77 78 71 79 72 80 75 81 73 82 52 83 53 84 61 85 54 86
REMARK SMILES IDX 55 87 59 88 62 89 56 90 57 91 60 92 58 93
REMARK H PARENT 18 4 23 27 82 46 50 57
REMARK Flexibility Score: inf
ROOT
ATOM      1  C   UNL A   1      35.087  23.360  26.119  1.00  0.00     0.224 C 
ATOM      2  O   UNL A   1      34.112  23.243  26.868  1.00  0.00    -0.275 OA
ATOM      3  N   UNL A   1      36.146  22.539  26.356  1.00  0.00    -0.356 N 
ATOM      4  H   UNL A   1      36.054  21.976  27.158  1.00  0.00     0.163 HD
ENDROOT
BRANCH   1   5
ATOM      5  C   UNL A   1      35.079  24.420  25.025  1.00  0.00     0.100 C 
ATOM      6  N   UNL A   1      33.172  25.781  24.569  1.00  0.00    -0.324 N 
ATOM      7  C   UNL A   1      33.441  25.032  23.348  1.00  0.00     0.122 C 
ATOM      8  C   UNL A   1      34.367  25.708  25.411  1.00  0.00     0.134 C 
ATOM      9  C   UNL A   1      34.424  23.937  23.738  1.00  0.00     0.037 C 
BRANCH   6  10
ATOM     10  C   UNL A   1      32.146  26.579  25.012  1.00  0.00     0.319 C 
ATOM     11  O   UNL A   1      32.424  27.506  25.787  1.00  0.00    -0.248 OA
BRANCH  10  12
ATOM     12  N   UNL A   1      30.827  26.382  24.657  1.00  0.00    -0.325 N 
ATOM     13  C   UNL A   1      29.984  25.697  25.640  1.00  0.00     0.148 C 
BRANCH  12  14
ATOM     14  C   UNL A   1      30.108  26.843  23.472  1.00  0.00     0.149 C 
BRANCH  14  15
ATOM     15  C   UNL A   1      30.129  28.368  23.267  1.00  0.00     0.181 C 
BRANCH  15  16
ATOM     16  O   UNL A   1      29.455  28.799  22.086  1.00  0.00    -0.379 OA
BRANCH  16  17
ATOM     17  C   UNL A   1      29.581  30.199  21.830  1.00  0.00     0.163 C 
BRANCH  17  18
ATOM     18  C   UNL A   1      28.286  30.914  22.039  1.00  0.00     0.015 C 
ATOM     19  C   UNL A   1      27.693  30.951  23.427  1.00  0.00     0.006 C 
ATOM     20  C   UNL A   1      28.171  32.221  22.786  1.00  0.00     0.006 C 
ENDBRANCH  17  18
ENDBRANCH  16  17
ENDBRANCH  15  16
ENDBRANCH  14  15
ENDBRANCH  12  14
ENDBRANCH  10  12
ENDBRANCH   6  10
ENDBRANCH   1   5
BRANCH   3  21
ATOM     21  C   UNL A   1      37.387  22.352  25.631  1.00  0.00     0.116 C 
BRANCH  21  22
ATOM     22  C   UNL A   1      37.331  21.216  24.616  1.00  0.00     0.023 C 
BRANCH  22  23
ATOM     23  C   UNL A   1      38.143  19.987  25.002  1.00  0.00     0.023 C 
BRANCH  23  24
ATOM     24  C   UNL A   1      39.399  20.278  25.808  1.00  0.00     0.116 C 
BRANCH  24  25
ATOM     25  N   UNL A   1      40.328  19.158  25.870  1.00  0.00    -0.352 N 
ATOM     26  C   UNL A   1      41.684  19.198  26.109  1.00  0.00     0.251 C 
ATOM     27  H   UNL A   1      39.940  18.264  25.725  1.00  0.00     0.163 HD
ATOM     28  O   UNL A   1      42.372  18.192  26.041  1.00  0.00    -0.269 OA
BRANCH  26  29
ATOM     29  C   UNL A   1      42.296  20.509  26.401  1.00  0.00     0.039 A 
ATOM     30  C   UNL A   1      42.756  21.290  25.340  1.00  0.00     0.014 A 
ATOM     31  C   UNL A   1      42.309  20.998  27.710  1.00  0.00     0.014 A 
ATOM     32  C   UNL A   1      43.156  22.604  25.584  1.00  0.00     0.010 A 
ATOM     33  C   UNL A   1      42.628  22.330  27.937  1.00  0.00     0.010 A 
ATOM     34  C   UNL A   1      43.052  23.146  26.876  1.00  0.00    -0.014 A 
BRANCH  34  35
ATOM     35  C   UNL A   1      43.377  24.568  27.144  1.00  0.00     0.031 A 
ATOM     36  C   UNL A   1      44.769  25.074  26.898  1.00  0.00     0.074 A 
ATOM     37  C   UNL A   1      42.445  25.378  27.683  1.00  0.00     0.049 A 
ATOM     38  N   UNL A   1      45.278  26.254  27.147  1.00  0.00    -0.248 NA
ATOM     39  C   UNL A   1      45.728  24.114  26.328  1.00  0.00     0.031 C 
ATOM     40  C   UNL A   1      41.076  24.986  28.024  1.00  0.00     0.029 A 
ATOM     41  N   UNL A   1      42.513  26.698  28.054  1.00  0.00    -0.354 N 
ATOM     42  C   UNL A   1      46.615  26.170  26.783  1.00  0.00     0.074 A 
ATOM     43  C   UNL A   1      46.854  24.811  26.350  1.00  0.00     0.031 C 
ATOM     44  C   UNL A   1      40.427  26.046  28.531  1.00  0.00     0.029 A 
ATOM     45  C   UNL A   1      41.343  27.182  28.585  1.00  0.00     0.049 A 
ATOM     46  H   UNL A   1      43.323  27.246  27.948  1.00  0.00     0.167 HD
ATOM     47  C   UNL A   1      47.552  27.147  26.783  1.00  0.00     0.037 A 
ATOM     48  C   UNL A   1      41.046  28.404  29.066  1.00  0.00     0.037 A 
ATOM     49  C   UNL A   1      47.300  28.506  27.182  1.00  0.00     0.049 A 
ATOM     50  C   UNL A   1      42.102  29.476  29.045  1.00  0.00     0.074 A 
ATOM     51  C   UNL A   1      48.161  29.588  27.151  1.00  0.00     0.029 A 
ATOM     52  N   UNL A   1      46.093  28.968  27.685  1.00  0.00    -0.354 N 
ATOM     53  N   UNL A   1      43.342  29.407  28.626  1.00  0.00    -0.248 NA
ATOM     54  C   UNL A   1      41.715  30.797  29.559  1.00  0.00     0.031 C 
ATOM     55  C   UNL A   1      47.488  30.696  27.676  1.00  0.00     0.029 A 
ATOM     56  C   UNL A   1      46.192  30.315  27.989  1.00  0.00     0.049 A 
ATOM     57  H   UNL A   1      45.285  28.419  27.810  1.00  0.00     0.167 HD
ATOM     58  C   UNL A   1      43.875  30.677  28.799  1.00  0.00     0.074 A 
ATOM     59  C   UNL A   1      42.819  31.501  29.348  1.00  0.00     0.031 C 
ATOM     60  C   UNL A   1      45.127  31.121  28.527  1.00  0.00     0.037 A 
BRANCH  47  61
ATOM     61  C   UNL A   1      48.935  26.779  26.329  1.00  0.00     0.064 A 
ATOM     62  C   UNL A   1      49.343  26.958  24.997  1.00  0.00     0.173 A 
ATOM     63  C   UNL A   1      49.870  26.266  27.239  1.00  0.00     0.173 A 
ATOM     64  F   UNL A   1      48.482  27.432  24.085  1.00  0.00    -0.203 F 
ATOM     65  C   UNL A   1      50.626  26.607  24.589  1.00  0.00     0.198 A 
ATOM     66  C   UNL A   1      51.163  25.946  26.833  1.00  0.00     0.198 A 
ATOM     67  F   UNL A   1      49.532  26.080  28.524  1.00  0.00    -0.203 F 
ATOM     68  F   UNL A   1      50.976  26.737  23.302  1.00  0.00    -0.200 F 
ATOM     69  C   UNL A   1      51.537  26.108  25.508  1.00  0.00     0.200 A 
ATOM     70  F   UNL A   1      52.046  25.475  27.724  1.00  0.00    -0.200 F 
ATOM     71  F   UNL A   1      52.774  25.776  25.114  1.00  0.00    -0.200 F 
ENDBRANCH  47  61
BRANCH  48  72
ATOM     72  C   UNL A   1      39.680  28.689  29.580  1.00  0.00     0.064 A 
ATOM     73  C   UNL A   1      38.691  29.214  28.736  1.00  0.00     0.173 A 
ATOM     74  C   UNL A   1      39.336  28.446  30.917  1.00  0.00     0.173 A 
ATOM     75  F   UNL A   1      38.978  29.483  27.454  1.00  0.00    -0.203 F 
ATOM     76  C   UNL A   1      37.416  29.504  29.215  1.00  0.00     0.198 A 
ATOM     77  C   UNL A   1      38.052  28.710  31.389  1.00  0.00     0.198 A 
ATOM     78  F   UNL A   1      40.245  27.939  31.764  1.00  0.00    -0.203 F 
ATOM     79  F   UNL A   1      36.503  30.045  28.399  1.00  0.00    -0.200 F 
ATOM     80  C   UNL A   1      37.096  29.247  30.540  1.00  0.00     0.200 A 
ATOM     81  F   UNL A   1      37.742  28.448  32.665  1.00  0.00    -0.200 F 
ATOM     82  F   UNL A   1      35.866  29.521  31.000  1.00  0.00    -0.200 F 
ENDBRANCH  48  72
BRANCH  60  83
ATOM     83  C   UNL A   1      45.414  32.570  28.789  1.00  0.00     0.064 A 
ATOM     84  C   UNL A   1      45.967  33.003  30.002  1.00  0.00     0.173 A 
ATOM     85  C   UNL A   1      45.176  33.530  27.793  1.00  0.00     0.173 A 
ATOM     86  F   UNL A   1      46.197  32.125  30.991  1.00  0.00    -0.203 F 
ATOM     87  C   UNL A   1      46.252  34.349  30.218  1.00  0.00     0.198 A 
ATOM     88  C   UNL A   1      45.490  34.870  28.001  1.00  0.00     0.198 A 
ATOM     89  F   UNL A   1      44.654  33.165  26.612  1.00  0.00    -0.203 F 
ATOM     90  F   UNL A   1      46.739  34.747  31.401  1.00  0.00    -0.200 F 
ATOM     91  C   UNL A   1      46.021  35.279  29.215  1.00  0.00     0.200 A 
ATOM     92  F   UNL A   1      45.278  35.765  27.026  1.00  0.00    -0.200 F 
ATOM     93  F   UNL A   1      46.304  36.572  29.421  1.00  0.00    -0.200 F 
ENDBRANCH  60  83
ENDBRANCH  34  35
ENDBRANCH  26  29
ENDBRANCH  24  25
ENDBRANCH  23  24
ENDBRANCH  22  23
ENDBRANCH  21  22
ENDBRANCH   3  21
TORSDOF 18
ENDMDL
MODEL 3
REMARK VINA RESULT:     -10.6      5.425     10.984
REMARK SMILES CN(CCOCC1CC1)C(=O)N1CC[C@H](C(=O)NCCCCNC(=O)c2ccc(-c3c4nc(c(-c5c(F)c(F)c(F)c(F)c5F)c5ccc([nH]5)c(-c5c(F)c(F)c(F)c(F)c5F)c5nc(c(-c6c(F)c(F)c(F)c(F)c6F)c6ccc3[nH]6)C=C5)C=C4)cc2)C1
REMARK SMILES IDX 16 1 17 2 18 3 15 5 12 6 13 7 89 8 14 9 10 10 11 11 2 12
REMARK SMILES IDX 1 13 3 14 4 15 5 16 6 17 7 18 8 19 9 20 19 21 20 22 21 23
REMARK SMILES IDX 22 24 23 25 24 26 25 28 26 29 27 30 88 31 28 32 87 33 29 34
REMARK SMILES IDX 30 35 31 36 81 37 32 38 86 39 80 40 82 41 33 42 85 43 79 44
REMARK SMILES IDX 78 45 34 47 66 48 46 49 65 50 47 51 50 52 64 53 83 54 48 55
REMARK SMILES IDX 49 56 63 58 84 59 51 60 35 61 36 62 44 63 37 64 38 65 42 66
REMARK SMILES IDX 45 67 39 68 40 69 43 70 41 71 67 72 68 73 76 74 69 75 70 76
REMARK SMILES IDX 74 77 77 78 71 79 72 80 75 81 73 82 52 83 53 84 61 85 54 86
REMARK SMILES IDX 55 87 59 88 62 89 56 90 57 91 60 92 58 93
REMARK H PARENT 18 4 23 27 82 46 50 57
REMARK Flexibility Score: inf
ROOT
ATOM      1  C   UNL A   1      32.382  28.510  23.400  1.00  0.00     0.224 C 
ATOM      2  O   UNL A   1      33.399  28.327  22.723  1.00  0.00    -0.275 OA
ATOM      3  N   UNL A   1      32.421  29.523  24.307  1.00  0.00    -0.356 N 
ATOM      4  H   UNL A   1      33.295  29.969  24.384  1.00  0.00     0.163 HD
ENDROOT
BRANCH   1   5
ATOM      5  C   UNL A   1      31.182  27.589  23.225  1.00  0.00     0.100 C 
ATOM      6  N   UNL A   1      31.006  25.481  24.331  1.00  0.00    -0.324 N 
ATOM      7  C   UNL A   1      30.984  25.196  22.902  1.00  0.00     0.122 C 
ATOM      8  C   UNL A   1      30.727  26.907  24.507  1.00  0.00     0.134 C 
ATOM      9  C   UNL A   1      31.430  26.478  22.213  1.00  0.00     0.037 C 
BRANCH   6  10
ATOM     10  C   UNL A   1      31.115  24.722  25.470  1.00  0.00     0.319 C 
ATOM     11  O   UNL A   1      30.558  25.135  26.498  1.00  0.00    -0.248 OA
BRANCH  10  12
ATOM     12  N   UNL A   1      31.829  23.543  25.529  1.00  0.00    -0.325 N 
ATOM     13  C   UNL A   1      31.052  22.320  25.743  1.00  0.00     0.148 C 
BRANCH  12  14
ATOM     14  C   UNL A   1      33.256  23.313  25.315  1.00  0.00     0.149 C 
BRANCH  14  15
ATOM     15  C   UNL A   1      34.145  23.656  26.523  1.00  0.00     0.181 C 
BRANCH  15  16
ATOM     16  O   UNL A   1      35.455  23.097  26.450  1.00  0.00    -0.379 OA
BRANCH  16  17
ATOM     17  C   UNL A   1      36.383  23.900  25.716  1.00  0.00     0.163 C 
BRANCH  17  18
ATOM     18  C   UNL A   1      37.124  23.094  24.700  1.00  0.00     0.015 C 
ATOM     19  C   UNL A   1      36.550  21.767  24.268  1.00  0.00     0.006 C 
ATOM     20  C   UNL A   1      36.641  22.896  23.284  1.00  0.00     0.006 C 
ENDBRANCH  17  18
ENDBRANCH  16  17
ENDBRANCH  15  16
ENDBRANCH  14  15
ENDBRANCH  12  14
ENDBRANCH  10  12
ENDBRANCH   6  10
ENDBRANCH   1   5
BRANCH   3  21
ATOM     21  C   UNL A   1      31.396  30.058  25.181  1.00  0.00     0.116 C 
BRANCH  21  22
ATOM     22  C   UNL A   1      31.935  30.540  26.523  1.00  0.00     0.023 C 
BRANCH  22  23
ATOM     23  C   UNL A   1      31.600  31.990  26.852  1.00  0.00     0.023 C 
BRANCH  23  24
ATOM     24  C   UNL A   1      32.765  32.808  27.387  1.00  0.00     0.116 C 
BRANCH  24  25
ATOM     25  N   UNL A   1      32.421  34.193  27.681  1.00  0.00    -0.352 N 
ATOM     26  C   UNL A   1      33.011  35.032  28.601  1.00  0.00     0.251 C 
ATOM     27  H   UNL A   1      31.678  34.575  27.160  1.00  0.00     0.163 HD
ATOM     28  O   UNL A   1      32.566  36.148  28.820  1.00  0.00    -0.269 OA
BRANCH  26  29
ATOM     29  C   UNL A   1      34.173  34.523  29.356  1.00  0.00     0.039 A 
ATOM     30  C   UNL A   1      33.955  33.875  30.571  1.00  0.00     0.014 A 
ATOM     31  C   UNL A   1      35.453  34.597  28.802  1.00  0.00     0.014 A 
ATOM     32  C   UNL A   1      35.018  33.223  31.197  1.00  0.00     0.010 A 
ATOM     33  C   UNL A   1      36.489  33.878  29.381  1.00  0.00     0.010 A 
ATOM     34  C   UNL A   1      36.281  33.182  30.583  1.00  0.00    -0.014 A 
BRANCH  34  35
ATOM     35  C   UNL A   1      37.402  32.414  31.176  1.00  0.00     0.031 A 
ATOM     36  C   UNL A   1      37.919  32.780  32.537  1.00  0.00     0.074 A 
ATOM     37  C   UNL A   1      38.004  31.445  30.459  1.00  0.00     0.049 A 
ATOM     38  N   UNL A   1      38.941  32.292  33.195  1.00  0.00    -0.248 NA
ATOM     39  C   UNL A   1      37.215  33.864  33.240  1.00  0.00     0.031 C 
ATOM     40  C   UNL A   1      37.632  31.041  29.102  1.00  0.00     0.029 A 
ATOM     41  N   UNL A   1      39.068  30.635  30.766  1.00  0.00    -0.354 N 
ATOM     42  C   UNL A   1      39.010  33.022  34.374  1.00  0.00     0.074 A 
ATOM     43  C   UNL A   1      37.967  34.022  34.319  1.00  0.00     0.031 C 
ATOM     44  C   UNL A   1      38.438  30.043  28.703  1.00  0.00     0.029 A 
ATOM     45  C   UNL A   1      39.406  29.763  29.759  1.00  0.00     0.049 A 
ATOM     46  H   UNL A   1      39.544  30.674  31.626  1.00  0.00     0.167 HD
ATOM     47  C   UNL A   1      39.852  32.853  35.421  1.00  0.00     0.037 A 
ATOM     48  C   UNL A   1      40.390  28.846  29.695  1.00  0.00     0.037 A 
ATOM     49  C   UNL A   1      40.866  31.835  35.485  1.00  0.00     0.049 A 
ATOM     50  C   UNL A   1      41.305  28.672  30.877  1.00  0.00     0.074 A 
ATOM     51  C   UNL A   1      41.722  31.534  36.529  1.00  0.00     0.029 A 
ATOM     52  N   UNL A   1      41.158  30.949  34.458  1.00  0.00    -0.354 N 
ATOM     53  N   UNL A   1      41.314  29.314  32.019  1.00  0.00    -0.248 NA
ATOM     54  C   UNL A   1      42.345  27.639  30.762  1.00  0.00     0.031 C 
ATOM     55  C   UNL A   1      42.562  30.494  36.118  1.00  0.00     0.029 A 
ATOM     56  C   UNL A   1      42.197  30.115  34.836  1.00  0.00     0.049 A 
ATOM     57  H   UNL A   1      40.697  30.919  33.590  1.00  0.00     0.167 HD
ATOM     58  C   UNL A   1      42.336  28.750  32.768  1.00  0.00     0.074 A 
ATOM     59  C   UNL A   1      42.917  27.701  31.957  1.00  0.00     0.031 C 
ATOM     60  C   UNL A   1      42.757  29.070  34.017  1.00  0.00     0.037 A 
BRANCH  47  61
ATOM     61  C   UNL A   1      39.704  33.790  36.585  1.00  0.00     0.064 A 
ATOM     62  C   UNL A   1      40.363  35.029  36.620  1.00  0.00     0.173 A 
ATOM     63  C   UNL A   1      38.874  33.456  37.666  1.00  0.00     0.173 A 
ATOM     64  F   UNL A   1      41.179  35.388  35.618  1.00  0.00    -0.203 F 
ATOM     65  C   UNL A   1      40.221  35.884  37.709  1.00  0.00     0.198 A 
ATOM     66  C   UNL A   1      38.711  34.329  38.738  1.00  0.00     0.198 A 
ATOM     67  F   UNL A   1      38.219  32.286  37.679  1.00  0.00    -0.203 F 
ATOM     68  F   UNL A   1      40.903  37.038  37.745  1.00  0.00    -0.200 F 
ATOM     69  C   UNL A   1      39.390  35.537  38.764  1.00  0.00     0.200 A 
ATOM     70  F   UNL A   1      37.897  33.998  39.751  1.00  0.00    -0.200 F 
ATOM     71  F   UNL A   1      39.250  36.364  39.808  1.00  0.00    -0.200 F 
ENDBRANCH  47  61
BRANCH  48  72
ATOM     72  C   UNL A   1      40.541  28.001  28.482  1.00  0.00     0.064 A 
ATOM     73  C   UNL A   1      41.308  28.440  27.393  1.00  0.00     0.173 A 
ATOM     74  C   UNL A   1      39.927  26.745  28.384  1.00  0.00     0.173 A 
ATOM     75  F   UNL A   1      41.898  29.643  27.431  1.00  0.00    -0.203 F 
ATOM     76  C   UNL A   1      41.437  27.662  26.244  1.00  0.00     0.198 A 
ATOM     77  C   UNL A   1      40.080  25.956  27.246  1.00  0.00     0.198 A 
ATOM     78  F   UNL A   1      39.188  26.277  29.402  1.00  0.00    -0.203 F 
ATOM     79  F   UNL A   1      42.139  28.124  25.201  1.00  0.00    -0.200 F 
ATOM     80  C   UNL A   1      40.827  26.419  26.174  1.00  0.00     0.200 A 
ATOM     81  F   UNL A   1      39.501  24.749  27.187  1.00  0.00    -0.200 F 
ATOM     82  F   UNL A   1      40.956  25.669  25.070  1.00  0.00    -0.200 F 
ENDBRANCH  48  72
BRANCH  60  83
ATOM     83  C   UNL A   1      43.877  28.257  34.595  1.00  0.00     0.064 A 
ATOM     84  C   UNL A   1      45.213  28.671  34.497  1.00  0.00     0.173 A 
ATOM     85  C   UNL A   1      43.604  27.074  35.298  1.00  0.00     0.173 A 
ATOM     86  F   UNL A   1      45.525  29.788  33.820  1.00  0.00    -0.203 F 
ATOM     87  C   UNL A   1      46.238  27.918  35.062  1.00  0.00     0.198 A 
ATOM     88  C   UNL A   1      44.628  26.339  35.888  1.00  0.00     0.198 A 
ATOM     89  F   UNL A   1      42.341  26.639  35.426  1.00  0.00    -0.203 F 
ATOM     90  F   UNL A   1      47.511  28.309  34.918  1.00  0.00    -0.200 F 
ATOM     91  C   UNL A   1      45.945  26.758  35.764  1.00  0.00     0.200 A 
ATOM     92  F   UNL A   1      44.341  25.226  36.576  1.00  0.00    -0.200 F 
ATOM     93  F   UNL A   1      46.932  26.039  36.315  1.00  0.00    -0.200 F 
ENDBRANCH  60  83
ENDBRANCH  34  35
ENDBRANCH  26  29
ENDBRANCH  24  25
ENDBRANCH  23  24
ENDBRANCH  22  23
ENDBRANCH  21  22
ENDBRANCH   3  21
TORSDOF 18
ENDMDL
