MODEL 1
REMARK VINA RESULT:      -9.7      0.000      0.000
REMARK SMILES C[C@H](Oc1cccc(/C=C2/SC(=S)N(c3ccc(Cl)c(Cl)c3)C2=O)c1)C(=O)NCCCCNC(=O)c1ccc(-c2c3nc(c(-c4c(F)c(F)c(F)c(F)c4F)c4ccc([nH]4)c(-c4c(F)c(F)c(F)c(F)c4F)c4nc(c(-c5c(F)c(F)c(F)c(F)c5F)c5ccc2[nH]5)C=C4)C=C3)cc1
REMARK SMILES IDX 29 1 28 2 26 3 27 4 2 6 1 7 3 8 4 9 5 10 25 11 6 12 8 13
REMARK SMILES IDX 7 14 9 15 10 16 11 17 23 18 12 19 14 20 24 21 13 22 15 23
REMARK SMILES IDX 16 24 22 25 17 26 20 27 18 28 21 29 19 30 30 31 31 32 32 33
REMARK SMILES IDX 33 34 34 35 35 37 36 38 37 39 98 40 38 41 97 42 39 43 40 44
REMARK SMILES IDX 41 45 91 46 42 47 96 48 90 49 92 50 43 51 95 52 89 53 88 54
REMARK SMILES IDX 44 56 76 57 56 58 75 59 57 60 60 61 74 62 93 63 58 64 59 65
REMARK SMILES IDX 73 67 94 68 61 69 45 70 46 71 54 72 47 73 48 74 52 75 55 76
REMARK SMILES IDX 49 77 50 78 53 79 51 80 77 81 78 82 86 83 79 84 80 85 84 86
REMARK SMILES IDX 87 87 81 88 82 89 85 90 83 91 62 92 63 93 71 94 64 95 65 96
REMARK SMILES IDX 69 97 72 98 66 99 67 100 70 101 68 102
REMARK H PARENT 28 5 33 36 92 55 60 66
REMARK Flexibility Score: inf
ROOT
ATOM      1  C   UNL A   1      36.851  31.806  32.922  1.00  0.00     0.116 C 
ENDROOT
BRANCH   1   2
ATOM      2  N   UNL A   1      36.735  30.357  32.941  1.00  0.00    -0.353 N 
ATOM      3  C   UNL A   1      37.713  29.422  33.174  1.00  0.00     0.260 C 
ATOM      4  O   UNL A   1      37.386  28.233  33.200  1.00  0.00    -0.271 OA
ATOM      5  H   UNL A   1      35.835  29.998  32.763  1.00  0.00     0.163 HD
BRANCH   3   6
ATOM      6  C   UNL A   1      39.160  29.866  33.447  1.00  0.00     0.258 C 
ATOM      7  C   UNL A   1      40.104  28.796  32.884  1.00  0.00     0.064 C 
BRANCH   6   8
ATOM      8  O   UNL A   1      39.182  30.146  34.848  1.00  0.00    -0.481 OA
BRANCH   8   9
ATOM      9  C   UNL A   1      39.957  31.106  35.412  1.00  0.00     0.121 A 
ATOM     10  C   UNL A   1      39.786  32.482  35.333  1.00  0.00     0.046 A 
ATOM     11  C   UNL A   1      41.060  30.596  36.102  1.00  0.00     0.054 A 
ATOM     12  C   UNL A   1      40.768  33.337  35.843  1.00  0.00     0.004 A 
ATOM     13  C   UNL A   1      42.052  31.443  36.608  1.00  0.00    -0.021 A 
ATOM     14  C   UNL A   1      41.903  32.822  36.469  1.00  0.00     0.008 A 
BRANCH  13  15
ATOM     15  C   UNL A   1      43.229  30.894  37.285  1.00  0.00     0.029 C 
ATOM     16  C   UNL A   1      43.957  29.854  36.855  1.00  0.00     0.081 C 
ATOM     17  S   UNL A   1      45.223  29.173  37.806  1.00  0.00    -0.054 SA
ATOM     18  C   UNL A   1      43.786  29.071  35.592  1.00  0.00     0.270 C 
ATOM     19  C   UNL A   1      45.405  27.783  36.742  1.00  0.00     0.152 C 
ATOM     20  N   UNL A   1      44.537  27.902  35.666  1.00  0.00    -0.261 N 
ATOM     21  O   UNL A   1      43.077  29.415  34.659  1.00  0.00    -0.268 OA
ATOM     22  S   UNL A   1      46.557  26.610  37.049  1.00  0.00    -0.051 S 
BRANCH  20  23
ATOM     23  C   UNL A   1      44.414  26.920  34.648  1.00  0.00     0.052 A 
ATOM     24  C   UNL A   1      44.908  27.159  33.360  1.00  0.00     0.028 A 
ATOM     25  C   UNL A   1      43.804  25.692  34.935  1.00  0.00     0.048 A 
ATOM     26  C   UNL A   1      44.899  26.135  32.409  1.00  0.00     0.024 A 
ATOM     27  C   UNL A   1      43.766  24.681  33.975  1.00  0.00     0.061 A 
ATOM     28  C   UNL A   1      44.357  24.885  32.728  1.00  0.00     0.059 A 
ATOM     29  Cl  UNL A   1      42.972  23.204  34.396  1.00  0.00    -0.083 Cl
ATOM     30  Cl  UNL A   1      44.492  23.613  31.577  1.00  0.00    -0.083 Cl
ENDBRANCH  20  23
ENDBRANCH  13  15
ENDBRANCH   8   9
ENDBRANCH   6   8
ENDBRANCH   3   6
ENDBRANCH   1   2
BRANCH   1  31
ATOM     31  C   UNL A   1      36.703  32.391  31.523  1.00  0.00     0.023 C 
BRANCH  31  32
ATOM     32  C   UNL A   1      35.294  32.333  30.940  1.00  0.00     0.023 C 
BRANCH  32  33
ATOM     33  C   UNL A   1      35.190  32.580  29.438  1.00  0.00     0.116 C 
BRANCH  33  34
ATOM     34  N   UNL A   1      34.380  31.597  28.733  1.00  0.00    -0.352 N 
ATOM     35  C   UNL A   1      34.743  30.369  28.226  1.00  0.00     0.251 C 
ATOM     36  H   UNL A   1      33.437  31.845  28.600  1.00  0.00     0.163 HD
ATOM     37  O   UNL A   1      33.930  29.697  27.599  1.00  0.00    -0.269 OA
BRANCH  35  38
ATOM     38  C   UNL A   1      36.132  29.886  28.391  1.00  0.00     0.039 A 
ATOM     39  C   UNL A   1      37.044  30.091  27.354  1.00  0.00     0.014 A 
ATOM     40  C   UNL A   1      36.545  29.269  29.574  1.00  0.00     0.014 A 
ATOM     41  C   UNL A   1      38.394  29.799  27.542  1.00  0.00     0.010 A 
ATOM     42  C   UNL A   1      37.896  29.014  29.781  1.00  0.00     0.010 A 
ATOM     43  C   UNL A   1      38.830  29.286  28.769  1.00  0.00    -0.014 A 
BRANCH  43  44
ATOM     44  C   UNL A   1      40.254  28.944  28.987  1.00  0.00     0.031 A 
ATOM     45  C   UNL A   1      41.151  29.968  29.614  1.00  0.00     0.074 A 
ATOM     46  C   UNL A   1      40.735  27.754  28.586  1.00  0.00     0.049 A 
ATOM     47  N   UNL A   1      42.443  29.928  29.814  1.00  0.00    -0.248 NA
ATOM     48  C   UNL A   1      40.509  31.216  30.055  1.00  0.00     0.031 C 
ATOM     49  C   UNL A   1      39.949  26.690  27.962  1.00  0.00     0.029 A 
ATOM     50  N   UNL A   1      42.009  27.246  28.632  1.00  0.00    -0.354 N 
ATOM     51  C   UNL A   1      42.766  31.145  30.399  1.00  0.00     0.074 A 
ATOM     52  C   UNL A   1      41.548  31.923  30.469  1.00  0.00     0.031 C 
ATOM     53  C   UNL A   1      40.759  25.655  27.682  1.00  0.00     0.029 A 
ATOM     54  C   UNL A   1      42.124  25.997  28.073  1.00  0.00     0.049 A 
ATOM     55  H   UNL A   1      42.769  27.732  29.027  1.00  0.00     0.167 HD
ATOM     56  C   UNL A   1      43.969  31.565  30.855  1.00  0.00     0.037 A 
ATOM     57  C   UNL A   1      43.215  25.229  27.886  1.00  0.00     0.037 A 
ATOM     58  C   UNL A   1      45.171  30.778  30.780  1.00  0.00     0.049 A 
ATOM     59  C   UNL A   1      44.553  25.739  28.360  1.00  0.00     0.074 A 
ATOM     60  C   UNL A   1      46.439  31.096  31.229  1.00  0.00     0.029 A 
ATOM     61  N   UNL A   1      45.251  29.514  30.211  1.00  0.00    -0.354 N 
ATOM     62  N   UNL A   1      44.846  26.874  28.950  1.00  0.00    -0.248 NA
ATOM     63  C   UNL A   1      45.710  24.861  28.146  1.00  0.00     0.031 C 
ATOM     64  C   UNL A   1      47.298  30.048  30.883  1.00  0.00     0.029 A 
ATOM     65  C   UNL A   1      46.554  29.049  30.276  1.00  0.00     0.049 A 
ATOM     66  H   UNL A   1      44.494  29.022  29.819  1.00  0.00     0.167 HD
ATOM     67  C   UNL A   1      46.209  26.831  29.208  1.00  0.00     0.074 A 
ATOM     68  C   UNL A   1      46.683  25.552  28.723  1.00  0.00     0.031 C 
ATOM     69  C   UNL A   1      47.000  27.765  29.794  1.00  0.00     0.037 A 
BRANCH  56  70
ATOM     70  C   UNL A   1      44.037  32.937  31.459  1.00  0.00     0.064 A 
ATOM     71  C   UNL A   1      43.877  33.144  32.839  1.00  0.00     0.173 A 
ATOM     72  C   UNL A   1      44.276  34.058  30.651  1.00  0.00     0.173 A 
ATOM     73  F   UNL A   1      43.627  32.107  33.653  1.00  0.00    -0.203 F 
ATOM     74  C   UNL A   1      43.920  34.425  33.381  1.00  0.00     0.198 A 
ATOM     75  C   UNL A   1      44.354  35.335  31.202  1.00  0.00     0.198 A 
ATOM     76  F   UNL A   1      44.437  33.918  29.328  1.00  0.00    -0.203 F 
ATOM     77  F   UNL A   1      43.706  34.604  34.691  1.00  0.00    -0.200 F 
ATOM     78  C   UNL A   1      44.166  35.519  32.565  1.00  0.00     0.200 A 
ATOM     79  F   UNL A   1      44.604  36.389  30.414  1.00  0.00    -0.200 F 
ATOM     80  F   UNL A   1      44.214  36.751  33.089  1.00  0.00    -0.200 F 
ENDBRANCH  56  70
BRANCH  57  81
ATOM     81  C   UNL A   1      43.093  23.901  27.224  1.00  0.00     0.064 A 
ATOM     82  C   UNL A   1      42.631  22.781  27.928  1.00  0.00     0.173 A 
ATOM     83  C   UNL A   1      43.456  23.720  25.881  1.00  0.00     0.173 A 
ATOM     84  F   UNL A   1      42.294  22.894  29.222  1.00  0.00    -0.203 F 
ATOM     85  C   UNL A   1      42.559  21.526  27.323  1.00  0.00     0.198 A 
ATOM     86  C   UNL A   1      43.354  22.473  25.268  1.00  0.00     0.198 A 
ATOM     87  F   UNL A   1      43.905  24.757  25.160  1.00  0.00    -0.203 F 
ATOM     88  F   UNL A   1      42.167  20.462  28.036  1.00  0.00    -0.200 F 
ATOM     89  C   UNL A   1      42.915  21.375  25.992  1.00  0.00     0.200 A 
ATOM     90  F   UNL A   1      43.687  22.333  23.977  1.00  0.00    -0.200 F 
ATOM     91  F   UNL A   1      42.846  20.170  25.410  1.00  0.00    -0.200 F 
ENDBRANCH  57  81
BRANCH  69  92
ATOM     92  C   UNL A   1      48.449  27.422  29.980  1.00  0.00     0.064 A 
ATOM     93  C   UNL A   1      48.891  26.633  31.053  1.00  0.00     0.173 A 
ATOM     94  C   UNL A   1      49.404  27.851  29.044  1.00  0.00     0.173 A 
ATOM     95  F   UNL A   1      48.021  26.209  31.982  1.00  0.00    -0.203 F 
ATOM     96  C   UNL A   1      50.238  26.309  31.195  1.00  0.00     0.198 A 
ATOM     97  C   UNL A   1      50.742  27.495  29.169  1.00  0.00     0.198 A 
ATOM     98  F   UNL A   1      49.032  28.600  27.994  1.00  0.00    -0.203 F 
ATOM     99  F   UNL A   1      50.644  25.596  32.254  1.00  0.00    -0.200 F 
ATOM    100  C   UNL A   1      51.160  26.732  30.249  1.00  0.00     0.200 A 
ATOM    101  F   UNL A   1      51.629  27.889  28.245  1.00  0.00    -0.200 F 
ATOM    102  F   UNL A   1      52.454  26.408  30.382  1.00  0.00    -0.200 F 
ENDBRANCH  69  92
ENDBRANCH  43  44
ENDBRANCH  35  38
ENDBRANCH  33  34
ENDBRANCH  32  33
ENDBRANCH  31  32
ENDBRANCH   1  31
TORSDOF 15
ENDMDL
MODEL 2
REMARK VINA RESULT:      -9.2      5.847     11.623
REMARK SMILES C[C@H](Oc1cccc(/C=C2/SC(=S)N(c3ccc(Cl)c(Cl)c3)C2=O)c1)C(=O)NCCCCNC(=O)c1ccc(-c2c3nc(c(-c4c(F)c(F)c(F)c(F)c4F)c4ccc([nH]4)c(-c4c(F)c(F)c(F)c(F)c4F)c4nc(c(-c5c(F)c(F)c(F)c(F)c5F)c5ccc2[nH]5)C=C4)C=C3)cc1
REMARK SMILES IDX 29 1 28 2 26 3 27 4 2 6 1 7 3 8 4 9 5 10 25 11 6 12 8 13
REMARK SMILES IDX 7 14 9 15 10 16 11 17 23 18 12 19 14 20 24 21 13 22 15 23
REMARK SMILES IDX 16 24 22 25 17 26 20 27 18 28 21 29 19 30 30 31 31 32 32 33
REMARK SMILES IDX 33 34 34 35 35 37 36 38 37 39 98 40 38 41 97 42 39 43 40 44
REMARK SMILES IDX 41 45 91 46 42 47 96 48 90 49 92 50 43 51 95 52 89 53 88 54
REMARK SMILES IDX 44 56 76 57 56 58 75 59 57 60 60 61 74 62 93 63 58 64 59 65
REMARK SMILES IDX 73 67 94 68 61 69 45 70 46 71 54 72 47 73 48 74 52 75 55 76
REMARK SMILES IDX 49 77 50 78 53 79 51 80 77 81 78 82 86 83 79 84 80 85 84 86
REMARK SMILES IDX 87 87 81 88 82 89 85 90 83 91 62 92 63 93 71 94 64 95 65 96
REMARK SMILES IDX 69 97 72 98 66 99 67 100 70 101 68 102
REMARK H PARENT 28 5 33 36 92 55 60 66
REMARK Flexibility Score: inf
ROOT
ATOM      1  C   UNL A   1      35.553  34.445  31.564  1.00  0.00     0.116 C 
ENDROOT
BRANCH   1   2
ATOM      2  N   UNL A   1      34.176  34.725  31.191  1.00  0.00    -0.353 N 
ATOM      3  C   UNL A   1      33.592  34.650  29.950  1.00  0.00     0.260 C 
ATOM      4  O   UNL A   1      32.384  34.880  29.861  1.00  0.00    -0.271 OA
ATOM      5  H   UNL A   1      33.583  35.006  31.924  1.00  0.00     0.163 HD
BRANCH   3   6
ATOM      6  C   UNL A   1      34.427  34.239  28.724  1.00  0.00     0.258 C 
ATOM      7  C   UNL A   1      34.377  35.383  27.704  1.00  0.00     0.064 C 
BRANCH   6   8
ATOM      8  O   UNL A   1      33.906  32.959  28.361  1.00  0.00    -0.481 OA
BRANCH   8   9
ATOM      9  C   UNL A   1      34.682  31.873  28.114  1.00  0.00     0.121 A 
ATOM     10  C   UNL A   1      36.058  31.845  27.927  1.00  0.00     0.046 A 
ATOM     11  C   UNL A   1      33.955  30.685  28.003  1.00  0.00     0.054 A 
ATOM     12  C   UNL A   1      36.683  30.661  27.524  1.00  0.00     0.004 A 
ATOM     13  C   UNL A   1      34.571  29.497  27.592  1.00  0.00    -0.021 A 
ATOM     14  C   UNL A   1      35.942  29.492  27.347  1.00  0.00     0.008 A 
BRANCH  13  15
ATOM     15  C   UNL A   1      33.790  28.269  27.431  1.00  0.00     0.029 C 
ATOM     16  C   UNL A   1      32.872  28.051  26.478  1.00  0.00     0.081 C 
ATOM     17  S   UNL A   1      31.883  26.640  26.470  1.00  0.00    -0.054 SA
ATOM     18  C   UNL A   1      32.484  28.956  25.352  1.00  0.00     0.270 C 
ATOM     19  C   UNL A   1      30.838  27.262  25.198  1.00  0.00     0.152 C 
ATOM     20  N   UNL A   1      31.301  28.501  24.778  1.00  0.00    -0.261 N 
ATOM     21  O   UNL A   1      33.114  29.947  25.016  1.00  0.00    -0.268 OA
ATOM     22  S   UNL A   1      29.563  26.353  24.610  1.00  0.00    -0.051 S 
BRANCH  20  23
ATOM     23  C   UNL A   1      30.651  29.285  23.788  1.00  0.00     0.052 A 
ATOM     24  C   UNL A   1      31.027  29.193  22.442  1.00  0.00     0.028 A 
ATOM     25  C   UNL A   1      29.614  30.150  24.156  1.00  0.00     0.048 A 
ATOM     26  C   UNL A   1      30.290  29.869  21.466  1.00  0.00     0.024 A 
ATOM     27  C   UNL A   1      28.899  30.850  23.183  1.00  0.00     0.061 A 
ATOM     28  C   UNL A   1      29.206  30.672  21.834  1.00  0.00     0.059 A 
ATOM     29  Cl  UNL A   1      27.650  31.919  23.718  1.00  0.00    -0.083 Cl
ATOM     30  Cl  UNL A   1      28.242  31.373  20.592  1.00  0.00    -0.083 Cl
ENDBRANCH  20  23
ENDBRANCH  13  15
ENDBRANCH   8   9
ENDBRANCH   6   8
ENDBRANCH   3   6
ENDBRANCH   1   2
BRANCH   1  31
ATOM     31  C   UNL A   1      35.726  34.230  33.062  1.00  0.00     0.023 C 
BRANCH  31  32
ATOM     32  C   UNL A   1      36.073  32.804  33.479  1.00  0.00     0.023 C 
BRANCH  32  33
ATOM     33  C   UNL A   1      36.419  31.850  32.340  1.00  0.00     0.116 C 
BRANCH  33  34
ATOM     34  N   UNL A   1      36.511  30.454  32.746  1.00  0.00    -0.352 N 
ATOM     35  C   UNL A   1      37.551  29.566  32.589  1.00  0.00     0.251 C 
ATOM     36  H   UNL A   1      35.714  30.095  33.199  1.00  0.00     0.163 HD
ATOM     37  O   UNL A   1      37.422  28.398  32.942  1.00  0.00    -0.269 OA
BRANCH  35  38
ATOM     38  C   UNL A   1      38.806  30.010  31.942  1.00  0.00     0.039 A 
ATOM     39  C   UNL A   1      38.831  30.158  30.553  1.00  0.00     0.014 A 
ATOM     40  C   UNL A   1      39.939  30.315  32.698  1.00  0.00     0.014 A 
ATOM     41  C   UNL A   1      39.940  30.729  29.931  1.00  0.00     0.010 A 
ATOM     42  C   UNL A   1      41.031  30.923  32.088  1.00  0.00     0.010 A 
ATOM     43  C   UNL A   1      41.034  31.143  30.702  1.00  0.00    -0.014 A 
BRANCH  43  44
ATOM     44  C   UNL A   1      42.233  31.730  30.065  1.00  0.00     0.031 A 
ATOM     45  C   UNL A   1      43.324  30.813  29.601  1.00  0.00     0.074 A 
ATOM     46  C   UNL A   1      42.356  33.065  29.950  1.00  0.00     0.049 A 
ATOM     47  N   UNL A   1      44.498  31.103  29.106  1.00  0.00    -0.248 NA
ATOM     48  C   UNL A   1      43.064  29.371  29.734  1.00  0.00     0.031 C 
ATOM     49  C   UNL A   1      41.357  34.047  30.373  1.00  0.00     0.029 A 
ATOM     50  N   UNL A   1      43.384  33.827  29.454  1.00  0.00    -0.354 N 
ATOM     51  C   UNL A   1      45.116  29.883  28.873  1.00  0.00     0.074 A 
ATOM     52  C   UNL A   1      44.213  28.851  29.334  1.00  0.00     0.031 C 
ATOM     53  C   UNL A   1      41.822  35.282  30.119  1.00  0.00     0.029 A 
ATOM     54  C   UNL A   1      43.163  35.179  29.551  1.00  0.00     0.049 A 
ATOM     55  H   UNL A   1      44.202  33.440  29.066  1.00  0.00     0.167 HD
ATOM     56  C   UNL A   1      46.322  29.645  28.307  1.00  0.00     0.037 A 
ATOM     57  C   UNL A   1      43.966  36.212  29.231  1.00  0.00     0.037 A 
ATOM     58  C   UNL A   1      47.210  30.682  27.852  1.00  0.00     0.049 A 
ATOM     59  C   UNL A   1      45.326  35.922  28.645  1.00  0.00     0.074 A 
ATOM     60  C   UNL A   1      48.445  30.555  27.245  1.00  0.00     0.029 A 
ATOM     61  N   UNL A   1      46.953  32.042  27.961  1.00  0.00    -0.354 N 
ATOM     62  N   UNL A   1      45.889  34.764  28.389  1.00  0.00    -0.248 NA
ATOM     63  C   UNL A   1      46.159  37.081  28.298  1.00  0.00     0.031 C 
ATOM     64  C   UNL A   1      48.961  31.838  27.037  1.00  0.00     0.029 A 
ATOM     65  C   UNL A   1      48.019  32.766  27.454  1.00  0.00     0.049 A 
ATOM     66  H   UNL A   1      46.135  32.434  28.343  1.00  0.00     0.167 HD
ATOM     67  C   UNL A   1      47.123  35.055  27.822  1.00  0.00     0.074 A 
ATOM     68  C   UNL A   1      47.221  36.498  27.759  1.00  0.00     0.031 C 
ATOM     69  C   UNL A   1      48.089  34.205  27.393  1.00  0.00     0.037 A 
BRANCH  56  70
ATOM     70  C   UNL A   1      46.748  28.213  28.165  1.00  0.00     0.064 A 
ATOM     71  C   UNL A   1      46.472  27.473  27.004  1.00  0.00     0.173 A 
ATOM     72  C   UNL A   1      47.451  27.574  29.197  1.00  0.00     0.173 A 
ATOM     73  F   UNL A   1      45.786  28.032  25.994  1.00  0.00    -0.203 F 
ATOM     74  C   UNL A   1      46.853  26.140  26.896  1.00  0.00     0.198 A 
ATOM     75  C   UNL A   1      47.862  26.250  29.072  1.00  0.00     0.198 A 
ATOM     76  F   UNL A   1      47.741  28.234  30.328  1.00  0.00    -0.203 F 
ATOM     77  F   UNL A   1      46.527  25.437  25.803  1.00  0.00    -0.200 F 
ATOM     78  C   UNL A   1      47.554  25.530  27.926  1.00  0.00     0.200 A 
ATOM     79  F   UNL A   1      48.549  25.667  30.063  1.00  0.00    -0.200 F 
ATOM     80  F   UNL A   1      47.927  24.248  27.818  1.00  0.00    -0.200 F 
ENDBRANCH  56  70
BRANCH  57  81
ATOM     81  C   UNL A   1      43.512  37.612  29.451  1.00  0.00     0.064 A 
ATOM     82  C   UNL A   1      42.697  38.265  28.517  1.00  0.00     0.173 A 
ATOM     83  C   UNL A   1      43.899  38.333  30.591  1.00  0.00     0.173 A 
ATOM     84  F   UNL A   1      42.318  37.629  27.398  1.00  0.00    -0.203 F 
ATOM     85  C   UNL A   1      42.307  39.592  28.701  1.00  0.00     0.198 A 
ATOM     86  C   UNL A   1      43.483  39.648  30.789  1.00  0.00     0.198 A 
ATOM     87  F   UNL A   1      44.679  37.757  31.518  1.00  0.00    -0.203 F 
ATOM     88  F   UNL A   1      41.575  40.208  27.763  1.00  0.00    -0.200 F 
ATOM     89  C   UNL A   1      42.696  40.280  29.839  1.00  0.00     0.200 A 
ATOM     90  F   UNL A   1      43.851  40.306  31.898  1.00  0.00    -0.200 F 
ATOM     91  F   UNL A   1      42.322  41.554  30.016  1.00  0.00    -0.200 F 
ENDBRANCH  57  81
BRANCH  69  92
ATOM     92  C   UNL A   1      49.317  34.812  26.779  1.00  0.00     0.064 A 
ATOM     93  C   UNL A   1      49.332  35.268  25.453  1.00  0.00     0.173 A 
ATOM     94  C   UNL A   1      50.481  34.983  27.546  1.00  0.00     0.173 A 
ATOM     95  F   UNL A   1      48.251  35.117  24.674  1.00  0.00    -0.203 F 
ATOM     96  C   UNL A   1      50.476  35.848  24.910  1.00  0.00     0.198 A 
ATOM     97  C   UNL A   1      51.609  35.595  27.011  1.00  0.00     0.198 A 
ATOM     98  F   UNL A   1      50.515  34.572  28.823  1.00  0.00    -0.203 F 
ATOM     99  F   UNL A   1      50.485  36.231  23.625  1.00  0.00    -0.200 F 
ATOM    100  C   UNL A   1      51.610  36.019  25.691  1.00  0.00     0.200 A 
ATOM    101  F   UNL A   1      52.697  35.776  27.773  1.00  0.00    -0.200 F 
ATOM    102  F   UNL A   1      52.705  36.588  25.168  1.00  0.00    -0.200 F 
ENDBRANCH  69  92
ENDBRANCH  43  44
ENDBRANCH  35  38
ENDBRANCH  33  34
ENDBRANCH  32  33
ENDBRANCH  31  32
ENDBRANCH   1  31
TORSDOF 15
ENDMDL
MODEL 3
REMARK VINA RESULT:      -9.1      6.824     12.994
REMARK SMILES C[C@H](Oc1cccc(/C=C2/SC(=S)N(c3ccc(Cl)c(Cl)c3)C2=O)c1)C(=O)NCCCCNC(=O)c1ccc(-c2c3nc(c(-c4c(F)c(F)c(F)c(F)c4F)c4ccc([nH]4)c(-c4c(F)c(F)c(F)c(F)c4F)c4nc(c(-c5c(F)c(F)c(F)c(F)c5F)c5ccc2[nH]5)C=C4)C=C3)cc1
REMARK SMILES IDX 29 1 28 2 26 3 27 4 2 6 1 7 3 8 4 9 5 10 25 11 6 12 8 13
REMARK SMILES IDX 7 14 9 15 10 16 11 17 23 18 12 19 14 20 24 21 13 22 15 23
REMARK SMILES IDX 16 24 22 25 17 26 20 27 18 28 21 29 19 30 30 31 31 32 32 33
REMARK SMILES IDX 33 34 34 35 35 37 36 38 37 39 98 40 38 41 97 42 39 43 40 44
REMARK SMILES IDX 41 45 91 46 42 47 96 48 90 49 92 50 43 51 95 52 89 53 88 54
REMARK SMILES IDX 44 56 76 57 56 58 75 59 57 60 60 61 74 62 93 63 58 64 59 65
REMARK SMILES IDX 73 67 94 68 61 69 45 70 46 71 54 72 47 73 48 74 52 75 55 76
REMARK SMILES IDX 49 77 50 78 53 79 51 80 77 81 78 82 86 83 79 84 80 85 84 86
REMARK SMILES IDX 87 87 81 88 82 89 85 90 83 91 62 92 63 93 71 94 64 95 65 96
REMARK SMILES IDX 69 97 72 98 66 99 67 100 70 101 68 102
REMARK H PARENT 28 5 33 36 92 55 60 66
REMARK Flexibility Score: inf
ROOT
ATOM      1  C   UNL A   1      48.023  20.449  35.613  1.00  0.00     0.116 C 
ENDROOT
BRANCH   1   2
ATOM      2  N   UNL A   1      47.005  19.585  36.189  1.00  0.00    -0.353 N 
ATOM      3  C   UNL A   1      46.503  19.588  37.468  1.00  0.00     0.260 C 
ATOM      4  O   UNL A   1      45.595  18.798  37.736  1.00  0.00    -0.271 OA
ATOM      5  H   UNL A   1      46.627  18.908  35.584  1.00  0.00     0.163 HD
BRANCH   3   6
ATOM      6  C   UNL A   1      47.034  20.591  38.506  1.00  0.00     0.258 C 
ATOM      7  C   UNL A   1      46.293  21.920  38.312  1.00  0.00     0.064 C 
BRANCH   6   8
ATOM      8  O   UNL A   1      48.452  20.553  38.336  1.00  0.00    -0.481 OA
BRANCH   8   9
ATOM      9  C   UNL A   1      49.285  19.817  39.115  1.00  0.00     0.121 A 
ATOM     10  C   UNL A   1      50.385  19.076  38.706  1.00  0.00     0.046 A 
ATOM     11  C   UNL A   1      48.920  19.807  40.463  1.00  0.00     0.054 A 
ATOM     12  C   UNL A   1      51.045  18.246  39.618  1.00  0.00     0.004 A 
ATOM     13  C   UNL A   1      49.568  18.973  41.382  1.00  0.00    -0.021 A 
ATOM     14  C   UNL A   1      50.633  18.185  40.950  1.00  0.00     0.008 A 
BRANCH  13  15
ATOM     15  C   UNL A   1      49.144  18.934  42.783  1.00  0.00     0.029 C 
ATOM     16  C   UNL A   1      48.052  18.309  43.246  1.00  0.00     0.081 C 
ATOM     17  S   UNL A   1      47.542  18.459  44.885  1.00  0.00    -0.054 SA
ATOM     18  C   UNL A   1      47.072  17.478  42.478  1.00  0.00     0.270 C 
ATOM     19  C   UNL A   1      45.999  17.672  44.579  1.00  0.00     0.152 C 
ATOM     20  N   UNL A   1      45.936  17.268  43.253  1.00  0.00    -0.261 N 
ATOM     21  O   UNL A   1      47.255  17.073  41.341  1.00  0.00    -0.268 OA
ATOM     22  S   UNL A   1      44.898  17.426  45.814  1.00  0.00    -0.051 S 
BRANCH  20  23
ATOM     23  C   UNL A   1      44.800  16.637  42.680  1.00  0.00     0.052 A 
ATOM     24  C   UNL A   1      44.163  17.187  41.562  1.00  0.00     0.028 A 
ATOM     25  C   UNL A   1      44.316  15.443  43.231  1.00  0.00     0.048 A 
ATOM     26  C   UNL A   1      43.131  16.485  40.932  1.00  0.00     0.024 A 
ATOM     27  C   UNL A   1      43.264  14.759  42.621  1.00  0.00     0.061 A 
ATOM     28  C   UNL A   1      42.705  15.255  41.443  1.00  0.00     0.059 A 
ATOM     29  Cl  UNL A   1      42.706  13.307  43.375  1.00  0.00    -0.083 Cl
ATOM     30  Cl  UNL A   1      41.530  14.360  40.558  1.00  0.00    -0.083 Cl
ENDBRANCH  20  23
ENDBRANCH  13  15
ENDBRANCH   8   9
ENDBRANCH   6   8
ENDBRANCH   3   6
ENDBRANCH   1   2
BRANCH   1  31
ATOM     31  C   UNL A   1      47.484  21.329  34.491  1.00  0.00     0.023 C 
BRANCH  31  32
ATOM     32  C   UNL A   1      46.960  22.693  34.931  1.00  0.00     0.023 C 
BRANCH  32  33
ATOM     33  C   UNL A   1      47.934  23.856  34.774  1.00  0.00     0.116 C 
BRANCH  33  34
ATOM     34  N   UNL A   1      48.105  24.650  35.983  1.00  0.00    -0.352 N 
ATOM     35  C   UNL A   1      47.409  25.761  36.404  1.00  0.00     0.251 C 
ATOM     36  H   UNL A   1      48.822  24.347  36.587  1.00  0.00     0.163 HD
ATOM     37  O   UNL A   1      47.740  26.341  37.433  1.00  0.00    -0.269 OA
BRANCH  35  38
ATOM     38  C   UNL A   1      46.296  26.285  35.583  1.00  0.00     0.039 A 
ATOM     39  C   UNL A   1      45.048  25.661  35.662  1.00  0.00     0.014 A 
ATOM     40  C   UNL A   1      46.465  27.407  34.768  1.00  0.00     0.014 A 
ATOM     41  C   UNL A   1      43.942  26.227  35.031  1.00  0.00     0.010 A 
ATOM     42  C   UNL A   1      45.357  27.999  34.172  1.00  0.00     0.010 A 
ATOM     43  C   UNL A   1      44.087  27.417  34.308  1.00  0.00    -0.014 A 
BRANCH  43  44
ATOM     44  C   UNL A   1      42.934  28.027  33.609  1.00  0.00     0.031 A 
ATOM     45  C   UNL A   1      42.736  27.731  32.153  1.00  0.00     0.074 A 
ATOM     46  C   UNL A   1      42.110  28.865  34.262  1.00  0.00     0.049 A 
ATOM     47  N   UNL A   1      41.860  28.223  31.317  1.00  0.00    -0.248 NA
ATOM     48  C   UNL A   1      43.669  26.764  31.551  1.00  0.00     0.031 C 
ATOM     49  C   UNL A   1      42.215  29.224  35.677  1.00  0.00     0.029 A 
ATOM     50  N   UNL A   1      41.027  29.580  33.815  1.00  0.00    -0.354 N 
ATOM     51  C   UNL A   1      42.139  27.630  30.093  1.00  0.00     0.074 A 
ATOM     52  C   UNL A   1      43.300  26.788  30.281  1.00  0.00     0.031 C 
ATOM     53  C   UNL A   1      41.236  30.094  35.981  1.00  0.00     0.029 A 
ATOM     54  C   UNL A   1      40.460  30.379  34.778  1.00  0.00     0.049 A 
ATOM     55  H   UNL A   1      40.689  29.526  32.892  1.00  0.00     0.167 HD
ATOM     56  C   UNL A   1      41.472  27.762  28.924  1.00  0.00     0.037 A 
ATOM     57  C   UNL A   1      39.439  31.254  34.686  1.00  0.00     0.037 A 
ATOM     58  C   UNL A   1      40.317  28.603  28.752  1.00  0.00     0.049 A 
ATOM     59  C   UNL A   1      38.742  31.419  33.359  1.00  0.00     0.074 A 
ATOM     60  C   UNL A   1      39.551  28.797  27.618  1.00  0.00     0.029 A 
ATOM     61  N   UNL A   1      39.766  29.396  29.751  1.00  0.00    -0.354 N 
ATOM     62  N   UNL A   1      38.983  30.825  32.215  1.00  0.00    -0.248 NA
ATOM     63  C   UNL A   1      37.626  32.373  33.312  1.00  0.00     0.031 C 
ATOM     64  C   UNL A   1      38.570  29.749  27.914  1.00  0.00     0.029 A 
ATOM     65  C   UNL A   1      38.683  30.100  29.250  1.00  0.00     0.049 A 
ATOM     66  H   UNL A   1      40.096  29.451  30.676  1.00  0.00     0.167 HD
ATOM     67  C   UNL A   1      38.033  31.305  31.324  1.00  0.00     0.074 A 
ATOM     68  C   UNL A   1      37.201  32.230  32.064  1.00  0.00     0.031 C 
ATOM     69  C   UNL A   1      37.863  31.009  30.011  1.00  0.00     0.037 A 
BRANCH  56  70
ATOM     70  C   UNL A   1      41.987  26.991  27.744  1.00  0.00     0.064 A 
ATOM     71  C   UNL A   1      42.938  27.536  26.865  1.00  0.00     0.173 A 
ATOM     72  C   UNL A   1      41.535  25.687  27.493  1.00  0.00     0.173 A 
ATOM     73  F   UNL A   1      43.390  28.786  27.050  1.00  0.00    -0.203 F 
ATOM     74  C   UNL A   1      43.390  26.817  25.763  1.00  0.00     0.198 A 
ATOM     75  C   UNL A   1      42.015  24.958  26.409  1.00  0.00     0.198 A 
ATOM     76  F   UNL A   1      40.627  25.119  28.300  1.00  0.00    -0.203 F 
ATOM     77  F   UNL A   1      44.252  27.379  24.905  1.00  0.00    -0.200 F 
ATOM     78  C   UNL A   1      42.934  25.526  25.539  1.00  0.00     0.200 A 
ATOM     79  F   UNL A   1      41.583  23.707  26.201  1.00  0.00    -0.200 F 
ATOM     80  F   UNL A   1      43.375  24.833  24.480  1.00  0.00    -0.200 F 
ENDBRANCH  56  70
BRANCH  57  81
ATOM     81  C   UNL A   1      39.012  32.036  35.878  1.00  0.00     0.064 A 
ATOM     82  C   UNL A   1      39.434  33.359  36.065  1.00  0.00     0.173 A 
ATOM     83  C   UNL A   1      38.188  31.472  36.863  1.00  0.00     0.173 A 
ATOM     84  F   UNL A   1      40.243  33.938  35.165  1.00  0.00    -0.203 F 
ATOM     85  C   UNL A   1      39.071  34.079  37.204  1.00  0.00     0.198 A 
ATOM     86  C   UNL A   1      37.799  32.202  37.984  1.00  0.00     0.198 A 
ATOM     87  F   UNL A   1      37.753  30.209  36.734  1.00  0.00    -0.203 F 
ATOM     88  F   UNL A   1      39.536  35.322  37.384  1.00  0.00    -0.200 F 
ATOM     89  C   UNL A   1      38.249  33.502  38.159  1.00  0.00     0.200 A 
ATOM     90  F   UNL A   1      36.994  31.645  38.900  1.00  0.00    -0.200 F 
ATOM     91  F   UNL A   1      37.900  34.193  39.253  1.00  0.00    -0.200 F 
ENDBRANCH  57  81
BRANCH  69  92
ATOM     92  C   UNL A   1      36.710  31.659  29.302  1.00  0.00     0.064 A 
ATOM     93  C   UNL A   1      35.571  30.933  28.922  1.00  0.00     0.173 A 
ATOM     94  C   UNL A   1      36.726  33.039  29.043  1.00  0.00     0.173 A 
ATOM     95  F   UNL A   1      35.511  29.610  29.136  1.00  0.00    -0.203 F 
ATOM     96  C   UNL A   1      34.504  31.560  28.285  1.00  0.00     0.198 A 
ATOM     97  C   UNL A   1      35.643  33.668  28.438  1.00  0.00     0.198 A 
ATOM     98  F   UNL A   1      37.788  33.781  29.394  1.00  0.00    -0.203 F 
ATOM     99  F   UNL A   1      33.448  30.839  27.886  1.00  0.00    -0.200 F 
ATOM    100  C   UNL A   1      34.536  32.928  28.052  1.00  0.00     0.200 A 
ATOM    101  F   UNL A   1      35.668  34.992  28.230  1.00  0.00    -0.200 F 
ATOM    102  F   UNL A   1      33.502  33.530  27.448  1.00  0.00    -0.200 F 
ENDBRANCH  69  92
ENDBRANCH  43  44
ENDBRANCH  35  38
ENDBRANCH  33  34
ENDBRANCH  32  33
ENDBRANCH  31  32
ENDBRANCH   1  31
TORSDOF 15
ENDMDL
