MODEL 1
REMARK VINA RESULT:     -12.9      0.000      0.000
REMARK SMILES CC(C)CN(C)c1cc2c(cc1Cl)C=C(C(=O)NCCCCNC(=O)c1ccc(-c3c4nc(c(-c5c(F)c(F)c(F)c(F)c5F)c5ccc([nH]5)c(-c5c(F)c(F)c(F)c(F)c5F)c5nc(c(-c6c(F)c(F)c(F)c(F)c6F)c6ccc3[nH]6)C=C5)C=C4)cc1)[C@H](C(F)(F)F)O2
REMARK SMILES IDX 20 1 19 2 18 3 16 4 17 5 15 7 7 8 8 9 12 10 9 11 11 12 13 13
REMARK SMILES IDX 10 14 94 15 14 16 89 17 5 18 6 19 4 20 2 21 1 22 3 23 90 24
REMARK SMILES IDX 91 25 92 26 93 27 21 28 22 29 23 30 24 31 25 33 26 34 27 35
REMARK SMILES IDX 88 36 28 37 87 38 29 39 30 40 31 41 81 42 32 43 86 44 80 45
REMARK SMILES IDX 82 46 33 47 85 48 79 49 78 50 34 52 66 53 46 54 65 55 47 56
REMARK SMILES IDX 50 57 64 58 83 59 48 60 49 61 63 63 84 64 51 65 35 66 36 67
REMARK SMILES IDX 44 68 37 69 38 70 42 71 45 72 39 73 40 74 43 75 41 76 67 77
REMARK SMILES IDX 68 78 76 79 69 80 70 81 74 82 77 83 71 84 72 85 75 86 73 87
REMARK SMILES IDX 52 88 53 89 61 90 54 91 55 92 59 93 62 94 56 95 57 96 60 97
REMARK SMILES IDX 58 98
REMARK H PARENT 18 6 23 32 82 51 50 62
REMARK Flexibility Score: inf
ROOT
ATOM      1  C   UNL A   1      32.125  30.064  26.803  1.00  0.00     0.023 C 
ENDROOT
BRANCH   1   2
ATOM      2  C   UNL A   1      33.361  29.577  26.047  1.00  0.00     0.116 C 
BRANCH   2   3
ATOM      3  N   UNL A   1      33.167  29.673  24.615  1.00  0.00    -0.352 N 
ATOM      4  C   UNL A   1      32.896  28.779  23.635  1.00  0.00     0.251 C 
ATOM      5  O   UNL A   1      32.709  29.237  22.505  1.00  0.00    -0.270 OA
ATOM      6  H   UNL A   1      33.252  30.595  24.279  1.00  0.00     0.163 HD
BRANCH   4   7
ATOM      7  C   UNL A   1      32.797  27.311  23.865  1.00  0.00     0.067 C 
ATOM      8  C   UNL A   1      33.866  22.610  25.397  1.00  0.00     0.059 A 
ATOM      9  C   UNL A   1      32.726  23.258  24.896  1.00  0.00     0.074 A 
ATOM     10  C   UNL A   1      35.065  23.352  25.448  1.00  0.00     0.065 A 
ATOM     11  C   UNL A   1      32.762  24.597  24.507  1.00  0.00     0.130 A 
ATOM     12  C   UNL A   1      35.091  24.707  25.097  1.00  0.00     0.034 A 
ATOM     13  Cl  UNL A   1      36.569  22.635  25.920  1.00  0.00    -0.082 Cl
ATOM     14  C   UNL A   1      33.934  25.335  24.633  1.00  0.00     0.019 A 
ATOM     15  O   UNL A   1      31.605  25.100  23.992  1.00  0.00    -0.475 OA
ATOM     16  C   UNL A   1      33.940  26.744  24.283  1.00  0.00     0.025 C 
ATOM     17  C   UNL A   1      31.511  26.532  23.757  1.00  0.00     0.314 C 
BRANCH   8  18
ATOM     18  N   UNL A   1      33.786  21.280  25.836  1.00  0.00    -0.373 N 
ATOM     19  C   UNL A   1      33.894  21.107  27.283  1.00  0.00     0.143 C 
BRANCH  18  20
ATOM     20  C   UNL A   1      34.477  20.272  25.004  1.00  0.00     0.119 C 
BRANCH  20  21
ATOM     21  C   UNL A   1      33.601  19.033  24.728  1.00  0.00     0.002 C 
ATOM     22  C   UNL A   1      32.549  19.300  23.646  1.00  0.00     0.009 C 
ATOM     23  C   UNL A   1      34.461  17.841  24.297  1.00  0.00     0.009 C 
ENDBRANCH  20  21
ENDBRANCH  18  20
ENDBRANCH   8  18
BRANCH  17  24
ATOM     24  C   UNL A   1      30.349  27.072  24.609  1.00  0.00     0.429 C 
ATOM     25  F   UNL A   1      30.687  27.235  25.908  1.00  0.00    -0.167 F 
ATOM     26  F   UNL A   1      29.869  28.257  24.174  1.00  0.00    -0.167 F 
ATOM     27  F   UNL A   1      29.311  26.194  24.574  1.00  0.00    -0.167 F 
ENDBRANCH  17  24
ENDBRANCH   4   7
ENDBRANCH   2   3
ENDBRANCH   1   2
BRANCH   1  28
ATOM     28  C   UNL A   1      31.879  31.569  26.697  1.00  0.00     0.023 C 
BRANCH  28  29
ATOM     29  C   UNL A   1      32.891  32.434  27.434  1.00  0.00     0.116 C 
BRANCH  29  30
ATOM     30  N   UNL A   1      32.454  33.810  27.630  1.00  0.00    -0.352 N 
ATOM     31  C   UNL A   1      32.985  34.755  28.477  1.00  0.00     0.251 C 
ATOM     32  H   UNL A   1      31.684  34.101  27.088  1.00  0.00     0.163 HD
ATOM     33  O   UNL A   1      32.469  35.860  28.601  1.00  0.00    -0.269 OA
BRANCH  31  34
ATOM     34  C   UNL A   1      34.165  34.383  29.278  1.00  0.00     0.039 A 
ATOM     35  C   UNL A   1      35.444  34.558  28.746  1.00  0.00     0.014 A 
ATOM     36  C   UNL A   1      33.979  33.734  30.499  1.00  0.00     0.014 A 
ATOM     37  C   UNL A   1      36.518  33.917  29.343  1.00  0.00     0.010 A 
ATOM     38  C   UNL A   1      35.079  33.167  31.145  1.00  0.00     0.010 A 
ATOM     39  C   UNL A   1      36.347  33.205  30.542  1.00  0.00    -0.014 A 
BRANCH  39  40
ATOM     40  C   UNL A   1      37.504  32.491  31.135  1.00  0.00     0.031 A 
ATOM     41  C   UNL A   1      37.981  32.818  32.524  1.00  0.00     0.074 A 
ATOM     42  C   UNL A   1      38.087  31.499  30.435  1.00  0.00     0.049 A 
ATOM     43  N   UNL A   1      38.998  32.324  33.184  1.00  0.00    -0.248 NA
ATOM     44  C   UNL A   1      37.222  33.835  33.271  1.00  0.00     0.031 C 
ATOM     45  C   UNL A   1      37.691  31.074  29.091  1.00  0.00     0.029 A 
ATOM     46  N   UNL A   1      39.114  30.653  30.762  1.00  0.00    -0.354 N 
ATOM     47  C   UNL A   1      39.019  32.986  34.405  1.00  0.00     0.074 A 
ATOM     48  C   UNL A   1      37.922  33.929  34.394  1.00  0.00     0.031 C 
ATOM     49  C   UNL A   1      38.426  30.014  28.731  1.00  0.00     0.029 A 
ATOM     50  C   UNL A   1      39.396  29.732  29.784  1.00  0.00     0.049 A 
ATOM     51  H   UNL A   1      39.601  30.700  31.616  1.00  0.00     0.167 HD
ATOM     52  C   UNL A   1      39.876  32.815  35.440  1.00  0.00     0.037 A 
ATOM     53  C   UNL A   1      40.347  28.782  29.728  1.00  0.00     0.037 A 
ATOM     54  C   UNL A   1      40.943  31.849  35.459  1.00  0.00     0.049 A 
ATOM     55  C   UNL A   1      41.299  28.637  30.878  1.00  0.00     0.074 A 
ATOM     56  C   UNL A   1      41.857  31.592  36.466  1.00  0.00     0.029 A 
ATOM     57  N   UNL A   1      41.231  30.970  34.425  1.00  0.00    -0.354 N 
ATOM     58  N   UNL A   1      41.330  29.293  32.011  1.00  0.00    -0.248 NA
ATOM     59  C   UNL A   1      42.358  27.630  30.734  1.00  0.00     0.031 C 
ATOM     60  C   UNL A   1      42.718  30.581  36.029  1.00  0.00     0.029 A 
ATOM     61  C   UNL A   1      42.316  30.179  34.765  1.00  0.00     0.049 A 
ATOM     62  H   UNL A   1      40.736  30.916  33.575  1.00  0.00     0.167 HD
ATOM     63  C   UNL A   1      42.409  28.783  32.716  1.00  0.00     0.074 A 
ATOM     64  C   UNL A   1      42.990  27.741  31.895  1.00  0.00     0.031 C 
ATOM     65  C   UNL A   1      42.883  29.153  33.930  1.00  0.00     0.037 A 
BRANCH  52  66
ATOM     66  C   UNL A   1      39.712  33.695  36.645  1.00  0.00     0.064 A 
ATOM     67  C   UNL A   1      40.302  34.965  36.713  1.00  0.00     0.173 A 
ATOM     68  C   UNL A   1      38.884  33.296  37.706  1.00  0.00     0.173 A 
ATOM     69  F   UNL A   1      41.111  35.388  35.731  1.00  0.00    -0.203 F 
ATOM     70  C   UNL A   1      40.074  35.801  37.804  1.00  0.00     0.198 A 
ATOM     71  C   UNL A   1      38.640  34.144  38.783  1.00  0.00     0.198 A 
ATOM     72  F   UNL A   1      38.292  32.093  37.686  1.00  0.00    -0.203 F 
ATOM     73  F   UNL A   1      40.665  37.003  37.860  1.00  0.00    -0.200 F 
ATOM     74  C   UNL A   1      39.236  35.395  38.832  1.00  0.00     0.200 A 
ATOM     75  F   UNL A   1      37.821  33.754  39.769  1.00  0.00    -0.200 F 
ATOM     76  F   UNL A   1      39.002  36.209  39.871  1.00  0.00    -0.200 F 
ENDBRANCH  52  66
BRANCH  53  77
ATOM     77  C   UNL A   1      40.443  27.915  28.528  1.00  0.00     0.064 A 
ATOM     78  C   UNL A   1      41.189  28.311  27.411  1.00  0.00     0.173 A 
ATOM     79  C   UNL A   1      39.821  26.658  28.487  1.00  0.00     0.173 A 
ATOM     80  F   UNL A   1      41.784  29.513  27.396  1.00  0.00    -0.203 F 
ATOM     81  C   UNL A   1      41.307  27.485  26.297  1.00  0.00     0.198 A 
ATOM     82  C   UNL A   1      39.965  25.819  27.385  1.00  0.00     0.198 A 
ATOM     83  F   UNL A   1      39.100  26.231  29.534  1.00  0.00    -0.203 F 
ATOM     84  F   UNL A   1      42.004  27.898  25.229  1.00  0.00    -0.200 F 
ATOM     85  C   UNL A   1      40.705  26.235  26.289  1.00  0.00     0.200 A 
ATOM     86  F   UNL A   1      39.396  24.607  27.390  1.00  0.00    -0.200 F 
ATOM     87  F   UNL A   1      40.834  25.433  25.223  1.00  0.00    -0.200 F 
ENDBRANCH  53  77
BRANCH  65  88
ATOM     88  C   UNL A   1      44.086  28.423  34.444  1.00  0.00     0.064 A 
ATOM     89  C   UNL A   1      43.959  27.225  35.162  1.00  0.00     0.173 A 
ATOM     90  C   UNL A   1      45.378  28.900  34.180  1.00  0.00     0.173 A 
ATOM     91  F   UNL A   1      42.742  26.738  35.451  1.00  0.00    -0.203 F 
ATOM     92  C   UNL A   1      45.082  26.541  35.613  1.00  0.00     0.198 A 
ATOM     93  C   UNL A   1      46.500  28.200  34.612  1.00  0.00     0.198 A 
ATOM     94  F   UNL A   1      45.551  30.040  33.492  1.00  0.00    -0.203 F 
ATOM     95  F   UNL A   1      44.937  25.418  36.330  1.00  0.00    -0.200 F 
ATOM     96  C   UNL A   1      46.352  27.024  35.332  1.00  0.00     0.200 A 
ATOM     97  F   UNL A   1      47.726  28.664  34.331  1.00  0.00    -0.200 F 
ATOM     98  F   UNL A   1      47.433  26.360  35.763  1.00  0.00    -0.200 F 
ENDBRANCH  65  88
ENDBRANCH  39  40
ENDBRANCH  31  34
ENDBRANCH  29  30
ENDBRANCH  28  29
ENDBRANCH   1  28
TORSDOF 15
ENDMDL
MODEL 2
REMARK VINA RESULT:     -12.7      5.409      9.915
REMARK SMILES CC(C)CN(C)c1cc2c(cc1Cl)C=C(C(=O)NCCCCNC(=O)c1ccc(-c3c4nc(c(-c5c(F)c(F)c(F)c(F)c5F)c5ccc([nH]5)c(-c5c(F)c(F)c(F)c(F)c5F)c5nc(c(-c6c(F)c(F)c(F)c(F)c6F)c6ccc3[nH]6)C=C5)C=C4)cc1)[C@H](C(F)(F)F)O2
REMARK SMILES IDX 20 1 19 2 18 3 16 4 17 5 15 7 7 8 8 9 12 10 9 11 11 12 13 13
REMARK SMILES IDX 10 14 94 15 14 16 89 17 5 18 6 19 4 20 2 21 1 22 3 23 90 24
REMARK SMILES IDX 91 25 92 26 93 27 21 28 22 29 23 30 24 31 25 33 26 34 27 35
REMARK SMILES IDX 88 36 28 37 87 38 29 39 30 40 31 41 81 42 32 43 86 44 80 45
REMARK SMILES IDX 82 46 33 47 85 48 79 49 78 50 34 52 66 53 46 54 65 55 47 56
REMARK SMILES IDX 50 57 64 58 83 59 48 60 49 61 63 63 84 64 51 65 35 66 36 67
REMARK SMILES IDX 44 68 37 69 38 70 42 71 45 72 39 73 40 74 43 75 41 76 67 77
REMARK SMILES IDX 68 78 76 79 69 80 70 81 74 82 77 83 71 84 72 85 75 86 73 87
REMARK SMILES IDX 52 88 53 89 61 90 54 91 55 92 59 93 62 94 56 95 57 96 60 97
REMARK SMILES IDX 58 98
REMARK H PARENT 18 6 23 32 82 51 50 62
REMARK Flexibility Score: inf
ROOT
ATOM      1  C   UNL A   1      37.329  21.581  24.600  1.00  0.00     0.023 C 
ENDROOT
BRANCH   1   2
ATOM      2  C   UNL A   1      36.809  22.475  25.727  1.00  0.00     0.116 C 
BRANCH   2   3
ATOM      3  N   UNL A   1      35.792  21.795  26.503  1.00  0.00    -0.352 N 
ATOM      4  C   UNL A   1      34.448  21.915  26.613  1.00  0.00     0.251 C 
ATOM      5  O   UNL A   1      33.876  21.090  27.329  1.00  0.00    -0.270 OA
ATOM      6  H   UNL A   1      36.161  21.087  27.079  1.00  0.00     0.163 HD
BRANCH   4   7
ATOM      7  C   UNL A   1      33.656  22.961  25.909  1.00  0.00     0.067 C 
ATOM      8  C   UNL A   1      32.131  27.447  24.135  1.00  0.00     0.059 A 
ATOM      9  C   UNL A   1      31.812  26.108  23.859  1.00  0.00     0.074 A 
ATOM     10  C   UNL A   1      33.025  27.696  25.198  1.00  0.00     0.065 A 
ATOM     11  C   UNL A   1      32.391  25.060  24.576  1.00  0.00     0.130 A 
ATOM     12  C   UNL A   1      33.637  26.643  25.888  1.00  0.00     0.034 A 
ATOM     13  Cl  UNL A   1      33.398  29.303  25.725  1.00  0.00    -0.082 Cl
ATOM     14  C   UNL A   1      33.326  25.320  25.571  1.00  0.00     0.019 A 
ATOM     15  O   UNL A   1      31.966  23.807  24.248  1.00  0.00    -0.475 OA
ATOM     16  C   UNL A   1      33.967  24.217  26.265  1.00  0.00     0.025 C 
ATOM     17  C   UNL A   1      32.670  22.664  24.807  1.00  0.00     0.314 C 
BRANCH   8  18
ATOM     18  N   UNL A   1      31.579  28.477  23.360  1.00  0.00    -0.373 N 
ATOM     19  C   UNL A   1      32.528  29.154  22.478  1.00  0.00     0.143 C 
BRANCH  18  20
ATOM     20  C   UNL A   1      30.580  29.338  24.028  1.00  0.00     0.119 C 
BRANCH  20  21
ATOM     21  C   UNL A   1      29.419  29.732  23.092  1.00  0.00     0.002 C 
ATOM     22  C   UNL A   1      28.330  28.655  23.041  1.00  0.00     0.009 C 
ATOM     23  C   UNL A   1      28.785  31.054  23.535  1.00  0.00     0.009 C 
ENDBRANCH  20  21
ENDBRANCH  18  20
ENDBRANCH   8  18
BRANCH  17  24
ATOM     24  C   UNL A   1      33.232  21.840  23.635  1.00  0.00     0.429 C 
ATOM     25  F   UNL A   1      33.385  20.533  23.944  1.00  0.00    -0.167 F 
ATOM     26  F   UNL A   1      32.466  21.896  22.525  1.00  0.00    -0.167 F 
ATOM     27  F   UNL A   1      34.458  22.315  23.289  1.00  0.00    -0.167 F 
ENDBRANCH  17  24
ENDBRANCH   4   7
ENDBRANCH   2   3
ENDBRANCH   1   2
BRANCH   1  28
ATOM     28  C   UNL A   1      37.991  20.290  25.080  1.00  0.00     0.023 C 
BRANCH  28  29
ATOM     29  C   UNL A   1      39.331  20.481  25.775  1.00  0.00     0.116 C 
BRANCH  29  30
ATOM     30  N   UNL A   1      40.142  19.271  25.827  1.00  0.00    -0.352 N 
ATOM     31  C   UNL A   1      41.490  19.166  26.080  1.00  0.00     0.251 C 
ATOM     32  H   UNL A   1      39.667  18.424  25.661  1.00  0.00     0.163 HD
ATOM     33  O   UNL A   1      42.066  18.086  26.017  1.00  0.00    -0.269 OA
BRANCH  31  34
ATOM     34  C   UNL A   1      42.239  20.401  26.375  1.00  0.00     0.039 A 
ATOM     35  C   UNL A   1      42.272  20.892  27.681  1.00  0.00     0.014 A 
ATOM     36  C   UNL A   1      42.786  21.132  25.319  1.00  0.00     0.014 A 
ATOM     37  C   UNL A   1      42.682  22.198  27.902  1.00  0.00     0.010 A 
ATOM     38  C   UNL A   1      43.283  22.413  25.562  1.00  0.00     0.010 A 
ATOM     39  C   UNL A   1      43.181  22.977  26.844  1.00  0.00    -0.014 A 
BRANCH  39  40
ATOM     40  C   UNL A   1      43.570  24.386  27.100  1.00  0.00     0.031 A 
ATOM     41  C   UNL A   1      42.587  25.362  27.686  1.00  0.00     0.074 A 
ATOM     42  C   UNL A   1      44.840  24.765  26.858  1.00  0.00     0.049 A 
ATOM     43  N   UNL A   1      42.742  26.637  27.939  1.00  0.00    -0.248 NA
ATOM     44  C   UNL A   1      41.253  24.844  28.031  1.00  0.00     0.031 C 
ATOM     45  C   UNL A   1      45.887  23.897  26.318  1.00  0.00     0.029 A 
ATOM     46  N   UNL A   1      45.471  25.965  27.058  1.00  0.00    -0.354 N 
ATOM     47  C   UNL A   1      41.526  27.078  28.441  1.00  0.00     0.074 A 
ATOM     48  C   UNL A   1      40.632  25.940  28.448  1.00  0.00     0.031 C 
ATOM     49  C   UNL A   1      47.043  24.574  26.281  1.00  0.00     0.029 A 
ATOM     50  C   UNL A   1      46.802  25.944  26.721  1.00  0.00     0.049 A 
ATOM     51  H   UNL A   1      45.015  26.764  27.408  1.00  0.00     0.167 HD
ATOM     52  C   UNL A   1      41.190  28.321  28.863  1.00  0.00     0.037 A 
ATOM     53  C   UNL A   1      47.722  26.926  26.740  1.00  0.00     0.037 A 
ATOM     54  C   UNL A   1      42.095  29.441  28.889  1.00  0.00     0.049 A 
ATOM     55  C   UNL A   1      47.312  28.298  27.185  1.00  0.00     0.074 A 
ATOM     56  C   UNL A   1      41.852  30.737  29.310  1.00  0.00     0.029 A 
ATOM     57  N   UNL A   1      43.422  29.393  28.489  1.00  0.00    -0.354 N 
ATOM     58  N   UNL A   1      46.149  28.711  27.624  1.00  0.00    -0.248 NA
ATOM     59  C   UNL A   1      48.339  29.346  27.120  1.00  0.00     0.031 C 
ATOM     60  C   UNL A   1      43.023  31.482  29.133  1.00  0.00     0.029 A 
ATOM     61  C   UNL A   1      44.007  30.639  28.641  1.00  0.00     0.049 A 
ATOM     62  H   UNL A   1      43.881  28.591  28.148  1.00  0.00     0.167 HD
ATOM     63  C   UNL A   1      46.300  30.063  27.887  1.00  0.00     0.074 A 
ATOM     64  C   UNL A   1      47.677  30.397  27.587  1.00  0.00     0.031 C 
ATOM     65  C   UNL A   1      45.377  30.952  28.328  1.00  0.00     0.037 A 
BRANCH  52  66
ATOM     66  C   UNL A   1      39.781  28.554  29.326  1.00  0.00     0.064 A 
ATOM     67  C   UNL A   1      39.401  28.346  30.659  1.00  0.00     0.173 A 
ATOM     68  C   UNL A   1      38.823  29.073  28.442  1.00  0.00     0.173 A 
ATOM     69  F   UNL A   1      40.277  27.839  31.540  1.00  0.00    -0.203 F 
ATOM     70  C   UNL A   1      38.110  28.642  31.089  1.00  0.00     0.198 A 
ATOM     71  C   UNL A   1      37.539  29.390  28.881  1.00  0.00     0.198 A 
ATOM     72  F   UNL A   1      39.137  29.294  27.157  1.00  0.00    -0.203 F 
ATOM     73  F   UNL A   1      37.761  28.415  32.364  1.00  0.00    -0.200 F 
ATOM     74  C   UNL A   1      37.184  29.173  30.203  1.00  0.00     0.200 A 
ATOM     75  F   UNL A   1      36.650  29.914  28.026  1.00  0.00    -0.200 F 
ATOM     76  F   UNL A   1      35.948  29.477  30.624  1.00  0.00    -0.200 F 
ENDBRANCH  52  66
BRANCH  53  77
ATOM     77  C   UNL A   1      49.110  26.633  26.306  1.00  0.00     0.064 A 
ATOM     78  C   UNL A   1      49.511  26.850  24.982  1.00  0.00     0.173 A 
ATOM     79  C   UNL A   1      50.073  26.167  27.214  1.00  0.00     0.173 A 
ATOM     80  F   UNL A   1      48.620  27.276  24.074  1.00  0.00    -0.203 F 
ATOM     81  C   UNL A   1      50.822  26.607  24.580  1.00  0.00     0.198 A 
ATOM     82  C   UNL A   1      51.391  25.953  26.818  1.00  0.00     0.198 A 
ATOM     83  F   UNL A   1      49.740  25.949  28.495  1.00  0.00    -0.203 F 
ATOM     84  F   UNL A   1      51.174  26.795  23.301  1.00  0.00    -0.200 F 
ATOM     85  C   UNL A   1      51.763  26.170  25.500  1.00  0.00     0.200 A 
ATOM     86  F   UNL A   1      52.300  25.548  27.715  1.00  0.00    -0.200 F 
ATOM     87  F   UNL A   1      53.029  25.953  25.117  1.00  0.00    -0.200 F 
ENDBRANCH  53  77
BRANCH  65  88
ATOM     88  C   UNL A   1      45.829  32.368  28.515  1.00  0.00     0.064 A 
ATOM     89  C   UNL A   1      46.408  32.794  29.720  1.00  0.00     0.173 A 
ATOM     90  C   UNL A   1      45.723  33.296  27.470  1.00  0.00     0.173 A 
ATOM     91  F   UNL A   1      46.516  31.945  30.754  1.00  0.00    -0.203 F 
ATOM     92  C   UNL A   1      46.847  34.104  29.876  1.00  0.00     0.198 A 
ATOM     93  C   UNL A   1      46.186  34.599  27.621  1.00  0.00     0.198 A 
ATOM     94  F   UNL A   1      45.181  32.933  26.297  1.00  0.00    -0.203 F 
ATOM     95  F   UNL A   1      47.362  34.500  31.048  1.00  0.00    -0.200 F 
ATOM     96  C   UNL A   1      46.744  35.003  28.825  1.00  0.00     0.200 A 
ATOM     97  F   UNL A   1      46.094  35.464  26.602  1.00  0.00    -0.200 F 
ATOM     98  F   UNL A   1      47.173  36.264  28.976  1.00  0.00    -0.200 F 
ENDBRANCH  65  88
ENDBRANCH  39  40
ENDBRANCH  31  34
ENDBRANCH  29  30
ENDBRANCH  28  29
ENDBRANCH   1  28
TORSDOF 15
ENDMDL
MODEL 3
REMARK VINA RESULT:     -12.7      5.375     10.880
REMARK SMILES CC(C)CN(C)c1cc2c(cc1Cl)C=C(C(=O)NCCCCNC(=O)c1ccc(-c3c4nc(c(-c5c(F)c(F)c(F)c(F)c5F)c5ccc([nH]5)c(-c5c(F)c(F)c(F)c(F)c5F)c5nc(c(-c6c(F)c(F)c(F)c(F)c6F)c6ccc3[nH]6)C=C5)C=C4)cc1)[C@H](C(F)(F)F)O2
REMARK SMILES IDX 20 1 19 2 18 3 16 4 17 5 15 7 7 8 8 9 12 10 9 11 11 12 13 13
REMARK SMILES IDX 10 14 94 15 14 16 89 17 5 18 6 19 4 20 2 21 1 22 3 23 90 24
REMARK SMILES IDX 91 25 92 26 93 27 21 28 22 29 23 30 24 31 25 33 26 34 27 35
REMARK SMILES IDX 88 36 28 37 87 38 29 39 30 40 31 41 81 42 32 43 86 44 80 45
REMARK SMILES IDX 82 46 33 47 85 48 79 49 78 50 34 52 66 53 46 54 65 55 47 56
REMARK SMILES IDX 50 57 64 58 83 59 48 60 49 61 63 63 84 64 51 65 35 66 36 67
REMARK SMILES IDX 44 68 37 69 38 70 42 71 45 72 39 73 40 74 43 75 41 76 67 77
REMARK SMILES IDX 68 78 76 79 69 80 70 81 74 82 77 83 71 84 72 85 75 86 73 87
REMARK SMILES IDX 52 88 53 89 61 90 54 91 55 92 59 93 62 94 56 95 57 96 60 97
REMARK SMILES IDX 58 98
REMARK H PARENT 18 6 23 32 82 51 50 62
REMARK Flexibility Score: inf
ROOT
ATOM      1  C   UNL A   1      37.361  21.471  24.536  1.00  0.00     0.023 C 
ENDROOT
BRANCH   1   2
ATOM      2  C   UNL A   1      36.938  22.524  25.559  1.00  0.00     0.116 C 
BRANCH   2   3
ATOM      3  N   UNL A   1      36.000  21.974  26.516  1.00  0.00    -0.352 N 
ATOM      4  C   UNL A   1      34.673  22.131  26.738  1.00  0.00     0.251 C 
ATOM      5  O   UNL A   1      34.171  21.421  27.612  1.00  0.00    -0.270 OA
ATOM      6  H   UNL A   1      36.421  21.345  27.146  1.00  0.00     0.163 HD
BRANCH   4   7
ATOM      7  C   UNL A   1      33.819  23.084  25.977  1.00  0.00     0.067 C 
ATOM      8  C   UNL A   1      32.028  27.359  23.949  1.00  0.00     0.059 A 
ATOM      9  C   UNL A   1      31.789  25.989  23.754  1.00  0.00     0.074 A 
ATOM     10  C   UNL A   1      32.905  27.723  24.993  1.00  0.00     0.065 A 
ATOM     11  C   UNL A   1      32.431  25.021  24.528  1.00  0.00     0.130 A 
ATOM     12  C   UNL A   1      33.579  26.751  25.741  1.00  0.00     0.034 A 
ATOM     13  Cl  UNL A   1      33.180  29.377  25.424  1.00  0.00    -0.082 Cl
ATOM     14  C   UNL A   1      33.349  25.396  25.503  1.00  0.00     0.019 A 
ATOM     15  O   UNL A   1      32.082  23.729  24.276  1.00  0.00    -0.475 OA
ATOM     16  C   UNL A   1      34.054  24.375  26.258  1.00  0.00     0.025 C 
ATOM     17  C   UNL A   1      32.853  22.664  24.898  1.00  0.00     0.314 C 
BRANCH   8  18
ATOM     18  N   UNL A   1      31.414  28.307  23.118  1.00  0.00    -0.373 N 
ATOM     19  C   UNL A   1      32.340  29.125  22.337  1.00  0.00     0.143 C 
BRANCH  18  20
ATOM     20  C   UNL A   1      30.236  29.005  23.675  1.00  0.00     0.119 C 
BRANCH  20  21
ATOM     21  C   UNL A   1      28.928  28.630  22.949  1.00  0.00     0.002 C 
ATOM     22  C   UNL A   1      28.277  27.378  23.545  1.00  0.00     0.009 C 
ATOM     23  C   UNL A   1      27.923  29.784  23.004  1.00  0.00     0.009 C 
ENDBRANCH  20  21
ENDBRANCH  18  20
ENDBRANCH   8  18
BRANCH  17  24
ATOM     24  C   UNL A   1      33.463  21.808  23.775  1.00  0.00     0.429 C 
ATOM     25  F   UNL A   1      33.921  20.616  24.218  1.00  0.00    -0.167 F 
ATOM     26  F   UNL A   1      32.601  21.550  22.769  1.00  0.00    -0.167 F 
ATOM     27  F   UNL A   1      34.520  22.463  23.224  1.00  0.00    -0.167 F 
ENDBRANCH  17  24
ENDBRANCH   4   7
ENDBRANCH   2   3
ENDBRANCH   1   2
BRANCH   1  28
ATOM     28  C   UNL A   1      37.994  20.222  25.147  1.00  0.00     0.023 C 
BRANCH  28  29
ATOM     29  C   UNL A   1      39.365  20.443  25.770  1.00  0.00     0.116 C 
BRANCH  29  30
ATOM     30  N   UNL A   1      40.193  19.244  25.807  1.00  0.00    -0.352 N 
ATOM     31  C   UNL A   1      41.539  19.153  26.071  1.00  0.00     0.251 C 
ATOM     32  H   UNL A   1      39.731  18.394  25.622  1.00  0.00     0.163 HD
ATOM     33  O   UNL A   1      42.131  18.082  25.994  1.00  0.00    -0.269 OA
BRANCH  31  34
ATOM     34  C   UNL A   1      42.268  20.393  26.396  1.00  0.00     0.039 A 
ATOM     35  C   UNL A   1      42.299  20.849  27.715  1.00  0.00     0.014 A 
ATOM     36  C   UNL A   1      42.797  21.161  25.358  1.00  0.00     0.014 A 
ATOM     37  C   UNL A   1      42.687  22.156  27.969  1.00  0.00     0.010 A 
ATOM     38  C   UNL A   1      43.273  22.444  25.633  1.00  0.00     0.010 A 
ATOM     39  C   UNL A   1      43.167  22.971  26.930  1.00  0.00    -0.014 A 
BRANCH  39  40
ATOM     40  C   UNL A   1      43.534  24.379  27.222  1.00  0.00     0.031 A 
ATOM     41  C   UNL A   1      44.915  24.893  26.920  1.00  0.00     0.074 A 
ATOM     42  C   UNL A   1      42.591  25.211  27.705  1.00  0.00     0.049 A 
ATOM     43  N   UNL A   1      45.420  26.080  27.146  1.00  0.00    -0.248 NA
ATOM     44  C   UNL A   1      45.856  23.955  26.286  1.00  0.00     0.031 C 
ATOM     45  C   UNL A   1      41.211  24.831  28.009  1.00  0.00     0.029 A 
ATOM     46  N   UNL A   1      42.642  26.548  28.001  1.00  0.00    -0.354 N 
ATOM     47  C   UNL A   1      46.738  26.023  26.711  1.00  0.00     0.074 A 
ATOM     48  C   UNL A   1      46.964  24.681  26.220  1.00  0.00     0.031 C 
ATOM     49  C   UNL A   1      40.530  25.919  28.394  1.00  0.00     0.029 A 
ATOM     50  C   UNL A   1      41.443  27.056  28.438  1.00  0.00     0.049 A 
ATOM     51  H   UNL A   1      43.457  27.092  27.908  1.00  0.00     0.167 HD
ATOM     52  C   UNL A   1      47.670  27.006  26.719  1.00  0.00     0.037 A 
ATOM     53  C   UNL A   1      41.120  28.294  28.854  1.00  0.00     0.037 A 
ATOM     54  C   UNL A   1      47.428  28.350  27.175  1.00  0.00     0.049 A 
ATOM     55  C   UNL A   1      42.182  29.354  28.878  1.00  0.00     0.074 A 
ATOM     56  C   UNL A   1      48.305  29.420  27.212  1.00  0.00     0.029 A 
ATOM     57  N   UNL A   1      46.213  28.812  27.662  1.00  0.00    -0.354 N 
ATOM     58  N   UNL A   1      43.433  29.277  28.499  1.00  0.00    -0.248 NA
ATOM     59  C   UNL A   1      41.790  30.667  29.406  1.00  0.00     0.031 C 
ATOM     60  C   UNL A   1      47.631  30.520  27.752  1.00  0.00     0.029 A 
ATOM     61  C   UNL A   1      46.323  30.147  28.014  1.00  0.00     0.049 A 
ATOM     62  H   UNL A   1      45.396  28.270  27.745  1.00  0.00     0.167 HD
ATOM     63  C   UNL A   1      43.980  30.527  28.741  1.00  0.00     0.074 A 
ATOM     64  C   UNL A   1      42.917  31.354  29.273  1.00  0.00     0.031 C 
ATOM     65  C   UNL A   1      45.254  30.949  28.549  1.00  0.00     0.037 A 
BRANCH  52  66
ATOM     66  C   UNL A   1      49.050  26.675  26.230  1.00  0.00     0.064 A 
ATOM     67  C   UNL A   1      49.446  26.940  24.912  1.00  0.00     0.173 A 
ATOM     68  C   UNL A   1      50.011  26.166  27.117  1.00  0.00     0.173 A 
ATOM     69  F   UNL A   1      48.561  27.415  24.023  1.00  0.00    -0.203 F 
ATOM     70  C   UNL A   1      50.754  26.700  24.497  1.00  0.00     0.198 A 
ATOM     71  C   UNL A   1      51.324  25.950  26.704  1.00  0.00     0.198 A 
ATOM     72  F   UNL A   1      49.684  25.900  28.390  1.00  0.00    -0.203 F 
ATOM     73  F   UNL A   1      51.107  26.939  23.225  1.00  0.00    -0.200 F 
ATOM     74  C   UNL A   1      51.694  26.215  25.395  1.00  0.00     0.200 A 
ATOM     75  F   UNL A   1      52.233  25.492  27.576  1.00  0.00    -0.200 F 
ATOM     76  F   UNL A   1      52.957  26.004  24.998  1.00  0.00    -0.200 F 
ENDBRANCH  52  66
BRANCH  53  77
ATOM     77  C   UNL A   1      39.731  28.578  29.293  1.00  0.00     0.064 A 
ATOM     78  C   UNL A   1      39.336  28.354  30.618  1.00  0.00     0.173 A 
ATOM     79  C   UNL A   1      38.783  29.111  28.408  1.00  0.00     0.173 A 
ATOM     80  F   UNL A   1      40.203  27.827  31.495  1.00  0.00    -0.203 F 
ATOM     81  C   UNL A   1      38.043  28.650  31.040  1.00  0.00     0.198 A 
ATOM     82  C   UNL A   1      37.499  29.435  28.838  1.00  0.00     0.198 A 
ATOM     83  F   UNL A   1      39.115  29.348  27.130  1.00  0.00    -0.203 F 
ATOM     84  F   UNL A   1      37.680  28.401  32.306  1.00  0.00    -0.200 F 
ATOM     85  C   UNL A   1      37.129  29.200  30.153  1.00  0.00     0.200 A 
ATOM     86  F   UNL A   1      36.626  29.982  27.982  1.00  0.00    -0.200 F 
ATOM     87  F   UNL A   1      35.890  29.501  30.565  1.00  0.00    -0.200 F 
ENDBRANCH  53  77
BRANCH  65  88
ATOM     88  C   UNL A   1      45.564  32.369  28.914  1.00  0.00     0.064 A 
ATOM     89  C   UNL A   1      46.089  32.698  30.172  1.00  0.00     0.173 A 
ATOM     90  C   UNL A   1      45.376  33.403  27.986  1.00  0.00     0.173 A 
ATOM     91  F   UNL A   1      46.272  31.744  31.098  1.00  0.00    -0.203 F 
ATOM     92  C   UNL A   1      46.398  34.015  30.494  1.00  0.00     0.198 A 
ATOM     93  C   UNL A   1      45.709  34.716  28.303  1.00  0.00     0.198 A 
ATOM     94  F   UNL A   1      44.880  33.136  26.768  1.00  0.00    -0.203 F 
ATOM     95  F   UNL A   1      46.863  34.314  31.714  1.00  0.00    -0.200 F 
ATOM     96  C   UNL A   1      46.215  35.022  29.557  1.00  0.00     0.200 A 
ATOM     97  F   UNL A   1      45.540  35.686  27.393  1.00  0.00    -0.200 F 
ATOM     98  F   UNL A   1      46.519  36.290  29.867  1.00  0.00    -0.200 F 
ENDBRANCH  65  88
ENDBRANCH  39  40
ENDBRANCH  31  34
ENDBRANCH  29  30
ENDBRANCH  28  29
ENDBRANCH   1  28
TORSDOF 15
ENDMDL
