MODEL 1
REMARK VINA RESULT:     -12.3      0.000      0.000
REMARK SMILES Cc1cc2c(c(C)c1Cl)C=C(C(=O)NCCCCNC(=O)c1ccc(-c3c4nc(c(-c5c(F)c(F)c(F)c(F)c5F)c5ccc([nH]5)c(-c5c(F)c(F)c(F)c(F)c5F)c5nc(c(-c6c(F)c(F)c(F)c(F)c6F)c6ccc3[nH]6)C=C5)C=C4)cc1)[C@@H](C(F)(F)F)O2
REMARK SMILES IDX 17 1 16 2 15 3 14 4 12 5 13 6 11 8 1 9 2 10 3 11 8 12 4 13
REMARK SMILES IDX 6 14 9 15 5 16 90 17 7 18 10 19 85 20 86 21 87 22 88 23
REMARK SMILES IDX 89 24 18 25 19 26 20 27 21 29 22 30 23 31 84 32 24 33 83 34
REMARK SMILES IDX 25 35 26 36 27 37 77 38 28 39 82 40 76 41 78 42 29 43 81 44
REMARK SMILES IDX 75 45 74 46 30 48 62 49 42 50 61 51 43 52 46 53 60 54 79 55
REMARK SMILES IDX 44 56 45 57 59 59 80 60 47 61 31 62 32 63 40 64 33 65 34 66
REMARK SMILES IDX 38 67 41 68 35 69 36 70 39 71 37 72 63 73 64 74 72 75 65 76
REMARK SMILES IDX 66 77 70 78 73 79 67 80 68 81 71 82 69 83 48 84 49 85 57 86
REMARK SMILES IDX 50 87 51 88 55 89 58 90 52 91 53 92 56 93 54 94
REMARK H PARENT 14 7 19 28 78 47 46 58
REMARK Flexibility Score: inf
ROOT
ATOM      1  C   UNL A   1      35.636  23.285  26.076  1.00  0.00     0.023 C 
ENDROOT
BRANCH   1   2
ATOM      2  C   UNL A   1      34.419  24.194  25.889  1.00  0.00     0.023 C 
BRANCH   2   3
ATOM      3  C   UNL A   1      33.436  23.708  24.829  1.00  0.00     0.116 C 
BRANCH   3   4
ATOM      4  N   UNL A   1      33.716  24.284  23.527  1.00  0.00    -0.352 N 
ATOM      5  C   UNL A   1      33.509  25.469  22.905  1.00  0.00     0.251 C 
ATOM      6  O   UNL A   1      33.921  25.525  21.742  1.00  0.00    -0.270 OA
ATOM      7  H   UNL A   1      34.180  23.645  22.940  1.00  0.00     0.163 HD
BRANCH   5   8
ATOM      8  C   UNL A   1      32.842  26.660  23.512  1.00  0.00     0.067 C 
ATOM      9  C   UNL A   1      31.167  32.094  26.692  1.00  0.00     0.046 C 
ATOM     10  C   UNL A   1      31.828  30.850  26.167  1.00  0.00    -0.028 A 
ATOM     11  C   UNL A   1      31.211  30.161  25.118  1.00  0.00     0.052 A 
ATOM     12  C   UNL A   1      33.065  30.378  26.654  1.00  0.00     0.047 A 
ATOM     13  C   UNL A   1      31.795  29.019  24.582  1.00  0.00     0.128 A 
ATOM     14  C   UNL A   1      33.667  29.211  26.120  1.00  0.00    -0.021 A 
ATOM     15  Cl  UNL A   1      33.852  31.282  27.914  1.00  0.00    -0.084 Cl
ATOM     16  C   UNL A   1      33.017  28.537  25.057  1.00  0.00     0.022 A 
ATOM     17  O   UNL A   1      31.118  28.452  23.540  1.00  0.00    -0.475 OA
ATOM     18  C   UNL A   1      34.985  28.687  26.641  1.00  0.00     0.047 C 
ATOM     19  C   UNL A   1      33.589  27.367  24.380  1.00  0.00     0.026 C 
ATOM     20  C   UNL A   1      31.425  27.067  23.242  1.00  0.00     0.314 C 
BRANCH  20  21
ATOM     21  C   UNL A   1      30.398  26.154  23.938  1.00  0.00     0.429 C 
ATOM     22  F   UNL A   1      29.175  26.740  23.948  1.00  0.00    -0.167 F 
ATOM     23  F   UNL A   1      30.247  24.967  23.304  1.00  0.00    -0.167 F 
ATOM     24  F   UNL A   1      30.729  25.878  25.219  1.00  0.00    -0.167 F 
ENDBRANCH  20  21
ENDBRANCH   5   8
ENDBRANCH   3   4
ENDBRANCH   2   3
ENDBRANCH   1   2
BRANCH   1  25
ATOM     25  C   UNL A   1      36.929  23.781  25.434  1.00  0.00     0.116 C 
BRANCH  25  26
ATOM     26  N   UNL A   1      38.056  22.873  25.599  1.00  0.00    -0.352 N 
ATOM     27  C   UNL A   1      39.249  23.112  26.237  1.00  0.00     0.251 C 
ATOM     28  H   UNL A   1      37.950  21.978  25.204  1.00  0.00     0.163 HD
ATOM     29  O   UNL A   1      40.144  22.274  26.239  1.00  0.00    -0.269 OA
BRANCH  27  30
ATOM     30  C   UNL A   1      39.452  24.422  26.881  1.00  0.00     0.039 A 
ATOM     31  C   UNL A   1      39.037  24.591  28.203  1.00  0.00     0.014 A 
ATOM     32  C   UNL A   1      40.123  25.442  26.201  1.00  0.00     0.014 A 
ATOM     33  C   UNL A   1      39.366  25.766  28.876  1.00  0.00     0.010 A 
ATOM     34  C   UNL A   1      40.502  26.587  26.892  1.00  0.00     0.010 A 
ATOM     35  C   UNL A   1      40.134  26.754  28.236  1.00  0.00    -0.014 A 
BRANCH  35  36
ATOM     36  C   UNL A   1      40.564  27.971  28.961  1.00  0.00     0.031 A 
ATOM     37  C   UNL A   1      41.982  28.098  29.431  1.00  0.00     0.074 A 
ATOM     38  C   UNL A   1      39.664  28.934  29.240  1.00  0.00     0.049 A 
ATOM     39  N   UNL A   1      42.539  29.055  30.127  1.00  0.00    -0.248 NA
ATOM     40  C   UNL A   1      42.890  26.990  29.094  1.00  0.00     0.031 C 
ATOM     41  C   UNL A   1      38.247  28.900  28.869  1.00  0.00     0.029 A 
ATOM     42  N   UNL A   1      39.805  30.127  29.902  1.00  0.00    -0.354 N 
ATOM     43  C   UNL A   1      43.857  28.662  30.316  1.00  0.00     0.074 A 
ATOM     44  C   UNL A   1      44.004  27.357  29.711  1.00  0.00     0.031 C 
ATOM     45  C   UNL A   1      37.659  30.035  29.280  1.00  0.00     0.029 A 
ATOM     46  C   UNL A   1      38.647  30.860  29.970  1.00  0.00     0.049 A 
ATOM     47  H   UNL A   1      40.658  30.428  30.293  1.00  0.00     0.167 HD
ATOM     48  C   UNL A   1      44.859  29.344  30.916  1.00  0.00     0.037 A 
ATOM     49  C   UNL A   1      38.413  32.066  30.521  1.00  0.00     0.037 A 
ATOM     50  C   UNL A   1      44.716  30.653  31.493  1.00  0.00     0.049 A 
ATOM     51  C   UNL A   1      39.543  32.798  31.190  1.00  0.00     0.074 A 
ATOM     52  C   UNL A   1      45.682  31.445  32.086  1.00  0.00     0.029 A 
ATOM     53  N   UNL A   1      43.526  31.365  31.542  1.00  0.00    -0.354 N 
ATOM     54  N   UNL A   1      40.795  32.437  31.324  1.00  0.00    -0.248 NA
ATOM     55  C   UNL A   1      39.227  34.105  31.784  1.00  0.00     0.031 C 
ATOM     56  C   UNL A   1      45.072  32.626  32.519  1.00  0.00     0.029 A 
ATOM     57  C   UNL A   1      43.733  32.583  32.167  1.00  0.00     0.049 A 
ATOM     58  H   UNL A   1      42.664  31.050  31.187  1.00  0.00     0.167 HD
ATOM     59  C   UNL A   1      41.422  33.476  31.999  1.00  0.00     0.074 A 
ATOM     60  C   UNL A   1      40.414  34.489  32.236  1.00  0.00     0.031 C 
ATOM     61  C   UNL A   1      42.716  33.579  32.388  1.00  0.00     0.037 A 
BRANCH  48  62
ATOM     62  C   UNL A   1      46.207  28.690  30.962  1.00  0.00     0.064 A 
ATOM     63  C   UNL A   1      47.150  28.897  29.944  1.00  0.00     0.173 A 
ATOM     64  C   UNL A   1      46.575  27.879  32.045  1.00  0.00     0.173 A 
ATOM     65  F   UNL A   1      46.839  29.653  28.879  1.00  0.00    -0.203 F 
ATOM     66  C   UNL A   1      48.406  28.299  29.999  1.00  0.00     0.198 A 
ATOM     67  C   UNL A   1      47.839  27.303  32.109  1.00  0.00     0.198 A 
ATOM     68  F   UNL A   1      45.708  27.651  33.044  1.00  0.00    -0.203 F 
ATOM     69  F   UNL A   1      49.276  28.478  28.995  1.00  0.00    -0.200 F 
ATOM     70  C   UNL A   1      48.752  27.508  31.084  1.00  0.00     0.200 A 
ATOM     71  F   UNL A   1      48.177  26.545  33.162  1.00  0.00    -0.200 F 
ATOM     72  F   UNL A   1      49.963  26.938  31.140  1.00  0.00    -0.200 F 
ENDBRANCH  48  62
BRANCH  49  73
ATOM     73  C   UNL A   1      37.062  32.673  30.421  1.00  0.00     0.064 A 
ATOM     74  C   UNL A   1      36.109  32.458  31.425  1.00  0.00     0.173 A 
ATOM     75  C   UNL A   1      36.702  33.490  29.340  1.00  0.00     0.173 A 
ATOM     76  F   UNL A   1      36.402  31.668  32.468  1.00  0.00    -0.203 F 
ATOM     77  C   UNL A   1      34.841  33.030  31.349  1.00  0.00     0.198 A 
ATOM     78  C   UNL A   1      35.441  34.080  29.275  1.00  0.00     0.198 A 
ATOM     79  F   UNL A   1      37.582  33.729  28.357  1.00  0.00    -0.203 F 
ATOM     80  F   UNL A   1      33.939  32.785  32.307  1.00  0.00    -0.200 F 
ATOM     81  C   UNL A   1      34.510  33.846  30.276  1.00  0.00     0.200 A 
ATOM     82  F   UNL A   1      35.128  34.876  28.243  1.00  0.00    -0.200 F 
ATOM     83  F   UNL A   1      33.294  34.403  30.206  1.00  0.00    -0.200 F 
ENDBRANCH  49  73
BRANCH  61  84
ATOM     84  C   UNL A   1      43.126  34.834  33.098  1.00  0.00     0.064 A 
ATOM     85  C   UNL A   1      43.154  34.902  34.497  1.00  0.00     0.173 A 
ATOM     86  C   UNL A   1      43.568  35.949  32.371  1.00  0.00     0.173 A 
ATOM     87  F   UNL A   1      42.727  33.864  35.233  1.00  0.00    -0.203 F 
ATOM     88  C   UNL A   1      43.603  36.048  35.145  1.00  0.00     0.198 A 
ATOM     89  C   UNL A   1      44.038  37.085  33.023  1.00  0.00     0.198 A 
ATOM     90  F   UNL A   1      43.565  35.927  31.030  1.00  0.00    -0.203 F 
ATOM     91  F   UNL A   1      43.598  36.103  36.484  1.00  0.00    -0.200 F 
ATOM     92  C   UNL A   1      44.053  37.134  34.409  1.00  0.00     0.200 A 
ATOM     93  F   UNL A   1      44.483  38.129  32.311  1.00  0.00    -0.200 F 
ATOM     94  F   UNL A   1      44.501  38.231  35.036  1.00  0.00    -0.200 F 
ENDBRANCH  61  84
ENDBRANCH  35  36
ENDBRANCH  27  30
ENDBRANCH  25  26
ENDBRANCH   1  25
TORSDOF 12
ENDMDL
MODEL 2
REMARK VINA RESULT:     -12.3      3.734      8.634
REMARK SMILES Cc1cc2c(c(C)c1Cl)C=C(C(=O)NCCCCNC(=O)c1ccc(-c3c4nc(c(-c5c(F)c(F)c(F)c(F)c5F)c5ccc([nH]5)c(-c5c(F)c(F)c(F)c(F)c5F)c5nc(c(-c6c(F)c(F)c(F)c(F)c6F)c6ccc3[nH]6)C=C5)C=C4)cc1)[C@@H](C(F)(F)F)O2
REMARK SMILES IDX 17 1 16 2 15 3 14 4 12 5 13 6 11 8 1 9 2 10 3 11 8 12 4 13
REMARK SMILES IDX 6 14 9 15 5 16 90 17 7 18 10 19 85 20 86 21 87 22 88 23
REMARK SMILES IDX 89 24 18 25 19 26 20 27 21 29 22 30 23 31 84 32 24 33 83 34
REMARK SMILES IDX 25 35 26 36 27 37 77 38 28 39 82 40 76 41 78 42 29 43 81 44
REMARK SMILES IDX 75 45 74 46 30 48 62 49 42 50 61 51 43 52 46 53 60 54 79 55
REMARK SMILES IDX 44 56 45 57 59 59 80 60 47 61 31 62 32 63 40 64 33 65 34 66
REMARK SMILES IDX 38 67 41 68 35 69 36 70 39 71 37 72 63 73 64 74 72 75 65 76
REMARK SMILES IDX 66 77 70 78 73 79 67 80 68 81 71 82 69 83 48 84 49 85 57 86
REMARK SMILES IDX 50 87 51 88 55 89 58 90 52 91 53 92 56 93 54 94
REMARK H PARENT 14 7 19 28 78 47 46 58
REMARK Flexibility Score: inf
ROOT
ATOM      1  C   UNL A   1      31.538  31.943  26.720  1.00  0.00     0.023 C 
ENDROOT
BRANCH   1   2
ATOM      2  C   UNL A   1      31.811  30.457  26.476  1.00  0.00     0.023 C 
BRANCH   2   3
ATOM      3  C   UNL A   1      33.241  30.149  26.042  1.00  0.00     0.116 C 
BRANCH   3   4
ATOM      4  N   UNL A   1      33.296  29.646  24.682  1.00  0.00    -0.352 N 
ATOM      5  C   UNL A   1      33.231  28.440  24.070  1.00  0.00     0.251 C 
ATOM      6  O   UNL A   1      33.334  28.474  22.840  1.00  0.00    -0.270 OA
ATOM      7  H   UNL A   1      33.411  30.375  24.031  1.00  0.00     0.163 HD
BRANCH   5   8
ATOM      8  C   UNL A   1      33.050  27.128  24.761  1.00  0.00     0.067 C 
ATOM      9  C   UNL A   1      33.472  21.111  27.226  1.00  0.00     0.046 C 
ATOM     10  C   UNL A   1      33.625  22.389  26.448  1.00  0.00    -0.028 A 
ATOM     11  C   UNL A   1      32.825  23.481  26.799  1.00  0.00     0.052 A 
ATOM     12  C   UNL A   1      34.573  22.546  25.416  1.00  0.00     0.047 A 
ATOM     13  C   UNL A   1      32.947  24.692  26.125  1.00  0.00     0.128 A 
ATOM     14  C   UNL A   1      34.702  23.772  24.718  1.00  0.00    -0.021 A 
ATOM     15  Cl  UNL A   1      35.606  21.199  25.035  1.00  0.00    -0.084 Cl
ATOM     16  C   UNL A   1      33.878  24.860  25.097  1.00  0.00     0.022 A 
ATOM     17  O   UNL A   1      32.138  25.694  26.578  1.00  0.00    -0.475 OA
ATOM     18  C   UNL A   1      35.703  23.950  23.600  1.00  0.00     0.047 C 
ATOM     19  C   UNL A   1      33.982  26.194  24.494  1.00  0.00     0.026 C 
ATOM     20  C   UNL A   1      31.904  26.800  25.670  1.00  0.00     0.314 C 
BRANCH  20  21
ATOM     21  C   UNL A   1      30.585  26.566  24.909  1.00  0.00     0.429 C 
ATOM     22  F   UNL A   1      30.099  27.740  24.432  1.00  0.00    -0.167 F 
ATOM     23  F   UNL A   1      30.744  25.756  23.835  1.00  0.00    -0.167 F 
ATOM     24  F   UNL A   1      29.627  26.012  25.683  1.00  0.00    -0.167 F 
ENDBRANCH  20  21
ENDBRANCH   5   8
ENDBRANCH   3   4
ENDBRANCH   2   3
ENDBRANCH   1   2
BRANCH   1  25
ATOM     25  C   UNL A   1      32.697  32.729  27.327  1.00  0.00     0.116 C 
BRANCH  25  26
ATOM     26  N   UNL A   1      32.366  34.110  27.652  1.00  0.00    -0.352 N 
ATOM     27  C   UNL A   1      32.981  34.937  28.561  1.00  0.00     0.251 C 
ATOM     28  H   UNL A   1      31.609  34.500  27.159  1.00  0.00     0.163 HD
ATOM     29  O   UNL A   1      32.550  36.063  28.785  1.00  0.00    -0.269 OA
BRANCH  27  30
ATOM     30  C   UNL A   1      34.145  34.422  29.303  1.00  0.00     0.039 A 
ATOM     31  C   UNL A   1      33.925  33.675  30.461  1.00  0.00     0.014 A 
ATOM     32  C   UNL A   1      35.436  34.612  28.804  1.00  0.00     0.014 A 
ATOM     33  C   UNL A   1      35.003  33.047  31.083  1.00  0.00     0.010 A 
ATOM     34  C   UNL A   1      36.500  33.935  29.390  1.00  0.00     0.010 A 
ATOM     35  C   UNL A   1      36.290  33.142  30.528  1.00  0.00    -0.014 A 
BRANCH  35  36
ATOM     36  C   UNL A   1      37.433  32.414  31.126  1.00  0.00     0.031 A 
ATOM     37  C   UNL A   1      37.919  32.784  32.495  1.00  0.00     0.074 A 
ATOM     38  C   UNL A   1      38.061  31.459  30.413  1.00  0.00     0.049 A 
ATOM     39  N   UNL A   1      38.934  32.306  33.168  1.00  0.00    -0.248 NA
ATOM     40  C   UNL A   1      37.182  33.850  33.192  1.00  0.00     0.031 C 
ATOM     41  C   UNL A   1      37.701  31.042  29.056  1.00  0.00     0.029 A 
ATOM     42  N   UNL A   1      39.134  30.666  30.730  1.00  0.00    -0.354 N 
ATOM     43  C   UNL A   1      38.960  33.016  34.360  1.00  0.00     0.074 A 
ATOM     44  C   UNL A   1      37.896  33.994  34.298  1.00  0.00     0.031 C 
ATOM     45  C   UNL A   1      38.518  30.049  28.671  1.00  0.00     0.029 A 
ATOM     46  C   UNL A   1      39.477  29.781  29.739  1.00  0.00     0.049 A 
ATOM     47  H   UNL A   1      39.614  30.727  31.588  1.00  0.00     0.167 HD
ATOM     48  C   UNL A   1      39.781  32.847  35.422  1.00  0.00     0.037 A 
ATOM     49  C   UNL A   1      40.452  28.853  29.701  1.00  0.00     0.037 A 
ATOM     50  C   UNL A   1      40.820  31.855  35.491  1.00  0.00     0.049 A 
ATOM     51  C   UNL A   1      41.356  28.691  30.891  1.00  0.00     0.074 A 
ATOM     52  C   UNL A   1      41.677  31.575  36.540  1.00  0.00     0.029 A 
ATOM     53  N   UNL A   1      41.138  30.976  34.466  1.00  0.00    -0.354 N 
ATOM     54  N   UNL A   1      41.344  29.338  32.031  1.00  0.00    -0.248 NA
ATOM     55  C   UNL A   1      42.410  27.671  30.790  1.00  0.00     0.031 C 
ATOM     56  C   UNL A   1      42.533  30.545  36.140  1.00  0.00     0.029 A 
ATOM     57  C   UNL A   1      42.187  30.160  34.854  1.00  0.00     0.049 A 
ATOM     58  H   UNL A   1      40.685  30.938  33.593  1.00  0.00     0.167 HD
ATOM     59  C   UNL A   1      42.371  28.794  32.790  1.00  0.00     0.074 A 
ATOM     60  C   UNL A   1      42.979  27.754  31.986  1.00  0.00     0.031 C 
ATOM     61  C   UNL A   1      42.774  29.127  34.040  1.00  0.00     0.037 A 
BRANCH  48  62
ATOM     62  C   UNL A   1      39.573  33.744  36.605  1.00  0.00     0.064 A 
ATOM     63  C   UNL A   1      38.772  33.347  37.685  1.00  0.00     0.173 A 
ATOM     64  C   UNL A   1      40.207  34.992  36.677  1.00  0.00     0.173 A 
ATOM     65  F   UNL A   1      38.133  32.167  37.655  1.00  0.00    -0.203 F 
ATOM     66  C   UNL A   1      38.595  34.179  38.787  1.00  0.00     0.198 A 
ATOM     67  C   UNL A   1      40.047  35.810  37.791  1.00  0.00     0.198 A 
ATOM     68  F   UNL A   1      40.984  35.416  35.669  1.00  0.00    -0.203 F 
ATOM     69  F   UNL A   1      37.792  33.797  39.791  1.00  0.00    -0.200 F 
ATOM     70  C   UNL A   1      39.237  35.406  38.843  1.00  0.00     0.200 A 
ATOM     71  F   UNL A   1      40.675  36.993  37.848  1.00  0.00    -0.200 F 
ATOM     72  F   UNL A   1      39.072  36.203  39.907  1.00  0.00    -0.200 F 
ENDBRANCH  48  62
BRANCH  49  73
ATOM     73  C   UNL A   1      40.591  27.977  28.511  1.00  0.00     0.064 A 
ATOM     74  C   UNL A   1      39.938  26.737  28.461  1.00  0.00     0.173 A 
ATOM     75  C   UNL A   1      41.354  28.361  27.400  1.00  0.00     0.173 A 
ATOM     76  F   UNL A   1      39.212  26.320  29.507  1.00  0.00    -0.203 F 
ATOM     77  C   UNL A   1      40.051  25.910  27.345  1.00  0.00     0.198 A 
ATOM     78  C   UNL A   1      41.450  27.542  26.277  1.00  0.00     0.198 A 
ATOM     79  F   UNL A   1      41.994  29.540  27.401  1.00  0.00    -0.203 F 
ATOM     80  F   UNL A   1      39.441  24.718  27.334  1.00  0.00    -0.200 F 
ATOM     81  C   UNL A   1      40.803  26.316  26.252  1.00  0.00     0.200 A 
ATOM     82  F   UNL A   1      42.167  27.942  25.218  1.00  0.00    -0.200 F 
ATOM     83  F   UNL A   1      40.905  25.524  25.176  1.00  0.00    -0.200 F 
ENDBRANCH  49  73
BRANCH  61  84
ATOM     84  C   UNL A   1      43.916  28.355  34.626  1.00  0.00     0.064 A 
ATOM     85  C   UNL A   1      45.235  28.818  34.526  1.00  0.00     0.173 A 
ATOM     86  C   UNL A   1      43.679  27.185  35.362  1.00  0.00     0.173 A 
ATOM     87  F   UNL A   1      45.511  29.925  33.820  1.00  0.00    -0.203 F 
ATOM     88  C   UNL A   1      46.280  28.129  35.134  1.00  0.00     0.198 A 
ATOM     89  C   UNL A   1      44.723  26.512  35.988  1.00  0.00     0.198 A 
ATOM     90  F   UNL A   1      42.432  26.708  35.491  1.00  0.00    -0.203 F 
ATOM     91  F   UNL A   1      47.538  28.574  35.005  1.00  0.00    -0.200 F 
ATOM     92  C   UNL A   1      46.023  26.984  35.872  1.00  0.00     0.200 A 
ATOM     93  F   UNL A   1      44.472  25.411  36.711  1.00  0.00    -0.200 F 
ATOM     94  F   UNL A   1      47.028  26.331  36.472  1.00  0.00    -0.200 F 
ENDBRANCH  61  84
ENDBRANCH  35  36
ENDBRANCH  27  30
ENDBRANCH  25  26
ENDBRANCH   1  25
TORSDOF 12
ENDMDL
MODEL 3
REMARK VINA RESULT:     -12.3      3.953      8.763
REMARK SMILES Cc1cc2c(c(C)c1Cl)C=C(C(=O)NCCCCNC(=O)c1ccc(-c3c4nc(c(-c5c(F)c(F)c(F)c(F)c5F)c5ccc([nH]5)c(-c5c(F)c(F)c(F)c(F)c5F)c5nc(c(-c6c(F)c(F)c(F)c(F)c6F)c6ccc3[nH]6)C=C5)C=C4)cc1)[C@@H](C(F)(F)F)O2
REMARK SMILES IDX 17 1 16 2 15 3 14 4 12 5 13 6 11 8 1 9 2 10 3 11 8 12 4 13
REMARK SMILES IDX 6 14 9 15 5 16 90 17 7 18 10 19 85 20 86 21 87 22 88 23
REMARK SMILES IDX 89 24 18 25 19 26 20 27 21 29 22 30 23 31 84 32 24 33 83 34
REMARK SMILES IDX 25 35 26 36 27 37 77 38 28 39 82 40 76 41 78 42 29 43 81 44
REMARK SMILES IDX 75 45 74 46 30 48 62 49 42 50 61 51 43 52 46 53 60 54 79 55
REMARK SMILES IDX 44 56 45 57 59 59 80 60 47 61 31 62 32 63 40 64 33 65 34 66
REMARK SMILES IDX 38 67 41 68 35 69 36 70 39 71 37 72 63 73 64 74 72 75 65 76
REMARK SMILES IDX 66 77 70 78 73 79 67 80 68 81 71 82 69 83 48 84 49 85 57 86
REMARK SMILES IDX 50 87 51 88 55 89 58 90 52 91 53 92 56 93 54 94
REMARK H PARENT 14 7 19 28 78 47 46 58
REMARK Flexibility Score: inf
ROOT
ATOM      1  C   UNL A   1      31.623  32.258  26.824  1.00  0.00     0.023 C 
ENDROOT
BRANCH   1   2
ATOM      2  C   UNL A   1      31.799  30.739  26.891  1.00  0.00     0.023 C 
BRANCH   2   3
ATOM      3  C   UNL A   1      32.135  30.091  25.551  1.00  0.00     0.116 C 
BRANCH   3   4
ATOM      4  N   UNL A   1      30.993  30.074  24.657  1.00  0.00    -0.352 N 
ATOM      5  C   UNL A   1      30.448  29.214  23.764  1.00  0.00     0.251 C 
ATOM      6  O   UNL A   1      29.434  29.628  23.195  1.00  0.00    -0.270 OA
ATOM      7  H   UNL A   1      30.475  30.909  24.715  1.00  0.00     0.163 HD
BRANCH   5   8
ATOM      8  C   UNL A   1      30.975  27.854  23.441  1.00  0.00     0.067 C 
ATOM      9  C   UNL A   1      32.452  21.521  23.041  1.00  0.00     0.046 C 
ATOM     10  C   UNL A   1      31.984  22.893  23.441  1.00  0.00    -0.028 A 
ATOM     11  C   UNL A   1      32.165  23.946  22.540  1.00  0.00     0.052 A 
ATOM     12  C   UNL A   1      31.330  23.151  24.664  1.00  0.00     0.047 A 
ATOM     13  C   UNL A   1      31.727  25.229  22.854  1.00  0.00     0.128 A 
ATOM     14  C   UNL A   1      30.886  24.454  24.998  1.00  0.00    -0.021 A 
ATOM     15  Cl  UNL A   1      31.054  21.818  25.748  1.00  0.00    -0.084 Cl
ATOM     16  C   UNL A   1      31.082  25.500  24.063  1.00  0.00     0.022 A 
ATOM     17  O   UNL A   1      31.928  26.166  21.882  1.00  0.00    -0.475 OA
ATOM     18  C   UNL A   1      30.195  24.747  26.310  1.00  0.00     0.047 C 
ATOM     19  C   UNL A   1      30.593  26.867  24.273  1.00  0.00     0.026 C 
ATOM     20  C   UNL A   1      31.903  27.554  22.303  1.00  0.00     0.314 C 
BRANCH  20  21
ATOM     21  C   UNL A   1      33.343  28.035  22.563  1.00  0.00     0.429 C 
ATOM     22  F   UNL A   1      34.166  27.627  21.565  1.00  0.00    -0.167 F 
ATOM     23  F   UNL A   1      33.437  29.385  22.607  1.00  0.00    -0.167 F 
ATOM     24  F   UNL A   1      33.848  27.566  23.725  1.00  0.00    -0.167 F 
ENDBRANCH  20  21
ENDBRANCH   5   8
ENDBRANCH   3   4
ENDBRANCH   2   3
ENDBRANCH   1   2
BRANCH   1  25
ATOM     25  C   UNL A   1      32.782  33.076  27.386  1.00  0.00     0.116 C 
BRANCH  25  26
ATOM     26  N   UNL A   1      32.409  34.423  27.797  1.00  0.00    -0.352 N 
ATOM     27  C   UNL A   1      32.992  35.206  28.763  1.00  0.00     0.251 C 
ATOM     28  H   UNL A   1      31.643  34.822  27.323  1.00  0.00     0.163 HD
ATOM     29  O   UNL A   1      32.527  36.302  29.056  1.00  0.00    -0.269 OA
BRANCH  27  30
ATOM     30  C   UNL A   1      34.166  34.678  29.481  1.00  0.00     0.039 A 
ATOM     31  C   UNL A   1      33.976  34.079  30.727  1.00  0.00     0.014 A 
ATOM     32  C   UNL A   1      35.428  34.705  28.880  1.00  0.00     0.014 A 
ATOM     33  C   UNL A   1      35.047  33.433  31.343  1.00  0.00     0.010 A 
ATOM     34  C   UNL A   1      36.477  34.009  29.467  1.00  0.00     0.010 A 
ATOM     35  C   UNL A   1      36.293  33.362  30.698  1.00  0.00    -0.014 A 
BRANCH  35  36
ATOM     36  C   UNL A   1      37.418  32.608  31.298  1.00  0.00     0.031 A 
ATOM     37  C   UNL A   1      37.910  32.967  32.668  1.00  0.00     0.074 A 
ATOM     38  C   UNL A   1      38.027  31.640  30.586  1.00  0.00     0.049 A 
ATOM     39  N   UNL A   1      38.913  32.467  33.343  1.00  0.00    -0.248 NA
ATOM     40  C   UNL A   1      37.195  34.049  33.364  1.00  0.00     0.031 C 
ATOM     41  C   UNL A   1      37.660  31.232  29.228  1.00  0.00     0.029 A 
ATOM     42  N   UNL A   1      39.082  30.824  30.905  1.00  0.00    -0.354 N 
ATOM     43  C   UNL A   1      38.952  33.177  34.536  1.00  0.00     0.074 A 
ATOM     44  C   UNL A   1      37.910  34.177  34.472  1.00  0.00     0.031 C 
ATOM     45  C   UNL A   1      38.457  30.222  28.844  1.00  0.00     0.029 A 
ATOM     46  C   UNL A   1      39.408  29.932  29.914  1.00  0.00     0.049 A 
ATOM     47  H   UNL A   1      39.561  30.874  31.764  1.00  0.00     0.167 HD
ATOM     48  C   UNL A   1      39.767  32.989  35.599  1.00  0.00     0.037 A 
ATOM     49  C   UNL A   1      40.363  28.983  29.878  1.00  0.00     0.037 A 
ATOM     50  C   UNL A   1      40.785  31.975  35.669  1.00  0.00     0.049 A 
ATOM     51  C   UNL A   1      41.261  28.802  31.069  1.00  0.00     0.074 A 
ATOM     52  C   UNL A   1      41.633  31.676  36.720  1.00  0.00     0.029 A 
ATOM     53  N   UNL A   1      41.085  31.090  34.645  1.00  0.00    -0.354 N 
ATOM     54  N   UNL A   1      41.261  29.448  32.210  1.00  0.00    -0.248 NA
ATOM     55  C   UNL A   1      42.293  27.759  30.970  1.00  0.00     0.031 C 
ATOM     56  C   UNL A   1      42.467  30.628  36.322  1.00  0.00     0.029 A 
ATOM     57  C   UNL A   1      42.116  30.251  35.035  1.00  0.00     0.049 A 
ATOM     58  H   UNL A   1      40.633  31.062  33.771  1.00  0.00     0.167 HD
ATOM     59  C   UNL A   1      42.274  28.882  32.970  1.00  0.00     0.074 A 
ATOM     60  C   UNL A   1      42.861  27.829  32.167  1.00  0.00     0.031 C 
ATOM     61  C   UNL A   1      42.682  29.206  34.221  1.00  0.00     0.037 A 
BRANCH  48  62
ATOM     62  C   UNL A   1      39.577  33.890  36.781  1.00  0.00     0.064 A 
ATOM     63  C   UNL A   1      38.792  33.496  37.876  1.00  0.00     0.173 A 
ATOM     64  C   UNL A   1      40.210  35.139  36.840  1.00  0.00     0.173 A 
ATOM     65  F   UNL A   1      38.155  32.316  37.859  1.00  0.00    -0.203 F 
ATOM     66  C   UNL A   1      38.632  34.332  38.977  1.00  0.00     0.198 A 
ATOM     67  C   UNL A   1      40.067  35.961  37.953  1.00  0.00     0.198 A 
ATOM     68  F   UNL A   1      40.971  35.560  35.818  1.00  0.00    -0.203 F 
ATOM     69  F   UNL A   1      37.844  33.953  39.994  1.00  0.00    -0.200 F 
ATOM     70  C   UNL A   1      39.273  35.560  39.019  1.00  0.00     0.200 A 
ATOM     71  F   UNL A   1      40.694  37.144  37.996  1.00  0.00    -0.200 F 
ATOM     72  F   UNL A   1      39.123  36.360  40.083  1.00  0.00    -0.200 F 
ENDBRANCH  48  62
BRANCH  49  73
ATOM     73  C   UNL A   1      40.485  28.105  28.688  1.00  0.00     0.064 A 
ATOM     74  C   UNL A   1      39.809  26.877  28.638  1.00  0.00     0.173 A 
ATOM     75  C   UNL A   1      41.254  28.474  27.577  1.00  0.00     0.173 A 
ATOM     76  F   UNL A   1      39.076  26.473  29.685  1.00  0.00    -0.203 F 
ATOM     77  C   UNL A   1      39.907  26.048  27.523  1.00  0.00     0.198 A 
ATOM     78  C   UNL A   1      41.334  27.654  26.453  1.00  0.00     0.198 A 
ATOM     79  F   UNL A   1      41.915  29.642  27.577  1.00  0.00    -0.203 F 
ATOM     80  F   UNL A   1      39.275  24.867  27.512  1.00  0.00    -0.200 F 
ATOM     81  C   UNL A   1      40.665  26.440  26.429  1.00  0.00     0.200 A 
ATOM     82  F   UNL A   1      42.058  28.041  25.394  1.00  0.00    -0.200 F 
ATOM     83  F   UNL A   1      40.752  25.646  25.353  1.00  0.00    -0.200 F 
ENDBRANCH  49  73
BRANCH  61  84
ATOM     84  C   UNL A   1      43.806  28.409  34.810  1.00  0.00     0.064 A 
ATOM     85  C   UNL A   1      45.134  28.842  34.710  1.00  0.00     0.173 A 
ATOM     86  C   UNL A   1      43.541  27.245  35.546  1.00  0.00     0.173 A 
ATOM     87  F   UNL A   1      45.436  29.943  34.004  1.00  0.00    -0.203 F 
ATOM     88  C   UNL A   1      46.163  28.131  35.321  1.00  0.00     0.198 A 
ATOM     89  C   UNL A   1      44.570  26.549  36.174  1.00  0.00     0.198 A 
ATOM     90  F   UNL A   1      42.284  26.796  35.673  1.00  0.00    -0.203 F 
ATOM     91  F   UNL A   1      47.431  28.548  35.193  1.00  0.00    -0.200 F 
ATOM     92  C   UNL A   1      45.880  26.992  36.059  1.00  0.00     0.200 A 
ATOM     93  F   UNL A   1      44.294  25.455  36.897  1.00  0.00    -0.200 F 
ATOM     94  F   UNL A   1      46.870  26.318  36.661  1.00  0.00    -0.200 F 
ENDBRANCH  61  84
ENDBRANCH  35  36
ENDBRANCH  27  30
ENDBRANCH  25  26
ENDBRANCH   1  25
TORSDOF 12
ENDMDL
