MODEL 1
REMARK VINA RESULT:     -12.1      0.000      0.000
REMARK SMILES CC[N@@H+]1CCO[C@H](C[NH2+][C@@H]2CCC[C@H](C(=O)NCCCCNC(=O)c3ccc(-c4c5nc(c(-c6c(F)c(F)c(F)c(F)c6F)c6ccc([nH]6)c(-c6c(F)c(F)c(F)c(F)c6F)c6nc(c(-c7c(F)c(F)c(F)c(F)c7F)c7ccc4[nH]7)C=C6)C=C5)cc3)C2)C1
REMARK SMILES IDX 18 1 17 2 15 3 16 4 14 6 10 7 11 8 88 9 12 10 13 11 9 12
REMARK SMILES IDX 8 15 7 16 3 17 4 18 89 19 5 21 6 22 2 23 1 24 19 25 20 26
REMARK SMILES IDX 21 27 22 28 23 29 24 31 25 32 26 33 87 34 27 35 86 36 28 37
REMARK SMILES IDX 29 38 30 39 80 40 31 41 85 42 79 43 81 44 32 45 84 46 78 47
REMARK SMILES IDX 77 48 33 50 65 51 45 52 64 53 46 54 49 55 63 56 82 57 47 58
REMARK SMILES IDX 48 59 62 61 83 62 50 63 34 64 35 65 43 66 36 67 37 68 41 69
REMARK SMILES IDX 44 70 38 71 39 72 42 73 40 74 66 75 67 76 75 77 68 78 69 79
REMARK SMILES IDX 73 80 76 81 70 82 71 83 74 84 72 85 51 86 52 87 60 88 53 89
REMARK SMILES IDX 54 90 58 91 61 92 55 93 56 94 59 95 57 96
REMARK H PARENT 17 5 9 13 9 14 3 20 22 30 81 49 49 60
REMARK Flexibility Score: inf
ROOT
ATOM      1  C   UNL A   1      32.957  30.195  26.199  1.00  0.00     0.116 C 
ENDROOT
BRANCH   1   2
ATOM      2  N   UNL A   1      33.207  29.720  24.847  1.00  0.00    -0.356 N 
ATOM      3  C   UNL A   1      32.740  28.621  24.188  1.00  0.00     0.223 C 
ATOM      4  O   UNL A   1      33.110  28.445  23.025  1.00  0.00    -0.275 OA
ATOM      5  H   UNL A   1      33.814  30.286  24.319  1.00  0.00     0.163 HD
BRANCH   3   6
ATOM      6  C   UNL A   1      31.793  27.635  24.861  1.00  0.00     0.084 C 
ATOM      7  C   UNL A   1      31.779  25.163  25.682  1.00  0.00     0.183 C 
ATOM      8  C   UNL A   1      30.702  24.929  24.600  1.00  0.00     0.065 C 
ATOM      9  C   UNL A   1      32.582  26.445  25.435  1.00  0.00     0.078 C 
ATOM     10  C   UNL A   1      29.802  26.136  24.413  1.00  0.00     0.007 C 
ATOM     11  C   UNL A   1      30.614  27.320  23.933  1.00  0.00     0.014 C 
BRANCH   7  12
ATOM     12  N   UNL A   1      32.779  24.081  25.864  1.00  0.00    -0.341 N 
ATOM     13  H   UNL A   1      33.694  24.441  25.592  1.00  0.00     0.346 HD
ATOM     14  H   UNL A   1      32.742  23.806  26.845  1.00  0.00     0.346 HD
BRANCH  12  15
ATOM     15  C   UNL A   1      32.504  22.883  25.077  1.00  0.00     0.299 C 
BRANCH  15  16
ATOM     16  C   UNL A   1      32.307  21.563  25.839  1.00  0.00     0.227 C 
ATOM     17  N   UNL A   1      34.676  20.569  25.616  1.00  0.00    -0.331 N 
ATOM     18  C   UNL A   1      34.040  19.536  24.768  1.00  0.00     0.291 C 
ATOM     19  C   UNL A   1      33.639  21.127  26.510  1.00  0.00     0.300 C 
ATOM     20  H   UNL A   1      35.384  20.192  26.247  1.00  0.00     0.348 HD
ATOM     21  C   UNL A   1      32.743  20.001  24.076  1.00  0.00     0.222 C 
ATOM     22  O   UNL A   1      31.781  20.516  25.002  1.00  0.00    -0.361 OA
BRANCH  17  23
ATOM     23  C   UNL A   1      35.482  21.494  24.808  1.00  0.00     0.258 C 
ATOM     24  C   UNL A   1      36.175  22.631  25.556  1.00  0.00     0.071 C 
ENDBRANCH  17  23
ENDBRANCH  15  16
ENDBRANCH  12  15
ENDBRANCH   7  12
ENDBRANCH   3   6
ENDBRANCH   1   2
BRANCH   1  25
ATOM     25  C   UNL A   1      31.529  30.702  26.373  1.00  0.00     0.023 C 
BRANCH  25  26
ATOM     26  C   UNL A   1      31.411  32.208  26.593  1.00  0.00     0.023 C 
BRANCH  26  27
ATOM     27  C   UNL A   1      32.622  32.859  27.251  1.00  0.00     0.116 C 
BRANCH  27  28
ATOM     28  N   UNL A   1      32.392  34.245  27.628  1.00  0.00    -0.352 N 
ATOM     29  C   UNL A   1      33.030  34.995  28.589  1.00  0.00     0.251 C 
ATOM     30  H   UNL A   1      31.682  34.709  27.128  1.00  0.00     0.163 HD
ATOM     31  O   UNL A   1      32.629  36.114  28.873  1.00  0.00    -0.269 OA
BRANCH  29  32
ATOM     32  C   UNL A   1      34.186  34.414  29.303  1.00  0.00     0.039 A 
ATOM     33  C   UNL A   1      33.961  33.703  30.484  1.00  0.00     0.014 A 
ATOM     34  C   UNL A   1      35.480  34.539  28.788  1.00  0.00     0.014 A 
ATOM     35  C   UNL A   1      35.027  33.052  31.109  1.00  0.00     0.010 A 
ATOM     36  C   UNL A   1      36.523  33.826  29.368  1.00  0.00     0.010 A 
ATOM     37  C   UNL A   1      36.308  33.075  30.532  1.00  0.00    -0.014 A 
BRANCH  37  38
ATOM     38  C   UNL A   1      37.436  32.320  31.134  1.00  0.00     0.031 A 
ATOM     39  C   UNL A   1      37.933  32.678  32.506  1.00  0.00     0.074 A 
ATOM     40  C   UNL A   1      38.051  31.355  30.421  1.00  0.00     0.049 A 
ATOM     41  N   UNL A   1      38.950  32.190  33.172  1.00  0.00    -0.248 NA
ATOM     42  C   UNL A   1      37.208  33.744  33.213  1.00  0.00     0.031 C 
ATOM     43  C   UNL A   1      37.689  30.945  29.062  1.00  0.00     0.029 A 
ATOM     44  N   UNL A   1      39.117  30.551  30.736  1.00  0.00    -0.354 N 
ATOM     45  C   UNL A   1      38.987  32.892  34.369  1.00  0.00     0.074 A 
ATOM     46  C   UNL A   1      37.934  33.884  34.312  1.00  0.00     0.031 C 
ATOM     47  C   UNL A   1      38.503  29.951  28.672  1.00  0.00     0.029 A 
ATOM     48  C   UNL A   1      39.466  29.679  29.733  1.00  0.00     0.049 A 
ATOM     49  H   UNL A   1      39.587  30.593  31.600  1.00  0.00     0.167 HD
ATOM     50  C   UNL A   1      39.807  32.710  35.432  1.00  0.00     0.037 A 
ATOM     51  C   UNL A   1      40.457  28.769  29.677  1.00  0.00     0.037 A 
ATOM     52  C   UNL A   1      40.844  31.714  35.492  1.00  0.00     0.049 A 
ATOM     53  C   UNL A   1      41.370  28.604  30.863  1.00  0.00     0.074 A 
ATOM     54  C   UNL A   1      41.706  31.427  36.535  1.00  0.00     0.029 A 
ATOM     55  N   UNL A   1      41.157  30.839  34.462  1.00  0.00    -0.354 N 
ATOM     56  N   UNL A   1      41.357  29.234  32.012  1.00  0.00    -0.248 NA
ATOM     57  C   UNL A   1      42.430  27.594  30.745  1.00  0.00     0.031 C 
ATOM     58  C   UNL A   1      42.566  30.405  36.123  1.00  0.00     0.029 A 
ATOM     59  C   UNL A   1      42.208  30.020  34.841  1.00  0.00     0.049 A 
ATOM     60  H   UNL A   1      40.699  30.805  33.590  1.00  0.00     0.167 HD
ATOM     61  C   UNL A   1      42.380  28.674  32.766  1.00  0.00     0.074 A 
ATOM     62  C   UNL A   1      42.985  27.644  31.948  1.00  0.00     0.031 C 
ATOM     63  C   UNL A   1      42.784  28.985  34.022  1.00  0.00     0.037 A 
BRANCH  50  64
ATOM     64  C   UNL A   1      39.604  33.600  36.623  1.00  0.00     0.064 A 
ATOM     65  C   UNL A   1      38.796  33.205  37.701  1.00  0.00     0.173 A 
ATOM     66  C   UNL A   1      40.248  34.842  36.708  1.00  0.00     0.173 A 
ATOM     67  F   UNL A   1      38.146  32.031  37.663  1.00  0.00    -0.203 F 
ATOM     68  C   UNL A   1      38.618  34.033  38.806  1.00  0.00     0.198 A 
ATOM     69  C   UNL A   1      40.093  35.655  37.829  1.00  0.00     0.198 A 
ATOM     70  F   UNL A   1      41.037  35.267  35.708  1.00  0.00    -0.203 F 
ATOM     71  F   UNL A   1      37.803  33.654  39.800  1.00  0.00    -0.200 F 
ATOM     72  C   UNL A   1      39.274  35.253  38.873  1.00  0.00     0.200 A 
ATOM     73  F   UNL A   1      40.739  36.828  37.899  1.00  0.00    -0.200 F 
ATOM     74  F   UNL A   1      39.109  36.045  39.941  1.00  0.00    -0.200 F 
ENDBRANCH  50  64
BRANCH  51  75
ATOM     75  C   UNL A   1      40.630  27.921  28.466  1.00  0.00     0.064 A 
ATOM     76  C   UNL A   1      41.393  28.369  27.379  1.00  0.00     0.173 A 
ATOM     77  C   UNL A   1      40.017  26.665  28.359  1.00  0.00     0.173 A 
ATOM     78  F   UNL A   1      41.982  29.573  27.426  1.00  0.00    -0.203 F 
ATOM     79  C   UNL A   1      41.511  27.607  26.219  1.00  0.00     0.198 A 
ATOM     80  C   UNL A   1      40.161  25.890  27.210  1.00  0.00     0.198 A 
ATOM     81  F   UNL A   1      39.279  26.188  29.372  1.00  0.00    -0.203 F 
ATOM     82  F   UNL A   1      42.200  28.085  25.174  1.00  0.00    -0.200 F 
ATOM     83  C   UNL A   1      40.898  26.366  26.137  1.00  0.00     0.200 A 
ATOM     84  F   UNL A   1      39.578  24.685  27.139  1.00  0.00    -0.200 F 
ATOM     85  F   UNL A   1      41.010  25.634  25.020  1.00  0.00    -0.200 F 
ENDBRANCH  51  75
BRANCH  63  86
ATOM     86  C   UNL A   1      43.899  28.170  34.608  1.00  0.00     0.064 A 
ATOM     87  C   UNL A   1      45.239  28.567  34.502  1.00  0.00     0.173 A 
ATOM     88  C   UNL A   1      43.616  26.993  35.320  1.00  0.00     0.173 A 
ATOM     89  F   UNL A   1      45.564  29.676  33.819  1.00  0.00    -0.203 F 
ATOM     90  C   UNL A   1      46.258  27.802  35.062  1.00  0.00     0.198 A 
ATOM     91  C   UNL A   1      44.635  26.248  35.905  1.00  0.00     0.198 A 
ATOM     92  F   UNL A   1      42.350  26.574  35.456  1.00  0.00    -0.203 F 
ATOM     93  F   UNL A   1      47.536  28.174  34.906  1.00  0.00    -0.200 F 
ATOM     94  C   UNL A   1      45.954  26.648  35.770  1.00  0.00     0.200 A 
ATOM     95  F   UNL A   1      44.338  25.141  36.599  1.00  0.00    -0.200 F 
ATOM     96  F   UNL A   1      46.936  25.918  36.315  1.00  0.00    -0.200 F 
ENDBRANCH  63  86
ENDBRANCH  37  38
ENDBRANCH  29  32
ENDBRANCH  27  28
ENDBRANCH  26  27
ENDBRANCH  25  26
ENDBRANCH   1  25
TORSDOF 15
ENDMDL
MODEL 2
REMARK VINA RESULT:     -12.1      0.132      1.598
REMARK SMILES CC[N@@H+]1CCO[C@H](C[NH2+][C@@H]2CCC[C@H](C(=O)NCCCCNC(=O)c3ccc(-c4c5nc(c(-c6c(F)c(F)c(F)c(F)c6F)c6ccc([nH]6)c(-c6c(F)c(F)c(F)c(F)c6F)c6nc(c(-c7c(F)c(F)c(F)c(F)c7F)c7ccc4[nH]7)C=C6)C=C5)cc3)C2)C1
REMARK SMILES IDX 18 1 17 2 15 3 16 4 14 6 10 7 11 8 88 9 12 10 13 11 9 12
REMARK SMILES IDX 8 15 7 16 3 17 4 18 89 19 5 21 6 22 2 23 1 24 19 25 20 26
REMARK SMILES IDX 21 27 22 28 23 29 24 31 25 32 26 33 87 34 27 35 86 36 28 37
REMARK SMILES IDX 29 38 30 39 80 40 31 41 85 42 79 43 81 44 32 45 84 46 78 47
REMARK SMILES IDX 77 48 33 50 65 51 45 52 64 53 46 54 49 55 63 56 82 57 47 58
REMARK SMILES IDX 48 59 62 61 83 62 50 63 34 64 35 65 43 66 36 67 37 68 41 69
REMARK SMILES IDX 44 70 38 71 39 72 42 73 40 74 66 75 67 76 75 77 68 78 69 79
REMARK SMILES IDX 73 80 76 81 70 82 71 83 74 84 72 85 51 86 52 87 60 88 53 89
REMARK SMILES IDX 54 90 58 91 61 92 55 93 56 94 59 95 57 96
REMARK H PARENT 17 5 9 13 9 14 3 20 22 30 81 49 49 60
REMARK Flexibility Score: inf
ROOT
ATOM      1  C   UNL A   1      33.008  30.208  26.232  1.00  0.00     0.116 C 
ENDROOT
BRANCH   1   2
ATOM      2  N   UNL A   1      33.208  29.731  24.872  1.00  0.00    -0.356 N 
ATOM      3  C   UNL A   1      32.702  28.642  24.226  1.00  0.00     0.223 C 
ATOM      4  O   UNL A   1      33.033  28.461  23.052  1.00  0.00    -0.275 OA
ATOM      5  H   UNL A   1      33.810  30.287  24.327  1.00  0.00     0.163 HD
BRANCH   3   6
ATOM      6  C   UNL A   1      31.758  27.671  24.925  1.00  0.00     0.084 C 
ATOM      7  C   UNL A   1      31.745  25.217  25.798  1.00  0.00     0.183 C 
ATOM      8  C   UNL A   1      30.660  24.964  24.729  1.00  0.00     0.065 C 
ATOM      9  C   UNL A   1      32.549  26.492  25.519  1.00  0.00     0.078 C 
ATOM     10  C   UNL A   1      29.761  26.168  24.523  1.00  0.00     0.007 C 
ATOM     11  C   UNL A   1      30.572  27.340  24.013  1.00  0.00     0.014 C 
BRANCH   7  12
ATOM     12  N   UNL A   1      32.744  24.138  25.996  1.00  0.00    -0.341 N 
ATOM     13  H   UNL A   1      33.664  24.503  25.747  1.00  0.00     0.346 HD
ATOM     14  H   UNL A   1      32.686  23.855  26.974  1.00  0.00     0.346 HD
BRANCH  12  15
ATOM     15  C   UNL A   1      32.491  22.944  25.194  1.00  0.00     0.299 C 
BRANCH  15  16
ATOM     16  C   UNL A   1      32.350  21.607  25.939  1.00  0.00     0.227 C 
ATOM     17  N   UNL A   1      34.727  20.664  25.603  1.00  0.00    -0.331 N 
ATOM     18  C   UNL A   1      34.078  19.634  24.761  1.00  0.00     0.291 C 
ATOM     19  C   UNL A   1      33.716  21.185  26.547  1.00  0.00     0.300 C 
ATOM     20  H   UNL A   1      35.466  20.289  26.198  1.00  0.00     0.348 HD
ATOM     21  C   UNL A   1      32.746  20.086  24.130  1.00  0.00     0.222 C 
ATOM     22  O   UNL A   1      31.811  20.565  25.103  1.00  0.00    -0.361 OA
BRANCH  17  23
ATOM     23  C   UNL A   1      35.483  21.620  24.782  1.00  0.00     0.258 C 
ATOM     24  C   UNL A   1      36.218  22.732  25.526  1.00  0.00     0.071 C 
ENDBRANCH  17  23
ENDBRANCH  15  16
ENDBRANCH  12  15
ENDBRANCH   7  12
ENDBRANCH   3   6
ENDBRANCH   1   2
BRANCH   1  25
ATOM     25  C   UNL A   1      31.572  30.661  26.474  1.00  0.00     0.023 C 
BRANCH  25  26
ATOM     26  C   UNL A   1      31.411  32.159  26.719  1.00  0.00     0.023 C 
BRANCH  26  27
ATOM     27  C   UNL A   1      32.643  32.855  27.285  1.00  0.00     0.116 C 
BRANCH  27  28
ATOM     28  N   UNL A   1      32.394  34.236  27.667  1.00  0.00    -0.352 N 
ATOM     29  C   UNL A   1      33.022  34.990  28.631  1.00  0.00     0.251 C 
ATOM     30  H   UNL A   1      31.679  34.693  27.168  1.00  0.00     0.163 HD
ATOM     31  O   UNL A   1      32.606  36.103  28.920  1.00  0.00    -0.269 OA
BRANCH  29  32
ATOM     32  C   UNL A   1      34.186  34.423  29.344  1.00  0.00     0.039 A 
ATOM     33  C   UNL A   1      33.969  33.702  30.522  1.00  0.00     0.014 A 
ATOM     34  C   UNL A   1      35.478  34.567  28.831  1.00  0.00     0.014 A 
ATOM     35  C   UNL A   1      35.042  33.063  31.145  1.00  0.00     0.010 A 
ATOM     36  C   UNL A   1      36.530  33.866  29.409  1.00  0.00     0.010 A 
ATOM     37  C   UNL A   1      36.324  33.106  30.570  1.00  0.00    -0.014 A 
BRANCH  37  38
ATOM     38  C   UNL A   1      37.461  32.363  31.168  1.00  0.00     0.031 A 
ATOM     39  C   UNL A   1      37.975  32.745  32.528  1.00  0.00     0.074 A 
ATOM     40  C   UNL A   1      38.069  31.388  30.463  1.00  0.00     0.049 A 
ATOM     41  N   UNL A   1      39.001  32.270  33.190  1.00  0.00    -0.248 NA
ATOM     42  C   UNL A   1      37.257  33.821  33.227  1.00  0.00     0.031 C 
ATOM     43  C   UNL A   1      37.692  30.956  29.116  1.00  0.00     0.029 A 
ATOM     44  N   UNL A   1      39.142  30.592  30.778  1.00  0.00    -0.354 N 
ATOM     45  C   UNL A   1      39.053  32.992  34.374  1.00  0.00     0.074 A 
ATOM     46  C   UNL A   1      37.996  33.980  34.315  1.00  0.00     0.031 C 
ATOM     47  C   UNL A   1      38.503  29.957  28.732  1.00  0.00     0.029 A 
ATOM     48  C   UNL A   1      39.480  29.705  29.785  1.00  0.00     0.049 A 
ATOM     49  H   UNL A   1      39.622  30.650  31.635  1.00  0.00     0.167 HD
ATOM     50  C   UNL A   1      39.886  32.829  35.429  1.00  0.00     0.037 A 
ATOM     51  C   UNL A   1      40.473  28.797  29.731  1.00  0.00     0.037 A 
ATOM     52  C   UNL A   1      40.926  31.836  35.492  1.00  0.00     0.049 A 
ATOM     53  C   UNL A   1      41.401  28.653  30.908  1.00  0.00     0.074 A 
ATOM     54  C   UNL A   1      41.803  31.569  36.529  1.00  0.00     0.029 A 
ATOM     55  N   UNL A   1      41.228  30.946  34.472  1.00  0.00    -0.354 N 
ATOM     56  N   UNL A   1      41.401  29.301  32.047  1.00  0.00    -0.248 NA
ATOM     57  C   UNL A   1      42.462  27.643  30.793  1.00  0.00     0.031 C 
ATOM     58  C   UNL A   1      42.660  30.542  36.122  1.00  0.00     0.029 A 
ATOM     59  C   UNL A   1      42.287  30.136  34.851  1.00  0.00     0.049 A 
ATOM     60  H   UNL A   1      40.760  30.896  33.607  1.00  0.00     0.167 HD
ATOM     61  C   UNL A   1      42.435  28.756  32.796  1.00  0.00     0.074 A 
ATOM     62  C   UNL A   1      43.033  27.714  31.987  1.00  0.00     0.031 C 
ATOM     63  C   UNL A   1      42.855  29.089  34.042  1.00  0.00     0.037 A 
BRANCH  50  64
ATOM     64  C   UNL A   1      39.696  33.738  36.608  1.00  0.00     0.064 A 
ATOM     65  C   UNL A   1      40.306  35.001  36.663  1.00  0.00     0.173 A 
ATOM     66  C   UNL A   1      38.869  33.363  37.676  1.00  0.00     0.173 A 
ATOM     67  F   UNL A   1      41.118  35.402  35.673  1.00  0.00    -0.203 F 
ATOM     68  C   UNL A   1      40.119  35.842  37.757  1.00  0.00     0.198 A 
ATOM     69  C   UNL A   1      38.659  34.219  38.754  1.00  0.00     0.198 A 
ATOM     70  F   UNL A   1      38.257  32.169  37.672  1.00  0.00    -0.203 F 
ATOM     71  F   UNL A   1      40.751  37.022  37.808  1.00  0.00    -0.200 F 
ATOM     72  C   UNL A   1      39.288  35.453  38.797  1.00  0.00     0.200 A 
ATOM     73  F   UNL A   1      37.845  33.848  39.754  1.00  0.00    -0.200 F 
ATOM     74  F   UNL A   1      39.102  36.267  39.846  1.00  0.00    -0.200 F 
ENDBRANCH  50  64
BRANCH  51  75
ATOM     75  C   UNL A   1      40.632  27.930  28.532  1.00  0.00     0.064 A 
ATOM     76  C   UNL A   1      41.391  28.356  27.433  1.00  0.00     0.173 A 
ATOM     77  C   UNL A   1      40.010  26.676  28.448  1.00  0.00     0.173 A 
ATOM     78  F   UNL A   1      41.988  29.557  27.458  1.00  0.00    -0.203 F 
ATOM     79  C   UNL A   1      41.496  27.576  26.284  1.00  0.00     0.198 A 
ATOM     80  C   UNL A   1      40.142  25.883  27.310  1.00  0.00     0.198 A 
ATOM     81  F   UNL A   1      39.276  26.219  29.473  1.00  0.00    -0.203 F 
ATOM     82  F   UNL A   1      42.181  28.034  25.227  1.00  0.00    -0.200 F 
ATOM     83  C   UNL A   1      40.875  26.338  26.224  1.00  0.00     0.200 A 
ATOM     84  F   UNL A   1      39.550  24.681  27.261  1.00  0.00    -0.200 F 
ATOM     85  F   UNL A   1      40.975  25.589  25.118  1.00  0.00    -0.200 F 
ENDBRANCH  51  75
BRANCH  63  86
ATOM     86  C   UNL A   1      43.979  28.286  34.626  1.00  0.00     0.064 A 
ATOM     87  C   UNL A   1      43.750  27.088  35.317  1.00  0.00     0.173 A 
ATOM     88  C   UNL A   1      45.309  28.705  34.458  1.00  0.00     0.173 A 
ATOM     89  F   UNL A   1      42.498  26.653  35.518  1.00  0.00    -0.203 F 
ATOM     90  C   UNL A   1      44.809  26.352  35.843  1.00  0.00     0.198 A 
ATOM     91  C   UNL A   1      46.366  27.951  34.958  1.00  0.00     0.198 A 
ATOM     92  F   UNL A   1      45.582  29.841  33.799  1.00  0.00    -0.203 F 
ATOM     93  F   UNL A   1      44.565  25.236  36.543  1.00  0.00    -0.200 F 
ATOM     94  C   UNL A   1      46.115  26.780  35.656  1.00  0.00     0.200 A 
ATOM     95  F   UNL A   1      47.628  28.359  34.765  1.00  0.00    -0.200 F 
ATOM     96  F   UNL A   1      47.133  26.066  36.156  1.00  0.00    -0.200 F 
ENDBRANCH  63  86
ENDBRANCH  37  38
ENDBRANCH  29  32
ENDBRANCH  27  28
ENDBRANCH  26  27
ENDBRANCH  25  26
ENDBRANCH   1  25
TORSDOF 15
ENDMDL
MODEL 3
REMARK VINA RESULT:     -12.1      0.918      7.503
REMARK SMILES CC[N@@H+]1CCO[C@H](C[NH2+][C@@H]2CCC[C@H](C(=O)NCCCCNC(=O)c3ccc(-c4c5nc(c(-c6c(F)c(F)c(F)c(F)c6F)c6ccc([nH]6)c(-c6c(F)c(F)c(F)c(F)c6F)c6nc(c(-c7c(F)c(F)c(F)c(F)c7F)c7ccc4[nH]7)C=C6)C=C5)cc3)C2)C1
REMARK SMILES IDX 18 1 17 2 15 3 16 4 14 6 10 7 11 8 88 9 12 10 13 11 9 12
REMARK SMILES IDX 8 15 7 16 3 17 4 18 89 19 5 21 6 22 2 23 1 24 19 25 20 26
REMARK SMILES IDX 21 27 22 28 23 29 24 31 25 32 26 33 87 34 27 35 86 36 28 37
REMARK SMILES IDX 29 38 30 39 80 40 31 41 85 42 79 43 81 44 32 45 84 46 78 47
REMARK SMILES IDX 77 48 33 50 65 51 45 52 64 53 46 54 49 55 63 56 82 57 47 58
REMARK SMILES IDX 48 59 62 61 83 62 50 63 34 64 35 65 43 66 36 67 37 68 41 69
REMARK SMILES IDX 44 70 38 71 39 72 42 73 40 74 66 75 67 76 75 77 68 78 69 79
REMARK SMILES IDX 73 80 76 81 70 82 71 83 74 84 72 85 51 86 52 87 60 88 53 89
REMARK SMILES IDX 54 90 58 91 61 92 55 93 56 94 59 95 57 96
REMARK H PARENT 17 5 9 13 9 14 3 20 22 30 81 49 49 60
REMARK Flexibility Score: inf
ROOT
ATOM      1  C   UNL A   1      33.146  29.892  26.555  1.00  0.00     0.116 C 
ENDROOT
BRANCH   1   2
ATOM      2  N   UNL A   1      33.423  29.796  25.130  1.00  0.00    -0.356 N 
ATOM      3  C   UNL A   1      33.016  28.884  24.202  1.00  0.00     0.223 C 
ATOM      4  O   UNL A   1      33.397  29.033  23.039  1.00  0.00    -0.275 OA
ATOM      5  H   UNL A   1      34.001  30.509  24.777  1.00  0.00     0.163 HD
BRANCH   3   6
ATOM      6  C   UNL A   1      32.121  27.710  24.582  1.00  0.00     0.084 C 
ATOM      7  C   UNL A   1      31.865  25.173  24.049  1.00  0.00     0.183 C 
ATOM      8  C   UNL A   1      30.508  25.559  23.421  1.00  0.00     0.065 C 
ATOM      9  C   UNL A   1      32.797  26.379  24.205  1.00  0.00     0.078 C 
ATOM     10  C   UNL A   1      29.837  26.705  24.156  1.00  0.00     0.007 C 
ATOM     11  C   UNL A   1      30.695  27.948  24.073  1.00  0.00     0.014 C 
BRANCH   7  12
ATOM     12  N   UNL A   1      32.651  24.136  23.337  1.00  0.00    -0.341 N 
ATOM     13  H   UNL A   1      32.015  23.391  23.052  1.00  0.00     0.346 HD
ATOM     14  H   UNL A   1      33.098  24.595  22.543  1.00  0.00     0.346 HD
BRANCH  12  15
ATOM     15  C   UNL A   1      33.718  23.547  24.141  1.00  0.00     0.299 C 
BRANCH  15  16
ATOM     16  C   UNL A   1      33.798  22.013  24.199  1.00  0.00     0.227 C 
ATOM     17  N   UNL A   1      32.433  21.582  26.343  1.00  0.00    -0.331 N 
ATOM     18  C   UNL A   1      33.711  21.122  26.930  1.00  0.00     0.291 C 
ATOM     19  C   UNL A   1      32.524  21.434  24.875  1.00  0.00     0.300 C 
ATOM     20  H   UNL A   1      31.636  21.003  26.611  1.00  0.00     0.348 HD
ATOM     21  C   UNL A   1      34.962  21.740  26.275  1.00  0.00     0.222 C 
ATOM     22  O   UNL A   1      34.992  21.548  24.857  1.00  0.00    -0.361 OA
BRANCH  17  23
ATOM     23  C   UNL A   1      32.033  22.883  26.897  1.00  0.00     0.258 C 
ATOM     24  C   UNL A   1      30.555  23.249  26.791  1.00  0.00     0.071 C 
ENDBRANCH  17  23
ENDBRANCH  15  16
ENDBRANCH  12  15
ENDBRANCH   7  12
ENDBRANCH   3   6
ENDBRANCH   1   2
BRANCH   1  25
ATOM     25  C   UNL A   1      31.751  30.444  26.831  1.00  0.00     0.023 C 
BRANCH  25  26
ATOM     26  C   UNL A   1      31.636  31.962  26.722  1.00  0.00     0.023 C 
BRANCH  26  27
ATOM     27  C   UNL A   1      32.798  32.741  27.327  1.00  0.00     0.116 C 
BRANCH  27  28
ATOM     28  N   UNL A   1      32.458  34.119  27.645  1.00  0.00    -0.352 N 
ATOM     29  C   UNL A   1      33.009  34.945  28.598  1.00  0.00     0.251 C 
ATOM     30  H   UNL A   1      31.734  34.514  27.107  1.00  0.00     0.163 HD
ATOM     31  O   UNL A   1      32.520  36.042  28.828  1.00  0.00    -0.269 OA
BRANCH  29  32
ATOM     32  C   UNL A   1      34.178  34.474  29.369  1.00  0.00     0.039 A 
ATOM     33  C   UNL A   1      33.966  33.857  30.604  1.00  0.00     0.014 A 
ATOM     34  C   UNL A   1      35.471  34.607  28.857  1.00  0.00     0.014 A 
ATOM     35  C   UNL A   1      35.049  33.304  31.292  1.00  0.00     0.010 A 
ATOM     36  C   UNL A   1      36.535  33.988  29.504  1.00  0.00     0.010 A 
ATOM     37  C   UNL A   1      36.335  33.329  30.726  1.00  0.00    -0.014 A 
BRANCH  37  38
ATOM     38  C   UNL A   1      37.484  32.673  31.399  1.00  0.00     0.031 A 
ATOM     39  C   UNL A   1      38.197  31.532  30.728  1.00  0.00     0.074 A 
ATOM     40  C   UNL A   1      37.846  33.063  32.638  1.00  0.00     0.049 A 
ATOM     41  N   UNL A   1      39.170  30.782  31.181  1.00  0.00    -0.248 NA
ATOM     42  C   UNL A   1      37.736  31.169  29.380  1.00  0.00     0.031 C 
ATOM     43  C   UNL A   1      37.205  34.128  33.412  1.00  0.00     0.029 A 
ATOM     44  N   UNL A   1      38.835  32.600  33.469  1.00  0.00    -0.354 N 
ATOM     45  C   UNL A   1      39.432  29.859  30.178  1.00  0.00     0.074 A 
ATOM     46  C   UNL A   1      38.474  30.100  29.120  1.00  0.00     0.031 C 
ATOM     47  C   UNL A   1      37.833  34.253  34.592  1.00  0.00     0.029 A 
ATOM     48  C   UNL A   1      38.893  33.255  34.676  1.00  0.00     0.049 A 
ATOM     49  H   UNL A   1      39.447  31.869  33.223  1.00  0.00     0.167 HD
ATOM     50  C   UNL A   1      40.401  28.915  30.129  1.00  0.00     0.037 A 
ATOM     51  C   UNL A   1      39.707  33.063  35.731  1.00  0.00     0.037 A 
ATOM     52  C   UNL A   1      41.362  28.687  31.176  1.00  0.00     0.049 A 
ATOM     53  C   UNL A   1      40.760  31.989  35.661  1.00  0.00     0.074 A 
ATOM     54  C   UNL A   1      42.404  27.777  31.209  1.00  0.00     0.029 A 
ATOM     55  N   UNL A   1      41.398  29.381  32.377  1.00  0.00    -0.354 N 
ATOM     56  N   UNL A   1      41.036  31.162  34.682  1.00  0.00    -0.248 NA
ATOM     57  C   UNL A   1      41.620  31.828  36.841  1.00  0.00     0.031 C 
ATOM     58  C   UNL A   1      43.047  27.893  32.446  1.00  0.00     0.029 A 
ATOM     59  C   UNL A   1      42.437  28.909  33.163  1.00  0.00     0.049 A 
ATOM     60  H   UNL A   1      40.778  30.102  32.633  1.00  0.00     0.167 HD
ATOM     61  C   UNL A   1      42.120  30.409  35.112  1.00  0.00     0.074 A 
ATOM     62  C   UNL A   1      42.460  30.886  36.436  1.00  0.00     0.031 C 
ATOM     63  C   UNL A   1      42.775  29.411  34.470  1.00  0.00     0.037 A 
BRANCH  50  64
ATOM     64  C   UNL A   1      40.478  28.065  28.895  1.00  0.00     0.064 A 
ATOM     65  C   UNL A   1      39.765  26.859  28.792  1.00  0.00     0.173 A 
ATOM     66  C   UNL A   1      41.238  28.472  27.790  1.00  0.00     0.173 A 
ATOM     67  F   UNL A   1      39.034  26.417  29.826  1.00  0.00    -0.203 F 
ATOM     68  C   UNL A   1      39.836  26.080  27.640  1.00  0.00     0.198 A 
ATOM     69  C   UNL A   1      41.281  27.706  26.627  1.00  0.00     0.198 A 
ATOM     70  F   UNL A   1      41.934  29.619  27.832  1.00  0.00    -0.203 F 
ATOM     71  F   UNL A   1      39.186  24.910  27.585  1.00  0.00    -0.200 F 
ATOM     72  C   UNL A   1      40.586  26.509  26.556  1.00  0.00     0.200 A 
ATOM     73  F   UNL A   1      41.997  28.128  25.574  1.00  0.00    -0.200 F 
ATOM     74  F   UNL A   1      40.647  25.762  25.445  1.00  0.00    -0.200 F 
ENDBRANCH  50  64
BRANCH  51  75
ATOM     75  C   UNL A   1      39.581  33.920  36.941  1.00  0.00     0.064 A 
ATOM     76  C   UNL A   1      38.801  33.511  38.032  1.00  0.00     0.173 A 
ATOM     77  C   UNL A   1      40.210  35.170  37.021  1.00  0.00     0.173 A 
ATOM     78  F   UNL A   1      38.163  32.333  37.994  1.00  0.00    -0.203 F 
ATOM     79  C   UNL A   1      38.631  34.333  39.144  1.00  0.00     0.198 A 
ATOM     80  C   UNL A   1      40.064  35.978  38.146  1.00  0.00     0.198 A 
ATOM     81  F   UNL A   1      40.971  35.606  36.006  1.00  0.00    -0.203 F 
ATOM     82  F   UNL A   1      37.834  33.942  40.148  1.00  0.00    -0.200 F 
ATOM     83  C   UNL A   1      39.265  35.565  39.202  1.00  0.00     0.200 A 
ATOM     84  F   UNL A   1      40.689  37.162  38.205  1.00  0.00    -0.200 F 
ATOM     85  F   UNL A   1      39.099  36.357  40.270  1.00  0.00    -0.200 F 
ENDBRANCH  51  75
BRANCH  63  86
ATOM     86  C   UNL A   1      43.957  28.803  35.167  1.00  0.00     0.064 A 
ATOM     87  C   UNL A   1      43.820  27.715  36.040  1.00  0.00     0.173 A 
ATOM     88  C   UNL A   1      45.249  29.296  34.927  1.00  0.00     0.173 A 
ATOM     89  F   UNL A   1      42.605  27.217  36.315  1.00  0.00    -0.203 F 
ATOM     90  C   UNL A   1      44.931  27.158  36.668  1.00  0.00     0.198 A 
ATOM     91  C   UNL A   1      46.360  28.717  35.533  1.00  0.00     0.198 A 
ATOM     92  F   UNL A   1      45.434  30.331  34.095  1.00  0.00    -0.203 F 
ATOM     93  F   UNL A   1      44.772  26.150  37.537  1.00  0.00    -0.200 F 
ATOM     94  C   UNL A   1      46.200  27.655  36.408  1.00  0.00     0.200 A 
ATOM     95  F   UNL A   1      47.586  29.189  35.271  1.00  0.00    -0.200 F 
ATOM     96  F   UNL A   1      47.268  27.113  37.009  1.00  0.00    -0.200 F 
ENDBRANCH  63  86
ENDBRANCH  37  38
ENDBRANCH  29  32
ENDBRANCH  27  28
ENDBRANCH  26  27
ENDBRANCH  25  26
ENDBRANCH   1  25
TORSDOF 15
ENDMDL
