MODEL 1
REMARK VINA RESULT:      -9.7      0.000      0.000
REMARK SMILES COc1ccc([C@H](CC(=O)NCCCCNC(=O)c2ccc(-c3c4nc(c(-c5c(F)c(F)c(F)c(F)c5F)c5ccc([nH]5)c(-c5c(F)c(F)c(F)c(F)c5F)c5nc(c(-c6c(F)c(F)c(F)c(F)c6F)c6ccc3[nH]6)C=C5)C=C4)cc2)NC(C)=O)cc1
REMARK SMILES IDX 13 1 12 2 11 3 9 4 10 5 8 7 7 8 6 9 3 10 4 11 87 12 5 13
REMARK SMILES IDX 86 14 2 15 1 16 82 17 83 18 84 20 85 21 14 22 15 23 16 24
REMARK SMILES IDX 17 25 18 27 19 28 20 29 81 30 21 31 80 32 22 33 23 34 24 35
REMARK SMILES IDX 74 36 25 37 79 38 73 39 75 40 26 41 78 42 72 43 71 44 27 46
REMARK SMILES IDX 59 47 39 48 58 49 40 50 43 51 57 52 76 53 41 54 42 55 56 57
REMARK SMILES IDX 77 58 44 59 28 60 29 61 37 62 30 63 31 64 35 65 38 66 32 67
REMARK SMILES IDX 33 68 36 69 34 70 60 71 61 72 69 73 62 74 63 75 67 76 70 77
REMARK SMILES IDX 64 78 65 79 68 80 66 81 45 82 46 83 54 84 47 85 48 86 52 87
REMARK SMILES IDX 55 88 49 89 50 90 53 91 51 92
REMARK H PARENT 11 6 82 19 16 26 75 45 43 56
REMARK Flexibility Score: inf
ROOT
ATOM      1  C   UNL A   1      45.645  18.908  25.259  1.00  0.00     0.023 C 
ENDROOT
BRANCH   1   2
ATOM      2  C   UNL A   1      46.309  20.283  25.214  1.00  0.00     0.116 C 
BRANCH   2   3
ATOM      3  N   UNL A   1      45.687  21.120  24.209  1.00  0.00    -0.356 N 
ATOM      4  C   UNL A   1      45.472  22.465  24.208  1.00  0.00     0.222 C 
ATOM      5  O   UNL A   1      44.856  22.949  23.258  1.00  0.00    -0.275 OA
ATOM      6  H   UNL A   1      45.375  20.646  23.405  1.00  0.00     0.163 HD
BRANCH   4   7
ATOM      7  C   UNL A   1      46.031  23.348  25.308  1.00  0.00     0.129 C 
BRANCH   7   8
ATOM      8  C   UNL A   1      46.361  24.778  24.835  1.00  0.00     0.121 C 
BRANCH   8   9
ATOM      9  C   UNL A   1      45.391  25.845  25.333  1.00  0.00    -0.025 A 
ATOM     10  C   UNL A   1      43.702  27.979  26.088  1.00  0.00     0.118 A 
ATOM     11  C   UNL A   1      45.041  27.963  26.475  1.00  0.00     0.047 A 
ATOM     12  C   UNL A   1      43.187  26.894  25.381  1.00  0.00     0.047 A 
ATOM     13  C   UNL A   1      45.872  26.896  26.127  1.00  0.00     0.010 A 
ATOM     14  C   UNL A   1      44.022  25.828  25.019  1.00  0.00     0.010 A 
BRANCH  10  15
ATOM     15  O   UNL A   1      43.022  29.114  26.424  1.00  0.00    -0.497 OA
ATOM     16  C   UNL A   1      43.798  30.217  26.872  1.00  0.00     0.278 C 
ENDBRANCH  10  15
ENDBRANCH   8   9
BRANCH   8  17
ATOM     17  N   UNL A   1      47.701  25.172  25.254  1.00  0.00    -0.349 N 
ATOM     18  C   UNL A   1      48.577  25.801  24.402  1.00  0.00     0.217 C 
ATOM     19  H   UNL A   1      47.988  24.982  26.177  1.00  0.00     0.164 HD
ATOM     20  C   UNL A   1      49.890  26.179  25.031  1.00  0.00     0.114 C 
ATOM     21  O   UNL A   1      48.331  26.044  23.224  1.00  0.00    -0.275 OA
ENDBRANCH   8  17
ENDBRANCH   7   8
ENDBRANCH   4   7
ENDBRANCH   2   3
ENDBRANCH   1   2
BRANCH   1  22
ATOM     22  C   UNL A   1      44.143  18.911  24.989  1.00  0.00     0.023 C 
BRANCH  22  23
ATOM     23  C   UNL A   1      43.282  18.569  26.198  1.00  0.00     0.116 C 
BRANCH  23  24
ATOM     24  N   UNL A   1      41.851  18.651  25.944  1.00  0.00    -0.352 N 
ATOM     25  C   UNL A   1      40.997  19.699  26.192  1.00  0.00     0.251 C 
ATOM     26  H   UNL A   1      41.441  17.851  25.542  1.00  0.00     0.163 HD
ATOM     27  O   UNL A   1      39.791  19.588  25.997  1.00  0.00    -0.269 OA
BRANCH  25  28
ATOM     28  C   UNL A   1      41.543  20.955  26.744  1.00  0.00     0.039 A 
ATOM     29  C   UNL A   1      42.034  21.920  25.861  1.00  0.00     0.014 A 
ATOM     30  C   UNL A   1      41.518  21.198  28.119  1.00  0.00     0.014 A 
ATOM     31  C   UNL A   1      42.429  23.164  26.354  1.00  0.00     0.010 A 
ATOM     32  C   UNL A   1      41.835  22.463  28.598  1.00  0.00     0.010 A 
ATOM     33  C   UNL A   1      42.293  23.458  27.720  1.00  0.00    -0.014 A 
BRANCH  33  34
ATOM     34  C   UNL A   1      42.617  24.802  28.255  1.00  0.00     0.031 A 
ATOM     35  C   UNL A   1      44.003  25.104  28.745  1.00  0.00     0.074 A 
ATOM     36  C   UNL A   1      41.638  25.717  28.388  1.00  0.00     0.049 A 
ATOM     37  N   UNL A   1      44.461  26.186  29.323  1.00  0.00    -0.248 NA
ATOM     38  C   UNL A   1      44.998  24.031  28.602  1.00  0.00     0.031 C 
ATOM     39  C   UNL A   1      40.235  25.514  28.022  1.00  0.00     0.029 A 
ATOM     40  N   UNL A   1      41.669  26.994  28.890  1.00  0.00    -0.354 N 
ATOM     41  C   UNL A   1      45.786  25.913  29.632  1.00  0.00     0.074 A 
ATOM     42  C   UNL A   1      46.043  24.548  29.230  1.00  0.00     0.031 C 
ATOM     43  C   UNL A   1      39.543  26.629  28.301  1.00  0.00     0.029 A 
ATOM     44  C   UNL A   1      40.445  27.613  28.891  1.00  0.00     0.049 A 
ATOM     45  H   UNL A   1      42.492  27.424  29.217  1.00  0.00     0.167 HD
ATOM     46  C   UNL A   1      46.712  26.737  30.180  1.00  0.00     0.037 A 
ATOM     47  C   UNL A   1      40.088  28.836  29.327  1.00  0.00     0.037 A 
ATOM     48  C   UNL A   1      46.458  28.104  30.547  1.00  0.00     0.049 A 
ATOM     49  C   UNL A   1      41.139  29.750  29.893  1.00  0.00     0.074 A 
ATOM     50  C   UNL A   1      47.349  29.052  31.020  1.00  0.00     0.029 A 
ATOM     51  N   UNL A   1      45.215  28.719  30.484  1.00  0.00    -0.354 N 
ATOM     52  N   UNL A   1      42.414  29.517  30.094  1.00  0.00    -0.248 NA
ATOM     53  C   UNL A   1      40.706  31.099  30.280  1.00  0.00     0.031 C 
ATOM     54  C   UNL A   1      46.635  30.226  31.287  1.00  0.00     0.029 A 
ATOM     55  C   UNL A   1      45.310  30.027  30.935  1.00  0.00     0.049 A 
ATOM     56  H   UNL A   1      44.388  28.289  30.167  1.00  0.00     0.167 HD
ATOM     57  C   UNL A   1      42.939  30.691  30.616  1.00  0.00     0.074 A 
ATOM     58  C   UNL A   1      41.847  31.641  30.683  1.00  0.00     0.031 C 
ATOM     59  C   UNL A   1      44.211  30.956  31.003  1.00  0.00     0.037 A 
BRANCH  46  60
ATOM     60  C   UNL A   1      48.082  26.170  30.413  1.00  0.00     0.064 A 
ATOM     61  C   UNL A   1      48.461  25.642  31.658  1.00  0.00     0.173 A 
ATOM     62  C   UNL A   1      49.032  26.157  29.381  1.00  0.00     0.173 A 
ATOM     63  F   UNL A   1      47.595  25.641  32.683  1.00  0.00    -0.203 F 
ATOM     64  C   UNL A   1      49.751  25.164  31.872  1.00  0.00     0.198 A 
ATOM     65  C   UNL A   1      50.311  25.648  29.589  1.00  0.00     0.198 A 
ATOM     66  F   UNL A   1      48.722  26.643  28.170  1.00  0.00    -0.203 F 
ATOM     67  F   UNL A   1      50.108  24.727  33.087  1.00  0.00    -0.200 F 
ATOM     68  C   UNL A   1      50.672  25.163  30.838  1.00  0.00     0.200 A 
ATOM     69  F   UNL A   1      51.198  25.637  28.586  1.00  0.00    -0.200 F 
ATOM     70  F   UNL A   1      51.916  24.707  31.046  1.00  0.00    -0.200 F 
ENDBRANCH  46  60
BRANCH  47  71
ATOM     71  C   UNL A   1      38.672  29.267  29.210  1.00  0.00     0.064 A 
ATOM     72  C   UNL A   1      37.852  29.359  30.343  1.00  0.00     0.173 A 
ATOM     73  C   UNL A   1      38.124  29.635  27.973  1.00  0.00     0.173 A 
ATOM     74  F   UNL A   1      38.329  29.001  31.545  1.00  0.00    -0.203 F 
ATOM     75  C   UNL A   1      36.533  29.797  30.242  1.00  0.00     0.198 A 
ATOM     76  C   UNL A   1      36.811  30.095  27.878  1.00  0.00     0.198 A 
ATOM     77  F   UNL A   1      38.871  29.572  26.862  1.00  0.00    -0.203 F 
ATOM     78  F   UNL A   1      35.762  29.850  31.336  1.00  0.00    -0.200 F 
ATOM     79  C   UNL A   1      36.017  30.172  29.011  1.00  0.00     0.200 A 
ATOM     80  F   UNL A   1      36.321  30.470  26.688  1.00  0.00    -0.200 F 
ATOM     81  F   UNL A   1      34.753  30.606  28.917  1.00  0.00    -0.200 F 
ENDBRANCH  47  71
BRANCH  59  82
ATOM     82  C   UNL A   1      44.495  32.335  31.524  1.00  0.00     0.064 A 
ATOM     83  C   UNL A   1      44.419  32.631  32.892  1.00  0.00     0.173 A 
ATOM     84  C   UNL A   1      44.892  33.357  30.649  1.00  0.00     0.173 A 
ATOM     85  F   UNL A   1      44.029  31.691  33.767  1.00  0.00    -0.203 F 
ATOM     86  C   UNL A   1      44.709  33.909  33.363  1.00  0.00     0.198 A 
ATOM     87  C   UNL A   1      45.208  34.626  31.127  1.00  0.00     0.198 A 
ATOM     88  F   UNL A   1      44.985  33.121  29.331  1.00  0.00    -0.203 F 
ATOM     89  F   UNL A   1      44.591  34.182  34.670  1.00  0.00    -0.200 F 
ATOM     90  C   UNL A   1      45.111  34.902  32.483  1.00  0.00     0.200 A 
ATOM     91  F   UNL A   1      45.608  35.580  30.276  1.00  0.00    -0.200 F 
ATOM     92  F   UNL A   1      45.399  36.128  32.939  1.00  0.00    -0.200 F 
ENDBRANCH  59  82
ENDBRANCH  33  34
ENDBRANCH  25  28
ENDBRANCH  23  24
ENDBRANCH  22  23
ENDBRANCH   1  22
TORSDOF 15
ENDMDL
MODEL 2
REMARK VINA RESULT:      -9.6      6.345     11.838
REMARK SMILES COc1ccc([C@H](CC(=O)NCCCCNC(=O)c2ccc(-c3c4nc(c(-c5c(F)c(F)c(F)c(F)c5F)c5ccc([nH]5)c(-c5c(F)c(F)c(F)c(F)c5F)c5nc(c(-c6c(F)c(F)c(F)c(F)c6F)c6ccc3[nH]6)C=C5)C=C4)cc2)NC(C)=O)cc1
REMARK SMILES IDX 13 1 12 2 11 3 9 4 10 5 8 7 7 8 6 9 3 10 4 11 87 12 5 13
REMARK SMILES IDX 86 14 2 15 1 16 82 17 83 18 84 20 85 21 14 22 15 23 16 24
REMARK SMILES IDX 17 25 18 27 19 28 20 29 81 30 21 31 80 32 22 33 23 34 24 35
REMARK SMILES IDX 74 36 25 37 79 38 73 39 75 40 26 41 78 42 72 43 71 44 27 46
REMARK SMILES IDX 59 47 39 48 58 49 40 50 43 51 57 52 76 53 41 54 42 55 56 57
REMARK SMILES IDX 77 58 44 59 28 60 29 61 37 62 30 63 31 64 35 65 38 66 32 67
REMARK SMILES IDX 33 68 36 69 34 70 60 71 61 72 69 73 62 74 63 75 67 76 70 77
REMARK SMILES IDX 64 78 65 79 68 80 66 81 45 82 46 83 54 84 47 85 48 86 52 87
REMARK SMILES IDX 55 88 49 89 50 90 53 91 51 92
REMARK H PARENT 11 6 82 19 16 26 75 45 43 56
REMARK Flexibility Score: inf
ROOT
ATOM      1  C   UNL A   1      31.821  30.444  26.990  1.00  0.00     0.023 C 
ENDROOT
BRANCH   1   2
ATOM      2  C   UNL A   1      33.158  29.771  26.686  1.00  0.00     0.116 C 
BRANCH   2   3
ATOM      3  N   UNL A   1      33.447  29.822  25.268  1.00  0.00    -0.356 N 
ATOM      4  C   UNL A   1      32.962  29.057  24.253  1.00  0.00     0.222 C 
ATOM      5  O   UNL A   1      33.412  29.246  23.122  1.00  0.00    -0.275 OA
ATOM      6  H   UNL A   1      34.090  30.517  24.998  1.00  0.00     0.163 HD
BRANCH   4   7
ATOM      7  C   UNL A   1      31.854  28.048  24.493  1.00  0.00     0.129 C 
BRANCH   7   8
ATOM      8  C   UNL A   1      30.833  27.975  23.340  1.00  0.00     0.121 C 
BRANCH   8   9
ATOM      9  C   UNL A   1      30.145  29.299  23.024  1.00  0.00    -0.025 A 
ATOM     10  C   UNL A   1      28.670  31.617  22.370  1.00  0.00     0.118 A 
ATOM     11  C   UNL A   1      29.182  30.796  21.367  1.00  0.00     0.047 A 
ATOM     12  C   UNL A   1      28.953  31.319  23.702  1.00  0.00     0.047 A 
ATOM     13  C   UNL A   1      29.935  29.664  21.687  1.00  0.00     0.010 A 
ATOM     14  C   UNL A   1      29.698  30.177  24.025  1.00  0.00     0.010 A 
BRANCH  10  15
ATOM     15  O   UNL A   1      27.887  32.643  21.926  1.00  0.00    -0.497 OA
ATOM     16  C   UNL A   1      27.712  32.755  20.520  1.00  0.00     0.278 C 
ENDBRANCH  10  15
ENDBRANCH   8   9
BRANCH   8  17
ATOM     17  N   UNL A   1      31.460  27.501  22.113  1.00  0.00    -0.349 N 
ATOM     18  C   UNL A   1      31.696  26.167  21.881  1.00  0.00     0.217 C 
ATOM     19  H   UNL A   1      31.724  28.157  21.427  1.00  0.00     0.164 HD
ATOM     20  C   UNL A   1      32.300  25.869  20.535  1.00  0.00     0.114 C 
ATOM     21  O   UNL A   1      31.444  25.277  22.687  1.00  0.00    -0.275 OA
ENDBRANCH   8  17
ENDBRANCH   7   8
ENDBRANCH   4   7
ENDBRANCH   2   3
ENDBRANCH   1   2
BRANCH   1  22
ATOM     22  C   UNL A   1      31.765  31.935  26.673  1.00  0.00     0.023 C 
BRANCH  22  23
ATOM     23  C   UNL A   1      32.863  32.763  27.328  1.00  0.00     0.116 C 
BRANCH  23  24
ATOM     24  N   UNL A   1      32.460  34.124  27.652  1.00  0.00    -0.352 N 
ATOM     25  C   UNL A   1      32.995  34.973  28.591  1.00  0.00     0.251 C 
ATOM     26  H   UNL A   1      31.705  34.483  27.132  1.00  0.00     0.163 HD
ATOM     27  O   UNL A   1      32.491  36.071  28.807  1.00  0.00    -0.269 OA
BRANCH  25  28
ATOM     28  C   UNL A   1      34.165  34.531  29.375  1.00  0.00     0.039 A 
ATOM     29  C   UNL A   1      33.954  33.933  30.620  1.00  0.00     0.014 A 
ATOM     30  C   UNL A   1      35.457  34.658  28.859  1.00  0.00     0.014 A 
ATOM     31  C   UNL A   1      35.036  33.391  31.314  1.00  0.00     0.010 A 
ATOM     32  C   UNL A   1      36.520  34.047  29.512  1.00  0.00     0.010 A 
ATOM     33  C   UNL A   1      36.320  33.407  30.744  1.00  0.00    -0.014 A 
BRANCH  33  34
ATOM     34  C   UNL A   1      37.469  32.754  31.417  1.00  0.00     0.031 A 
ATOM     35  C   UNL A   1      38.153  31.584  30.773  1.00  0.00     0.074 A 
ATOM     36  C   UNL A   1      37.832  33.156  32.650  1.00  0.00     0.049 A 
ATOM     37  N   UNL A   1      39.116  30.828  31.237  1.00  0.00    -0.248 NA
ATOM     38  C   UNL A   1      37.662  31.185  29.446  1.00  0.00     0.031 C 
ATOM     39  C   UNL A   1      37.192  34.231  33.412  1.00  0.00     0.029 A 
ATOM     40  N   UNL A   1      38.814  32.692  33.489  1.00  0.00    -0.354 N 
ATOM     41  C   UNL A   1      39.327  29.855  30.272  1.00  0.00     0.074 A 
ATOM     42  C   UNL A   1      38.356  30.080  29.223  1.00  0.00     0.031 C 
ATOM     43  C   UNL A   1      37.804  34.350  34.600  1.00  0.00     0.029 A 
ATOM     44  C   UNL A   1      38.858  33.344  34.695  1.00  0.00     0.049 A 
ATOM     45  H   UNL A   1      39.428  31.962  33.247  1.00  0.00     0.167 HD
ATOM     46  C   UNL A   1      40.263  28.875  30.251  1.00  0.00     0.037 A 
ATOM     47  C   UNL A   1      39.654  33.148  35.763  1.00  0.00     0.037 A 
ATOM     48  C   UNL A   1      41.246  28.677  31.282  1.00  0.00     0.049 A 
ATOM     49  C   UNL A   1      40.714  32.083  35.702  1.00  0.00     0.074 A 
ATOM     50  C   UNL A   1      42.296  27.777  31.313  1.00  0.00     0.029 A 
ATOM     51  N   UNL A   1      41.296  29.392  32.470  1.00  0.00    -0.354 N 
ATOM     52  N   UNL A   1      40.969  31.226  34.743  1.00  0.00    -0.248 NA
ATOM     53  C   UNL A   1      41.603  31.966  36.865  1.00  0.00     0.031 C 
ATOM     54  C   UNL A   1      42.954  27.917  32.540  1.00  0.00     0.029 A 
ATOM     55  C   UNL A   1      42.345  28.936  33.254  1.00  0.00     0.049 A 
ATOM     56  H   UNL A   1      40.678  30.117  32.719  1.00  0.00     0.167 HD
ATOM     57  C   UNL A   1      42.055  30.479  35.177  1.00  0.00     0.074 A 
ATOM     58  C   UNL A   1      42.422  30.997  36.480  1.00  0.00     0.031 C 
ATOM     59  C   UNL A   1      42.690  29.457  34.552  1.00  0.00     0.037 A 
BRANCH  46  60
ATOM     60  C   UNL A   1      40.257  27.946  29.072  1.00  0.00     0.064 A 
ATOM     61  C   UNL A   1      39.519  26.751  29.076  1.00  0.00     0.173 A 
ATOM     62  C   UNL A   1      41.001  28.251  27.922  1.00  0.00     0.173 A 
ATOM     63  F   UNL A   1      38.800  26.406  30.155  1.00  0.00    -0.203 F 
ATOM     64  C   UNL A   1      39.562  25.877  27.993  1.00  0.00     0.198 A 
ATOM     65  C   UNL A   1      41.016  27.390  26.828  1.00  0.00     0.198 A 
ATOM     66  F   UNL A   1      41.720  29.382  27.861  1.00  0.00    -0.203 F 
ATOM     67  F   UNL A   1      38.904  24.711  28.049  1.00  0.00    -0.200 F 
ATOM     68  C   UNL A   1      40.307  26.198  26.870  1.00  0.00     0.200 A 
ATOM     69  F   UNL A   1      41.727  27.706  25.738  1.00  0.00    -0.200 F 
ATOM     70  F   UNL A   1      40.352  25.353  25.830  1.00  0.00    -0.200 F 
ENDBRANCH  46  60
BRANCH  47  71
ATOM     71  C   UNL A   1      39.490  34.006  36.963  1.00  0.00     0.064 A 
ATOM     72  C   UNL A   1      38.738  33.571  38.062  1.00  0.00     0.173 A 
ATOM     73  C   UNL A   1      40.115  35.258  37.052  1.00  0.00     0.173 A 
ATOM     74  F   UNL A   1      38.108  32.387  38.015  1.00  0.00    -0.203 F 
ATOM     75  C   UNL A   1      38.610  34.359  39.204  1.00  0.00     0.198 A 
ATOM     76  C   UNL A   1      40.006  36.035  38.204  1.00  0.00     0.198 A 
ATOM     77  F   UNL A   1      40.852  35.715  36.029  1.00  0.00    -0.203 F 
ATOM     78  F   UNL A   1      37.864  33.931  40.231  1.00  0.00    -0.200 F 
ATOM     79  C   UNL A   1      39.252  35.587  39.276  1.00  0.00     0.200 A 
ATOM     80  F   UNL A   1      40.639  37.215  38.276  1.00  0.00    -0.200 F 
ATOM     81  F   UNL A   1      39.140  36.337  40.381  1.00  0.00    -0.200 F 
ENDBRANCH  47  71
BRANCH  59  82
ATOM     82  C   UNL A   1      43.857  28.838  35.264  1.00  0.00     0.064 A 
ATOM     83  C   UNL A   1      45.164  29.313  35.078  1.00  0.00     0.173 A 
ATOM     84  C   UNL A   1      43.660  27.789  36.175  1.00  0.00     0.173 A 
ATOM     85  F   UNL A   1      45.405  30.303  34.207  1.00  0.00    -0.203 F 
ATOM     86  C   UNL A   1      46.234  28.744  35.764  1.00  0.00     0.198 A 
ATOM     87  C   UNL A   1      44.729  27.242  36.878  1.00  0.00     0.198 A 
ATOM     88  F   UNL A   1      42.428  27.304  36.390  1.00  0.00    -0.203 F 
ATOM     89  F   UNL A   1      47.480  29.185  35.541  1.00  0.00    -0.200 F 
ATOM     90  C   UNL A   1      46.015  27.716  36.668  1.00  0.00     0.200 A 
ATOM     91  F   UNL A   1      44.514  26.256  37.760  1.00  0.00    -0.200 F 
ATOM     92  F   UNL A   1      47.045  27.176  37.333  1.00  0.00    -0.200 F 
ENDBRANCH  59  82
ENDBRANCH  33  34
ENDBRANCH  25  28
ENDBRANCH  23  24
ENDBRANCH  22  23
ENDBRANCH   1  22
TORSDOF 15
ENDMDL
MODEL 3
REMARK VINA RESULT:      -9.5      3.875     10.573
REMARK SMILES COc1ccc([C@H](CC(=O)NCCCCNC(=O)c2ccc(-c3c4nc(c(-c5c(F)c(F)c(F)c(F)c5F)c5ccc([nH]5)c(-c5c(F)c(F)c(F)c(F)c5F)c5nc(c(-c6c(F)c(F)c(F)c(F)c6F)c6ccc3[nH]6)C=C5)C=C4)cc2)NC(C)=O)cc1
REMARK SMILES IDX 13 1 12 2 11 3 9 4 10 5 8 7 7 8 6 9 3 10 4 11 87 12 5 13
REMARK SMILES IDX 86 14 2 15 1 16 82 17 83 18 84 20 85 21 14 22 15 23 16 24
REMARK SMILES IDX 17 25 18 27 19 28 20 29 81 30 21 31 80 32 22 33 23 34 24 35
REMARK SMILES IDX 74 36 25 37 79 38 73 39 75 40 26 41 78 42 72 43 71 44 27 46
REMARK SMILES IDX 59 47 39 48 58 49 40 50 43 51 57 52 76 53 41 54 42 55 56 57
REMARK SMILES IDX 77 58 44 59 28 60 29 61 37 62 30 63 31 64 35 65 38 66 32 67
REMARK SMILES IDX 33 68 36 69 34 70 60 71 61 72 69 73 62 74 63 75 67 76 70 77
REMARK SMILES IDX 64 78 65 79 68 80 66 81 45 82 46 83 54 84 47 85 48 86 52 87
REMARK SMILES IDX 55 88 49 89 50 90 53 91 51 92
REMARK H PARENT 11 6 82 19 16 26 75 45 43 56
REMARK Flexibility Score: inf
ROOT
ATOM      1  C   UNL A   1      33.326  34.579  29.168  1.00  0.00     0.023 C 
ENDROOT
BRANCH   1   2
ATOM      2  C   UNL A   1      34.415  34.732  30.228  1.00  0.00     0.116 C 
BRANCH   2   3
ATOM      3  N   UNL A   1      33.914  34.364  31.536  1.00  0.00    -0.356 N 
ATOM      4  C   UNL A   1      34.151  33.246  32.275  1.00  0.00     0.222 C 
ATOM      5  O   UNL A   1      33.551  33.124  33.344  1.00  0.00    -0.275 OA
ATOM      6  H   UNL A   1      33.313  35.022  31.953  1.00  0.00     0.163 HD
BRANCH   4   7
ATOM      7  C   UNL A   1      35.171  32.215  31.831  1.00  0.00     0.129 C 
BRANCH   7   8
ATOM      8  C   UNL A   1      36.604  32.526  32.308  1.00  0.00     0.121 C 
BRANCH   8   9
ATOM      9  C   UNL A   1      37.453  33.287  31.294  1.00  0.00    -0.025 A 
ATOM     10  C   UNL A   1      39.222  34.558  29.497  1.00  0.00     0.118 A 
ATOM     11  C   UNL A   1      39.261  34.853  30.859  1.00  0.00     0.047 A 
ATOM     12  C   UNL A   1      38.252  33.678  29.021  1.00  0.00     0.047 A 
ATOM     13  C   UNL A   1      38.369  34.246  31.746  1.00  0.00     0.010 A 
ATOM     14  C   UNL A   1      37.364  33.058  29.911  1.00  0.00     0.010 A 
BRANCH  10  15
ATOM     15  O   UNL A   1      40.197  35.157  28.753  1.00  0.00    -0.497 OA
ATOM     16  C   UNL A   1      41.526  35.072  29.249  1.00  0.00     0.278 C 
ENDBRANCH  10  15
ENDBRANCH   8   9
BRANCH   8  17
ATOM     17  N   UNL A   1      36.588  33.304  33.541  1.00  0.00    -0.349 N 
ATOM     18  C   UNL A   1      37.015  32.783  34.739  1.00  0.00     0.217 C 
ATOM     19  H   UNL A   1      36.262  34.233  33.515  1.00  0.00     0.164 HD
ATOM     20  C   UNL A   1      36.977  33.754  35.887  1.00  0.00     0.114 C 
ATOM     21  O   UNL A   1      37.400  31.626  34.884  1.00  0.00    -0.275 OA
ENDBRANCH   8  17
ENDBRANCH   7   8
ENDBRANCH   4   7
ENDBRANCH   2   3
ENDBRANCH   1   2
BRANCH   1  22
ATOM     22  C   UNL A   1      33.682  33.649  28.012  1.00  0.00     0.023 C 
BRANCH  22  23
ATOM     23  C   UNL A   1      34.513  32.435  28.408  1.00  0.00     0.116 C 
BRANCH  23  24
ATOM     24  N   UNL A   1      33.927  31.164  28.005  1.00  0.00    -0.352 N 
ATOM     25  C   UNL A   1      34.531  29.932  27.923  1.00  0.00     0.251 C 
ATOM     26  H   UNL A   1      32.974  31.190  27.760  1.00  0.00     0.163 HD
ATOM     27  O   UNL A   1      33.923  28.961  27.486  1.00  0.00    -0.269 OA
BRANCH  25  28
ATOM     28  C   UNL A   1      35.945  29.797  28.327  1.00  0.00     0.039 A 
ATOM     29  C   UNL A   1      36.236  29.339  29.614  1.00  0.00     0.014 A 
ATOM     30  C   UNL A   1      36.972  30.069  27.421  1.00  0.00     0.014 A 
ATOM     31  C   UNL A   1      37.561  29.079  29.967  1.00  0.00     0.010 A 
ATOM     32  C   UNL A   1      38.281  29.734  27.746  1.00  0.00     0.010 A 
ATOM     33  C   UNL A   1      38.587  29.235  29.021  1.00  0.00    -0.014 A 
BRANCH  33  34
ATOM     34  C   UNL A   1      39.990  28.876  29.341  1.00  0.00     0.031 A 
ATOM     35  C   UNL A   1      40.860  29.838  30.096  1.00  0.00     0.074 A 
ATOM     36  C   UNL A   1      40.506  27.727  28.865  1.00  0.00     0.049 A 
ATOM     37  N   UNL A   1      42.131  29.746  30.398  1.00  0.00    -0.248 NA
ATOM     38  C   UNL A   1      40.226  31.089  30.538  1.00  0.00     0.031 C 
ATOM     39  C   UNL A   1      39.782  26.748  28.052  1.00  0.00     0.029 A 
ATOM     40  N   UNL A   1      41.767  27.198  28.979  1.00  0.00    -0.354 N 
ATOM     41  C   UNL A   1      42.450  30.933  31.040  1.00  0.00     0.074 A 
ATOM     42  C   UNL A   1      41.258  31.752  31.036  1.00  0.00     0.031 C 
ATOM     43  C   UNL A   1      40.607  25.734  27.749  1.00  0.00     0.029 A 
ATOM     44  C   UNL A   1      41.922  26.004  28.321  1.00  0.00     0.049 A 
ATOM     45  H   UNL A   1      42.490  27.633  29.485  1.00  0.00     0.167 HD
ATOM     46  C   UNL A   1      43.627  31.297  31.605  1.00  0.00     0.037 A 
ATOM     47  C   UNL A   1      43.007  25.218  28.188  1.00  0.00     0.037 A 
ATOM     48  C   UNL A   1      44.799  30.464  31.634  1.00  0.00     0.049 A 
ATOM     49  C   UNL A   1      44.292  25.620  28.858  1.00  0.00     0.074 A 
ATOM     50  C   UNL A   1      46.010  30.697  32.261  1.00  0.00     0.029 A 
ATOM     51  N   UNL A   1      44.907  29.233  31.002  1.00  0.00    -0.354 N 
ATOM     52  N   UNL A   1      44.560  26.703  29.546  1.00  0.00    -0.248 NA
ATOM     53  C   UNL A   1      45.420  24.686  28.743  1.00  0.00     0.031 C 
ATOM     54  C   UNL A   1      46.865  29.628  31.970  1.00  0.00     0.029 A 
ATOM     55  C   UNL A   1      46.173  28.706  31.202  1.00  0.00     0.049 A 
ATOM     56  H   UNL A   1      44.189  28.798  30.487  1.00  0.00     0.167 HD
ATOM     57  C   UNL A   1      45.878  26.576  29.960  1.00  0.00     0.074 A 
ATOM     58  C   UNL A   1      46.351  25.301  29.460  1.00  0.00     0.031 C 
ATOM     59  C   UNL A   1      46.629  27.438  30.689  1.00  0.00     0.037 A 
BRANCH  46  60
ATOM     60  C   UNL A   1      43.694  32.659  32.232  1.00  0.00     0.064 A 
ATOM     61  C   UNL A   1      43.307  32.877  33.564  1.00  0.00     0.173 A 
ATOM     62  C   UNL A   1      44.147  33.761  31.493  1.00  0.00     0.173 A 
ATOM     63  F   UNL A   1      42.854  31.859  34.312  1.00  0.00    -0.203 F 
ATOM     64  C   UNL A   1      43.329  34.155  34.117  1.00  0.00     0.198 A 
ATOM     65  C   UNL A   1      44.200  35.032  32.060  1.00  0.00     0.198 A 
ATOM     66  F   UNL A   1      44.536  33.608  30.218  1.00  0.00    -0.203 F 
ATOM     67  F   UNL A   1      42.891  34.350  35.368  1.00  0.00    -0.200 F 
ATOM     68  C   UNL A   1      43.779  35.230  33.367  1.00  0.00     0.200 A 
ATOM     69  F   UNL A   1      44.645  36.069  31.337  1.00  0.00    -0.200 F 
ATOM     70  F   UNL A   1      43.795  36.460  33.899  1.00  0.00    -0.200 F 
ENDBRANCH  46  60
BRANCH  47  71
ATOM     71  C   UNL A   1      42.904  23.958  27.410  1.00  0.00     0.064 A 
ATOM     72  C   UNL A   1      43.280  23.912  26.061  1.00  0.00     0.173 A 
ATOM     73  C   UNL A   1      42.469  22.767  28.009  1.00  0.00     0.173 A 
ATOM     74  F   UNL A   1      43.687  25.030  25.441  1.00  0.00    -0.203 F 
ATOM     75  C   UNL A   1      43.217  22.723  25.337  1.00  0.00     0.198 A 
ATOM     76  C   UNL A   1      42.429  21.574  27.290  1.00  0.00     0.198 A 
ATOM     77  F   UNL A   1      42.106  22.759  29.300  1.00  0.00    -0.203 F 
ATOM     78  F   UNL A   1      43.557  22.712  24.041  1.00  0.00    -0.200 F 
ATOM     79  C   UNL A   1      42.799  21.554  25.955  1.00  0.00     0.200 A 
ATOM     80  F   UNL A   1      42.038  20.443  27.895  1.00  0.00    -0.200 F 
ATOM     81  F   UNL A   1      42.753  20.408  25.262  1.00  0.00    -0.200 F 
ENDBRANCH  47  71
BRANCH  59  82
ATOM     82  C   UNL A   1      48.038  27.026  31.001  1.00  0.00     0.064 A 
ATOM     83  C   UNL A   1      48.333  26.196  32.092  1.00  0.00     0.173 A 
ATOM     84  C   UNL A   1      49.097  27.431  30.174  1.00  0.00     0.173 A 
ATOM     85  F   UNL A   1      47.357  25.795  32.920  1.00  0.00    -0.203 F 
ATOM     86  C   UNL A   1      49.642  25.801  32.354  1.00  0.00     0.198 A 
ATOM     87  C   UNL A   1      50.401  27.012  30.424  1.00  0.00     0.198 A 
ATOM     88  F   UNL A   1      48.864  28.221  29.116  1.00  0.00    -0.203 F 
ATOM     89  F   UNL A   1      49.909  25.041  33.425  1.00  0.00    -0.200 F 
ATOM     90  C   UNL A   1      50.673  26.203  31.518  1.00  0.00     0.200 A 
ATOM     91  F   UNL A   1      51.393  27.391  29.608  1.00  0.00    -0.200 F 
ATOM     92  F   UNL A   1      51.931  25.816  31.767  1.00  0.00    -0.200 F 
ENDBRANCH  59  82
ENDBRANCH  33  34
ENDBRANCH  25  28
ENDBRANCH  23  24
ENDBRANCH  22  23
ENDBRANCH   1  22
TORSDOF 15
ENDMDL
