MODEL 1
REMARK VINA RESULT:     -12.7      0.000      0.000
REMARK SMILES C[C@@H](Oc1ccccc1Cl)C(=O)Nc1ccc(C(=O)NCCCCNC(=O)c2ccc(-c3c4nc(c(-c5c(F)c(F)c(F)c(F)c5F)c5ccc([nH]5)c(-c5c(F)c(F)c(F)c(F)c5F)c5nc(c(-c6c(F)c(F)c(F)c(F)c6F)c6ccc3[nH]6)C=C5)C=C4)cc2)cc1
REMARK SMILES IDX 21 1 20 2 18 3 19 4 17 6 14 7 15 8 92 9 16 10 91 11 13 12
REMARK SMILES IDX 11 13 12 14 2 16 1 17 3 18 4 19 5 20 9 21 6 22 8 23 10 24
REMARK SMILES IDX 7 25 22 26 23 27 24 28 25 29 26 30 27 32 28 33 29 34 90 35
REMARK SMILES IDX 30 36 89 37 31 38 32 39 33 40 83 41 34 42 88 43 82 44 84 45
REMARK SMILES IDX 35 46 87 47 81 48 80 49 36 51 68 52 48 53 67 54 49 55 52 56
REMARK SMILES IDX 66 57 85 58 50 59 51 60 65 62 86 63 53 64 37 65 38 66 46 67
REMARK SMILES IDX 39 68 40 69 44 70 47 71 41 72 42 73 45 74 43 75 69 76 70 77
REMARK SMILES IDX 78 78 71 79 72 80 76 81 79 82 73 83 74 84 77 85 75 86 54 87
REMARK SMILES IDX 55 88 63 89 56 90 57 91 61 92 64 93 58 94 59 95 62 96 60 97
REMARK H PARENT 20 5 13 15 25 31 84 50 52 61
REMARK Flexibility Score: inf
ROOT
ATOM      1  C   UNL A   1      32.517  30.496  26.953  1.00  0.00     0.116 C 
ENDROOT
BRANCH   1   2
ATOM      2  N   UNL A   1      32.013  29.254  27.511  1.00  0.00    -0.352 N 
ATOM      3  C   UNL A   1      31.707  28.060  26.901  1.00  0.00     0.251 C 
ATOM      4  O   UNL A   1      31.390  27.103  27.603  1.00  0.00    -0.269 OA
ATOM      5  H   UNL A   1      31.867  29.269  28.484  1.00  0.00     0.163 HD
BRANCH   3   6
ATOM      6  C   UNL A   1      31.825  27.879  25.429  1.00  0.00     0.039 A 
ATOM      7  C   UNL A   1      32.035  27.185  22.730  1.00  0.00     0.041 A 
ATOM      8  C   UNL A   1      30.814  27.043  23.384  1.00  0.00     0.027 A 
ATOM      9  C   UNL A   1      33.090  27.830  23.368  1.00  0.00     0.027 A 
ATOM     10  C   UNL A   1      30.719  27.360  24.743  1.00  0.00     0.016 A 
ATOM     11  C   UNL A   1      32.974  28.203  24.706  1.00  0.00     0.016 A 
BRANCH   7  12
ATOM     12  N   UNL A   1      32.161  26.704  21.426  1.00  0.00    -0.323 N 
ATOM     13  C   UNL A   1      32.747  25.544  20.993  1.00  0.00     0.265 C 
ATOM     14  O   UNL A   1      32.902  25.401  19.773  1.00  0.00    -0.270 OA
ATOM     15  H   UNL A   1      31.776  27.275  20.723  1.00  0.00     0.170 HD
BRANCH  13  16
ATOM     16  C   UNL A   1      33.135  24.390  21.959  1.00  0.00     0.259 C 
ATOM     17  C   UNL A   1      33.059  23.042  21.249  1.00  0.00     0.064 C 
BRANCH  16  18
ATOM     18  O   UNL A   1      34.407  24.554  22.593  1.00  0.00    -0.479 OA
BRANCH  18  19
ATOM     19  C   UNL A   1      34.455  24.087  23.881  1.00  0.00     0.139 A 
ATOM     20  C   UNL A   1      33.507  24.528  24.809  1.00  0.00     0.048 A 
ATOM     21  C   UNL A   1      35.518  23.280  24.307  1.00  0.00     0.083 A 
ATOM     22  C   UNL A   1      33.602  24.132  26.147  1.00  0.00     0.004 A 
ATOM     23  C   UNL A   1      35.609  22.888  25.644  1.00  0.00     0.024 A 
ATOM     24  Cl  UNL A   1      36.745  22.738  23.223  1.00  0.00    -0.080 Cl
ATOM     25  C   UNL A   1      34.650  23.311  26.564  1.00  0.00     0.002 A 
ENDBRANCH  18  19
ENDBRANCH  16  18
ENDBRANCH  13  16
ENDBRANCH   7  12
ENDBRANCH   3   6
ENDBRANCH   1   2
BRANCH   1  26
ATOM     26  C   UNL A   1      31.405  31.279  26.251  1.00  0.00     0.023 C 
BRANCH  26  27
ATOM     27  C   UNL A   1      31.409  32.778  26.554  1.00  0.00     0.023 C 
BRANCH  27  28
ATOM     28  C   UNL A   1      32.629  33.267  27.323  1.00  0.00     0.116 C 
BRANCH  28  29
ATOM     29  N   UNL A   1      32.472  34.610  27.857  1.00  0.00    -0.352 N 
ATOM     30  C   UNL A   1      33.178  35.218  28.866  1.00  0.00     0.251 C 
ATOM     31  H   UNL A   1      31.768  35.156  27.439  1.00  0.00     0.163 HD
ATOM     32  O   UNL A   1      32.844  36.324  29.281  1.00  0.00    -0.269 OA
BRANCH  30  33
ATOM     33  C   UNL A   1      34.329  34.518  29.476  1.00  0.00     0.039 A 
ATOM     34  C   UNL A   1      34.103  33.658  30.554  1.00  0.00     0.014 A 
ATOM     35  C   UNL A   1      35.624  34.706  28.987  1.00  0.00     0.014 A 
ATOM     36  C   UNL A   1      35.173  32.955  31.113  1.00  0.00     0.010 A 
ATOM     37  C   UNL A   1      36.672  33.942  29.487  1.00  0.00     0.010 A 
ATOM     38  C   UNL A   1      36.462  33.076  30.570  1.00  0.00    -0.014 A 
BRANCH  38  39
ATOM     39  C   UNL A   1      37.614  32.344  31.154  1.00  0.00     0.031 A 
ATOM     40  C   UNL A   1      38.113  32.711  32.525  1.00  0.00     0.074 A 
ATOM     41  C   UNL A   1      38.237  31.387  30.441  1.00  0.00     0.049 A 
ATOM     42  N   UNL A   1      39.130  32.229  33.196  1.00  0.00    -0.248 NA
ATOM     43  C   UNL A   1      37.392  33.788  33.224  1.00  0.00     0.031 C 
ATOM     44  C   UNL A   1      37.877  30.973  29.084  1.00  0.00     0.029 A 
ATOM     45  N   UNL A   1      39.309  30.591  30.759  1.00  0.00    -0.354 N 
ATOM     46  C   UNL A   1      39.175  32.952  34.381  1.00  0.00     0.074 A 
ATOM     47  C   UNL A   1      38.131  33.949  34.311  1.00  0.00     0.031 C 
ATOM     48  C   UNL A   1      38.694  29.979  28.698  1.00  0.00     0.029 A 
ATOM     49  C   UNL A   1      39.654  29.709  29.764  1.00  0.00     0.049 A 
ATOM     50  H   UNL A   1      39.785  30.647  31.618  1.00  0.00     0.167 HD
ATOM     51  C   UNL A   1      39.992  32.779  35.448  1.00  0.00     0.037 A 
ATOM     52  C   UNL A   1      40.634  28.787  29.722  1.00  0.00     0.037 A 
ATOM     53  C   UNL A   1      41.013  31.768  35.525  1.00  0.00     0.049 A 
ATOM     54  C   UNL A   1      41.530  28.614  30.920  1.00  0.00     0.074 A 
ATOM     55  C   UNL A   1      41.865  31.479  36.575  1.00  0.00     0.029 A 
ATOM     56  N   UNL A   1      41.317  30.877  34.505  1.00  0.00    -0.354 N 
ATOM     57  N   UNL A   1      41.523  29.258  32.062  1.00  0.00    -0.248 NA
ATOM     58  C   UNL A   1      42.565  27.575  30.826  1.00  0.00     0.031 C 
ATOM     59  C   UNL A   1      42.715  30.443  36.176  1.00  0.00     0.029 A 
ATOM     60  C   UNL A   1      42.353  30.047  34.898  1.00  0.00     0.049 A 
ATOM     61  H   UNL A   1      40.863  30.841  33.633  1.00  0.00     0.167 HD
ATOM     62  C   UNL A   1      42.518  28.676  32.836  1.00  0.00     0.074 A 
ATOM     63  C   UNL A   1      43.104  27.621  32.036  1.00  0.00     0.031 C 
ATOM     64  C   UNL A   1      42.910  28.986  34.097  1.00  0.00     0.037 A 
BRANCH  51  65
ATOM     65  C   UNL A   1      39.807  33.704  36.618  1.00  0.00     0.064 A 
ATOM     66  C   UNL A   1      38.962  33.373  37.690  1.00  0.00     0.173 A 
ATOM     67  C   UNL A   1      40.493  34.925  36.679  1.00  0.00     0.173 A 
ATOM     68  F   UNL A   1      38.271  32.223  37.676  1.00  0.00    -0.203 F 
ATOM     69  C   UNL A   1      38.782  34.247  38.759  1.00  0.00     0.198 A 
ATOM     70  C   UNL A   1      40.338  35.781  37.767  1.00  0.00     0.198 A 
ATOM     71  F   UNL A   1      41.318  35.289  35.686  1.00  0.00    -0.203 F 
ATOM     72  F   UNL A   1      37.923  33.937  39.739  1.00  0.00    -0.200 F 
ATOM     73  C   UNL A   1      39.476  35.447  38.800  1.00  0.00     0.200 A 
ATOM     74  F   UNL A   1      41.021  36.934  37.812  1.00  0.00    -0.200 F 
ATOM     75  F   UNL A   1      39.306  36.286  39.831  1.00  0.00    -0.200 F 
ENDBRANCH  51  65
BRANCH  52  76
ATOM     76  C   UNL A   1      40.793  27.922  28.523  1.00  0.00     0.064 A 
ATOM     77  C   UNL A   1      41.580  28.336  27.439  1.00  0.00     0.173 A 
ATOM     78  C   UNL A   1      40.157  26.676  28.429  1.00  0.00     0.173 A 
ATOM     79  F   UNL A   1      42.194  29.528  27.473  1.00  0.00    -0.203 F 
ATOM     80  C   UNL A   1      41.703  27.550  26.296  1.00  0.00     0.198 A 
ATOM     81  C   UNL A   1      40.305  25.877  27.296  1.00  0.00     0.198 A 
ATOM     82  F   UNL A   1      39.398  26.230  29.440  1.00  0.00    -0.203 F 
ATOM     83  F   UNL A   1      42.420  27.994  25.253  1.00  0.00    -0.200 F 
ATOM     84  C   UNL A   1      41.069  26.318  26.227  1.00  0.00     0.200 A 
ATOM     85  F   UNL A   1      39.703  24.682  27.240  1.00  0.00    -0.200 F 
ATOM     86  F   UNL A   1      41.188  25.562  25.127  1.00  0.00    -0.200 F 
ENDBRANCH  52  76
BRANCH  64  87
ATOM     87  C   UNL A   1      43.981  28.134  34.715  1.00  0.00     0.064 A 
ATOM     88  C   UNL A   1      43.687  26.926  35.363  1.00  0.00     0.173 A 
ATOM     89  C   UNL A   1      45.328  28.520  34.624  1.00  0.00     0.173 A 
ATOM     90  F   UNL A   1      42.415  26.519  35.488  1.00  0.00    -0.203 F 
ATOM     91  C   UNL A   1      44.700  26.153  35.927  1.00  0.00     0.198 A 
ATOM     92  C   UNL A   1      46.340  27.727  35.158  1.00  0.00     0.198 A 
ATOM     93  F   UNL A   1      45.664  29.663  34.006  1.00  0.00    -0.203 F 
ATOM     94  F   UNL A   1      44.391  25.029  36.590  1.00  0.00    -0.200 F 
ATOM     95  C   UNL A   1      46.024  26.549  35.816  1.00  0.00     0.200 A 
ATOM     96  F   UNL A   1      47.620  28.105  35.037  1.00  0.00    -0.200 F 
ATOM     97  F   UNL A   1      46.996  25.799  36.354  1.00  0.00    -0.200 F 
ENDBRANCH  64  87
ENDBRANCH  38  39
ENDBRANCH  30  33
ENDBRANCH  28  29
ENDBRANCH  27  28
ENDBRANCH  26  27
ENDBRANCH   1  26
TORSDOF 15
ENDMDL
MODEL 2
REMARK VINA RESULT:     -12.7      0.152      1.924
REMARK SMILES C[C@@H](Oc1ccccc1Cl)C(=O)Nc1ccc(C(=O)NCCCCNC(=O)c2ccc(-c3c4nc(c(-c5c(F)c(F)c(F)c(F)c5F)c5ccc([nH]5)c(-c5c(F)c(F)c(F)c(F)c5F)c5nc(c(-c6c(F)c(F)c(F)c(F)c6F)c6ccc3[nH]6)C=C5)C=C4)cc2)cc1
REMARK SMILES IDX 21 1 20 2 18 3 19 4 17 6 14 7 15 8 92 9 16 10 91 11 13 12
REMARK SMILES IDX 11 13 12 14 2 16 1 17 3 18 4 19 5 20 9 21 6 22 8 23 10 24
REMARK SMILES IDX 7 25 22 26 23 27 24 28 25 29 26 30 27 32 28 33 29 34 90 35
REMARK SMILES IDX 30 36 89 37 31 38 32 39 33 40 83 41 34 42 88 43 82 44 84 45
REMARK SMILES IDX 35 46 87 47 81 48 80 49 36 51 68 52 48 53 67 54 49 55 52 56
REMARK SMILES IDX 66 57 85 58 50 59 51 60 65 62 86 63 53 64 37 65 38 66 46 67
REMARK SMILES IDX 39 68 40 69 44 70 47 71 41 72 42 73 45 74 43 75 69 76 70 77
REMARK SMILES IDX 78 78 71 79 72 80 76 81 79 82 73 83 74 84 77 85 75 86 54 87
REMARK SMILES IDX 55 88 63 89 56 90 57 91 61 92 64 93 58 94 59 95 62 96 60 97
REMARK H PARENT 20 5 13 15 25 31 84 50 52 61
REMARK Flexibility Score: inf
ROOT
ATOM      1  C   UNL A   1      32.558  30.476  27.008  1.00  0.00     0.116 C 
ENDROOT
BRANCH   1   2
ATOM      2  N   UNL A   1      32.055  29.231  27.562  1.00  0.00    -0.352 N 
ATOM      3  C   UNL A   1      31.760  28.037  26.949  1.00  0.00     0.251 C 
ATOM      4  O   UNL A   1      31.441  27.078  27.650  1.00  0.00    -0.269 OA
ATOM      5  H   UNL A   1      31.901  29.246  28.533  1.00  0.00     0.163 HD
BRANCH   3   6
ATOM      6  C   UNL A   1      31.891  27.855  25.479  1.00  0.00     0.039 A 
ATOM      7  C   UNL A   1      32.099  27.164  22.779  1.00  0.00     0.041 A 
ATOM      8  C   UNL A   1      30.859  27.106  23.411  1.00  0.00     0.027 A 
ATOM      9  C   UNL A   1      33.186  27.727  23.440  1.00  0.00     0.027 A 
ATOM     10  C   UNL A   1      30.762  27.422  24.770  1.00  0.00     0.016 A 
ATOM     11  C   UNL A   1      33.072  28.100  24.778  1.00  0.00     0.016 A 
BRANCH   7  12
ATOM     12  N   UNL A   1      32.214  26.682  21.474  1.00  0.00    -0.323 N 
ATOM     13  C   UNL A   1      32.792  25.520  21.036  1.00  0.00     0.265 C 
ATOM     14  O   UNL A   1      32.938  25.377  19.815  1.00  0.00    -0.270 OA
ATOM     15  H   UNL A   1      31.825  27.254  20.774  1.00  0.00     0.170 HD
BRANCH  13  16
ATOM     16  C   UNL A   1      33.185  24.365  22.000  1.00  0.00     0.259 C 
ATOM     17  C   UNL A   1      33.138  23.021  21.280  1.00  0.00     0.064 C 
BRANCH  16  18
ATOM     18  O   UNL A   1      34.446  24.543  22.652  1.00  0.00    -0.479 OA
BRANCH  18  19
ATOM     19  C   UNL A   1      34.500  24.021  23.919  1.00  0.00     0.139 A 
ATOM     20  C   UNL A   1      33.574  24.442  24.877  1.00  0.00     0.048 A 
ATOM     21  C   UNL A   1      35.551  23.175  24.296  1.00  0.00     0.083 A 
ATOM     22  C   UNL A   1      33.677  23.989  26.196  1.00  0.00     0.004 A 
ATOM     23  C   UNL A   1      35.649  22.724  25.614  1.00  0.00     0.024 A 
ATOM     24  Cl  UNL A   1      36.752  22.653  23.173  1.00  0.00    -0.080 Cl
ATOM     25  C   UNL A   1      34.712  23.128  26.563  1.00  0.00     0.002 A 
ENDBRANCH  18  19
ENDBRANCH  16  18
ENDBRANCH  13  16
ENDBRANCH   7  12
ENDBRANCH   3   6
ENDBRANCH   1   2
BRANCH   1  26
ATOM     26  C   UNL A   1      31.463  31.225  26.246  1.00  0.00     0.023 C 
BRANCH  26  27
ATOM     27  C   UNL A   1      31.379  32.716  26.579  1.00  0.00     0.023 C 
BRANCH  27  28
ATOM     28  C   UNL A   1      32.627  33.292  27.235  1.00  0.00     0.116 C 
BRANCH  28  29
ATOM     29  N   UNL A   1      32.405  34.588  27.856  1.00  0.00    -0.352 N 
ATOM     30  C   UNL A   1      33.062  35.149  28.923  1.00  0.00     0.251 C 
ATOM     31  H   UNL A   1      31.691  35.135  27.457  1.00  0.00     0.163 HD
ATOM     32  O   UNL A   1      32.675  36.210  29.404  1.00  0.00    -0.269 OA
BRANCH  30  33
ATOM     33  C   UNL A   1      34.224  34.451  29.514  1.00  0.00     0.039 A 
ATOM     34  C   UNL A   1      34.016  33.584  30.590  1.00  0.00     0.014 A 
ATOM     35  C   UNL A   1      35.512  34.649  29.010  1.00  0.00     0.014 A 
ATOM     36  C   UNL A   1      35.096  32.883  31.131  1.00  0.00     0.010 A 
ATOM     37  C   UNL A   1      36.570  33.888  29.493  1.00  0.00     0.010 A 
ATOM     38  C   UNL A   1      36.377  33.013  30.572  1.00  0.00    -0.014 A 
BRANCH  38  39
ATOM     39  C   UNL A   1      37.540  32.284  31.138  1.00  0.00     0.031 A 
ATOM     40  C   UNL A   1      38.036  32.624  32.517  1.00  0.00     0.074 A 
ATOM     41  C   UNL A   1      38.176  31.353  30.401  1.00  0.00     0.049 A 
ATOM     42  N   UNL A   1      39.060  32.140  33.175  1.00  0.00    -0.248 NA
ATOM     43  C   UNL A   1      37.301  33.673  33.243  1.00  0.00     0.031 C 
ATOM     44  C   UNL A   1      37.821  30.968  29.034  1.00  0.00     0.029 A 
ATOM     45  N   UNL A   1      39.259  30.565  30.698  1.00  0.00    -0.354 N 
ATOM     46  C   UNL A   1      39.096  32.835  34.377  1.00  0.00     0.074 A 
ATOM     47  C   UNL A   1      38.038  33.818  34.333  1.00  0.00     0.031 C 
ATOM     48  C   UNL A   1      38.651  29.995  28.624  1.00  0.00     0.029 A 
ATOM     49  C   UNL A   1      39.616  29.713  29.682  1.00  0.00     0.049 A 
ATOM     50  H   UNL A   1      39.736  30.607  31.558  1.00  0.00     0.167 HD
ATOM     51  C   UNL A   1      39.917  32.647  35.439  1.00  0.00     0.037 A 
ATOM     52  C   UNL A   1      40.609  28.806  29.616  1.00  0.00     0.037 A 
ATOM     53  C   UNL A   1      40.952  31.649  35.491  1.00  0.00     0.049 A 
ATOM     54  C   UNL A   1      41.509  28.617  30.809  1.00  0.00     0.074 A 
ATOM     55  C   UNL A   1      41.810  31.346  36.533  1.00  0.00     0.029 A 
ATOM     56  N   UNL A   1      41.268  30.788  34.449  1.00  0.00    -0.354 N 
ATOM     57  N   UNL A   1      41.494  29.232  31.966  1.00  0.00    -0.248 NA
ATOM     58  C   UNL A   1      42.558  27.595  30.689  1.00  0.00     0.031 C 
ATOM     59  C   UNL A   1      42.674  30.333  36.107  1.00  0.00     0.029 A 
ATOM     60  C   UNL A   1      42.316  29.962  34.820  1.00  0.00     0.049 A 
ATOM     61  H   UNL A   1      40.813  30.766  33.576  1.00  0.00     0.167 HD
ATOM     62  C   UNL A   1      42.498  28.646  32.725  1.00  0.00     0.074 A 
ATOM     63  C   UNL A   1      43.098  27.618  31.899  1.00  0.00     0.031 C 
ATOM     64  C   UNL A   1      42.887  28.930  33.993  1.00  0.00     0.037 A 
BRANCH  51  65
ATOM     65  C   UNL A   1      39.719  33.539  36.632  1.00  0.00     0.064 A 
ATOM     66  C   UNL A   1      40.428  34.743  36.776  1.00  0.00     0.173 A 
ATOM     67  C   UNL A   1      38.799  33.199  37.634  1.00  0.00     0.173 A 
ATOM     68  F   UNL A   1      41.330  35.110  35.853  1.00  0.00    -0.203 F 
ATOM     69  C   UNL A   1      40.251  35.552  37.896  1.00  0.00     0.198 A 
ATOM     70  C   UNL A   1      38.599  34.027  38.735  1.00  0.00     0.198 A 
ATOM     71  F   UNL A   1      38.090  32.063  37.545  1.00  0.00    -0.203 F 
ATOM     72  F   UNL A   1      40.985  36.663  38.040  1.00  0.00    -0.200 F 
ATOM     73  C   UNL A   1      39.332  35.196  38.871  1.00  0.00     0.200 A 
ATOM     74  F   UNL A   1      37.699  33.690  39.670  1.00  0.00    -0.200 F 
ATOM     75  F   UNL A   1      39.159  35.976  39.947  1.00  0.00    -0.200 F 
ENDBRANCH  51  65
BRANCH  52  76
ATOM     76  C   UNL A   1      40.780  27.973  28.396  1.00  0.00     0.064 A 
ATOM     77  C   UNL A   1      40.161  26.720  28.291  1.00  0.00     0.173 A 
ATOM     78  C   UNL A   1      41.570  28.403  27.321  1.00  0.00     0.173 A 
ATOM     79  F   UNL A   1      39.411  26.256  29.301  1.00  0.00    -0.203 F 
ATOM     80  C   UNL A   1      40.348  25.916  27.168  1.00  0.00     0.198 A 
ATOM     81  C   UNL A   1      41.732  27.610  26.186  1.00  0.00     0.198 A 
ATOM     82  F   UNL A   1      42.179  29.597  27.368  1.00  0.00    -0.203 F 
ATOM     83  F   UNL A   1      39.787  24.700  27.117  1.00  0.00    -0.200 F 
ATOM     84  C   UNL A   1      41.129  26.364  26.114  1.00  0.00     0.200 A 
ATOM     85  F   UNL A   1      42.476  28.053  25.163  1.00  0.00    -0.200 F 
ATOM     86  F   UNL A   1      41.308  25.591  25.034  1.00  0.00    -0.200 F 
ENDBRANCH  52  76
BRANCH  64  87
ATOM     87  C   UNL A   1      43.971  28.078  34.589  1.00  0.00     0.064 A 
ATOM     88  C   UNL A   1      45.320  28.457  34.548  1.00  0.00     0.173 A 
ATOM     89  C   UNL A   1      43.644  26.878  35.243  1.00  0.00     0.173 A 
ATOM     90  F   UNL A   1      45.686  29.586  33.924  1.00  0.00    -0.203 F 
ATOM     91  C   UNL A   1      46.306  27.649  35.110  1.00  0.00     0.198 A 
ATOM     92  C   UNL A   1      44.629  26.092  35.833  1.00  0.00     0.198 A 
ATOM     93  F   UNL A   1      42.367  26.475  35.318  1.00  0.00    -0.203 F 
ATOM     94  F   UNL A   1      47.596  28.003  35.011  1.00  0.00    -0.200 F 
ATOM     95  C   UNL A   1      45.960  26.474  35.759  1.00  0.00     0.200 A 
ATOM     96  F   UNL A   1      44.290  24.965  36.473  1.00  0.00    -0.200 F 
ATOM     97  F   UNL A   1      46.910  25.702  36.305  1.00  0.00    -0.200 F 
ENDBRANCH  64  87
ENDBRANCH  38  39
ENDBRANCH  30  33
ENDBRANCH  28  29
ENDBRANCH  27  28
ENDBRANCH  26  27
ENDBRANCH   1  26
TORSDOF 15
ENDMDL
MODEL 3
REMARK VINA RESULT:     -12.7      5.451      9.822
REMARK SMILES C[C@@H](Oc1ccccc1Cl)C(=O)Nc1ccc(C(=O)NCCCCNC(=O)c2ccc(-c3c4nc(c(-c5c(F)c(F)c(F)c(F)c5F)c5ccc([nH]5)c(-c5c(F)c(F)c(F)c(F)c5F)c5nc(c(-c6c(F)c(F)c(F)c(F)c6F)c6ccc3[nH]6)C=C5)C=C4)cc2)cc1
REMARK SMILES IDX 21 1 20 2 18 3 19 4 17 6 14 7 15 8 92 9 16 10 91 11 13 12
REMARK SMILES IDX 11 13 12 14 2 16 1 17 3 18 4 19 5 20 9 21 6 22 8 23 10 24
REMARK SMILES IDX 7 25 22 26 23 27 24 28 25 29 26 30 27 32 28 33 29 34 90 35
REMARK SMILES IDX 30 36 89 37 31 38 32 39 33 40 83 41 34 42 88 43 82 44 84 45
REMARK SMILES IDX 35 46 87 47 81 48 80 49 36 51 68 52 48 53 67 54 49 55 52 56
REMARK SMILES IDX 66 57 85 58 50 59 51 60 65 62 86 63 53 64 37 65 38 66 46 67
REMARK SMILES IDX 39 68 40 69 44 70 47 71 41 72 42 73 45 74 43 75 69 76 70 77
REMARK SMILES IDX 78 78 71 79 72 80 76 81 79 82 73 83 74 84 77 85 75 86 54 87
REMARK SMILES IDX 55 88 63 89 56 90 57 91 61 92 64 93 58 94 59 95 62 96 60 97
REMARK H PARENT 20 5 13 15 25 31 84 50 52 61
REMARK Flexibility Score: inf
ROOT
ATOM      1  C   UNL A   1      36.116  20.822  25.444  1.00  0.00     0.116 C 
ENDROOT
BRANCH   1   2
ATOM      2  N   UNL A   1      35.119  19.872  24.985  1.00  0.00    -0.352 N 
ATOM      3  C   UNL A   1      33.746  19.922  25.041  1.00  0.00     0.251 C 
ATOM      4  O   UNL A   1      33.101  19.034  24.487  1.00  0.00    -0.269 OA
ATOM      5  H   UNL A   1      35.485  19.060  24.566  1.00  0.00     0.163 HD
BRANCH   3   6
ATOM      6  C   UNL A   1      33.028  21.054  25.684  1.00  0.00     0.039 A 
ATOM      7  C   UNL A   1      31.749  23.368  26.592  1.00  0.00     0.041 A 
ATOM      8  C   UNL A   1      31.144  22.587  25.610  1.00  0.00     0.027 A 
ATOM      9  C   UNL A   1      32.892  22.905  27.236  1.00  0.00     0.027 A 
ATOM     10  C   UNL A   1      31.800  21.447  25.134  1.00  0.00     0.016 A 
ATOM     11  C   UNL A   1      33.513  21.734  26.801  1.00  0.00     0.016 A 
BRANCH   7  12
ATOM     12  N   UNL A   1      31.169  24.590  26.934  1.00  0.00    -0.323 N 
ATOM     13  C   UNL A   1      30.814  25.629  26.115  1.00  0.00     0.265 C 
ATOM     14  O   UNL A   1      30.477  26.693  26.652  1.00  0.00    -0.270 OA
ATOM     15  H   UNL A   1      30.990  24.723  27.892  1.00  0.00     0.170 HD
BRANCH  13  16
ATOM     16  C   UNL A   1      30.742  25.490  24.569  1.00  0.00     0.259 C 
ATOM     17  C   UNL A   1      29.441  26.081  24.033  1.00  0.00     0.064 C 
BRANCH  16  18
ATOM     18  O   UNL A   1      31.866  26.036  23.873  1.00  0.00    -0.479 OA
BRANCH  18  19
ATOM     19  C   UNL A   1      32.842  25.119  23.578  1.00  0.00     0.139 A 
ATOM     20  C   UNL A   1      32.617  24.174  22.574  1.00  0.00     0.048 A 
ATOM     21  C   UNL A   1      34.002  25.037  24.359  1.00  0.00     0.083 A 
ATOM     22  C   UNL A   1      33.565  23.175  22.327  1.00  0.00     0.004 A 
ATOM     23  C   UNL A   1      34.946  24.039  24.109  1.00  0.00     0.024 A 
ATOM     24  Cl  UNL A   1      34.320  26.146  25.642  1.00  0.00    -0.080 Cl
ATOM     25  C   UNL A   1      34.730  23.110  23.093  1.00  0.00     0.002 A 
ENDBRANCH  18  19
ENDBRANCH  16  18
ENDBRANCH  13  16
ENDBRANCH   7  12
ENDBRANCH   3   6
ENDBRANCH   1   2
BRANCH   1  26
ATOM     26  C   UNL A   1      37.397  20.724  24.612  1.00  0.00     0.023 C 
BRANCH  26  27
ATOM     27  C   UNL A   1      38.296  19.546  24.987  1.00  0.00     0.023 C 
BRANCH  27  28
ATOM     28  C   UNL A   1      39.420  19.887  25.957  1.00  0.00     0.116 C 
BRANCH  28  29
ATOM     29  N   UNL A   1      40.496  18.909  25.958  1.00  0.00    -0.352 N 
ATOM     30  C   UNL A   1      41.846  19.124  26.087  1.00  0.00     0.251 C 
ATOM     31  H   UNL A   1      40.220  17.970  25.852  1.00  0.00     0.163 HD
ATOM     32  O   UNL A   1      42.640  18.197  25.950  1.00  0.00    -0.269 OA
BRANCH  30  33
ATOM     33  C   UNL A   1      42.346  20.487  26.364  1.00  0.00     0.039 A 
ATOM     34  C   UNL A   1      42.722  21.300  25.291  1.00  0.00     0.014 A 
ATOM     35  C   UNL A   1      42.443  20.965  27.674  1.00  0.00     0.014 A 
ATOM     36  C   UNL A   1      43.153  22.606  25.531  1.00  0.00     0.010 A 
ATOM     37  C   UNL A   1      42.790  22.290  27.905  1.00  0.00     0.010 A 
ATOM     38  C   UNL A   1      43.171  23.118  26.838  1.00  0.00    -0.014 A 
BRANCH  38  39
ATOM     39  C   UNL A   1      43.634  24.501  27.116  1.00  0.00     0.031 A 
ATOM     40  C   UNL A   1      42.670  25.515  27.670  1.00  0.00     0.074 A 
ATOM     41  C   UNL A   1      44.901  24.858  26.832  1.00  0.00     0.049 A 
ATOM     42  N   UNL A   1      42.859  26.782  27.939  1.00  0.00    -0.248 NA
ATOM     43  C   UNL A   1      41.297  25.048  27.925  1.00  0.00     0.031 C 
ATOM     44  C   UNL A   1      45.917  23.980  26.249  1.00  0.00     0.029 A 
ATOM     45  N   UNL A   1      45.548  26.057  26.991  1.00  0.00    -0.354 N 
ATOM     46  C   UNL A   1      41.632  27.261  28.378  1.00  0.00     0.074 A 
ATOM     47  C   UNL A   1      40.689  26.171  28.276  1.00  0.00     0.031 C 
ATOM     48  C   UNL A   1      47.068  24.662  26.129  1.00  0.00     0.029 A 
ATOM     49  C   UNL A   1      46.863  26.030  26.592  1.00  0.00     0.049 A 
ATOM     50  H   UNL A   1      45.112  26.860  27.355  1.00  0.00     0.167 HD
ATOM     51  C   UNL A   1      41.325  28.491  28.857  1.00  0.00     0.037 A 
ATOM     52  C   UNL A   1      47.795  27.002  26.604  1.00  0.00     0.037 A 
ATOM     53  C   UNL A   1      42.273  29.566  28.982  1.00  0.00     0.049 A 
ATOM     54  C   UNL A   1      47.429  28.362  27.139  1.00  0.00     0.074 A 
ATOM     55  C   UNL A   1      42.077  30.836  29.494  1.00  0.00     0.029 A 
ATOM     56  N   UNL A   1      43.603  29.494  28.589  1.00  0.00    -0.354 N 
ATOM     57  N   UNL A   1      46.283  28.786  27.614  1.00  0.00    -0.248 NA
ATOM     58  C   UNL A   1      48.493  29.375  27.152  1.00  0.00     0.031 C 
ATOM     59  C   UNL A   1      43.275  31.546  29.371  1.00  0.00     0.029 A 
ATOM     60  C   UNL A   1      44.234  30.701  28.837  1.00  0.00     0.049 A 
ATOM     61  H   UNL A   1      44.033  28.701  28.195  1.00  0.00     0.167 HD
ATOM     62  C   UNL A   1      46.498  30.097  28.020  1.00  0.00     0.074 A 
ATOM     63  C   UNL A   1      47.888  30.395  27.743  1.00  0.00     0.031 C 
ATOM     64  C   UNL A   1      45.625  30.974  28.575  1.00  0.00     0.037 A 
BRANCH  51  65
ATOM     65  C   UNL A   1      39.905  28.732  29.284  1.00  0.00     0.064 A 
ATOM     66  C   UNL A   1      38.941  29.227  28.391  1.00  0.00     0.173 A 
ATOM     67  C   UNL A   1      39.497  28.449  30.596  1.00  0.00     0.173 A 
ATOM     68  F   UNL A   1      39.282  29.527  27.128  1.00  0.00    -0.203 F 
ATOM     69  C   UNL A   1      37.633  29.466  28.805  1.00  0.00     0.198 A 
ATOM     70  C   UNL A   1      38.179  28.655  30.997  1.00  0.00     0.198 A 
ATOM     71  F   UNL A   1      40.374  27.968  31.490  1.00  0.00    -0.203 F 
ATOM     72  F   UNL A   1      36.748  29.997  27.951  1.00  0.00    -0.200 F 
ATOM     73  C   UNL A   1      37.252  29.173  30.106  1.00  0.00     0.200 A 
ATOM     74  F   UNL A   1      37.808  28.358  32.251  1.00  0.00    -0.200 F 
ATOM     75  F   UNL A   1      35.992  29.399  30.503  1.00  0.00    -0.200 F 
ENDBRANCH  51  65
BRANCH  52  76
ATOM     76  C   UNL A   1      49.176  26.717  26.136  1.00  0.00     0.064 A 
ATOM     77  C   UNL A   1      49.559  26.994  24.816  1.00  0.00     0.173 A 
ATOM     78  C   UNL A   1      50.136  26.153  26.989  1.00  0.00     0.173 A 
ATOM     79  F   UNL A   1      48.671  27.516  23.958  1.00  0.00    -0.203 F 
ATOM     80  C   UNL A   1      50.840  26.693  24.359  1.00  0.00     0.198 A 
ATOM     81  C   UNL A   1      51.427  25.879  26.538  1.00  0.00     0.198 A 
ATOM     82  F   UNL A   1      49.824  25.874  28.263  1.00  0.00    -0.203 F 
ATOM     83  F   UNL A   1      51.162  26.921  23.078  1.00  0.00    -0.200 F 
ATOM     84  C   UNL A   1      51.775  26.141  25.221  1.00  0.00     0.200 A 
ATOM     85  F   UNL A   1      52.331  25.359  27.378  1.00  0.00    -0.200 F 
ATOM     86  F   UNL A   1      53.007  25.852  24.781  1.00  0.00    -0.200 F 
ENDBRANCH  52  76
BRANCH  64  87
ATOM     87  C   UNL A   1      46.160  32.318  28.978  1.00  0.00     0.064 A 
ATOM     88  C   UNL A   1      46.141  33.416  28.107  1.00  0.00     0.173 A 
ATOM     89  C   UNL A   1      46.669  32.514  30.273  1.00  0.00     0.173 A 
ATOM     90  F   UNL A   1      45.678  33.278  26.856  1.00  0.00    -0.203 F 
ATOM     91  C   UNL A   1      46.642  34.654  28.507  1.00  0.00     0.198 A 
ATOM     92  C   UNL A   1      47.136  33.760  30.678  1.00  0.00     0.198 A 
ATOM     93  F   UNL A   1      46.701  31.497  31.147  1.00  0.00    -0.203 F 
ATOM     94  F   UNL A   1      46.664  35.676  27.639  1.00  0.00    -0.200 F 
ATOM     95  C   UNL A   1      47.130  34.827  29.793  1.00  0.00     0.200 A 
ATOM     96  F   UNL A   1      47.593  33.928  31.927  1.00  0.00    -0.200 F 
ATOM     97  F   UNL A   1      47.605  36.020  30.176  1.00  0.00    -0.200 F 
ENDBRANCH  64  87
ENDBRANCH  38  39
ENDBRANCH  30  33
ENDBRANCH  28  29
ENDBRANCH  27  28
ENDBRANCH  26  27
ENDBRANCH   1  26
TORSDOF 15
ENDMDL
