MODEL 1
REMARK VINA RESULT:     -13.2      0.000      0.000
REMARK SMILES Nc1ncccc1C[N@@H+]1CC2(CC[NH2+]CC2)C[C@H]1C(=O)NCCCCNC(=O)c1ccc(-c2c3nc(c(-c4c(F)c(F)c(F)c(F)c4F)c4ccc([nH]4)c(-c4c(F)c(F)c(F)c(F)c4F)c4nc(c(-c5c(F)c(F)c(F)c(F)c5F)c5ccc2[nH]5)C=C4)C=C3)cc1
REMARK SMILES IDX 23 1 22 2 21 3 19 4 20 5 18 7 9 8 10 9 11 11 17 12 12 13
REMARK SMILES IDX 16 14 13 15 15 16 14 17 8 20 7 21 2 22 3 23 4 24 6 25 5 26
REMARK SMILES IDX 1 27 24 30 25 31 26 32 27 33 28 35 29 36 30 37 91 38 31 39
REMARK SMILES IDX 90 40 32 41 33 42 34 43 84 44 35 45 89 46 83 47 85 48 36 49
REMARK SMILES IDX 88 50 82 51 81 52 37 54 69 55 49 56 68 57 50 58 53 59 67 60
REMARK SMILES IDX 86 61 51 62 52 63 66 65 87 66 54 67 38 68 39 69 47 70 40 71
REMARK SMILES IDX 41 72 45 73 48 74 42 75 43 76 46 77 44 78 70 79 71 80 79 81
REMARK SMILES IDX 72 82 73 83 77 84 80 85 74 86 75 87 78 88 76 89 55 90 56 91
REMARK SMILES IDX 64 92 57 93 58 94 62 95 65 96 59 97 60 98 63 99 61 100
REMARK H PARENT 21 6 9 10 14 18 14 19 1 28 1 29 26 34 85 53 53 64
REMARK Flexibility Score: inf
ROOT
ATOM      1  C   UNL A   1      31.926  30.367  26.699  1.00  0.00     0.023 C 
ENDROOT
BRANCH   1   2
ATOM      2  C   UNL A   1      33.373  29.896  26.692  1.00  0.00     0.116 C 
BRANCH   2   3
ATOM      3  N   UNL A   1      33.911  29.497  25.427  1.00  0.00    -0.351 N 
ATOM      4  C   UNL A   1      33.661  28.362  24.708  1.00  0.00     0.278 C 
ATOM      5  O   UNL A   1      34.068  28.386  23.537  1.00  0.00    -0.268 OA
ATOM      6  H   UNL A   1      34.548  30.126  25.019  1.00  0.00     0.163 HD
BRANCH   4   7
ATOM      7  C   UNL A   1      32.955  27.078  25.258  1.00  0.00     0.275 C 
ATOM      8  N   UNL A   1      32.130  26.434  24.221  1.00  0.00    -0.320 N 
ATOM      9  C   UNL A   1      32.703  25.116  23.914  1.00  0.00     0.270 C 
ATOM     10  H   UNL A   1      32.167  26.969  23.354  1.00  0.00     0.349 HD
ATOM     11  C   UNL A   1      33.735  24.726  25.015  1.00  0.00     0.036 C 
ATOM     12  C   UNL A   1      33.740  25.957  25.949  1.00  0.00     0.089 C 
ATOM     13  C   UNL A   1      35.206  24.412  24.615  1.00  0.00     0.074 C 
ATOM     14  C   UNL A   1      33.286  23.385  25.652  1.00  0.00     0.074 C 
ATOM     15  C   UNL A   1      35.316  23.290  23.592  1.00  0.00     0.261 C 
ATOM     16  C   UNL A   1      33.401  22.226  24.636  1.00  0.00     0.261 C 
ATOM     17  N   UNL A   1      34.759  22.051  24.125  1.00  0.00    -0.346 N 
ATOM     18  H   UNL A   1      35.357  21.723  24.886  1.00  0.00     0.346 HD
ATOM     19  H   UNL A   1      34.722  21.372  23.365  1.00  0.00     0.346 HD
BRANCH   8  20
ATOM     20  C   UNL A   1      30.675  26.476  24.522  1.00  0.00     0.303 C 
BRANCH  20  21
ATOM     21  C   UNL A   1      29.856  27.588  23.888  1.00  0.00     0.048 A 
ATOM     22  C   UNL A   1      28.500  27.459  23.567  1.00  0.00     0.132 A 
ATOM     23  N   UNL A   1      27.843  28.340  22.785  1.00  0.00    -0.239 NA
ATOM     24  C   UNL A   1      28.510  29.430  22.364  1.00  0.00     0.113 A 
ATOM     25  C   UNL A   1      30.472  28.796  23.536  1.00  0.00     0.015 A 
ATOM     26  C   UNL A   1      29.802  29.722  22.745  1.00  0.00     0.021 A 
BRANCH  22  27
ATOM     27  N   UNL A   1      27.726  26.396  23.983  1.00  0.00    -0.383 N 
ATOM     28  H   UNL A   1      26.962  26.100  23.438  1.00  0.00     0.158 HD
ATOM     29  H   UNL A   1      27.939  25.932  24.825  1.00  0.00     0.158 HD
ENDBRANCH  22  27
ENDBRANCH  20  21
ENDBRANCH   8  20
ENDBRANCH   4   7
ENDBRANCH   2   3
ENDBRANCH   1   2
BRANCH   1  30
ATOM     30  C   UNL A   1      31.742  31.882  26.646  1.00  0.00     0.023 C 
BRANCH  30  31
ATOM     31  C   UNL A   1      32.761  32.722  27.415  1.00  0.00     0.116 C 
BRANCH  31  32
ATOM     32  N   UNL A   1      32.353  34.088  27.703  1.00  0.00    -0.352 N 
ATOM     33  C   UNL A   1      32.950  34.979  28.577  1.00  0.00     0.251 C 
ATOM     34  H   UNL A   1      31.562  34.418  27.220  1.00  0.00     0.163 HD
ATOM     35  O   UNL A   1      32.491  36.093  28.756  1.00  0.00    -0.269 OA
BRANCH  33  36
ATOM     36  C   UNL A   1      34.135  34.528  29.344  1.00  0.00     0.039 A 
ATOM     37  C   UNL A   1      33.940  33.917  30.586  1.00  0.00     0.014 A 
ATOM     38  C   UNL A   1      35.414  34.615  28.792  1.00  0.00     0.014 A 
ATOM     39  C   UNL A   1      35.019  33.304  31.228  1.00  0.00     0.010 A 
ATOM     40  C   UNL A   1      36.470  33.938  29.395  1.00  0.00     0.010 A 
ATOM     41  C   UNL A   1      36.280  33.263  30.611  1.00  0.00    -0.014 A 
BRANCH  41  42
ATOM     42  C   UNL A   1      37.409  32.504  31.211  1.00  0.00     0.031 A 
ATOM     43  C   UNL A   1      37.919  32.866  32.577  1.00  0.00     0.074 A 
ATOM     44  C   UNL A   1      38.022  31.541  30.497  1.00  0.00     0.049 A 
ATOM     45  N   UNL A   1      38.931  32.368  33.243  1.00  0.00    -0.248 NA
ATOM     46  C   UNL A   1      37.217  33.954  33.276  1.00  0.00     0.031 C 
ATOM     47  C   UNL A   1      37.662  31.132  29.138  1.00  0.00     0.029 A 
ATOM     48  N   UNL A   1      39.087  30.732  30.813  1.00  0.00    -0.354 N 
ATOM     49  C   UNL A   1      38.994  33.091  34.426  1.00  0.00     0.074 A 
ATOM     50  C   UNL A   1      37.959  34.099  34.363  1.00  0.00     0.031 C 
ATOM     51  C   UNL A   1      38.467  30.130  28.751  1.00  0.00     0.029 A 
ATOM     52  C   UNL A   1      39.421  29.846  29.819  1.00  0.00     0.049 A 
ATOM     53  H   UNL A   1      39.565  30.783  31.672  1.00  0.00     0.167 HD
ATOM     54  C   UNL A   1      39.821  32.911  35.485  1.00  0.00     0.037 A 
ATOM     55  C   UNL A   1      40.387  28.907  29.775  1.00  0.00     0.037 A 
ATOM     56  C   UNL A   1      40.830  31.890  35.561  1.00  0.00     0.049 A 
ATOM     57  C   UNL A   1      41.291  28.726  30.964  1.00  0.00     0.074 A 
ATOM     58  C   UNL A   1      41.680  31.589  36.611  1.00  0.00     0.029 A 
ATOM     59  N   UNL A   1      41.127  30.998  34.539  1.00  0.00    -0.354 N 
ATOM     60  N   UNL A   1      41.296  29.369  32.105  1.00  0.00    -0.248 NA
ATOM     61  C   UNL A   1      42.321  27.683  30.858  1.00  0.00     0.031 C 
ATOM     62  C   UNL A   1      42.513  30.538  36.213  1.00  0.00     0.029 A 
ATOM     63  C   UNL A   1      42.157  30.157  34.930  1.00  0.00     0.049 A 
ATOM     64  H   UNL A   1      40.673  30.968  33.666  1.00  0.00     0.167 HD
ATOM     65  C   UNL A   1      42.304  28.791  32.865  1.00  0.00     0.074 A 
ATOM     66  C   UNL A   1      42.884  27.737  32.057  1.00  0.00     0.031 C 
ATOM     67  C   UNL A   1      42.713  29.104  34.119  1.00  0.00     0.037 A 
BRANCH  54  68
ATOM     68  C   UNL A   1      39.650  33.838  36.653  1.00  0.00     0.064 A 
ATOM     69  C   UNL A   1      40.281  35.091  36.692  1.00  0.00     0.173 A 
ATOM     70  C   UNL A   1      38.841  33.477  37.740  1.00  0.00     0.173 A 
ATOM     71  F   UNL A   1      41.077  35.477  35.682  1.00  0.00    -0.203 F 
ATOM     72  C   UNL A   1      40.139  35.932  37.792  1.00  0.00     0.198 A 
ATOM     73  C   UNL A   1      38.676  34.334  38.825  1.00  0.00     0.198 A 
ATOM     74  F   UNL A   1      38.210  32.293  37.752  1.00  0.00    -0.203 F 
ATOM     75  F   UNL A   1      40.799  37.098  37.831  1.00  0.00    -0.200 F 
ATOM     76  C   UNL A   1      39.332  35.556  38.855  1.00  0.00     0.200 A 
ATOM     77  F   UNL A   1      37.887  33.975  39.847  1.00  0.00    -0.200 F 
ATOM     78  F   UNL A   1      39.196  36.366  39.914  1.00  0.00    -0.200 F 
ENDBRANCH  54  68
BRANCH  55  79
ATOM     79  C   UNL A   1      40.519  28.030  28.583  1.00  0.00     0.064 A 
ATOM     80  C   UNL A   1      41.297  28.430  27.487  1.00  0.00     0.173 A 
ATOM     81  C   UNL A   1      39.875  26.788  28.508  1.00  0.00     0.173 A 
ATOM     82  F   UNL A   1      41.914  29.621  27.504  1.00  0.00    -0.203 F 
ATOM     83  C   UNL A   1      41.412  27.627  26.354  1.00  0.00     0.198 A 
ATOM     84  C   UNL A   1      40.011  25.974  27.384  1.00  0.00     0.198 A 
ATOM     85  F   UNL A   1      39.123  26.358  29.532  1.00  0.00    -0.203 F 
ATOM     86  F   UNL A   1      42.128  28.052  25.304  1.00  0.00    -0.200 F 
ATOM     87  C   UNL A   1      40.773  26.398  26.306  1.00  0.00     0.200 A 
ATOM     88  F   UNL A   1      39.401  24.781  27.345  1.00  0.00    -0.200 F 
ATOM     89  F   UNL A   1      40.886  25.624  25.217  1.00  0.00    -0.200 F 
ENDBRANCH  55  79
BRANCH  67  90
ATOM     90  C   UNL A   1      43.813  28.275  34.710  1.00  0.00     0.064 A 
ATOM     91  C   UNL A   1      45.157  28.668  34.627  1.00  0.00     0.173 A 
ATOM     92  C   UNL A   1      43.514  27.094  35.406  1.00  0.00     0.173 A 
ATOM     93  F   UNL A   1      45.494  29.781  33.959  1.00  0.00    -0.203 F 
ATOM     94  C   UNL A   1      46.163  27.896  35.201  1.00  0.00     0.198 A 
ATOM     95  C   UNL A   1      44.521  26.339  36.002  1.00  0.00     0.198 A 
ATOM     96  F   UNL A   1      42.243  26.679  35.519  1.00  0.00    -0.203 F 
ATOM     97  F   UNL A   1      47.445  28.267  35.072  1.00  0.00    -0.200 F 
ATOM     98  C   UNL A   1      45.844  26.737  35.893  1.00  0.00     0.200 A 
ATOM     99  F   UNL A   1      44.210  25.227  36.680  1.00  0.00    -0.200 F 
ATOM    100  F   UNL A   1      46.815  26.000  36.451  1.00  0.00    -0.200 F 
ENDBRANCH  67  90
ENDBRANCH  41  42
ENDBRANCH  33  36
ENDBRANCH  31  32
ENDBRANCH  30  31
ENDBRANCH   1  30
TORSDOF 14
ENDMDL
MODEL 2
REMARK VINA RESULT:     -13.2      0.722      1.439
REMARK SMILES Nc1ncccc1C[N@@H+]1CC2(CC[NH2+]CC2)C[C@H]1C(=O)NCCCCNC(=O)c1ccc(-c2c3nc(c(-c4c(F)c(F)c(F)c(F)c4F)c4ccc([nH]4)c(-c4c(F)c(F)c(F)c(F)c4F)c4nc(c(-c5c(F)c(F)c(F)c(F)c5F)c5ccc2[nH]5)C=C4)C=C3)cc1
REMARK SMILES IDX 23 1 22 2 21 3 19 4 20 5 18 7 9 8 10 9 11 11 17 12 12 13
REMARK SMILES IDX 16 14 13 15 15 16 14 17 8 20 7 21 2 22 3 23 4 24 6 25 5 26
REMARK SMILES IDX 1 27 24 30 25 31 26 32 27 33 28 35 29 36 30 37 91 38 31 39
REMARK SMILES IDX 90 40 32 41 33 42 34 43 84 44 35 45 89 46 83 47 85 48 36 49
REMARK SMILES IDX 88 50 82 51 81 52 37 54 69 55 49 56 68 57 50 58 53 59 67 60
REMARK SMILES IDX 86 61 51 62 52 63 66 65 87 66 54 67 38 68 39 69 47 70 40 71
REMARK SMILES IDX 41 72 45 73 48 74 42 75 43 76 46 77 44 78 70 79 71 80 79 81
REMARK SMILES IDX 72 82 73 83 77 84 80 85 74 86 75 87 78 88 76 89 55 90 56 91
REMARK SMILES IDX 64 92 57 93 58 94 62 95 65 96 59 97 60 98 63 99 61 100
REMARK H PARENT 21 6 9 10 14 18 14 19 1 28 1 29 26 34 85 53 53 64
REMARK Flexibility Score: inf
ROOT
ATOM      1  C   UNL A   1      31.955  30.359  26.877  1.00  0.00     0.023 C 
ENDROOT
BRANCH   1   2
ATOM      2  C   UNL A   1      33.401  29.896  26.979  1.00  0.00     0.116 C 
BRANCH   2   3
ATOM      3  N   UNL A   1      34.037  29.508  25.756  1.00  0.00    -0.351 N 
ATOM      4  C   UNL A   1      33.668  28.538  24.868  1.00  0.00     0.278 C 
ATOM      5  O   UNL A   1      34.254  28.580  23.776  1.00  0.00    -0.268 OA
ATOM      6  H   UNL A   1      34.852  30.008  25.523  1.00  0.00     0.163 HD
BRANCH   4   7
ATOM      7  C   UNL A   1      32.624  27.405  25.144  1.00  0.00     0.275 C 
ATOM      8  N   UNL A   1      31.738  27.197  23.986  1.00  0.00    -0.320 N 
ATOM      9  C   UNL A   1      31.979  25.854  23.442  1.00  0.00     0.270 C 
ATOM     10  H   UNL A   1      31.970  27.852  23.239  1.00  0.00     0.349 HD
ATOM     11  C   UNL A   1      32.800  25.014  24.468  1.00  0.00     0.036 C 
ATOM     12  C   UNL A   1      33.050  26.011  25.622  1.00  0.00     0.089 C 
ATOM     13  C   UNL A   1      34.168  24.405  24.046  1.00  0.00     0.074 C 
ATOM     14  C   UNL A   1      31.983  23.745  24.825  1.00  0.00     0.074 C 
ATOM     15  C   UNL A   1      34.063  23.498  22.828  1.00  0.00     0.261 C 
ATOM     16  C   UNL A   1      31.873  22.801  23.607  1.00  0.00     0.261 C 
ATOM     17  N   UNL A   1      33.175  22.372  23.100  1.00  0.00    -0.346 N 
ATOM     18  H   UNL A   1      33.616  21.768  23.796  1.00  0.00     0.346 HD
ATOM     19  H   UNL A   1      33.021  21.876  22.222  1.00  0.00     0.346 HD
BRANCH   8  20
ATOM     20  C   UNL A   1      30.323  27.563  24.259  1.00  0.00     0.303 C 
BRANCH  20  21
ATOM     21  C   UNL A   1      29.592  28.385  23.210  1.00  0.00     0.048 A 
ATOM     22  C   UNL A   1      30.240  29.249  22.321  1.00  0.00     0.132 A 
ATOM     23  N   UNL A   1      29.583  30.157  21.570  1.00  0.00    -0.239 NA
ATOM     24  C   UNL A   1      28.238  30.171  21.628  1.00  0.00     0.113 A 
ATOM     25  C   UNL A   1      28.194  28.347  23.143  1.00  0.00     0.015 A 
ATOM     26  C   UNL A   1      27.502  29.264  22.361  1.00  0.00     0.021 A 
BRANCH  22  27
ATOM     27  N   UNL A   1      31.610  29.283  22.165  1.00  0.00    -0.383 N 
ATOM     28  H   UNL A   1      32.068  28.563  21.676  1.00  0.00     0.158 HD
ATOM     29  H   UNL A   1      32.129  30.029  22.544  1.00  0.00     0.158 HD
ENDBRANCH  22  27
ENDBRANCH  20  21
ENDBRANCH   8  20
ENDBRANCH   4   7
ENDBRANCH   2   3
ENDBRANCH   1   2
BRANCH   1  30
ATOM     30  C   UNL A   1      31.772  31.863  26.692  1.00  0.00     0.023 C 
BRANCH  30  31
ATOM     31  C   UNL A   1      32.838  32.763  27.314  1.00  0.00     0.116 C 
BRANCH  31  32
ATOM     32  N   UNL A   1      32.403  34.112  27.642  1.00  0.00    -0.352 N 
ATOM     33  C   UNL A   1      32.969  34.981  28.557  1.00  0.00     0.251 C 
ATOM     34  H   UNL A   1      31.614  34.445  27.157  1.00  0.00     0.163 HD
ATOM     35  O   UNL A   1      32.488  36.080  28.767  1.00  0.00    -0.269 OA
BRANCH  33  36
ATOM     36  C   UNL A   1      34.148  34.522  29.330  1.00  0.00     0.039 A 
ATOM     37  C   UNL A   1      33.941  33.864  30.545  1.00  0.00     0.014 A 
ATOM     38  C   UNL A   1      35.435  34.650  28.805  1.00  0.00     0.014 A 
ATOM     39  C   UNL A   1      35.019  33.246  31.185  1.00  0.00     0.010 A 
ATOM     40  C   UNL A   1      36.491  33.970  29.403  1.00  0.00     0.010 A 
ATOM     41  C   UNL A   1      36.291  33.249  30.590  1.00  0.00    -0.014 A 
BRANCH  41  42
ATOM     42  C   UNL A   1      37.422  32.488  31.184  1.00  0.00     0.031 A 
ATOM     43  C   UNL A   1      37.931  32.838  32.553  1.00  0.00     0.074 A 
ATOM     44  C   UNL A   1      38.039  31.533  30.460  1.00  0.00     0.049 A 
ATOM     45  N   UNL A   1      38.944  32.337  33.214  1.00  0.00    -0.248 NA
ATOM     46  C   UNL A   1      37.226  33.917  33.261  1.00  0.00     0.031 C 
ATOM     47  C   UNL A   1      37.680  31.136  29.098  1.00  0.00     0.029 A 
ATOM     48  N   UNL A   1      39.106  30.724  30.769  1.00  0.00    -0.354 N 
ATOM     49  C   UNL A   1      39.005  33.049  34.405  1.00  0.00     0.074 A 
ATOM     50  C   UNL A   1      37.967  34.055  34.350  1.00  0.00     0.031 C 
ATOM     51  C   UNL A   1      38.489  30.140  28.701  1.00  0.00     0.029 A 
ATOM     52  C   UNL A   1      39.443  29.848  29.767  1.00  0.00     0.049 A 
ATOM     53  H   UNL A   1      39.584  30.769  31.629  1.00  0.00     0.167 HD
ATOM     54  C   UNL A   1      39.831  32.861  35.462  1.00  0.00     0.037 A 
ATOM     55  C   UNL A   1      40.412  28.913  29.715  1.00  0.00     0.037 A 
ATOM     56  C   UNL A   1      40.844  31.843  35.528  1.00  0.00     0.049 A 
ATOM     57  C   UNL A   1      41.316  28.724  30.902  1.00  0.00     0.074 A 
ATOM     58  C   UNL A   1      41.694  31.535  36.576  1.00  0.00     0.029 A 
ATOM     59  N   UNL A   1      41.144  30.962  34.498  1.00  0.00    -0.354 N 
ATOM     60  N   UNL A   1      41.319  29.356  32.050  1.00  0.00    -0.248 NA
ATOM     61  C   UNL A   1      42.350  27.685  30.787  1.00  0.00     0.031 C 
ATOM     62  C   UNL A   1      42.531  30.490  36.169  1.00  0.00     0.029 A 
ATOM     63  C   UNL A   1      42.176  30.120  34.882  1.00  0.00     0.049 A 
ATOM     64  H   UNL A   1      40.691  30.938  33.625  1.00  0.00     0.167 HD
ATOM     65  C   UNL A   1      42.328  28.774  32.804  1.00  0.00     0.074 A 
ATOM     66  C   UNL A   1      42.912  27.730  31.987  1.00  0.00     0.031 C 
ATOM     67  C   UNL A   1      42.735  29.077  34.061  1.00  0.00     0.037 A 
BRANCH  54  68
ATOM     68  C   UNL A   1      39.658  33.778  36.638  1.00  0.00     0.064 A 
ATOM     69  C   UNL A   1      40.305  35.020  36.700  1.00  0.00     0.173 A 
ATOM     70  C   UNL A   1      38.829  33.415  37.710  1.00  0.00     0.173 A 
ATOM     71  F   UNL A   1      41.120  35.408  35.707  1.00  0.00    -0.203 F 
ATOM     72  C   UNL A   1      40.160  35.851  37.808  1.00  0.00     0.198 A 
ATOM     73  C   UNL A   1      38.661  34.261  38.803  1.00  0.00     0.198 A 
ATOM     74  F   UNL A   1      38.182  32.239  37.699  1.00  0.00    -0.203 F 
ATOM     75  F   UNL A   1      40.835  37.007  37.870  1.00  0.00    -0.200 F 
ATOM     76  C   UNL A   1      39.333  35.473  38.856  1.00  0.00     0.200 A 
ATOM     77  F   UNL A   1      37.854  33.901  39.810  1.00  0.00    -0.200 F 
ATOM     78  F   UNL A   1      39.194  36.273  39.923  1.00  0.00    -0.200 F 
ENDBRANCH  54  68
BRANCH  55  79
ATOM     79  C   UNL A   1      40.547  28.048  28.514  1.00  0.00     0.064 A 
ATOM     80  C   UNL A   1      39.903  26.804  28.457  1.00  0.00     0.173 A 
ATOM     81  C   UNL A   1      41.316  28.437  27.410  1.00  0.00     0.173 A 
ATOM     82  F   UNL A   1      39.174  26.379  29.499  1.00  0.00    -0.203 F 
ATOM     83  C   UNL A   1      40.038  25.974  27.345  1.00  0.00     0.198 A 
ATOM     84  C   UNL A   1      41.430  27.617  26.288  1.00  0.00     0.198 A 
ATOM     85  F   UNL A   1      41.948  29.620  27.414  1.00  0.00    -0.203 F 
ATOM     86  F   UNL A   1      39.446  24.772  27.334  1.00  0.00    -0.200 F 
ATOM     87  C   UNL A   1      40.797  26.383  26.260  1.00  0.00     0.200 A 
ATOM     88  F   UNL A   1      42.156  28.020  25.236  1.00  0.00    -0.200 F 
ATOM     89  F   UNL A   1      40.925  25.586  25.190  1.00  0.00    -0.200 F 
ENDBRANCH  55  79
BRANCH  67  90
ATOM     90  C   UNL A   1      43.838  28.245  34.645  1.00  0.00     0.064 A 
ATOM     91  C   UNL A   1      45.180  28.648  34.573  1.00  0.00     0.173 A 
ATOM     92  C   UNL A   1      43.543  27.052  35.322  1.00  0.00     0.173 A 
ATOM     93  F   UNL A   1      45.514  29.772  33.922  1.00  0.00    -0.203 F 
ATOM     94  C   UNL A   1      46.189  27.873  35.140  1.00  0.00     0.198 A 
ATOM     95  C   UNL A   1      44.552  26.295  35.911  1.00  0.00     0.198 A 
ATOM     96  F   UNL A   1      42.274  26.628  35.423  1.00  0.00    -0.203 F 
ATOM     97  F   UNL A   1      47.469  28.253  35.022  1.00  0.00    -0.200 F 
ATOM     98  C   UNL A   1      45.873  26.702  35.814  1.00  0.00     0.200 A 
ATOM     99  F   UNL A   1      44.244  25.171  36.572  1.00  0.00    -0.200 F 
ATOM    100  F   UNL A   1      46.846  25.962  36.365  1.00  0.00    -0.200 F 
ENDBRANCH  67  90
ENDBRANCH  41  42
ENDBRANCH  33  36
ENDBRANCH  31  32
ENDBRANCH  30  31
ENDBRANCH   1  30
TORSDOF 14
ENDMDL
MODEL 3
REMARK VINA RESULT:     -13.0      0.478      7.239
REMARK SMILES Nc1ncccc1C[N@@H+]1CC2(CC[NH2+]CC2)C[C@H]1C(=O)NCCCCNC(=O)c1ccc(-c2c3nc(c(-c4c(F)c(F)c(F)c(F)c4F)c4ccc([nH]4)c(-c4c(F)c(F)c(F)c(F)c4F)c4nc(c(-c5c(F)c(F)c(F)c(F)c5F)c5ccc2[nH]5)C=C4)C=C3)cc1
REMARK SMILES IDX 23 1 22 2 21 3 19 4 20 5 18 7 9 8 10 9 11 11 17 12 12 13
REMARK SMILES IDX 16 14 13 15 15 16 14 17 8 20 7 21 2 22 3 23 4 24 6 25 5 26
REMARK SMILES IDX 1 27 24 30 25 31 26 32 27 33 28 35 29 36 30 37 91 38 31 39
REMARK SMILES IDX 90 40 32 41 33 42 34 43 84 44 35 45 89 46 83 47 85 48 36 49
REMARK SMILES IDX 88 50 82 51 81 52 37 54 69 55 49 56 68 57 50 58 53 59 67 60
REMARK SMILES IDX 86 61 51 62 52 63 66 65 87 66 54 67 38 68 39 69 47 70 40 71
REMARK SMILES IDX 41 72 45 73 48 74 42 75 43 76 46 77 44 78 70 79 71 80 79 81
REMARK SMILES IDX 72 82 73 83 77 84 80 85 74 86 75 87 78 88 76 89 55 90 56 91
REMARK SMILES IDX 64 92 57 93 58 94 62 95 65 96 59 97 60 98 63 99 61 100
REMARK H PARENT 21 6 9 10 14 18 14 19 1 28 1 29 26 34 85 53 53 64
REMARK Flexibility Score: inf
ROOT
ATOM      1  C   UNL A   1      32.354  30.014  27.124  1.00  0.00     0.023 C 
ENDROOT
BRANCH   1   2
ATOM      2  C   UNL A   1      33.816  29.677  26.875  1.00  0.00     0.116 C 
BRANCH   2   3
ATOM      3  N   UNL A   1      34.176  29.340  25.531  1.00  0.00    -0.351 N 
ATOM      4  C   UNL A   1      33.773  28.275  24.776  1.00  0.00     0.278 C 
ATOM      5  O   UNL A   1      34.041  28.360  23.568  1.00  0.00    -0.268 OA
ATOM      6  H   UNL A   1      34.800  29.961  25.090  1.00  0.00     0.163 HD
BRANCH   4   7
ATOM      7  C   UNL A   1      33.057  26.995  25.323  1.00  0.00     0.275 C 
ATOM      8  N   UNL A   1      32.193  26.384  24.299  1.00  0.00    -0.320 N 
ATOM      9  C   UNL A   1      32.731  25.061  23.955  1.00  0.00     0.270 C 
ATOM     10  H   UNL A   1      32.216  26.934  23.440  1.00  0.00     0.349 HD
ATOM     11  C   UNL A   1      33.785  24.633  25.020  1.00  0.00     0.036 C 
ATOM     12  C   UNL A   1      33.839  25.847  25.974  1.00  0.00     0.089 C 
ATOM     13  C   UNL A   1      35.238  24.298  24.575  1.00  0.00     0.074 C 
ATOM     14  C   UNL A   1      33.327  23.290  25.647  1.00  0.00     0.074 C 
ATOM     15  C   UNL A   1      35.298  23.192  23.531  1.00  0.00     0.261 C 
ATOM     16  C   UNL A   1      33.392  22.147  24.609  1.00  0.00     0.261 C 
ATOM     17  N   UNL A   1      34.733  21.954  24.059  1.00  0.00    -0.346 N 
ATOM     18  H   UNL A   1      35.344  21.603  24.797  1.00  0.00     0.346 HD
ATOM     19  H   UNL A   1      34.661  21.290  23.288  1.00  0.00     0.346 HD
BRANCH   8  20
ATOM     20  C   UNL A   1      30.747  26.449  24.640  1.00  0.00     0.303 C 
BRANCH  20  21
ATOM     21  C   UNL A   1      29.921  27.553  24.001  1.00  0.00     0.048 A 
ATOM     22  C   UNL A   1      28.586  27.389  23.614  1.00  0.00     0.132 A 
ATOM     23  N   UNL A   1      27.936  28.272  22.828  1.00  0.00    -0.239 NA
ATOM     24  C   UNL A   1      28.584  29.397  22.471  1.00  0.00     0.113 A 
ATOM     25  C   UNL A   1      30.510  28.790  23.715  1.00  0.00     0.015 A 
ATOM     26  C   UNL A   1      29.847  29.719  22.921  1.00  0.00     0.021 A 
BRANCH  22  27
ATOM     27  N   UNL A   1      27.830  26.289  23.960  1.00  0.00    -0.383 N 
ATOM     28  H   UNL A   1      26.906  26.204  23.635  1.00  0.00     0.158 HD
ATOM     29  H   UNL A   1      28.217  25.588  24.533  1.00  0.00     0.158 HD
ENDBRANCH  22  27
ENDBRANCH  20  21
ENDBRANCH   8  20
ENDBRANCH   4   7
ENDBRANCH   2   3
ENDBRANCH   1   2
BRANCH   1  30
ATOM     30  C   UNL A   1      31.988  31.483  26.924  1.00  0.00     0.023 C 
BRANCH  30  31
ATOM     31  C   UNL A   1      33.023  32.512  27.378  1.00  0.00     0.116 C 
BRANCH  31  32
ATOM     32  N   UNL A   1      32.508  33.852  27.614  1.00  0.00    -0.352 N 
ATOM     33  C   UNL A   1      32.993  34.797  28.501  1.00  0.00     0.251 C 
ATOM     34  H   UNL A   1      31.724  34.118  27.081  1.00  0.00     0.163 HD
ATOM     35  O   UNL A   1      32.450  35.879  28.630  1.00  0.00    -0.269 OA
BRANCH  33  36
ATOM     36  C   UNL A   1      34.161  34.441  29.342  1.00  0.00     0.039 A 
ATOM     37  C   UNL A   1      33.936  33.868  30.596  1.00  0.00     0.014 A 
ATOM     38  C   UNL A   1      35.459  34.579  28.849  1.00  0.00     0.014 A 
ATOM     39  C   UNL A   1      35.013  33.340  31.313  1.00  0.00     0.010 A 
ATOM     40  C   UNL A   1      36.518  33.985  29.528  1.00  0.00     0.010 A 
ATOM     41  C   UNL A   1      36.304  33.347  30.760  1.00  0.00    -0.014 A 
BRANCH  41  42
ATOM     42  C   UNL A   1      37.440  32.675  31.443  1.00  0.00     0.031 A 
ATOM     43  C   UNL A   1      38.138  31.518  30.787  1.00  0.00     0.074 A 
ATOM     44  C   UNL A   1      37.795  33.058  32.686  1.00  0.00     0.049 A 
ATOM     45  N   UNL A   1      39.103  30.763  31.247  1.00  0.00    -0.248 NA
ATOM     46  C   UNL A   1      37.667  31.140  29.446  1.00  0.00     0.031 C 
ATOM     47  C   UNL A   1      37.161  34.128  33.457  1.00  0.00     0.029 A 
ATOM     48  N   UNL A   1      38.774  32.582  33.524  1.00  0.00    -0.354 N 
ATOM     49  C   UNL A   1      39.342  29.815  30.261  1.00  0.00     0.074 A 
ATOM     50  C   UNL A   1      38.382  30.052  29.205  1.00  0.00     0.031 C 
ATOM     51  C   UNL A   1      37.787  34.250  34.639  1.00  0.00     0.029 A 
ATOM     52  C   UNL A   1      38.845  33.247  34.724  1.00  0.00     0.049 A 
ATOM     53  H   UNL A   1      39.370  31.835  33.287  1.00  0.00     0.167 HD
ATOM     54  C   UNL A   1      40.295  28.853  30.224  1.00  0.00     0.037 A 
ATOM     55  C   UNL A   1      39.672  33.070  35.772  1.00  0.00     0.037 A 
ATOM     56  C   UNL A   1      41.268  28.635  31.261  1.00  0.00     0.049 A 
ATOM     57  C   UNL A   1      40.723  31.995  35.706  1.00  0.00     0.074 A 
ATOM     58  C   UNL A   1      42.309  27.724  31.293  1.00  0.00     0.029 A 
ATOM     59  N   UNL A   1      41.318  29.342  32.454  1.00  0.00    -0.354 N 
ATOM     60  N   UNL A   1      40.984  31.150  34.740  1.00  0.00    -0.248 NA
ATOM     61  C   UNL A   1      41.597  31.853  36.879  1.00  0.00     0.031 C 
ATOM     62  C   UNL A   1      42.969  27.856  32.519  1.00  0.00     0.029 A 
ATOM     63  C   UNL A   1      42.365  28.877  33.235  1.00  0.00     0.049 A 
ATOM     64  H   UNL A   1      40.703  30.066  32.708  1.00  0.00     0.167 HD
ATOM     65  C   UNL A   1      42.068  30.400  35.170  1.00  0.00     0.074 A 
ATOM     66  C   UNL A   1      42.425  30.895  36.484  1.00  0.00     0.031 C 
ATOM     67  C   UNL A   1      42.713  29.391  34.535  1.00  0.00     0.037 A 
BRANCH  54  68
ATOM     68  C   UNL A   1      40.333  27.971  29.010  1.00  0.00     0.064 A 
ATOM     69  C   UNL A   1      41.075  28.323  27.872  1.00  0.00     0.173 A 
ATOM     70  C   UNL A   1      39.628  26.759  28.985  1.00  0.00     0.173 A 
ATOM     71  F   UNL A   1      41.755  29.479  27.841  1.00  0.00    -0.203 F 
ATOM     72  C   UNL A   1      41.081  27.512  26.740  1.00  0.00     0.198 A 
ATOM     73  C   UNL A   1      39.661  25.935  27.862  1.00  0.00     0.198 A 
ATOM     74  F   UNL A   1      38.906  26.372  30.048  1.00  0.00    -0.203 F 
ATOM     75  F   UNL A   1      41.750  27.898  25.646  1.00  0.00    -0.200 F 
ATOM     76  C   UNL A   1      40.379  26.316  26.738  1.00  0.00     0.200 A 
ATOM     77  F   UNL A   1      38.991  24.774  27.864  1.00  0.00    -0.200 F 
ATOM     78  F   UNL A   1      40.384  25.537  25.648  1.00  0.00    -0.200 F 
ENDBRANCH  54  68
BRANCH  55  79
ATOM     79  C   UNL A   1      39.574  33.962  36.956  1.00  0.00     0.064 A 
ATOM     80  C   UNL A   1      40.233  35.200  36.972  1.00  0.00     0.173 A 
ATOM     81  C   UNL A   1      38.832  33.603  38.089  1.00  0.00     0.173 A 
ATOM     82  F   UNL A   1      40.974  35.577  35.919  1.00  0.00    -0.203 F 
ATOM     83  C   UNL A   1      40.167  36.037  38.084  1.00  0.00     0.198 A 
ATOM     84  C   UNL A   1      38.746  34.453  39.191  1.00  0.00     0.198 A 
ATOM     85  F   UNL A   1      38.179  32.432  38.121  1.00  0.00    -0.203 F 
ATOM     86  F   UNL A   1      40.840  37.196  38.088  1.00  0.00    -0.200 F 
ATOM     87  C   UNL A   1      39.419  35.665  39.190  1.00  0.00     0.200 A 
ATOM     88  F   UNL A   1      38.013  34.095  40.255  1.00  0.00    -0.200 F 
ATOM     89  F   UNL A   1      39.353  36.472  40.259  1.00  0.00    -0.200 F 
ENDBRANCH  55  79
BRANCH  67  90
ATOM     90  C   UNL A   1      43.892  28.781  35.233  1.00  0.00     0.064 A 
ATOM     91  C   UNL A   1      43.753  27.667  36.073  1.00  0.00     0.173 A 
ATOM     92  C   UNL A   1      45.182  29.293  35.024  1.00  0.00     0.173 A 
ATOM     93  F   UNL A   1      42.539  27.151  36.317  1.00  0.00    -0.203 F 
ATOM     94  C   UNL A   1      44.863  27.100  36.696  1.00  0.00     0.198 A 
ATOM     95  C   UNL A   1      46.291  28.707  35.627  1.00  0.00     0.198 A 
ATOM     96  F   UNL A   1      45.367  30.354  34.224  1.00  0.00    -0.203 F 
ATOM     97  F   UNL A   1      44.703  26.063  37.530  1.00  0.00    -0.200 F 
ATOM     98  C   UNL A   1      46.130  27.616  36.467  1.00  0.00     0.200 A 
ATOM     99  F   UNL A   1      47.516  29.199  35.395  1.00  0.00    -0.200 F 
ATOM    100  F   UNL A   1      47.197  27.064  37.062  1.00  0.00    -0.200 F 
ENDBRANCH  67  90
ENDBRANCH  41  42
ENDBRANCH  33  36
ENDBRANCH  31  32
ENDBRANCH  30  31
ENDBRANCH   1  30
TORSDOF 14
ENDMDL
