MODEL 1
REMARK VINA RESULT:     -11.6      0.000      0.000
REMARK SMILES Cc1ccc(C)c(NC(=O)/C=C/C(=O)NCCCCNC(=O)c2ccc(-c3c4nc(c(-c5c(F)c(F)c(F)c(F)c5F)c5ccc([nH]5)c(-c5c(F)c(F)c(F)c(F)c5F)c5nc(c(-c6c(F)c(F)c(F)c(F)c6F)c6ccc3[nH]6)C=C5)C=C4)cc2)c1
REMARK SMILES IDX 17 1 16 2 15 3 13 4 14 5 12 7 11 8 9 9 8 10 10 12 7 13 1 14
REMARK SMILES IDX 2 15 3 16 86 17 4 18 5 19 6 20 18 21 19 22 20 23 21 24 22 26
REMARK SMILES IDX 23 27 24 28 85 29 25 30 84 31 26 32 27 33 28 34 78 35 29 36
REMARK SMILES IDX 83 37 77 38 79 39 30 40 82 41 76 42 75 43 31 45 63 46 43 47
REMARK SMILES IDX 62 48 44 49 47 50 61 51 80 52 45 53 46 54 60 56 81 57 48 58
REMARK SMILES IDX 32 59 33 60 41 61 34 62 35 63 39 64 42 65 36 66 37 67 40 68
REMARK SMILES IDX 38 69 64 70 65 71 73 72 66 73 67 74 71 75 74 76 68 77 69 78
REMARK SMILES IDX 72 79 70 80 49 81 50 82 58 83 51 84 52 85 56 86 59 87 53 88
REMARK SMILES IDX 54 89 57 90 55 91
REMARK H PARENT 15 6 8 11 20 25 79 44 47 55
REMARK Flexibility Score: inf
ROOT
ATOM      1  C   UNL A   1      42.954  18.334  27.081  1.00  0.00     0.023 C 
ENDROOT
BRANCH   1   2
ATOM      2  C   UNL A   1      43.586  18.162  25.705  1.00  0.00     0.116 C 
BRANCH   2   3
ATOM      3  N   UNL A   1      45.023  18.324  25.749  1.00  0.00    -0.353 N 
ATOM      4  C   UNL A   1      45.787  19.342  25.288  1.00  0.00     0.244 C 
ATOM      5  O   UNL A   1      47.007  19.284  25.394  1.00  0.00    -0.270 OA
ATOM      6  H   UNL A   1      45.518  17.587  26.176  1.00  0.00     0.163 HD
BRANCH   4   7
ATOM      7  C   UNL A   1      45.129  20.523  24.708  1.00  0.00     0.077 C 
ATOM      8  C   UNL A   1      45.250  21.708  25.323  1.00  0.00     0.077 C 
BRANCH   8   9
ATOM      9  C   UNL A   1      44.360  22.782  24.877  1.00  0.00     0.248 C 
ATOM     10  N   UNL A   1      44.615  24.092  25.142  1.00  0.00    -0.322 N 
ATOM     11  H   UNL A   1      43.989  24.672  24.653  1.00  0.00     0.170 HD
ATOM     12  O   UNL A   1      43.365  22.491  24.210  1.00  0.00    -0.270 OA
BRANCH  10  13
ATOM     13  C   UNL A   1      45.515  24.870  25.917  1.00  0.00     0.044 A 
ATOM     14  C   UNL A   1      47.609  27.963  24.978  1.00  0.00     0.044 C 
ATOM     15  C   UNL A   1      47.061  26.798  25.745  1.00  0.00    -0.049 A 
ATOM     16  C   UNL A   1      47.429  26.626  27.072  1.00  0.00     0.004 A 
ATOM     17  C   UNL A   1      46.135  25.908  25.177  1.00  0.00     0.029 A 
ATOM     18  C   UNL A   1      46.819  25.633  27.826  1.00  0.00     0.006 A 
ATOM     19  C   UNL A   1      45.819  24.794  27.287  1.00  0.00    -0.027 A 
ATOM     20  C   UNL A   1      45.117  23.963  28.311  1.00  0.00     0.046 C 
ENDBRANCH  10  13
ENDBRANCH   8   9
ENDBRANCH   4   7
ENDBRANCH   2   3
ENDBRANCH   1   2
BRANCH   1  21
ATOM     21  C   UNL A   1      41.927  19.465  27.267  1.00  0.00     0.023 C 
BRANCH  21  22
ATOM     22  C   UNL A   1      41.680  20.483  26.143  1.00  0.00     0.116 C 
BRANCH  22  23
ATOM     23  N   UNL A   1      40.301  20.876  25.944  1.00  0.00    -0.352 N 
ATOM     24  C   UNL A   1      39.523  21.946  26.331  1.00  0.00     0.251 C 
ATOM     25  H   UNL A   1      39.799  20.224  25.403  1.00  0.00     0.163 HD
ATOM     26  O   UNL A   1      38.318  21.839  26.174  1.00  0.00    -0.269 OA
BRANCH  24  27
ATOM     27  C   UNL A   1      40.066  23.239  26.847  1.00  0.00     0.039 A 
ATOM     28  C   UNL A   1      41.233  23.200  27.639  1.00  0.00     0.014 A 
ATOM     29  C   UNL A   1      39.412  24.455  26.704  1.00  0.00     0.014 A 
ATOM     30  C   UNL A   1      41.689  24.343  28.306  1.00  0.00     0.010 A 
ATOM     31  C   UNL A   1      39.840  25.579  27.374  1.00  0.00     0.010 A 
ATOM     32  C   UNL A   1      40.965  25.525  28.187  1.00  0.00    -0.014 A 
BRANCH  32  33
ATOM     33  C   UNL A   1      41.337  26.765  28.856  1.00  0.00     0.031 A 
ATOM     34  C   UNL A   1      42.484  27.509  28.264  1.00  0.00     0.074 A 
ATOM     35  C   UNL A   1      40.453  27.442  29.615  1.00  0.00     0.049 A 
ATOM     36  N   UNL A   1      43.654  27.736  28.768  1.00  0.00    -0.248 NA
ATOM     37  C   UNL A   1      42.341  27.973  26.875  1.00  0.00     0.031 C 
ATOM     38  C   UNL A   1      39.047  27.116  29.863  1.00  0.00     0.029 A 
ATOM     39  N   UNL A   1      40.599  28.665  30.192  1.00  0.00    -0.354 N 
ATOM     40  C   UNL A   1      44.334  28.498  27.815  1.00  0.00     0.074 A 
ATOM     41  C   UNL A   1      43.583  28.360  26.601  1.00  0.00     0.031 C 
ATOM     42  C   UNL A   1      38.428  28.202  30.380  1.00  0.00     0.029 A 
ATOM     43  C   UNL A   1      39.409  29.253  30.596  1.00  0.00     0.049 A 
ATOM     44  H   UNL A   1      41.475  29.097  30.312  1.00  0.00     0.167 HD
ATOM     45  C   UNL A   1      45.300  29.401  28.153  1.00  0.00     0.037 A 
ATOM     46  C   UNL A   1      39.254  30.534  31.012  1.00  0.00     0.037 A 
ATOM     47  C   UNL A   1      45.685  29.236  29.536  1.00  0.00     0.049 A 
ATOM     48  C   UNL A   1      40.607  31.086  31.293  1.00  0.00     0.074 A 
ATOM     49  C   UNL A   1      46.162  28.187  30.302  1.00  0.00     0.029 A 
ATOM     50  N   UNL A   1      45.253  30.177  30.441  1.00  0.00    -0.354 N 
ATOM     51  N   UNL A   1      41.360  30.737  32.298  1.00  0.00    -0.248 NA
ATOM     52  C   UNL A   1      41.298  31.778  30.212  1.00  0.00     0.031 C 
ATOM     53  C   UNL A   1      45.536  28.344  31.577  1.00  0.00     0.029 A 
ATOM     54  C   UNL A   1      44.760  29.501  31.525  1.00  0.00     0.049 A 
ATOM     55  H   UNL A   1      45.291  31.155  30.330  1.00  0.00     0.167 HD
ATOM     56  C   UNL A   1      42.654  30.779  31.802  1.00  0.00     0.074 A 
ATOM     57  C   UNL A   1      42.564  31.540  30.562  1.00  0.00     0.031 C 
ATOM     58  C   UNL A   1      43.619  29.945  32.289  1.00  0.00     0.037 A 
BRANCH  45  59
ATOM     59  C   UNL A   1      45.647  30.668  27.376  1.00  0.00     0.064 A 
ATOM     60  C   UNL A   1      47.012  30.969  27.158  1.00  0.00     0.173 A 
ATOM     61  C   UNL A   1      44.760  31.723  27.063  1.00  0.00     0.173 A 
ATOM     62  F   UNL A   1      47.962  30.052  27.390  1.00  0.00    -0.203 F 
ATOM     63  C   UNL A   1      47.449  32.245  26.789  1.00  0.00     0.198 A 
ATOM     64  C   UNL A   1      45.197  32.978  26.634  1.00  0.00     0.198 A 
ATOM     65  F   UNL A   1      43.440  31.645  27.244  1.00  0.00    -0.203 F 
ATOM     66  F   UNL A   1      48.762  32.508  26.742  1.00  0.00    -0.200 F 
ATOM     67  C   UNL A   1      46.541  33.253  26.538  1.00  0.00     0.200 A 
ATOM     68  F   UNL A   1      44.295  33.941  26.394  1.00  0.00    -0.200 F 
ATOM     69  F   UNL A   1      46.956  34.493  26.250  1.00  0.00    -0.200 F 
ENDBRANCH  45  59
BRANCH  46  70
ATOM     70  C   UNL A   1      38.054  31.403  31.004  1.00  0.00     0.064 A 
ATOM     71  C   UNL A   1      37.520  31.873  29.793  1.00  0.00     0.173 A 
ATOM     72  C   UNL A   1      37.260  31.590  32.152  1.00  0.00     0.173 A 
ATOM     73  F   UNL A   1      38.194  31.704  28.645  1.00  0.00    -0.203 F 
ATOM     74  C   UNL A   1      36.256  32.466  29.727  1.00  0.00     0.198 A 
ATOM     75  C   UNL A   1      36.004  32.196  32.088  1.00  0.00     0.198 A 
ATOM     76  F   UNL A   1      37.645  31.108  33.341  1.00  0.00    -0.203 F 
ATOM     77  F   UNL A   1      35.755  32.838  28.541  1.00  0.00    -0.200 F 
ATOM     78  C   UNL A   1      35.495  32.619  30.873  1.00  0.00     0.200 A 
ATOM     79  F   UNL A   1      35.262  32.312  33.199  1.00  0.00    -0.200 F 
ATOM     80  F   UNL A   1      34.260  33.133  30.801  1.00  0.00    -0.200 F 
ENDBRANCH  46  70
BRANCH  58  81
ATOM     81  C   UNL A   1      43.349  29.238  33.584  1.00  0.00     0.064 A 
ATOM     82  C   UNL A   1      43.636  29.776  34.850  1.00  0.00     0.173 A 
ATOM     83  C   UNL A   1      42.662  28.017  33.542  1.00  0.00     0.173 A 
ATOM     84  F   UNL A   1      44.190  30.988  34.976  1.00  0.00    -0.203 F 
ATOM     85  C   UNL A   1      43.301  29.093  36.018  1.00  0.00     0.198 A 
ATOM     86  C   UNL A   1      42.291  27.357  34.710  1.00  0.00     0.198 A 
ATOM     87  F   UNL A   1      42.311  27.481  32.362  1.00  0.00    -0.203 F 
ATOM     88  F   UNL A   1      43.607  29.616  37.213  1.00  0.00    -0.200 F 
ATOM     89  C   UNL A   1      42.624  27.886  35.946  1.00  0.00     0.200 A 
ATOM     90  F   UNL A   1      41.591  26.216  34.637  1.00  0.00    -0.200 F 
ATOM     91  F   UNL A   1      42.267  27.248  37.069  1.00  0.00    -0.200 F 
ENDBRANCH  58  81
ENDBRANCH  32  33
ENDBRANCH  24  27
ENDBRANCH  22  23
ENDBRANCH  21  22
ENDBRANCH   1  21
TORSDOF 13
ENDMDL
MODEL 2
REMARK VINA RESULT:     -11.3      4.037     11.294
REMARK SMILES Cc1ccc(C)c(NC(=O)/C=C/C(=O)NCCCCNC(=O)c2ccc(-c3c4nc(c(-c5c(F)c(F)c(F)c(F)c5F)c5ccc([nH]5)c(-c5c(F)c(F)c(F)c(F)c5F)c5nc(c(-c6c(F)c(F)c(F)c(F)c6F)c6ccc3[nH]6)C=C5)C=C4)cc2)c1
REMARK SMILES IDX 17 1 16 2 15 3 13 4 14 5 12 7 11 8 9 9 8 10 10 12 7 13 1 14
REMARK SMILES IDX 2 15 3 16 86 17 4 18 5 19 6 20 18 21 19 22 20 23 21 24 22 26
REMARK SMILES IDX 23 27 24 28 85 29 25 30 84 31 26 32 27 33 28 34 78 35 29 36
REMARK SMILES IDX 83 37 77 38 79 39 30 40 82 41 76 42 75 43 31 45 63 46 43 47
REMARK SMILES IDX 62 48 44 49 47 50 61 51 80 52 45 53 46 54 60 56 81 57 48 58
REMARK SMILES IDX 32 59 33 60 41 61 34 62 35 63 39 64 42 65 36 66 37 67 40 68
REMARK SMILES IDX 38 69 64 70 65 71 73 72 66 73 67 74 71 75 74 76 68 77 69 78
REMARK SMILES IDX 72 79 70 80 49 81 50 82 58 83 51 84 52 85 56 86 59 87 53 88
REMARK SMILES IDX 54 89 57 90 55 91
REMARK H PARENT 15 6 8 11 20 25 79 44 47 55
REMARK Flexibility Score: inf
ROOT
ATOM      1  C   UNL A   1      33.279  36.343  29.406  1.00  0.00     0.023 C 
ENDROOT
BRANCH   1   2
ATOM      2  C   UNL A   1      32.495  36.098  30.690  1.00  0.00     0.116 C 
BRANCH   2   3
ATOM      3  N   UNL A   1      33.058  36.819  31.811  1.00  0.00    -0.353 N 
ATOM      4  C   UNL A   1      33.795  36.356  32.848  1.00  0.00     0.244 C 
ATOM      5  O   UNL A   1      34.163  37.128  33.726  1.00  0.00    -0.270 OA
ATOM      6  H   UNL A   1      32.881  37.788  31.821  1.00  0.00     0.163 HD
BRANCH   4   7
ATOM      7  C   UNL A   1      34.179  34.936  32.873  1.00  0.00     0.077 C 
ATOM      8  C   UNL A   1      35.122  34.498  32.028  1.00  0.00     0.077 C 
BRANCH   8   9
ATOM      9  C   UNL A   1      35.270  33.047  31.891  1.00  0.00     0.248 C 
ATOM     10  N   UNL A   1      36.311  32.369  32.445  1.00  0.00    -0.322 N 
ATOM     11  H   UNL A   1      36.173  31.398  32.366  1.00  0.00     0.170 HD
ATOM     12  O   UNL A   1      34.403  32.417  31.282  1.00  0.00    -0.270 OA
BRANCH  10  13
ATOM     13  C   UNL A   1      37.539  32.646  33.101  1.00  0.00     0.044 A 
ATOM     14  C   UNL A   1      39.041  31.193  36.336  1.00  0.00     0.044 C 
ATOM     15  C   UNL A   1      38.838  32.051  35.124  1.00  0.00    -0.049 A 
ATOM     16  C   UNL A   1      39.829  32.950  34.757  1.00  0.00     0.004 A 
ATOM     17  C   UNL A   1      37.698  31.930  34.313  1.00  0.00     0.029 A 
ATOM     18  C   UNL A   1      39.710  33.647  33.563  1.00  0.00     0.006 A 
ATOM     19  C   UNL A   1      38.611  33.459  32.695  1.00  0.00    -0.027 A 
ATOM     20  C   UNL A   1      38.783  34.106  31.359  1.00  0.00     0.046 C 
ENDBRANCH  10  13
ENDBRANCH   8   9
ENDBRANCH   4   7
ENDBRANCH   2   3
ENDBRANCH   1   2
BRANCH   1  21
ATOM     21  C   UNL A   1      33.281  35.235  28.339  1.00  0.00     0.023 C 
BRANCH  21  22
ATOM     22  C   UNL A   1      34.274  34.067  28.434  1.00  0.00     0.116 C 
BRANCH  22  23
ATOM     23  N   UNL A   1      33.719  32.749  28.202  1.00  0.00    -0.352 N 
ATOM     24  C   UNL A   1      34.237  31.510  27.892  1.00  0.00     0.251 C 
ATOM     25  H   UNL A   1      32.738  32.736  28.286  1.00  0.00     0.163 HD
ATOM     26  O   UNL A   1      33.444  30.653  27.538  1.00  0.00    -0.269 OA
BRANCH  24  27
ATOM     27  C   UNL A   1      35.676  31.139  28.040  1.00  0.00     0.039 A 
ATOM     28  C   UNL A   1      36.047  29.804  27.775  1.00  0.00     0.014 A 
ATOM     29  C   UNL A   1      36.639  31.997  28.552  1.00  0.00     0.014 A 
ATOM     30  C   UNL A   1      37.336  29.343  28.071  1.00  0.00     0.010 A 
ATOM     31  C   UNL A   1      37.901  31.548  28.868  1.00  0.00     0.010 A 
ATOM     32  C   UNL A   1      38.249  30.221  28.645  1.00  0.00    -0.014 A 
BRANCH  32  33
ATOM     33  C   UNL A   1      39.606  29.840  29.013  1.00  0.00     0.031 A 
ATOM     34  C   UNL A   1      39.907  29.819  30.472  1.00  0.00     0.074 A 
ATOM     35  C   UNL A   1      40.372  29.100  28.188  1.00  0.00     0.049 A 
ATOM     36  N   UNL A   1      40.713  30.573  31.148  1.00  0.00    -0.248 NA
ATOM     37  C   UNL A   1      39.122  28.899  31.310  1.00  0.00     0.031 C 
ATOM     38  C   UNL A   1      40.009  28.544  26.883  1.00  0.00     0.029 A 
ATOM     39  N   UNL A   1      41.594  28.555  28.432  1.00  0.00    -0.354 N 
ATOM     40  C   UNL A   1      40.640  30.117  32.466  1.00  0.00     0.074 A 
ATOM     41  C   UNL A   1      39.463  29.301  32.530  1.00  0.00     0.031 C 
ATOM     42  C   UNL A   1      40.912  27.597  26.540  1.00  0.00     0.029 A 
ATOM     43  C   UNL A   1      41.965  27.557  27.542  1.00  0.00     0.049 A 
ATOM     44  H   UNL A   1      42.168  28.844  29.178  1.00  0.00     0.167 HD
ATOM     45  C   UNL A   1      41.689  30.216  33.334  1.00  0.00     0.037 A 
ATOM     46  C   UNL A   1      43.028  26.726  27.673  1.00  0.00     0.037 A 
ATOM     47  C   UNL A   1      42.715  31.077  32.792  1.00  0.00     0.049 A 
ATOM     48  C   UNL A   1      43.913  27.287  28.730  1.00  0.00     0.074 A 
ATOM     49  C   UNL A   1      42.758  32.380  32.330  1.00  0.00     0.029 A 
ATOM     50  N   UNL A   1      43.865  30.490  32.319  1.00  0.00    -0.354 N 
ATOM     51  N   UNL A   1      44.635  28.365  28.602  1.00  0.00    -0.248 NA
ATOM     52  C   UNL A   1      43.705  26.841  30.101  1.00  0.00     0.031 C 
ATOM     53  C   UNL A   1      43.652  32.352  31.216  1.00  0.00     0.029 A 
ATOM     54  C   UNL A   1      44.136  31.049  31.100  1.00  0.00     0.049 A 
ATOM     55  H   UNL A   1      44.395  29.795  32.774  1.00  0.00     0.167 HD
ATOM     56  C   UNL A   1      44.610  28.958  29.856  1.00  0.00     0.074 A 
ATOM     57  C   UNL A   1      44.132  27.920  30.760  1.00  0.00     0.031 C 
ATOM     58  C   UNL A   1      44.697  30.314  29.992  1.00  0.00     0.037 A 
BRANCH  45  59
ATOM     59  C   UNL A   1      41.978  29.269  34.496  1.00  0.00     0.064 A 
ATOM     60  C   UNL A   1      42.494  29.814  35.694  1.00  0.00     0.173 A 
ATOM     61  C   UNL A   1      42.029  27.858  34.427  1.00  0.00     0.173 A 
ATOM     62  F   UNL A   1      42.486  31.138  35.904  1.00  0.00    -0.203 F 
ATOM     63  C   UNL A   1      43.118  29.028  36.668  1.00  0.00     0.198 A 
ATOM     64  C   UNL A   1      42.597  27.071  35.431  1.00  0.00     0.198 A 
ATOM     65  F   UNL A   1      41.629  27.164  33.359  1.00  0.00    -0.203 F 
ATOM     66  F   UNL A   1      43.719  29.618  37.711  1.00  0.00    -0.200 F 
ATOM     67  C   UNL A   1      43.180  27.657  36.531  1.00  0.00     0.200 A 
ATOM     68  F   UNL A   1      42.643  25.740  35.276  1.00  0.00    -0.200 F 
ATOM     69  F   UNL A   1      43.834  26.907  37.426  1.00  0.00    -0.200 F 
ENDBRANCH  45  59
BRANCH  46  70
ATOM     70  C   UNL A   1      43.262  25.377  27.109  1.00  0.00     0.064 A 
ATOM     71  C   UNL A   1      42.479  24.285  27.520  1.00  0.00     0.173 A 
ATOM     72  C   UNL A   1      44.082  25.170  25.983  1.00  0.00     0.173 A 
ATOM     73  F   UNL A   1      41.643  24.406  28.562  1.00  0.00    -0.203 F 
ATOM     74  C   UNL A   1      42.490  23.070  26.829  1.00  0.00     0.198 A 
ATOM     75  C   UNL A   1      44.104  23.951  25.302  1.00  0.00     0.198 A 
ATOM     76  F   UNL A   1      44.806  26.171  25.466  1.00  0.00    -0.203 F 
ATOM     77  F   UNL A   1      41.677  22.077  27.213  1.00  0.00    -0.200 F 
ATOM     78  C   UNL A   1      43.296  22.907  25.715  1.00  0.00     0.200 A 
ATOM     79  F   UNL A   1      44.864  23.814  24.207  1.00  0.00    -0.200 F 
ATOM     80  F   UNL A   1      43.263  21.763  25.018  1.00  0.00    -0.200 F 
ENDBRANCH  46  70
BRANCH  58  81
ATOM     81  C   UNL A   1      45.161  31.111  28.809  1.00  0.00     0.064 A 
ATOM     82  C   UNL A   1      44.326  31.510  27.751  1.00  0.00     0.173 A 
ATOM     83  C   UNL A   1      46.479  31.591  28.809  1.00  0.00     0.173 A 
ATOM     84  F   UNL A   1      43.028  31.186  27.736  1.00  0.00    -0.203 F 
ATOM     85  C   UNL A   1      44.808  32.305  26.713  1.00  0.00     0.198 A 
ATOM     86  C   UNL A   1      46.945  32.420  27.792  1.00  0.00     0.198 A 
ATOM     87  F   UNL A   1      47.306  31.289  29.822  1.00  0.00    -0.203 F 
ATOM     88  F   UNL A   1      43.998  32.652  25.702  1.00  0.00    -0.200 F 
ATOM     89  C   UNL A   1      46.115  32.763  26.738  1.00  0.00     0.200 A 
ATOM     90  F   UNL A   1      48.194  32.902  27.846  1.00  0.00    -0.200 F 
ATOM     91  F   UNL A   1      46.567  33.560  25.759  1.00  0.00    -0.200 F 
ENDBRANCH  58  81
ENDBRANCH  32  33
ENDBRANCH  24  27
ENDBRANCH  22  23
ENDBRANCH  21  22
ENDBRANCH   1  21
TORSDOF 13
ENDMDL
MODEL 3
REMARK VINA RESULT:     -11.1      4.019     10.084
REMARK SMILES Cc1ccc(C)c(NC(=O)/C=C/C(=O)NCCCCNC(=O)c2ccc(-c3c4nc(c(-c5c(F)c(F)c(F)c(F)c5F)c5ccc([nH]5)c(-c5c(F)c(F)c(F)c(F)c5F)c5nc(c(-c6c(F)c(F)c(F)c(F)c6F)c6ccc3[nH]6)C=C5)C=C4)cc2)c1
REMARK SMILES IDX 17 1 16 2 15 3 13 4 14 5 12 7 11 8 9 9 8 10 10 12 7 13 1 14
REMARK SMILES IDX 2 15 3 16 86 17 4 18 5 19 6 20 18 21 19 22 20 23 21 24 22 26
REMARK SMILES IDX 23 27 24 28 85 29 25 30 84 31 26 32 27 33 28 34 78 35 29 36
REMARK SMILES IDX 83 37 77 38 79 39 30 40 82 41 76 42 75 43 31 45 63 46 43 47
REMARK SMILES IDX 62 48 44 49 47 50 61 51 80 52 45 53 46 54 60 56 81 57 48 58
REMARK SMILES IDX 32 59 33 60 41 61 34 62 35 63 39 64 42 65 36 66 37 67 40 68
REMARK SMILES IDX 38 69 64 70 65 71 73 72 66 73 67 74 71 75 74 76 68 77 69 78
REMARK SMILES IDX 72 79 70 80 49 81 50 82 58 83 51 84 52 85 56 86 59 87 53 88
REMARK SMILES IDX 54 89 57 90 55 91
REMARK H PARENT 15 6 8 11 20 25 79 44 47 55
REMARK Flexibility Score: inf
ROOT
ATOM      1  C   UNL A   1      34.742  30.179  27.261  1.00  0.00     0.023 C 
ENDROOT
BRANCH   1   2
ATOM      2  C   UNL A   1      34.372  28.788  26.760  1.00  0.00     0.116 C 
BRANCH   2   3
ATOM      3  N   UNL A   1      33.120  28.793  26.034  1.00  0.00    -0.353 N 
ATOM      4  C   UNL A   1      32.313  27.757  25.705  1.00  0.00     0.244 C 
ATOM      5  O   UNL A   1      31.295  27.961  25.054  1.00  0.00    -0.270 OA
ATOM      6  H   UNL A   1      32.809  29.679  25.736  1.00  0.00     0.163 HD
BRANCH   4   7
ATOM      7  C   UNL A   1      32.656  26.406  26.179  1.00  0.00     0.077 C 
ATOM      8  C   UNL A   1      31.866  25.376  25.847  1.00  0.00     0.077 C 
BRANCH   8   9
ATOM      9  C   UNL A   1      32.080  24.117  26.562  1.00  0.00     0.248 C 
ATOM     10  N   UNL A   1      33.178  23.341  26.350  1.00  0.00    -0.322 N 
ATOM     11  H   UNL A   1      33.219  22.612  27.010  1.00  0.00     0.170 HD
ATOM     12  O   UNL A   1      31.255  23.766  27.408  1.00  0.00    -0.270 OA
BRANCH  10  13
ATOM     13  C   UNL A   1      34.280  23.270  25.459  1.00  0.00     0.044 A 
ATOM     14  C   UNL A   1      38.051  23.733  26.089  1.00  0.00     0.044 C 
ATOM     15  C   UNL A   1      36.741  23.547  25.386  1.00  0.00    -0.049 A 
ATOM     16  C   UNL A   1      36.733  23.294  24.022  1.00  0.00     0.004 A 
ATOM     17  C   UNL A   1      35.521  23.559  26.081  1.00  0.00     0.029 A 
ATOM     18  C   UNL A   1      35.536  22.984  23.393  1.00  0.00     0.006 A 
ATOM     19  C   UNL A   1      34.317  22.902  24.103  1.00  0.00    -0.027 A 
ATOM     20  C   UNL A   1      33.195  22.320  23.307  1.00  0.00     0.046 C 
ENDBRANCH  10  13
ENDBRANCH   8   9
ENDBRANCH   4   7
ENDBRANCH   2   3
ENDBRANCH   1   2
BRANCH   1  21
ATOM     21  C   UNL A   1      33.601  31.163  27.569  1.00  0.00     0.023 C 
BRANCH  21  22
ATOM     22  C   UNL A   1      33.912  32.603  28.004  1.00  0.00     0.116 C 
BRANCH  22  23
ATOM     23  N   UNL A   1      34.016  32.819  29.432  1.00  0.00    -0.352 N 
ATOM     24  C   UNL A   1      34.833  32.346  30.436  1.00  0.00     0.251 C 
ATOM     25  H   UNL A   1      33.341  33.455  29.765  1.00  0.00     0.163 HD
ATOM     26  O   UNL A   1      34.486  32.570  31.584  1.00  0.00    -0.269 OA
BRANCH  24  27
ATOM     27  C   UNL A   1      36.139  31.659  30.204  1.00  0.00     0.039 A 
ATOM     28  C   UNL A   1      36.242  30.295  30.551  1.00  0.00     0.014 A 
ATOM     29  C   UNL A   1      37.290  32.320  29.795  1.00  0.00     0.014 A 
ATOM     30  C   UNL A   1      37.480  29.641  30.536  1.00  0.00     0.010 A 
ATOM     31  C   UNL A   1      38.514  31.691  29.799  1.00  0.00     0.010 A 
ATOM     32  C   UNL A   1      38.617  30.360  30.183  1.00  0.00    -0.014 A 
BRANCH  32  33
ATOM     33  C   UNL A   1      39.955  29.783  30.157  1.00  0.00     0.031 A 
ATOM     34  C   UNL A   1      40.567  29.490  31.483  1.00  0.00     0.074 A 
ATOM     35  C   UNL A   1      40.406  29.114  29.078  1.00  0.00     0.049 A 
ATOM     36  N   UNL A   1      41.601  30.033  32.041  1.00  0.00    -0.248 NA
ATOM     37  C   UNL A   1      39.867  28.531  32.352  1.00  0.00     0.031 C 
ATOM     38  C   UNL A   1      39.687  28.822  27.836  1.00  0.00     0.029 A 
ATOM     39  N   UNL A   1      41.563  28.411  28.943  1.00  0.00    -0.354 N 
ATOM     40  C   UNL A   1      41.760  29.376  33.263  1.00  0.00     0.074 A 
ATOM     41  C   UNL A   1      40.524  28.688  33.497  1.00  0.00     0.031 C 
ATOM     42  C   UNL A   1      40.349  27.855  27.160  1.00  0.00     0.029 A 
ATOM     43  C   UNL A   1      41.582  27.541  27.864  1.00  0.00     0.049 A 
ATOM     44  H   UNL A   1      42.323  28.511  29.561  1.00  0.00     0.167 HD
ATOM     45  C   UNL A   1      42.979  29.219  33.857  1.00  0.00     0.037 A 
ATOM     46  C   UNL A   1      42.520  26.593  27.619  1.00  0.00     0.037 A 
ATOM     47  C   UNL A   1      43.969  30.046  33.205  1.00  0.00     0.049 A 
ATOM     48  C   UNL A   1      43.689  26.876  28.497  1.00  0.00     0.074 A 
ATOM     49  C   UNL A   1      44.091  31.396  32.929  1.00  0.00     0.029 A 
ATOM     50  N   UNL A   1      44.891  29.428  32.393  1.00  0.00    -0.354 N 
ATOM     51  N   UNL A   1      44.508  27.878  28.347  1.00  0.00    -0.248 NA
ATOM     52  C   UNL A   1      43.730  26.233  29.804  1.00  0.00     0.031 C 
ATOM     53  C   UNL A   1      44.701  31.459  31.639  1.00  0.00     0.029 A 
ATOM     54  C   UNL A   1      44.959  30.150  31.233  1.00  0.00     0.049 A 
ATOM     55  H   UNL A   1      45.406  28.616  32.608  1.00  0.00     0.167 HD
ATOM     56  C   UNL A   1      44.846  28.255  29.638  1.00  0.00     0.074 A 
ATOM     57  C   UNL A   1      44.440  27.137  30.481  1.00  0.00     0.031 C 
ATOM     58  C   UNL A   1      45.151  29.553  29.933  1.00  0.00     0.037 A 
BRANCH  45  59
ATOM     59  C   UNL A   1      43.383  28.068  34.774  1.00  0.00     0.064 A 
ATOM     60  C   UNL A   1      43.865  28.377  36.067  1.00  0.00     0.173 A 
ATOM     61  C   UNL A   1      43.573  26.722  34.387  1.00  0.00     0.173 A 
ATOM     62  F   UNL A   1      43.730  29.612  36.572  1.00  0.00    -0.203 F 
ATOM     63  C   UNL A   1      44.583  27.459  36.840  1.00  0.00     0.198 A 
ATOM     64  C   UNL A   1      44.236  25.790  35.189  1.00  0.00     0.198 A 
ATOM     65  F   UNL A   1      43.224  26.250  33.188  1.00  0.00    -0.203 F 
ATOM     66  F   UNL A   1      45.142  27.856  37.991  1.00  0.00    -0.200 F 
ATOM     67  C   UNL A   1      44.779  26.168  36.395  1.00  0.00     0.200 A 
ATOM     68  F   UNL A   1      44.411  24.540  34.736  1.00  0.00    -0.200 F 
ATOM     69  F   UNL A   1      45.522  25.306  37.099  1.00  0.00    -0.200 F 
ENDBRANCH  45  59
BRANCH  46  70
ATOM     70  C   UNL A   1      42.431  25.339  26.837  1.00  0.00     0.064 A 
ATOM     71  C   UNL A   1      43.274  25.123  25.733  1.00  0.00     0.173 A 
ATOM     72  C   UNL A   1      41.699  24.225  27.291  1.00  0.00     0.173 A 
ATOM     73  F   UNL A   1      44.033  26.120  25.257  1.00  0.00    -0.203 F 
ATOM     74  C   UNL A   1      43.402  23.863  25.141  1.00  0.00     0.198 A 
ATOM     75  C   UNL A   1      41.816  22.971  26.690  1.00  0.00     0.198 A 
ATOM     76  F   UNL A   1      40.927  24.309  28.383  1.00  0.00    -0.203 F 
ATOM     77  F   UNL A   1      44.269  23.685  24.135  1.00  0.00    -0.200 F 
ATOM     78  C   UNL A   1      42.680  22.786  25.625  1.00  0.00     0.200 A 
ATOM     79  F   UNL A   1      41.136  21.928  27.186  1.00  0.00    -0.200 F 
ATOM     80  F   UNL A   1      42.847  21.566  25.095  1.00  0.00    -0.200 F 
ENDBRANCH  46  70
BRANCH  58  81
ATOM     81  C   UNL A   1      45.447  30.482  28.793  1.00  0.00     0.064 A 
ATOM     82  C   UNL A   1      44.465  31.177  28.067  1.00  0.00     0.173 A 
ATOM     83  C   UNL A   1      46.789  30.770  28.504  1.00  0.00     0.173 A 
ATOM     84  F   UNL A   1      43.165  31.040  28.357  1.00  0.00    -0.203 F 
ATOM     85  C   UNL A   1      44.813  32.075  27.059  1.00  0.00     0.198 A 
ATOM     86  C   UNL A   1      47.133  31.699  27.526  1.00  0.00     0.198 A 
ATOM     87  F   UNL A   1      47.770  30.179  29.203  1.00  0.00    -0.203 F 
ATOM     88  F   UNL A   1      43.856  32.707  26.364  1.00  0.00    -0.200 F 
ATOM     89  C   UNL A   1      46.147  32.338  26.794  1.00  0.00     0.200 A 
ATOM     90  F   UNL A   1      48.423  31.989  27.308  1.00  0.00    -0.200 F 
ATOM     91  F   UNL A   1      46.481  33.231  25.851  1.00  0.00    -0.200 F 
ENDBRANCH  58  81
ENDBRANCH  32  33
ENDBRANCH  24  27
ENDBRANCH  22  23
ENDBRANCH  21  22
ENDBRANCH   1  21
TORSDOF 13
ENDMDL
