MODEL 1
REMARK VINA RESULT:     -11.2      0.000      0.000
REMARK SMILES C[C@H](Cc1cccs1)N(C)C(=O)[C@@H]([NH3+])CCC(=O)NCCCCNC(=O)c1ccc(-c2c3nc(c(-c4c(F)c(F)c(F)c(F)c4F)c4ccc([nH]4)c(-c4c(F)c(F)c(F)c(F)c4F)c4nc(c(-c5c(F)c(F)c(F)c(F)c5F)c5ccc2[nH]5)C=C4)C=C3)cc1
REMARK SMILES IDX 17 1 18 2 19 3 16 5 15 6 13 7 11 8 12 9 9 10 10 11 2 12 1 13
REMARK SMILES IDX 3 14 4 15 5 16 8 17 6 18 7 19 14 20 20 24 21 25 22 26 23 27
REMARK SMILES IDX 24 28 25 29 26 31 27 32 28 33 89 34 29 35 88 36 30 37 31 38
REMARK SMILES IDX 32 39 82 40 33 41 87 42 81 43 83 44 34 45 86 46 80 47 79 48
REMARK SMILES IDX 35 50 67 51 47 52 66 53 48 54 51 55 65 56 84 57 49 58 50 59
REMARK SMILES IDX 64 61 85 62 52 63 36 64 37 65 45 66 38 67 39 68 43 69 46 70
REMARK SMILES IDX 40 71 41 72 44 73 42 74 68 75 69 76 77 77 70 78 71 79 75 80
REMARK SMILES IDX 78 81 72 82 73 83 76 84 74 85 53 86 54 87 62 88 55 89 56 90
REMARK SMILES IDX 60 91 63 92 57 93 58 94 61 95 59 96
REMARK H PARENT 19 4 14 21 14 22 14 23 24 30 83 49 51 60
REMARK Flexibility Score: inf
ROOT
ATOM      1  C   UNL A   1      33.783  28.180  24.927  1.00  0.00     0.220 C 
ATOM      2  O   UNL A   1      33.915  27.935  23.727  1.00  0.00    -0.275 OA
ATOM      3  N   UNL A   1      33.492  29.458  25.293  1.00  0.00    -0.356 N 
ATOM      4  H   UNL A   1      33.299  30.069  24.546  1.00  0.00     0.163 HD
ENDROOT
BRANCH   1   5
ATOM      5  C   UNL A   1      33.933  27.082  25.963  1.00  0.00     0.106 C 
BRANCH   5   6
ATOM      6  C   UNL A   1      33.203  25.785  25.584  1.00  0.00     0.085 C 
BRANCH   6   7
ATOM      7  C   UNL A   1      31.674  25.913  25.554  1.00  0.00     0.271 C 
BRANCH   7   8
ATOM      8  C   UNL A   1      31.050  25.523  24.188  1.00  0.00     0.280 C 
ATOM      9  O   UNL A   1      30.670  24.353  24.055  1.00  0.00    -0.268 OA
BRANCH   8  10
ATOM     10  N   UNL A   1      30.816  26.464  23.193  1.00  0.00    -0.338 N 
ATOM     11  C   UNL A   1      31.415  26.416  21.865  1.00  0.00     0.147 C 
BRANCH  10  12
ATOM     12  C   UNL A   1      30.089  27.720  23.530  1.00  0.00     0.087 C 
ATOM     13  C   UNL A   1      28.578  27.470  23.429  1.00  0.00     0.031 C 
BRANCH  12  14
ATOM     14  C   UNL A   1      30.577  28.969  22.748  1.00  0.00     0.071 C 
BRANCH  14  15
ATOM     15  C   UNL A   1      29.606  30.119  22.782  1.00  0.00     0.007 A 
ATOM     16  C   UNL A   1      29.352  30.972  23.841  1.00  0.00     0.015 A 
ATOM     17  S   UNL A   1      28.628  30.490  21.429  1.00  0.00    -0.149 S 
ATOM     18  C   UNL A   1      28.363  31.947  23.529  1.00  0.00     0.012 A 
ATOM     19  C   UNL A   1      27.876  31.790  22.251  1.00  0.00     0.065 A 
ENDBRANCH  14  15
ENDBRANCH  12  14
ENDBRANCH  10  12
ENDBRANCH   8  10
ENDBRANCH   7   8
BRANCH   7  20
ATOM     20  N   UNL A   1      31.019  25.227  26.681  1.00  0.00    -0.347 N 
ATOM     21  H   UNL A   1      31.723  24.956  27.369  1.00  0.00     0.345 HD
ATOM     22  H   UNL A   1      30.540  24.395  26.340  1.00  0.00     0.345 HD
ATOM     23  H   UNL A   1      30.344  25.856  27.116  1.00  0.00     0.345 HD
ENDBRANCH   7  20
ENDBRANCH   6   7
ENDBRANCH   5   6
ENDBRANCH   1   5
BRANCH   3  24
ATOM     24  C   UNL A   1      33.420  30.061  26.611  1.00  0.00     0.116 C 
BRANCH  24  25
ATOM     25  C   UNL A   1      31.995  30.543  26.902  1.00  0.00     0.023 C 
BRANCH  25  26
ATOM     26  C   UNL A   1      31.794  32.043  26.762  1.00  0.00     0.023 C 
BRANCH  26  27
ATOM     27  C   UNL A   1      32.838  32.879  27.483  1.00  0.00     0.116 C 
BRANCH  27  28
ATOM     28  N   UNL A   1      32.444  34.262  27.725  1.00  0.00    -0.352 N 
ATOM     29  C   UNL A   1      32.985  35.135  28.647  1.00  0.00     0.251 C 
ATOM     30  H   UNL A   1      31.711  34.611  27.169  1.00  0.00     0.163 HD
ATOM     31  O   UNL A   1      32.541  36.262  28.810  1.00  0.00    -0.269 OA
BRANCH  29  32
ATOM     32  C   UNL A   1      34.100  34.642  29.479  1.00  0.00     0.039 A 
ATOM     33  C   UNL A   1      33.816  34.027  30.700  1.00  0.00     0.014 A 
ATOM     34  C   UNL A   1      35.395  34.641  28.958  1.00  0.00     0.014 A 
ATOM     35  C   UNL A   1      34.822  33.311  31.354  1.00  0.00     0.010 A 
ATOM     36  C   UNL A   1      36.364  33.854  29.561  1.00  0.00     0.010 A 
ATOM     37  C   UNL A   1      36.085  33.170  30.758  1.00  0.00    -0.014 A 
BRANCH  37  38
ATOM     38  C   UNL A   1      37.155  32.327  31.349  1.00  0.00     0.031 A 
ATOM     39  C   UNL A   1      37.640  32.638  32.736  1.00  0.00     0.074 A 
ATOM     40  C   UNL A   1      37.772  31.384  30.609  1.00  0.00     0.049 A 
ATOM     41  N   UNL A   1      38.710  32.214  33.357  1.00  0.00    -0.248 NA
ATOM     42  C   UNL A   1      36.837  33.600  33.507  1.00  0.00     0.031 C 
ATOM     43  C   UNL A   1      37.424  31.015  29.236  1.00  0.00     0.029 A 
ATOM     44  N   UNL A   1      38.845  30.580  30.907  1.00  0.00    -0.354 N 
ATOM     45  C   UNL A   1      38.739  32.904  34.561  1.00  0.00     0.074 A 
ATOM     46  C   UNL A   1      37.600  33.794  34.571  1.00  0.00     0.031 C 
ATOM     47  C   UNL A   1      38.257  30.046  28.817  1.00  0.00     0.029 A 
ATOM     48  C   UNL A   1      39.224  29.759  29.872  1.00  0.00     0.049 A 
ATOM     49  H   UNL A   1      39.300  30.592  31.779  1.00  0.00     0.167 HD
ATOM     50  C   UNL A   1      39.631  32.792  35.573  1.00  0.00     0.037 A 
ATOM     51  C   UNL A   1      40.247  28.888  29.783  1.00  0.00     0.037 A 
ATOM     52  C   UNL A   1      40.716  31.851  35.590  1.00  0.00     0.049 A 
ATOM     53  C   UNL A   1      41.182  28.730  30.951  1.00  0.00     0.074 A 
ATOM     54  C   UNL A   1      41.635  31.610  36.595  1.00  0.00     0.029 A 
ATOM     55  N   UNL A   1      41.010  30.975  34.555  1.00  0.00    -0.354 N 
ATOM     56  N   UNL A   1      41.188  29.369  32.096  1.00  0.00    -0.248 NA
ATOM     57  C   UNL A   1      42.254  27.732  30.817  1.00  0.00     0.031 C 
ATOM     58  C   UNL A   1      42.497  30.596  36.163  1.00  0.00     0.029 A 
ATOM     59  C   UNL A   1      42.094  30.187  34.902  1.00  0.00     0.049 A 
ATOM     60  H   UNL A   1      40.521  30.922  33.702  1.00  0.00     0.167 HD
ATOM     61  C   UNL A   1      42.237  28.830  32.828  1.00  0.00     0.074 A 
ATOM     62  C   UNL A   1      42.846  27.810  32.001  1.00  0.00     0.031 C 
ATOM     63  C   UNL A   1      42.656  29.152  34.075  1.00  0.00     0.037 A 
BRANCH  50  64
ATOM     64  C   UNL A   1      39.459  33.708  36.746  1.00  0.00     0.064 A 
ATOM     65  C   UNL A   1      40.036  34.986  36.774  1.00  0.00     0.173 A 
ATOM     66  C   UNL A   1      38.697  33.306  37.853  1.00  0.00     0.173 A 
ATOM     67  F   UNL A   1      40.787  35.409  35.746  1.00  0.00    -0.203 F 
ATOM     68  C   UNL A   1      39.883  35.816  37.881  1.00  0.00     0.198 A 
ATOM     69  C   UNL A   1      38.523  34.150  38.947  1.00  0.00     0.198 A 
ATOM     70  F   UNL A   1      38.122  32.094  37.876  1.00  0.00    -0.203 F 
ATOM     71  F   UNL A   1      40.490  37.010  37.907  1.00  0.00    -0.200 F 
ATOM     72  C   UNL A   1      39.124  35.399  38.963  1.00  0.00     0.200 A 
ATOM     73  F   UNL A   1      37.781  33.750  39.989  1.00  0.00    -0.200 F 
ATOM     74  F   UNL A   1      38.978  36.200  40.027  1.00  0.00    -0.200 F 
ENDBRANCH  50  64
BRANCH  51  75
ATOM     75  C   UNL A   1      40.425  28.072  28.554  1.00  0.00     0.064 A 
ATOM     76  C   UNL A   1      39.799  26.824  28.432  1.00  0.00     0.173 A 
ATOM     77  C   UNL A   1      41.219  28.513  27.487  1.00  0.00     0.173 A 
ATOM     78  F   UNL A   1      39.047  26.351  29.436  1.00  0.00    -0.203 F 
ATOM     79  C   UNL A   1      39.974  26.039  27.294  1.00  0.00     0.198 A 
ATOM     80  C   UNL A   1      41.376  27.737  26.340  1.00  0.00     0.198 A 
ATOM     81  F   UNL A   1      41.835  29.702  27.555  1.00  0.00    -0.203 F 
ATOM     82  F   UNL A   1      39.396  24.832  27.219  1.00  0.00    -0.200 F 
ATOM     83  C   UNL A   1      40.759  26.498  26.247  1.00  0.00     0.200 A 
ATOM     84  F   UNL A   1      42.127  28.187  25.326  1.00  0.00    -0.200 F 
ATOM     85  F   UNL A   1      40.927  25.743  25.152  1.00  0.00    -0.200 F 
ENDBRANCH  51  75
BRANCH  63  86
ATOM     86  C   UNL A   1      43.786  28.357  34.652  1.00  0.00     0.064 A 
ATOM     87  C   UNL A   1      45.116  28.781  34.536  1.00  0.00     0.173 A 
ATOM     88  C   UNL A   1      43.522  27.201  35.402  1.00  0.00     0.173 A 
ATOM     89  F   UNL A   1      45.415  29.875  33.818  1.00  0.00    -0.203 F 
ATOM     90  C   UNL A   1      46.145  28.072  35.148  1.00  0.00     0.198 A 
ATOM     91  C   UNL A   1      44.551  26.506  36.029  1.00  0.00     0.198 A 
ATOM     92  F   UNL A   1      42.262  26.761  35.543  1.00  0.00    -0.203 F 
ATOM     93  F   UNL A   1      47.414  28.483  35.012  1.00  0.00    -0.200 F 
ATOM     94  C   UNL A   1      45.861  26.942  35.901  1.00  0.00     0.200 A 
ATOM     95  F   UNL A   1      44.274  25.419  36.763  1.00  0.00    -0.200 F 
ATOM     96  F   UNL A   1      46.852  26.270  36.503  1.00  0.00    -0.200 F 
ENDBRANCH  63  86
ENDBRANCH  37  38
ENDBRANCH  29  32
ENDBRANCH  27  28
ENDBRANCH  26  27
ENDBRANCH  25  26
ENDBRANCH  24  25
ENDBRANCH   3  24
TORSDOF 19
ENDMDL
MODEL 2
REMARK VINA RESULT:     -10.9      1.669      2.489
REMARK SMILES C[C@H](Cc1cccs1)N(C)C(=O)[C@@H]([NH3+])CCC(=O)NCCCCNC(=O)c1ccc(-c2c3nc(c(-c4c(F)c(F)c(F)c(F)c4F)c4ccc([nH]4)c(-c4c(F)c(F)c(F)c(F)c4F)c4nc(c(-c5c(F)c(F)c(F)c(F)c5F)c5ccc2[nH]5)C=C4)C=C3)cc1
REMARK SMILES IDX 17 1 18 2 19 3 16 5 15 6 13 7 11 8 12 9 9 10 10 11 2 12 1 13
REMARK SMILES IDX 3 14 4 15 5 16 8 17 6 18 7 19 14 20 20 24 21 25 22 26 23 27
REMARK SMILES IDX 24 28 25 29 26 31 27 32 28 33 89 34 29 35 88 36 30 37 31 38
REMARK SMILES IDX 32 39 82 40 33 41 87 42 81 43 83 44 34 45 86 46 80 47 79 48
REMARK SMILES IDX 35 50 67 51 47 52 66 53 48 54 51 55 65 56 84 57 49 58 50 59
REMARK SMILES IDX 64 61 85 62 52 63 36 64 37 65 45 66 38 67 39 68 43 69 46 70
REMARK SMILES IDX 40 71 41 72 44 73 42 74 68 75 69 76 77 77 70 78 71 79 75 80
REMARK SMILES IDX 78 81 72 82 73 83 76 84 74 85 53 86 54 87 62 88 55 89 56 90
REMARK SMILES IDX 60 91 63 92 57 93 58 94 61 95 59 96
REMARK H PARENT 19 4 14 21 14 22 14 23 24 30 83 49 51 60
REMARK Flexibility Score: inf
ROOT
ATOM      1  C   UNL A   1      33.063  30.715  26.793  1.00  0.00     0.220 C 
ATOM      2  O   UNL A   1      31.949  30.907  26.301  1.00  0.00    -0.275 OA
ATOM      3  N   UNL A   1      33.566  31.662  27.631  1.00  0.00    -0.356 N 
ATOM      4  H   UNL A   1      32.939  32.383  27.866  1.00  0.00     0.163 HD
ENDROOT
BRANCH   1   5
ATOM      5  C   UNL A   1      33.843  29.453  26.475  1.00  0.00     0.106 C 
BRANCH   5   6
ATOM      6  C   UNL A   1      33.300  28.207  27.189  1.00  0.00     0.085 C 
BRANCH   6   7
ATOM      7  C   UNL A   1      31.781  28.027  27.066  1.00  0.00     0.271 C 
BRANCH   7   8
ATOM      8  C   UNL A   1      31.372  26.940  26.037  1.00  0.00     0.280 C 
ATOM      9  O   UNL A   1      30.962  25.862  26.488  1.00  0.00    -0.268 OA
BRANCH   8  10
ATOM     10  N   UNL A   1      31.351  27.193  24.671  1.00  0.00    -0.338 N 
ATOM     11  C   UNL A   1      32.462  26.912  23.770  1.00  0.00     0.147 C 
BRANCH  10  12
ATOM     12  C   UNL A   1      30.233  27.988  24.091  1.00  0.00     0.087 C 
ATOM     13  C   UNL A   1      29.115  27.036  23.644  1.00  0.00     0.031 C 
BRANCH  12  14
ATOM     14  C   UNL A   1      30.670  29.005  23.003  1.00  0.00     0.071 C 
BRANCH  14  15
ATOM     15  C   UNL A   1      29.628  30.048  22.698  1.00  0.00     0.007 A 
ATOM     16  C   UNL A   1      28.959  30.242  21.503  1.00  0.00     0.015 A 
ATOM     17  S   UNL A   1      29.158  31.198  23.873  1.00  0.00    -0.149 S 
ATOM     18  C   UNL A   1      28.042  31.329  21.562  1.00  0.00     0.012 A 
ATOM     19  C   UNL A   1      28.060  31.945  22.793  1.00  0.00     0.065 A 
ENDBRANCH  14  15
ENDBRANCH  12  14
ENDBRANCH  10  12
ENDBRANCH   8  10
ENDBRANCH   7   8
BRANCH   7  20
ATOM     20  N   UNL A   1      31.118  27.839  28.368  1.00  0.00    -0.347 N 
ATOM     21  H   UNL A   1      30.386  27.135  28.277  1.00  0.00     0.345 HD
ATOM     22  H   UNL A   1      30.705  28.722  28.668  1.00  0.00     0.345 HD
ATOM     23  H   UNL A   1      31.804  27.531  29.057  1.00  0.00     0.345 HD
ENDBRANCH   7  20
ENDBRANCH   6   7
ENDBRANCH   5   6
ENDBRANCH   1   5
BRANCH   3  24
ATOM     24  C   UNL A   1      34.881  31.774  28.233  1.00  0.00     0.116 C 
BRANCH  24  25
ATOM     25  C   UNL A   1      35.018  33.108  28.975  1.00  0.00     0.023 C 
BRANCH  25  26
ATOM     26  C   UNL A   1      33.758  33.958  28.985  1.00  0.00     0.023 C 
BRANCH  26  27
ATOM     27  C   UNL A   1      33.980  35.391  29.442  1.00  0.00     0.116 C 
BRANCH  27  28
ATOM     28  N   UNL A   1      32.887  35.950  30.230  1.00  0.00    -0.352 N 
ATOM     29  C   UNL A   1      32.715  35.867  31.597  1.00  0.00     0.251 C 
ATOM     30  H   UNL A   1      32.195  36.441  29.731  1.00  0.00     0.163 HD
ATOM     31  O   UNL A   1      31.730  36.324  32.156  1.00  0.00    -0.269 OA
BRANCH  29  32
ATOM     32  C   UNL A   1      33.751  35.153  32.371  1.00  0.00     0.039 A 
ATOM     33  C   UNL A   1      33.488  33.859  32.826  1.00  0.00     0.014 A 
ATOM     34  C   UNL A   1      35.026  35.709  32.483  1.00  0.00     0.014 A 
ATOM     35  C   UNL A   1      34.541  33.076  33.302  1.00  0.00     0.010 A 
ATOM     36  C   UNL A   1      36.083  34.898  32.869  1.00  0.00     0.010 A 
ATOM     37  C   UNL A   1      35.855  33.570  33.270  1.00  0.00    -0.014 A 
BRANCH  37  38
ATOM     38  C   UNL A   1      37.027  32.743  33.654  1.00  0.00     0.031 A 
ATOM     39  C   UNL A   1      37.701  33.008  34.970  1.00  0.00     0.074 A 
ATOM     40  C   UNL A   1      37.558  31.861  32.785  1.00  0.00     0.049 A 
ATOM     41  N   UNL A   1      38.864  32.599  35.406  1.00  0.00    -0.248 NA
ATOM     42  C   UNL A   1      36.990  33.901  35.899  1.00  0.00     0.031 C 
ATOM     43  C   UNL A   1      37.024  31.542  31.460  1.00  0.00     0.029 A 
ATOM     44  N   UNL A   1      38.688  31.087  32.882  1.00  0.00    -0.354 N 
ATOM     45  C   UNL A   1      39.047  33.232  36.627  1.00  0.00     0.074 A 
ATOM     46  C   UNL A   1      37.894  34.076  36.849  1.00  0.00     0.031 C 
ATOM     47  C   UNL A   1      37.817  30.627  30.875  1.00  0.00     0.029 A 
ATOM     48  C   UNL A   1      38.938  30.330  31.762  1.00  0.00     0.049 A 
ATOM     49  H   UNL A   1      39.267  31.076  33.678  1.00  0.00     0.167 HD
ATOM     50  C   UNL A   1      40.082  33.110  37.491  1.00  0.00     0.037 A 
ATOM     51  C   UNL A   1      39.963  29.505  31.480  1.00  0.00     0.037 A 
ATOM     52  C   UNL A   1      41.187  32.212  37.302  1.00  0.00     0.049 A 
ATOM     53  C   UNL A   1      41.065  29.331  32.490  1.00  0.00     0.074 A 
ATOM     54  C   UNL A   1      42.252  31.962  38.148  1.00  0.00     0.029 A 
ATOM     55  N   UNL A   1      41.354  31.397  36.191  1.00  0.00    -0.354 N 
ATOM     56  N   UNL A   1      41.219  29.915  33.653  1.00  0.00    -0.248 NA
ATOM     57  C   UNL A   1      42.137  28.382  32.150  1.00  0.00     0.031 C 
ATOM     58  C   UNL A   1      43.073  31.003  37.544  1.00  0.00     0.029 A 
ATOM     59  C   UNL A   1      42.502  30.637  36.336  1.00  0.00     0.049 A 
ATOM     60  H   UNL A   1      40.747  31.365  35.417  1.00  0.00     0.167 HD
ATOM     61  C   UNL A   1      42.381  29.384  34.196  1.00  0.00     0.074 A 
ATOM     62  C   UNL A   1      42.894  28.429  33.237  1.00  0.00     0.031 C 
ATOM     63  C   UNL A   1      42.969  29.665  35.383  1.00  0.00     0.037 A 
BRANCH  50  64
ATOM     64  C   UNL A   1      40.055  33.962  38.723  1.00  0.00     0.064 A 
ATOM     65  C   UNL A   1      40.669  35.223  38.760  1.00  0.00     0.173 A 
ATOM     66  C   UNL A   1      39.397  33.517  39.879  1.00  0.00     0.173 A 
ATOM     67  F   UNL A   1      41.325  35.684  37.685  1.00  0.00    -0.203 F 
ATOM     68  C   UNL A   1      40.653  35.993  39.919  1.00  0.00     0.198 A 
ATOM     69  C   UNL A   1      39.358  34.303  41.028  1.00  0.00     0.198 A 
ATOM     70  F   UNL A   1      38.792  32.320  39.896  1.00  0.00    -0.203 F 
ATOM     71  F   UNL A   1      41.294  37.169  39.947  1.00  0.00    -0.200 F 
ATOM     72  C   UNL A   1      39.994  35.535  41.049  1.00  0.00     0.200 A 
ATOM     73  F   UNL A   1      38.712  33.864  42.117  1.00  0.00    -0.200 F 
ATOM     74  F   UNL A   1      39.978  36.279  42.164  1.00  0.00    -0.200 F 
ENDBRANCH  50  64
BRANCH  51  75
ATOM     75  C   UNL A   1      39.985  28.755  30.197  1.00  0.00     0.064 A 
ATOM     76  C   UNL A   1      40.581  29.311  29.058  1.00  0.00     0.173 A 
ATOM     77  C   UNL A   1      39.412  27.482  30.081  1.00  0.00     0.173 A 
ATOM     78  F   UNL A   1      41.123  30.537  29.116  1.00  0.00    -0.203 F 
ATOM     79  C   UNL A   1      40.590  28.628  27.843  1.00  0.00     0.198 A 
ATOM     80  C   UNL A   1      39.441  26.789  28.871  1.00  0.00     0.198 A 
ATOM     81  F   UNL A   1      38.833  26.905  31.144  1.00  0.00    -0.203 F 
ATOM     82  F   UNL A   1      41.133  29.199  26.759  1.00  0.00    -0.200 F 
ATOM     83  C   UNL A   1      40.023  27.367  27.752  1.00  0.00     0.200 A 
ATOM     84  F   UNL A   1      38.901  25.566  28.788  1.00  0.00    -0.200 F 
ATOM     85  F   UNL A   1      40.033  26.709  26.583  1.00  0.00    -0.200 F 
ENDBRANCH  51  75
BRANCH  63  86
ATOM     86  C   UNL A   1      44.197  28.889  35.748  1.00  0.00     0.064 A 
ATOM     87  C   UNL A   1      45.480  29.360  35.442  1.00  0.00     0.173 A 
ATOM     88  C   UNL A   1      44.085  27.702  36.488  1.00  0.00     0.173 A 
ATOM     89  F   UNL A   1      45.633  30.485  34.726  1.00  0.00    -0.203 F 
ATOM     90  C   UNL A   1      46.612  28.666  35.860  1.00  0.00     0.198 A 
ATOM     91  C   UNL A   1      45.218  27.021  36.921  1.00  0.00     0.198 A 
ATOM     92  F   UNL A   1      42.876  27.217  36.807  1.00  0.00    -0.203 F 
ATOM     93  F   UNL A   1      47.831  29.122  35.543  1.00  0.00    -0.200 F 
ATOM     94  C   UNL A   1      46.480  27.503  36.607  1.00  0.00     0.200 A 
ATOM     95  F   UNL A   1      45.090  25.904  37.649  1.00  0.00    -0.200 F 
ATOM     96  F   UNL A   1      47.571  26.846  37.022  1.00  0.00    -0.200 F 
ENDBRANCH  63  86
ENDBRANCH  37  38
ENDBRANCH  29  32
ENDBRANCH  27  28
ENDBRANCH  26  27
ENDBRANCH  25  26
ENDBRANCH  24  25
ENDBRANCH   3  24
TORSDOF 19
ENDMDL
MODEL 3
REMARK VINA RESULT:     -10.8      3.440      8.680
REMARK SMILES C[C@H](Cc1cccs1)N(C)C(=O)[C@@H]([NH3+])CCC(=O)NCCCCNC(=O)c1ccc(-c2c3nc(c(-c4c(F)c(F)c(F)c(F)c4F)c4ccc([nH]4)c(-c4c(F)c(F)c(F)c(F)c4F)c4nc(c(-c5c(F)c(F)c(F)c(F)c5F)c5ccc2[nH]5)C=C4)C=C3)cc1
REMARK SMILES IDX 17 1 18 2 19 3 16 5 15 6 13 7 11 8 12 9 9 10 10 11 2 12 1 13
REMARK SMILES IDX 3 14 4 15 5 16 8 17 6 18 7 19 14 20 20 24 21 25 22 26 23 27
REMARK SMILES IDX 24 28 25 29 26 31 27 32 28 33 89 34 29 35 88 36 30 37 31 38
REMARK SMILES IDX 32 39 82 40 33 41 87 42 81 43 83 44 34 45 86 46 80 47 79 48
REMARK SMILES IDX 35 50 67 51 47 52 66 53 48 54 51 55 65 56 84 57 49 58 50 59
REMARK SMILES IDX 64 61 85 62 52 63 36 64 37 65 45 66 38 67 39 68 43 69 46 70
REMARK SMILES IDX 40 71 41 72 44 73 42 74 68 75 69 76 77 77 70 78 71 79 75 80
REMARK SMILES IDX 78 81 72 82 73 83 76 84 74 85 53 86 54 87 62 88 55 89 56 90
REMARK SMILES IDX 60 91 63 92 57 93 58 94 61 95 59 96
REMARK H PARENT 19 4 14 21 14 22 14 23 24 30 83 49 51 60
REMARK Flexibility Score: inf
ROOT
ATOM      1  C   UNL A   1      34.046  24.944  25.496  1.00  0.00     0.220 C 
ATOM      2  O   UNL A   1      33.584  24.386  26.492  1.00  0.00    -0.275 OA
ATOM      3  N   UNL A   1      33.332  25.960  24.940  1.00  0.00    -0.356 N 
ATOM      4  H   UNL A   1      32.543  26.242  25.454  1.00  0.00     0.163 HD
ENDROOT
BRANCH   1   5
ATOM      5  C   UNL A   1      35.380  24.512  24.915  1.00  0.00     0.106 C 
BRANCH   5   6
ATOM      6  C   UNL A   1      36.034  23.356  25.686  1.00  0.00     0.085 C 
BRANCH   6   7
ATOM      7  C   UNL A   1      36.482  22.187  24.799  1.00  0.00     0.271 C 
BRANCH   7   8
ATOM      8  C   UNL A   1      35.603  20.919  24.960  1.00  0.00     0.280 C 
ATOM      9  O   UNL A   1      36.188  19.828  24.992  1.00  0.00    -0.268 OA
BRANCH   8  10
ATOM     10  N   UNL A   1      34.233  20.998  25.175  1.00  0.00    -0.338 N 
ATOM     11  C   UNL A   1      33.613  21.018  26.494  1.00  0.00     0.147 C 
BRANCH  10  12
ATOM     12  C   UNL A   1      33.301  20.841  24.024  1.00  0.00     0.087 C 
ATOM     13  C   UNL A   1      32.682  22.205  23.687  1.00  0.00     0.031 C 
BRANCH  12  14
ATOM     14  C   UNL A   1      32.263  19.700  24.194  1.00  0.00     0.071 C 
BRANCH  14  15
ATOM     15  C   UNL A   1      32.873  18.324  24.193  1.00  0.00     0.007 A 
ATOM     16  C   UNL A   1      33.547  17.706  23.155  1.00  0.00     0.015 A 
ATOM     17  S   UNL A   1      32.758  17.305  25.561  1.00  0.00    -0.149 S 
ATOM     18  C   UNL A   1      33.987  16.396  23.495  1.00  0.00     0.012 A 
ATOM     19  C   UNL A   1      33.613  16.047  24.773  1.00  0.00     0.065 A 
ENDBRANCH  14  15
ENDBRANCH  12  14
ENDBRANCH  10  12
ENDBRANCH   8  10
ENDBRANCH   7   8
BRANCH   7  20
ATOM     20  N   UNL A   1      36.652  22.572  23.387  1.00  0.00    -0.347 N 
ATOM     21  H   UNL A   1      36.043  21.998  22.804  1.00  0.00     0.345 HD
ATOM     22  H   UNL A   1      37.622  22.428  23.110  1.00  0.00     0.345 HD
ATOM     23  H   UNL A   1      36.405  23.555  23.270  1.00  0.00     0.345 HD
ENDBRANCH   7  20
ENDBRANCH   6   7
ENDBRANCH   5   6
ENDBRANCH   1   5
BRANCH   3  24
ATOM     24  C   UNL A   1      33.552  26.692  23.706  1.00  0.00     0.116 C 
BRANCH  24  25
ATOM     25  C   UNL A   1      32.762  28.006  23.716  1.00  0.00     0.023 C 
BRANCH  25  26
ATOM     26  C   UNL A   1      33.420  29.133  24.494  1.00  0.00     0.023 C 
BRANCH  26  27
ATOM     27  C   UNL A   1      33.033  29.181  25.963  1.00  0.00     0.116 C 
BRANCH  27  28
ATOM     28  N   UNL A   1      32.533  30.475  26.414  1.00  0.00    -0.352 N 
ATOM     29  C   UNL A   1      33.199  31.405  27.186  1.00  0.00     0.251 C 
ATOM     30  H   UNL A   1      31.618  30.710  26.138  1.00  0.00     0.163 HD
ATOM     31  O   UNL A   1      32.667  32.440  27.559  1.00  0.00    -0.269 OA
BRANCH  29  32
ATOM     32  C   UNL A   1      34.581  31.084  27.596  1.00  0.00     0.039 A 
ATOM     33  C   UNL A   1      35.520  32.113  27.684  1.00  0.00     0.014 A 
ATOM     34  C   UNL A   1      34.878  29.799  28.053  1.00  0.00     0.014 A 
ATOM     35  C   UNL A   1      36.733  31.877  28.335  1.00  0.00     0.010 A 
ATOM     36  C   UNL A   1      36.042  29.594  28.779  1.00  0.00     0.010 A 
ATOM     37  C   UNL A   1      36.976  30.634  28.939  1.00  0.00    -0.014 A 
BRANCH  37  38
ATOM     38  C   UNL A   1      38.195  30.362  29.741  1.00  0.00     0.031 A 
ATOM     39  C   UNL A   1      39.231  29.425  29.191  1.00  0.00     0.074 A 
ATOM     40  C   UNL A   1      38.311  30.841  30.995  1.00  0.00     0.049 A 
ATOM     41  N   UNL A   1      40.238  28.849  29.797  1.00  0.00    -0.248 NA
ATOM     42  C   UNL A   1      39.080  29.043  27.778  1.00  0.00     0.031 C 
ATOM     43  C   UNL A   1      37.355  31.727  31.662  1.00  0.00     0.029 A 
ATOM     44  N   UNL A   1      39.280  30.626  31.945  1.00  0.00    -0.354 N 
ATOM     45  C   UNL A   1      40.797  27.994  28.858  1.00  0.00     0.074 A 
ATOM     46  C   UNL A   1      40.003  28.102  27.654  1.00  0.00     0.031 C 
ATOM     47  C   UNL A   1      37.793  31.992  32.905  1.00  0.00     0.029 A 
ATOM     48  C   UNL A   1      39.034  31.260  33.139  1.00  0.00     0.049 A 
ATOM     49  H   UNL A   1      40.075  30.068  31.785  1.00  0.00     0.167 HD
ATOM     50  C   UNL A   1      41.885  27.200  28.986  1.00  0.00     0.037 A 
ATOM     51  C   UNL A   1      39.725  31.237  34.294  1.00  0.00     0.037 A 
ATOM     52  C   UNL A   1      42.716  27.155  30.158  1.00  0.00     0.049 A 
ATOM     53  C   UNL A   1      40.973  30.402  34.388  1.00  0.00     0.074 A 
ATOM     54  C   UNL A   1      43.879  26.436  30.365  1.00  0.00     0.029 A 
ATOM     55  N   UNL A   1      42.479  27.882  31.315  1.00  0.00    -0.354 N 
ATOM     56  N   UNL A   1      41.509  29.615  33.487  1.00  0.00    -0.248 NA
ATOM     57  C   UNL A   1      41.714  30.450  35.658  1.00  0.00     0.031 C 
ATOM     58  C   UNL A   1      44.340  26.718  31.656  1.00  0.00     0.029 A 
ATOM     59  C   UNL A   1      43.480  27.634  32.238  1.00  0.00     0.049 A 
ATOM     60  H   UNL A   1      41.713  28.485  31.458  1.00  0.00     0.167 HD
ATOM     61  C   UNL A   1      42.662  29.101  34.066  1.00  0.00     0.074 A 
ATOM     62  C   UNL A   1      42.751  29.666  35.396  1.00  0.00     0.031 C 
ATOM     63  C   UNL A   1      43.565  28.240  33.541  1.00  0.00     0.037 A 
BRANCH  50  64
ATOM     64  C   UNL A   1      42.241  26.325  27.823  1.00  0.00     0.064 A 
ATOM     65  C   UNL A   1      43.220  26.700  26.892  1.00  0.00     0.173 A 
ATOM     66  C   UNL A   1      41.601  25.090  27.643  1.00  0.00     0.173 A 
ATOM     67  F   UNL A   1      43.848  27.879  27.012  1.00  0.00    -0.203 F 
ATOM     68  C   UNL A   1      43.524  25.884  25.805  1.00  0.00     0.198 A 
ATOM     69  C   UNL A   1      41.927  24.264  26.570  1.00  0.00     0.198 A 
ATOM     70  F   UNL A   1      40.658  24.683  28.506  1.00  0.00    -0.203 F 
ATOM     71  F   UNL A   1      44.423  26.290  24.898  1.00  0.00    -0.200 F 
ATOM     72  C   UNL A   1      42.881  24.666  25.648  1.00  0.00     0.200 A 
ATOM     73  F   UNL A   1      41.312  23.082  26.425  1.00  0.00    -0.200 F 
ATOM     74  F   UNL A   1      43.175  23.883  24.602  1.00  0.00    -0.200 F 
ENDBRANCH  50  64
BRANCH  51  75
ATOM     75  C   UNL A   1      39.272  32.054  35.450  1.00  0.00     0.064 A 
ATOM     76  C   UNL A   1      38.463  31.490  36.446  1.00  0.00     0.173 A 
ATOM     77  C   UNL A   1      39.627  33.403  35.581  1.00  0.00     0.173 A 
ATOM     78  F   UNL A   1      38.081  30.208  36.352  1.00  0.00    -0.203 F 
ATOM     79  C   UNL A   1      38.013  32.249  37.524  1.00  0.00     0.198 A 
ATOM     80  C   UNL A   1      39.194  34.157  36.671  1.00  0.00     0.198 A 
ATOM     81  F   UNL A   1      40.401  33.987  34.656  1.00  0.00    -0.203 F 
ATOM     82  F   UNL A   1      37.210  31.696  38.442  1.00  0.00    -0.200 F 
ATOM     83  C   UNL A   1      38.382  33.581  37.637  1.00  0.00     0.200 A 
ATOM     84  F   UNL A   1      39.561  35.441  36.783  1.00  0.00    -0.200 F 
ATOM     85  F   UNL A   1      37.950  34.312  38.675  1.00  0.00    -0.200 F 
ENDBRANCH  51  75
BRANCH  63  86
ATOM     86  C   UNL A   1      44.763  27.899  34.373  1.00  0.00     0.064 A 
ATOM     87  C   UNL A   1      45.921  28.688  34.350  1.00  0.00     0.173 A 
ATOM     88  C   UNL A   1      44.714  26.818  35.265  1.00  0.00     0.173 A 
ATOM     89  F   UNL A   1      46.014  29.724  33.503  1.00  0.00    -0.203 F 
ATOM     90  C   UNL A   1      46.993  28.402  35.190  1.00  0.00     0.198 A 
ATOM     91  C   UNL A   1      45.780  26.547  36.117  1.00  0.00     0.198 A 
ATOM     92  F   UNL A   1      43.624  26.039  35.324  1.00  0.00    -0.203 F 
ATOM     93  F   UNL A   1      48.099  29.156  35.141  1.00  0.00    -0.200 F 
ATOM     94  C   UNL A   1      46.918  27.339  36.078  1.00  0.00     0.200 A 
ATOM     95  F   UNL A   1      45.703  25.526  36.981  1.00  0.00    -0.200 F 
ATOM     96  F   UNL A   1      47.945  27.076  36.898  1.00  0.00    -0.200 F 
ENDBRANCH  63  86
ENDBRANCH  37  38
ENDBRANCH  29  32
ENDBRANCH  27  28
ENDBRANCH  26  27
ENDBRANCH  25  26
ENDBRANCH  24  25
ENDBRANCH   3  24
TORSDOF 19
ENDMDL
