MODEL 1
REMARK VINA RESULT:     -13.4      0.000      0.000
REMARK SMILES C[C@H]1CC[C@@](Nc2ccc(C(N)=O)nn2)(C(=O)NCCCCNC(=O)c2ccc(-c3c4nc(c(-c5c(F)c(F)c(F)c(F)c5F)c5ccc([nH]5)c(-c5c(F)c(F)c(F)c(F)c5F)c5nc(c(-c6c(F)c(F)c(F)c(F)c6F)c6ccc3[nH]6)C=C5)C=C4)cc2)CC1
REMARK SMILES IDX 20 1 19 2 18 3 16 4 17 5 5 7 1 8 2 9 90 10 3 11 89 12 4 13
REMARK SMILES IDX 6 14 7 16 8 17 15 18 9 19 14 20 10 21 11 22 12 23 13 24
REMARK SMILES IDX 21 27 22 28 23 29 24 30 25 32 26 33 27 34 88 35 28 36 87 37
REMARK SMILES IDX 29 38 30 39 31 40 81 41 32 42 86 43 80 44 82 45 33 46 85 47
REMARK SMILES IDX 79 48 78 49 34 51 66 52 46 53 65 54 47 55 50 56 64 57 83 58
REMARK SMILES IDX 48 59 49 60 63 62 84 63 51 64 35 65 36 66 44 67 37 68 38 69
REMARK SMILES IDX 42 70 45 71 39 72 40 73 43 74 41 75 67 76 68 77 76 78 69 79
REMARK SMILES IDX 70 80 74 81 77 82 71 83 72 84 75 85 73 86 52 87 53 88 61 89
REMARK SMILES IDX 54 90 55 91 59 92 62 93 56 94 57 95 60 96 58 97
REMARK H PARENT 18 6 6 15 12 25 12 26 23 31 82 50 50 61
REMARK Flexibility Score: inf
ROOT
ATOM      1  C   UNL A   1      37.118  20.866  24.520  1.00  0.00     0.023 C 
ENDROOT
BRANCH   1   2
ATOM      2  C   UNL A   1      36.723  22.128  25.277  1.00  0.00     0.116 C 
BRANCH   2   3
ATOM      3  N   UNL A   1      35.835  21.821  26.380  1.00  0.00    -0.354 N 
ATOM      4  C   UNL A   1      34.487  21.611  26.409  1.00  0.00     0.245 C 
ATOM      5  O   UNL A   1      34.028  21.226  27.489  1.00  0.00    -0.272 OA
ATOM      6  H   UNL A   1      36.279  21.752  27.256  1.00  0.00     0.163 HD
BRANCH   4   7
ATOM      7  C   UNL A   1      33.583  21.798  25.134  1.00  0.00     0.118 C 
ATOM      8  C   UNL A   1      32.454  25.865  26.385  1.00  0.00     0.007 C 
ATOM      9  C   UNL A   1      32.511  24.606  25.520  1.00  0.00    -0.014 C 
ATOM     10  C   UNL A   1      31.896  23.410  26.259  1.00  0.00     0.006 C 
ATOM     11  C   UNL A   1      33.953  24.327  25.094  1.00  0.00     0.006 C 
ATOM     12  C   UNL A   1      32.110  22.068  25.542  1.00  0.00     0.039 C 
ATOM     13  C   UNL A   1      34.050  23.024  24.307  1.00  0.00     0.039 C 
BRANCH   7  14
ATOM     14  N   UNL A   1      33.594  20.595  24.251  1.00  0.00    -0.354 N 
ATOM     15  H   UNL A   1      33.602  20.733  23.275  1.00  0.00     0.163 HD
BRANCH  14  16
ATOM     16  C   UNL A   1      33.592  19.299  24.729  1.00  0.00     0.149 A 
ATOM     17  C   UNL A   1      34.604  18.383  24.483  1.00  0.00     0.051 A 
ATOM     18  N   UNL A   1      32.465  18.900  25.365  1.00  0.00    -0.132 NA
ATOM     19  C   UNL A   1      34.401  17.034  24.775  1.00  0.00     0.040 A 
ATOM     20  N   UNL A   1      32.240  17.572  25.641  1.00  0.00    -0.143 NA
ATOM     21  C   UNL A   1      33.188  16.663  25.320  1.00  0.00     0.150 A 
BRANCH  21  22
ATOM     22  C   UNL A   1      32.829  15.226  25.494  1.00  0.00     0.269 C 
ATOM     23  N   UNL A   1      31.511  14.955  25.751  1.00  0.00    -0.364 N 
ATOM     24  O   UNL A   1      33.653  14.328  25.376  1.00  0.00    -0.268 OA
ATOM     25  H   UNL A   1      30.865  15.692  25.842  1.00  0.00     0.160 HD
ATOM     26  H   UNL A   1      31.210  14.023  25.846  1.00  0.00     0.160 HD
ENDBRANCH  21  22
ENDBRANCH  14  16
ENDBRANCH   7  14
ENDBRANCH   4   7
ENDBRANCH   2   3
ENDBRANCH   1   2
BRANCH   1  27
ATOM     27  C   UNL A   1      37.905  19.861  25.362  1.00  0.00     0.023 C 
BRANCH  27  28
ATOM     28  C   UNL A   1      39.309  20.309  25.753  1.00  0.00     0.116 C 
BRANCH  28  29
ATOM     29  N   UNL A   1      40.243  19.201  25.888  1.00  0.00    -0.352 N 
ATOM     30  C   UNL A   1      41.595  19.246  26.126  1.00  0.00     0.251 C 
ATOM     31  H   UNL A   1      39.854  18.301  25.798  1.00  0.00     0.163 HD
ATOM     32  O   UNL A   1      42.273  18.224  26.087  1.00  0.00    -0.269 OA
BRANCH  30  33
ATOM     33  C   UNL A   1      42.231  20.549  26.398  1.00  0.00     0.039 A 
ATOM     34  C   UNL A   1      42.683  21.318  25.325  1.00  0.00     0.014 A 
ATOM     35  C   UNL A   1      42.332  21.024  27.709  1.00  0.00     0.014 A 
ATOM     36  C   UNL A   1      43.180  22.600  25.561  1.00  0.00     0.010 A 
ATOM     37  C   UNL A   1      42.760  22.328  27.934  1.00  0.00     0.010 A 
ATOM     38  C   UNL A   1      43.187  23.128  26.863  1.00  0.00    -0.014 A 
BRANCH  38  39
ATOM     39  C   UNL A   1      43.634  24.518  27.125  1.00  0.00     0.031 A 
ATOM     40  C   UNL A   1      42.656  25.540  27.630  1.00  0.00     0.074 A 
ATOM     41  C   UNL A   1      44.902  24.875  26.843  1.00  0.00     0.049 A 
ATOM     42  N   UNL A   1      42.834  26.818  27.851  1.00  0.00    -0.248 NA
ATOM     43  C   UNL A   1      41.288  25.069  27.895  1.00  0.00     0.031 C 
ATOM     44  C   UNL A   1      45.930  23.985  26.301  1.00  0.00     0.029 A 
ATOM     45  N   UNL A   1      45.538  26.085  26.961  1.00  0.00    -0.354 N 
ATOM     46  C   UNL A   1      41.600  27.303  28.263  1.00  0.00     0.074 A 
ATOM     47  C   UNL A   1      40.669  26.197  28.211  1.00  0.00     0.031 C 
ATOM     48  C   UNL A   1      47.073  24.674  26.153  1.00  0.00     0.029 A 
ATOM     49  C   UNL A   1      46.850  26.060  26.553  1.00  0.00     0.049 A 
ATOM     50  H   UNL A   1      45.097  26.894  27.304  1.00  0.00     0.167 HD
ATOM     51  C   UNL A   1      41.279  28.553  28.672  1.00  0.00     0.037 A 
ATOM     52  C   UNL A   1      47.766  27.046  26.502  1.00  0.00     0.037 A 
ATOM     53  C   UNL A   1      42.214  29.645  28.747  1.00  0.00     0.049 A 
ATOM     54  C   UNL A   1      47.381  28.427  26.961  1.00  0.00     0.074 A 
ATOM     55  C   UNL A   1      42.002  30.933  29.206  1.00  0.00     0.029 A 
ATOM     56  N   UNL A   1      43.540  29.576  28.346  1.00  0.00    -0.354 N 
ATOM     57  N   UNL A   1      46.231  28.857  27.419  1.00  0.00    -0.248 NA
ATOM     58  C   UNL A   1      48.427  29.459  26.900  1.00  0.00     0.031 C 
ATOM     59  C   UNL A   1      43.188  31.656  29.042  1.00  0.00     0.029 A 
ATOM     60  C   UNL A   1      44.153  30.806  28.528  1.00  0.00     0.049 A 
ATOM     61  H   UNL A   1      43.980  28.773  27.985  1.00  0.00     0.167 HD
ATOM     62  C   UNL A   1      46.421  30.197  27.728  1.00  0.00     0.074 A 
ATOM     63  C   UNL A   1      47.802  30.506  27.418  1.00  0.00     0.031 C 
ATOM     64  C   UNL A   1      45.531  31.092  28.224  1.00  0.00     0.037 A 
BRANCH  51  65
ATOM     65  C   UNL A   1      39.855  28.806  29.078  1.00  0.00     0.064 A 
ATOM     66  C   UNL A   1      38.892  29.238  28.153  1.00  0.00     0.173 A 
ATOM     67  C   UNL A   1      39.441  28.583  30.400  1.00  0.00     0.173 A 
ATOM     68  F   UNL A   1      39.240  29.477  26.879  1.00  0.00    -0.203 F 
ATOM     69  C   UNL A   1      37.576  29.465  28.543  1.00  0.00     0.198 A 
ATOM     70  C   UNL A   1      38.116  28.782  30.778  1.00  0.00     0.198 A 
ATOM     71  F   UNL A   1      40.319  28.165  31.324  1.00  0.00    -0.203 F 
ATOM     72  F   UNL A   1      36.686  29.925  27.652  1.00  0.00    -0.200 F 
ATOM     73  C   UNL A   1      37.187  29.230  29.852  1.00  0.00     0.200 A 
ATOM     74  F   UNL A   1      37.738  28.540  32.042  1.00  0.00    -0.200 F 
ATOM     75  F   UNL A   1      35.916  29.442  30.224  1.00  0.00    -0.200 F 
ENDBRANCH  51  65
BRANCH  52  76
ATOM     76  C   UNL A   1      49.142  26.757  26.025  1.00  0.00     0.064 A 
ATOM     77  C   UNL A   1      50.118  26.260  26.901  1.00  0.00     0.173 A 
ATOM     78  C   UNL A   1      49.515  26.977  24.690  1.00  0.00     0.173 A 
ATOM     79  F   UNL A   1      49.815  26.053  28.190  1.00  0.00    -0.203 F 
ATOM     80  C   UNL A   1      51.418  26.014  26.466  1.00  0.00     0.198 A 
ATOM     81  C   UNL A   1      50.809  26.704  24.251  1.00  0.00     0.198 A 
ATOM     82  F   UNL A   1      48.619  27.447  23.811  1.00  0.00    -0.203 F 
ATOM     83  F   UNL A   1      52.342  25.583  27.336  1.00  0.00    -0.200 F 
ATOM     84  C   UNL A   1      51.762  26.231  25.140  1.00  0.00     0.200 A 
ATOM     85  F   UNL A   1      51.133  26.901  22.965  1.00  0.00    -0.200 F 
ATOM     86  F   UNL A   1      53.011  25.990  24.723  1.00  0.00    -0.200 F 
ENDBRANCH  52  76
BRANCH  64  87
ATOM     87  C   UNL A   1      46.032  32.480  28.497  1.00  0.00     0.064 A 
ATOM     88  C   UNL A   1      46.605  32.828  29.730  1.00  0.00     0.173 A 
ATOM     89  C   UNL A   1      45.977  33.463  27.497  1.00  0.00     0.173 A 
ATOM     90  F   UNL A   1      46.667  31.928  30.723  1.00  0.00    -0.203 F 
ATOM     91  C   UNL A   1      47.080  34.116  29.959  1.00  0.00     0.198 A 
ATOM     92  C   UNL A   1      46.481  34.741  27.720  1.00  0.00     0.198 A 
ATOM     93  F   UNL A   1      45.446  33.180  26.298  1.00  0.00    -0.203 F 
ATOM     94  F   UNL A   1      47.580  34.439  31.160  1.00  0.00    -0.200 F 
ATOM     95  C   UNL A   1      47.026  35.069  28.952  1.00  0.00     0.200 A 
ATOM     96  F   UNL A   1      46.440  35.656  26.741  1.00  0.00    -0.200 F 
ATOM     97  F   UNL A   1      47.492  36.305  29.172  1.00  0.00    -0.200 F 
ENDBRANCH  64  87
ENDBRANCH  38  39
ENDBRANCH  30  33
ENDBRANCH  28  29
ENDBRANCH  27  28
ENDBRANCH   1  27
TORSDOF 14
ENDMDL
MODEL 2
REMARK VINA RESULT:     -13.2      6.755     12.055
REMARK SMILES C[C@H]1CC[C@@](Nc2ccc(C(N)=O)nn2)(C(=O)NCCCCNC(=O)c2ccc(-c3c4nc(c(-c5c(F)c(F)c(F)c(F)c5F)c5ccc([nH]5)c(-c5c(F)c(F)c(F)c(F)c5F)c5nc(c(-c6c(F)c(F)c(F)c(F)c6F)c6ccc3[nH]6)C=C5)C=C4)cc2)CC1
REMARK SMILES IDX 20 1 19 2 18 3 16 4 17 5 5 7 1 8 2 9 90 10 3 11 89 12 4 13
REMARK SMILES IDX 6 14 7 16 8 17 15 18 9 19 14 20 10 21 11 22 12 23 13 24
REMARK SMILES IDX 21 27 22 28 23 29 24 30 25 32 26 33 27 34 88 35 28 36 87 37
REMARK SMILES IDX 29 38 30 39 31 40 81 41 32 42 86 43 80 44 82 45 33 46 85 47
REMARK SMILES IDX 79 48 78 49 34 51 66 52 46 53 65 54 47 55 50 56 64 57 83 58
REMARK SMILES IDX 48 59 49 60 63 62 84 63 51 64 35 65 36 66 44 67 37 68 38 69
REMARK SMILES IDX 42 70 45 71 39 72 40 73 43 74 41 75 67 76 68 77 76 78 69 79
REMARK SMILES IDX 70 80 74 81 77 82 71 83 72 84 75 85 73 86 52 87 53 88 61 89
REMARK SMILES IDX 54 90 55 91 59 92 62 93 56 94 57 95 60 96 58 97
REMARK H PARENT 18 6 6 15 12 25 12 26 23 31 82 50 50 61
REMARK Flexibility Score: inf
ROOT
ATOM      1  C   UNL A   1      31.456  30.531  26.730  1.00  0.00     0.023 C 
ENDROOT
BRANCH   1   2
ATOM      2  C   UNL A   1      32.705  29.676  26.561  1.00  0.00     0.116 C 
BRANCH   2   3
ATOM      3  N   UNL A   1      33.170  29.693  25.189  1.00  0.00    -0.354 N 
ATOM      4  C   UNL A   1      32.750  28.993  24.095  1.00  0.00     0.245 C 
ATOM      5  O   UNL A   1      33.254  29.328  23.018  1.00  0.00    -0.272 OA
ATOM      6  H   UNL A   1      33.915  30.314  25.016  1.00  0.00     0.163 HD
BRANCH   4   7
ATOM      7  C   UNL A   1      31.656  27.865  24.192  1.00  0.00     0.118 C 
ATOM      8  C   UNL A   1      34.739  24.735  24.479  1.00  0.00     0.007 C 
ATOM      9  C   UNL A   1      33.345  25.360  24.430  1.00  0.00    -0.014 C 
ATOM     10  C   UNL A   1      33.095  26.026  23.070  1.00  0.00     0.006 C 
ATOM     11  C   UNL A   1      33.172  26.348  25.584  1.00  0.00     0.006 C 
ATOM     12  C   UNL A   1      31.803  26.857  23.021  1.00  0.00     0.039 C 
ATOM     13  C   UNL A   1      31.822  27.054  25.504  1.00  0.00     0.039 C 
BRANCH   7  14
ATOM     14  N   UNL A   1      30.270  28.415  24.144  1.00  0.00    -0.354 N 
ATOM     15  H   UNL A   1      29.570  27.963  24.670  1.00  0.00     0.163 HD
BRANCH  14  16
ATOM     16  C   UNL A   1      29.916  29.522  23.398  1.00  0.00     0.149 A 
ATOM     17  C   UNL A   1      29.528  30.734  23.950  1.00  0.00     0.051 A 
ATOM     18  N   UNL A   1      29.834  29.338  22.059  1.00  0.00    -0.132 NA
ATOM     19  C   UNL A   1      28.940  31.705  23.141  1.00  0.00     0.040 A 
ATOM     20  N   UNL A   1      29.237  30.277  21.250  1.00  0.00    -0.143 NA
ATOM     21  C   UNL A   1      28.777  31.422  21.799  1.00  0.00     0.150 A 
BRANCH  21  22
ATOM     22  C   UNL A   1      28.000  32.331  20.909  1.00  0.00     0.269 C 
ATOM     23  N   UNL A   1      27.652  31.830  19.682  1.00  0.00    -0.364 N 
ATOM     24  O   UNL A   1      27.652  33.451  21.261  1.00  0.00    -0.268 OA
ATOM     25  H   UNL A   1      27.942  30.927  19.419  1.00  0.00     0.160 HD
ATOM     26  H   UNL A   1      27.114  32.373  19.063  1.00  0.00     0.160 HD
ENDBRANCH  21  22
ENDBRANCH  14  16
ENDBRANCH   7  14
ENDBRANCH   4   7
ENDBRANCH   2   3
ENDBRANCH   1   2
BRANCH   1  27
ATOM     27  C   UNL A   1      31.682  32.018  26.452  1.00  0.00     0.023 C 
BRANCH  27  28
ATOM     28  C   UNL A   1      32.714  32.690  27.352  1.00  0.00     0.116 C 
BRANCH  28  29
ATOM     29  N   UNL A   1      32.406  34.086  27.627  1.00  0.00    -0.352 N 
ATOM     30  C   UNL A   1      32.979  34.923  28.552  1.00  0.00     0.251 C 
ATOM     31  H   UNL A   1      31.693  34.483  27.075  1.00  0.00     0.163 HD
ATOM     32  O   UNL A   1      32.522  36.043  28.754  1.00  0.00    -0.269 OA
BRANCH  30  33
ATOM     33  C   UNL A   1      34.138  34.442  29.329  1.00  0.00     0.039 A 
ATOM     34  C   UNL A   1      33.916  33.820  30.559  1.00  0.00     0.014 A 
ATOM     35  C   UNL A   1      35.432  34.567  28.816  1.00  0.00     0.014 A 
ATOM     36  C   UNL A   1      34.992  33.260  31.248  1.00  0.00     0.010 A 
ATOM     37  C   UNL A   1      36.491  33.945  29.468  1.00  0.00     0.010 A 
ATOM     38  C   UNL A   1      36.281  33.285  30.689  1.00  0.00    -0.014 A 
BRANCH  38  39
ATOM     39  C   UNL A   1      37.424  32.625  31.365  1.00  0.00     0.031 A 
ATOM     40  C   UNL A   1      38.126  31.473  30.704  1.00  0.00     0.074 A 
ATOM     41  C   UNL A   1      37.784  33.016  32.603  1.00  0.00     0.049 A 
ATOM     42  N   UNL A   1      39.094  30.720  31.161  1.00  0.00    -0.248 NA
ATOM     43  C   UNL A   1      37.657  31.099  29.360  1.00  0.00     0.031 C 
ATOM     44  C   UNL A   1      37.147  34.089  33.369  1.00  0.00     0.029 A 
ATOM     45  N   UNL A   1      38.766  32.549  33.439  1.00  0.00    -0.354 N 
ATOM     46  C   UNL A   1      39.337  29.778  30.170  1.00  0.00     0.074 A 
ATOM     47  C   UNL A   1      38.381  30.018  29.111  1.00  0.00     0.031 C 
ATOM     48  C   UNL A   1      37.767  34.210  34.554  1.00  0.00     0.029 A 
ATOM     49  C   UNL A   1      38.820  33.203  34.646  1.00  0.00     0.049 A 
ATOM     50  H   UNL A   1      39.375  31.814  33.198  1.00  0.00     0.167 HD
ATOM     51  C   UNL A   1      40.289  28.815  30.137  1.00  0.00     0.037 A 
ATOM     52  C   UNL A   1      39.623  33.006  35.709  1.00  0.00     0.037 A 
ATOM     53  C   UNL A   1      41.254  28.596  31.181  1.00  0.00     0.049 A 
ATOM     54  C   UNL A   1      40.670  31.927  35.646  1.00  0.00     0.074 A 
ATOM     55  C   UNL A   1      42.298  27.687  31.214  1.00  0.00     0.029 A 
ATOM     56  N   UNL A   1      41.291  29.293  32.379  1.00  0.00    -0.354 N 
ATOM     57  N   UNL A   1      40.940  31.090  34.674  1.00  0.00    -0.248 NA
ATOM     58  C   UNL A   1      41.530  31.771  36.828  1.00  0.00     0.031 C 
ATOM     59  C   UNL A   1      42.939  27.804  32.453  1.00  0.00     0.029 A 
ATOM     60  C   UNL A   1      42.327  28.819  33.169  1.00  0.00     0.049 A 
ATOM     61  H   UNL A   1      40.672  30.015  32.633  1.00  0.00     0.167 HD
ATOM     62  C   UNL A   1      42.015  30.329  35.113  1.00  0.00     0.074 A 
ATOM     63  C   UNL A   1      42.358  30.814  36.434  1.00  0.00     0.031 C 
ATOM     64  C   UNL A   1      42.660  29.320  34.478  1.00  0.00     0.037 A 
BRANCH  51  65
ATOM     65  C   UNL A   1      40.336  27.929  28.925  1.00  0.00     0.064 A 
ATOM     66  C   UNL A   1      41.089  28.271  27.792  1.00  0.00     0.173 A 
ATOM     67  C   UNL A   1      39.645  26.708  28.909  1.00  0.00     0.173 A 
ATOM     68  F   UNL A   1      41.758  29.434  27.752  1.00  0.00    -0.203 F 
ATOM     69  C   UNL A   1      41.126  27.439  26.677  1.00  0.00     0.198 A 
ATOM     70  C   UNL A   1      39.709  25.864  27.804  1.00  0.00     0.198 A 
ATOM     71  F   UNL A   1      38.914  26.329  29.968  1.00  0.00    -0.203 F 
ATOM     72  F   UNL A   1      41.812  27.811  25.588  1.00  0.00    -0.200 F 
ATOM     73  C   UNL A   1      40.442  26.233  26.686  1.00  0.00     0.200 A 
ATOM     74  F   UNL A   1      39.060  24.690  27.819  1.00  0.00    -0.200 F 
ATOM     75  F   UNL A   1      40.486  25.428  25.615  1.00  0.00    -0.200 F 
ENDBRANCH  51  65
BRANCH  52  76
ATOM     76  C   UNL A   1      39.487  33.867  36.912  1.00  0.00     0.064 A 
ATOM     77  C   UNL A   1      38.720  33.451  38.010  1.00  0.00     0.173 A 
ATOM     78  C   UNL A   1      40.111  35.121  36.989  1.00  0.00     0.173 A 
ATOM     79  F   UNL A   1      38.088  32.270  37.975  1.00  0.00    -0.203 F 
ATOM     80  C   UNL A   1      38.566  34.265  39.130  1.00  0.00     0.198 A 
ATOM     81  C   UNL A   1      39.978  35.922  38.122  1.00  0.00     0.198 A 
ATOM     82  F   UNL A   1      40.859  35.562  35.969  1.00  0.00    -0.203 F 
ATOM     83  F   UNL A   1      37.790  33.862  40.146  1.00  0.00    -0.200 F 
ATOM     84  C   UNL A   1      39.199  35.497  39.188  1.00  0.00     0.200 A 
ATOM     85  F   UNL A   1      40.603  37.105  38.179  1.00  0.00    -0.200 F 
ATOM     86  F   UNL A   1      39.053  36.278  40.266  1.00  0.00    -0.200 F 
ENDBRANCH  52  76
BRANCH  64  87
ATOM     87  C   UNL A   1      43.826  28.696  35.188  1.00  0.00     0.064 A 
ATOM     88  C   UNL A   1      43.662  27.615  36.066  1.00  0.00     0.173 A 
ATOM     89  C   UNL A   1      45.130  29.160  34.952  1.00  0.00     0.173 A 
ATOM     90  F   UNL A   1      42.435  27.145  36.336  1.00  0.00    -0.203 F 
ATOM     91  C   UNL A   1      44.758  27.038  36.702  1.00  0.00     0.198 A 
ATOM     92  C   UNL A   1      46.226  28.560  35.566  1.00  0.00     0.198 A 
ATOM     93  F   UNL A   1      45.342  30.187  34.115  1.00  0.00    -0.203 F 
ATOM     94  F   UNL A   1      44.573  26.036  37.573  1.00  0.00    -0.200 F 
ATOM     95  C   UNL A   1      46.038  27.505  36.445  1.00  0.00     0.200 A 
ATOM     96  F   UNL A   1      47.463  29.004  35.306  1.00  0.00    -0.200 F 
ATOM     97  F   UNL A   1      47.092  26.942  37.052  1.00  0.00    -0.200 F 
ENDBRANCH  64  87
ENDBRANCH  38  39
ENDBRANCH  30  33
ENDBRANCH  28  29
ENDBRANCH  27  28
ENDBRANCH   1  27
TORSDOF 14
ENDMDL
MODEL 3
REMARK VINA RESULT:     -13.2      6.752     12.086
REMARK SMILES C[C@H]1CC[C@@](Nc2ccc(C(N)=O)nn2)(C(=O)NCCCCNC(=O)c2ccc(-c3c4nc(c(-c5c(F)c(F)c(F)c(F)c5F)c5ccc([nH]5)c(-c5c(F)c(F)c(F)c(F)c5F)c5nc(c(-c6c(F)c(F)c(F)c(F)c6F)c6ccc3[nH]6)C=C5)C=C4)cc2)CC1
REMARK SMILES IDX 20 1 19 2 18 3 16 4 17 5 5 7 1 8 2 9 90 10 3 11 89 12 4 13
REMARK SMILES IDX 6 14 7 16 8 17 15 18 9 19 14 20 10 21 11 22 12 23 13 24
REMARK SMILES IDX 21 27 22 28 23 29 24 30 25 32 26 33 27 34 88 35 28 36 87 37
REMARK SMILES IDX 29 38 30 39 31 40 81 41 32 42 86 43 80 44 82 45 33 46 85 47
REMARK SMILES IDX 79 48 78 49 34 51 66 52 46 53 65 54 47 55 50 56 64 57 83 58
REMARK SMILES IDX 48 59 49 60 63 62 84 63 51 64 35 65 36 66 44 67 37 68 38 69
REMARK SMILES IDX 42 70 45 71 39 72 40 73 43 74 41 75 67 76 68 77 76 78 69 79
REMARK SMILES IDX 70 80 74 81 77 82 71 83 72 84 75 85 73 86 52 87 53 88 61 89
REMARK SMILES IDX 54 90 55 91 59 92 62 93 56 94 57 95 60 96 58 97
REMARK H PARENT 18 6 6 15 12 25 12 26 23 31 82 50 50 61
REMARK Flexibility Score: inf
ROOT
ATOM      1  C   UNL A   1      31.486  30.533  26.693  1.00  0.00     0.023 C 
ENDROOT
BRANCH   1   2
ATOM      2  C   UNL A   1      32.781  29.753  26.511  1.00  0.00     0.116 C 
BRANCH   2   3
ATOM      3  N   UNL A   1      33.194  29.741  25.122  1.00  0.00    -0.354 N 
ATOM      4  C   UNL A   1      32.739  29.013  24.061  1.00  0.00     0.245 C 
ATOM      5  O   UNL A   1      33.199  29.326  22.959  1.00  0.00    -0.272 OA
ATOM      6  H   UNL A   1      33.927  30.363  24.907  1.00  0.00     0.163 HD
BRANCH   4   7
ATOM      7  C   UNL A   1      31.658  27.880  24.225  1.00  0.00     0.118 C 
ATOM      8  C   UNL A   1      34.777  24.809  24.703  1.00  0.00     0.007 C 
ATOM      9  C   UNL A   1      33.376  25.414  24.615  1.00  0.00    -0.014 C 
ATOM     10  C   UNL A   1      33.120  25.994  23.218  1.00  0.00     0.006 C 
ATOM     11  C   UNL A   1      33.189  26.467  25.708  1.00  0.00     0.006 C 
ATOM     12  C   UNL A   1      31.819  26.805  23.118  1.00  0.00     0.039 C 
ATOM     13  C   UNL A   1      31.831  27.151  25.584  1.00  0.00     0.039 C 
BRANCH   7  14
ATOM     14  N   UNL A   1      30.266  28.410  24.143  1.00  0.00    -0.354 N 
ATOM     15  H   UNL A   1      29.559  27.945  24.648  1.00  0.00     0.163 HD
BRANCH  14  16
ATOM     16  C   UNL A   1      29.915  29.516  23.395  1.00  0.00     0.149 A 
ATOM     17  C   UNL A   1      29.550  30.737  23.944  1.00  0.00     0.051 A 
ATOM     18  N   UNL A   1      29.814  29.325  22.058  1.00  0.00    -0.132 NA
ATOM     19  C   UNL A   1      28.962  31.710  23.136  1.00  0.00     0.040 A 
ATOM     20  N   UNL A   1      29.217  30.265  21.251  1.00  0.00    -0.143 NA
ATOM     21  C   UNL A   1      28.779  31.420  21.798  1.00  0.00     0.150 A 
BRANCH  21  22
ATOM     22  C   UNL A   1      28.001  32.332  20.912  1.00  0.00     0.269 C 
ATOM     23  N   UNL A   1      27.654  31.837  19.683  1.00  0.00    -0.364 N 
ATOM     24  O   UNL A   1      27.652  33.451  21.270  1.00  0.00    -0.268 OA
ATOM     25  H   UNL A   1      27.944  30.935  19.416  1.00  0.00     0.160 HD
ATOM     26  H   UNL A   1      27.115  32.383  19.067  1.00  0.00     0.160 HD
ENDBRANCH  21  22
ENDBRANCH  14  16
ENDBRANCH   7  14
ENDBRANCH   4   7
ENDBRANCH   2   3
ENDBRANCH   1   2
BRANCH   1  27
ATOM     27  C   UNL A   1      31.637  32.041  26.482  1.00  0.00     0.023 C 
BRANCH  27  28
ATOM     28  C   UNL A   1      32.682  32.712  27.367  1.00  0.00     0.116 C 
BRANCH  28  29
ATOM     29  N   UNL A   1      32.386  34.111  27.636  1.00  0.00    -0.352 N 
ATOM     30  C   UNL A   1      32.974  34.950  28.551  1.00  0.00     0.251 C 
ATOM     31  H   UNL A   1      31.669  34.509  27.090  1.00  0.00     0.163 HD
ATOM     32  O   UNL A   1      32.527  36.074  28.751  1.00  0.00    -0.269 OA
BRANCH  30  33
ATOM     33  C   UNL A   1      34.138  34.467  29.318  1.00  0.00     0.039 A 
ATOM     34  C   UNL A   1      33.928  33.867  30.560  1.00  0.00     0.014 A 
ATOM     35  C   UNL A   1      35.426  34.567  28.784  1.00  0.00     0.014 A 
ATOM     36  C   UNL A   1      35.007  33.304  31.242  1.00  0.00     0.010 A 
ATOM     37  C   UNL A   1      36.487  33.942  29.430  1.00  0.00     0.010 A 
ATOM     38  C   UNL A   1      36.287  33.304  30.664  1.00  0.00    -0.014 A 
BRANCH  38  39
ATOM     39  C   UNL A   1      37.432  32.640  31.334  1.00  0.00     0.031 A 
ATOM     40  C   UNL A   1      38.134  31.493  30.663  1.00  0.00     0.074 A 
ATOM     41  C   UNL A   1      37.794  33.022  32.574  1.00  0.00     0.049 A 
ATOM     42  N   UNL A   1      39.104  30.738  31.112  1.00  0.00    -0.248 NA
ATOM     43  C   UNL A   1      37.663  31.129  29.317  1.00  0.00     0.031 C 
ATOM     44  C   UNL A   1      37.157  34.089  33.348  1.00  0.00     0.029 A 
ATOM     45  N   UNL A   1      38.778  32.550  33.405  1.00  0.00    -0.354 N 
ATOM     46  C   UNL A   1      39.346  29.803  30.115  1.00  0.00     0.074 A 
ATOM     47  C   UNL A   1      38.387  30.050  29.059  1.00  0.00     0.031 C 
ATOM     48  C   UNL A   1      37.779  34.202  34.533  1.00  0.00     0.029 A 
ATOM     49  C   UNL A   1      38.833  33.195  34.616  1.00  0.00     0.049 A 
ATOM     50  H   UNL A   1      39.386  31.818  33.157  1.00  0.00     0.167 HD
ATOM     51  C   UNL A   1      40.298  28.842  30.073  1.00  0.00     0.037 A 
ATOM     52  C   UNL A   1      39.638  32.992  35.676  1.00  0.00     0.037 A 
ATOM     53  C   UNL A   1      41.265  28.615  31.114  1.00  0.00     0.049 A 
ATOM     54  C   UNL A   1      40.686  31.914  35.604  1.00  0.00     0.074 A 
ATOM     55  C   UNL A   1      42.309  27.708  31.139  1.00  0.00     0.029 A 
ATOM     56  N   UNL A   1      41.303  29.304  32.317  1.00  0.00    -0.354 N 
ATOM     57  N   UNL A   1      40.954  31.084  34.626  1.00  0.00    -0.248 NA
ATOM     58  C   UNL A   1      41.548  31.750  36.783  1.00  0.00     0.031 C 
ATOM     59  C   UNL A   1      42.952  27.816  32.377  1.00  0.00     0.029 A 
ATOM     60  C   UNL A   1      42.341  28.825  33.102  1.00  0.00     0.049 A 
ATOM     61  H   UNL A   1      40.685  30.024  32.577  1.00  0.00     0.167 HD
ATOM     62  C   UNL A   1      42.031  30.322  35.057  1.00  0.00     0.074 A 
ATOM     63  C   UNL A   1      42.376  30.797  36.381  1.00  0.00     0.031 C 
ATOM     64  C   UNL A   1      42.676  29.317  34.414  1.00  0.00     0.037 A 
BRANCH  51  65
ATOM     65  C   UNL A   1      40.343  27.964  28.855  1.00  0.00     0.064 A 
ATOM     66  C   UNL A   1      41.102  28.311  27.726  1.00  0.00     0.173 A 
ATOM     67  C   UNL A   1      39.647  26.747  28.828  1.00  0.00     0.173 A 
ATOM     68  F   UNL A   1      41.777  29.470  27.697  1.00  0.00    -0.203 F 
ATOM     69  C   UNL A   1      41.137  27.486  26.606  1.00  0.00     0.198 A 
ATOM     70  C   UNL A   1      39.710  25.910  27.717  1.00  0.00     0.198 A 
ATOM     71  F   UNL A   1      38.911  26.364  29.882  1.00  0.00    -0.203 F 
ATOM     72  F   UNL A   1      41.829  27.863  25.521  1.00  0.00    -0.200 F 
ATOM     73  C   UNL A   1      40.447  26.284  26.604  1.00  0.00     0.200 A 
ATOM     74  F   UNL A   1      39.054  24.740  27.722  1.00  0.00    -0.200 F 
ATOM     75  F   UNL A   1      40.490  25.487  25.527  1.00  0.00    -0.200 F 
ENDBRANCH  51  65
BRANCH  52  76
ATOM     76  C   UNL A   1      39.503  33.844  36.886  1.00  0.00     0.064 A 
ATOM     77  C   UNL A   1      40.152  35.084  36.967  1.00  0.00     0.173 A 
ATOM     78  C   UNL A   1      38.733  33.437  37.985  1.00  0.00     0.173 A 
ATOM     79  F   UNL A   1      40.916  35.507  35.950  1.00  0.00    -0.203 F 
ATOM     80  C   UNL A   1      40.053  35.875  38.109  1.00  0.00     0.198 A 
ATOM     81  C   UNL A   1      38.612  34.242  39.117  1.00  0.00     0.198 A 
ATOM     82  F   UNL A   1      38.088  32.262  37.956  1.00  0.00    -0.203 F 
ATOM     83  F   UNL A   1      40.721  37.035  38.178  1.00  0.00    -0.200 F 
ATOM     84  C   UNL A   1      39.279  35.457  39.181  1.00  0.00     0.200 A 
ATOM     85  F   UNL A   1      37.852  33.840  40.144  1.00  0.00    -0.200 F 
ATOM     86  F   UNL A   1      39.181  36.220  40.277  1.00  0.00    -0.200 F 
ENDBRANCH  52  76
BRANCH  64  87
ATOM     87  C   UNL A   1      43.844  28.689  35.117  1.00  0.00     0.064 A 
ATOM     88  C   UNL A   1      45.151  29.170  34.950  1.00  0.00     0.173 A 
ATOM     89  C   UNL A   1      43.644  27.619  36.003  1.00  0.00     0.173 A 
ATOM     90  F   UNL A   1      45.395  30.180  34.102  1.00  0.00    -0.203 F 
ATOM     91  C   UNL A   1      46.219  28.585  35.624  1.00  0.00     0.198 A 
ATOM     92  C   UNL A   1      44.711  27.057  36.700  1.00  0.00     0.198 A 
ATOM     93  F   UNL A   1      42.413  27.127  36.205  1.00  0.00    -0.203 F 
ATOM     94  F   UNL A   1      47.466  29.030  35.413  1.00  0.00    -0.200 F 
ATOM     95  C   UNL A   1      45.998  27.536  36.504  1.00  0.00     0.200 A 
ATOM     96  F   UNL A   1      44.494  26.053  37.560  1.00  0.00    -0.200 F 
ATOM     97  F   UNL A   1      47.027  26.980  37.159  1.00  0.00    -0.200 F 
ENDBRANCH  64  87
ENDBRANCH  38  39
ENDBRANCH  30  33
ENDBRANCH  28  29
ENDBRANCH  27  28
ENDBRANCH   1  27
TORSDOF 14
ENDMDL
