MODEL 1
REMARK VINA RESULT:     -14.2      0.000      0.000
REMARK SMILES Cc1ccc(-c2nc(NC(=O)[C@H]3[C@@H](C(=O)NCCCCNC(=O)c4ccc(-c5c6nc(c(-c7c(F)c(F)c(F)c(F)c7F)c7ccc([nH]7)c(-c7c(F)c(F)c(F)c(F)c7F)c7nc(c(-c8c(F)c(F)c(F)c(F)c8F)c8ccc5[nH]8)C=C7)C=C6)cc4)[C@@H]4CC[C@H]3O4)sc2C)cc1
REMARK SMILES IDX 18 1 17 2 16 3 14 4 15 5 13 7 12 8 90 9 87 10 89 11 91 12
REMARK SMILES IDX 88 13 10 14 9 15 11 17 8 18 6 19 7 20 93 21 92 22 94 23 5 24
REMARK SMILES IDX 1 25 2 26 3 27 96 28 4 29 95 30 19 31 20 32 21 33 22 34
REMARK SMILES IDX 23 36 24 37 25 38 86 39 26 40 85 41 27 42 28 43 29 44 79 45
REMARK SMILES IDX 30 46 84 47 78 48 80 49 31 50 83 51 77 52 76 53 32 55 64 56
REMARK SMILES IDX 44 57 63 58 45 59 48 60 62 61 81 62 46 63 47 64 61 66 82 67
REMARK SMILES IDX 49 68 33 69 34 70 42 71 35 72 36 73 40 74 43 75 37 76 38 77
REMARK SMILES IDX 41 78 39 79 65 80 66 81 74 82 67 83 68 84 72 85 75 86 69 87
REMARK SMILES IDX 70 88 73 89 71 90 50 91 51 92 59 93 52 94 53 95 57 96 60 97
REMARK SMILES IDX 54 98 55 99 58 100 56 101
REMARK H PARENT 16 6 9 16 21 35 80 54 48 65
REMARK Flexibility Score: inf
ROOT
ATOM      1  C   UNL A   1      32.401  29.435  27.278  1.00  0.00     0.023 C 
ENDROOT
BRANCH   1   2
ATOM      2  C   UNL A   1      31.649  28.107  27.354  1.00  0.00     0.116 C 
BRANCH   2   3
ATOM      3  N   UNL A   1      32.146  26.998  26.551  1.00  0.00    -0.356 N 
ATOM      4  C   UNL A   1      32.373  27.036  25.203  1.00  0.00     0.226 C 
ATOM      5  O   UNL A   1      33.506  26.761  24.804  1.00  0.00    -0.275 OA
ATOM      6  H   UNL A   1      32.333  26.151  27.017  1.00  0.00     0.163 HD
BRANCH   4   7
ATOM      7  C   UNL A   1      31.297  27.548  24.285  1.00  0.00     0.122 C 
ATOM      8  C   UNL A   1      30.861  26.837  23.001  1.00  0.00     0.123 C 
ATOM      9  C   UNL A   1      30.328  28.040  22.209  1.00  0.00     0.132 C 
ATOM     10  C   UNL A   1      31.476  29.012  23.776  1.00  0.00     0.132 C 
ATOM     11  C   UNL A   1      29.269  28.849  23.007  1.00  0.00     0.035 C 
ATOM     12  O   UNL A   1      31.491  28.882  22.324  1.00  0.00    -0.373 OA
ATOM     13  C   UNL A   1      30.145  29.746  23.893  1.00  0.00     0.035 C 
BRANCH   8  14
ATOM     14  C   UNL A   1      31.572  25.879  22.010  1.00  0.00     0.232 C 
ATOM     15  N   UNL A   1      32.320  24.758  22.116  1.00  0.00    -0.302 N 
ATOM     16  H   UNL A   1      32.577  24.425  21.226  1.00  0.00     0.172 HD
ATOM     17  O   UNL A   1      31.445  26.227  20.813  1.00  0.00    -0.274 OA
BRANCH  15  18
ATOM     18  C   UNL A   1      32.824  23.953  23.099  1.00  0.00     0.190 A 
ATOM     19  C   UNL A   1      34.310  22.903  24.411  1.00  0.00     0.086 A 
ATOM     20  N   UNL A   1      34.114  23.855  23.389  1.00  0.00    -0.220 NA
ATOM     21  C   UNL A   1      33.123  22.367  24.895  1.00  0.00     0.031 A 
ATOM     22  S   UNL A   1      31.806  23.080  24.091  1.00  0.00    -0.101 S 
ATOM     23  C   UNL A   1      32.800  21.374  25.952  1.00  0.00     0.059 C 
BRANCH  19  24
ATOM     24  C   UNL A   1      35.633  22.523  24.947  1.00  0.00     0.001 A 
ATOM     25  C   UNL A   1      39.763  21.733  26.079  1.00  0.00     0.044 C 
ATOM     26  C   UNL A   1      38.325  21.984  25.722  1.00  0.00    -0.051 A 
ATOM     27  C   UNL A   1      37.543  21.003  25.094  1.00  0.00     0.004 A 
ATOM     28  C   UNL A   1      37.733  23.210  26.015  1.00  0.00     0.004 A 
ATOM     29  C   UNL A   1      36.210  21.269  24.709  1.00  0.00     0.010 A 
ATOM     30  C   UNL A   1      36.404  23.462  25.654  1.00  0.00     0.010 A 
ENDBRANCH  19  24
ENDBRANCH  15  18
ENDBRANCH   8  14
ENDBRANCH   4   7
ENDBRANCH   2   3
ENDBRANCH   1   2
BRANCH   1  31
ATOM     31  C   UNL A   1      33.884  29.389  27.623  1.00  0.00     0.023 C 
BRANCH  31  32
ATOM     32  C   UNL A   1      34.592  30.719  27.463  1.00  0.00     0.116 C 
BRANCH  32  33
ATOM     33  N   UNL A   1      34.977  31.351  28.720  1.00  0.00    -0.352 N 
ATOM     34  C   UNL A   1      35.952  30.973  29.634  1.00  0.00     0.251 C 
ATOM     35  H   UNL A   1      34.472  32.163  28.955  1.00  0.00     0.163 HD
ATOM     36  O   UNL A   1      36.140  31.619  30.646  1.00  0.00    -0.269 OA
BRANCH  34  37
ATOM     37  C   UNL A   1      36.859  29.853  29.278  1.00  0.00     0.039 A 
ATOM     38  C   UNL A   1      37.170  28.919  30.273  1.00  0.00     0.014 A 
ATOM     39  C   UNL A   1      37.590  29.898  28.099  1.00  0.00     0.014 A 
ATOM     40  C   UNL A   1      38.378  28.231  30.200  1.00  0.00     0.010 A 
ATOM     41  C   UNL A   1      38.847  29.336  28.094  1.00  0.00     0.010 A 
ATOM     42  C   UNL A   1      39.262  28.548  29.172  1.00  0.00    -0.014 A 
BRANCH  42  43
ATOM     43  C   UNL A   1      40.657  28.137  29.140  1.00  0.00     0.031 A 
ATOM     44  C   UNL A   1      41.008  26.811  28.597  1.00  0.00     0.074 A 
ATOM     45  C   UNL A   1      41.629  29.010  29.488  1.00  0.00     0.049 A 
ATOM     46  N   UNL A   1      42.099  26.184  28.874  1.00  0.00    -0.248 NA
ATOM     47  C   UNL A   1      40.126  26.071  27.700  1.00  0.00     0.031 C 
ATOM     48  C   UNL A   1      43.064  28.871  29.250  1.00  0.00     0.029 A 
ATOM     49  N   UNL A   1      41.524  30.143  30.311  1.00  0.00    -0.354 N 
ATOM     50  C   UNL A   1      42.188  25.114  28.019  1.00  0.00     0.074 A 
ATOM     51  C   UNL A   1      40.917  25.058  27.338  1.00  0.00     0.031 C 
ATOM     52  C   UNL A   1      43.725  29.644  30.126  1.00  0.00     0.029 A 
ATOM     53  C   UNL A   1      42.741  30.192  31.041  1.00  0.00     0.049 A 
ATOM     54  H   UNL A   1      40.768  30.772  30.369  1.00  0.00     0.167 HD
ATOM     55  C   UNL A   1      43.373  24.455  27.887  1.00  0.00     0.037 A 
ATOM     56  C   UNL A   1      42.745  30.023  32.396  1.00  0.00     0.037 A 
ATOM     57  C   UNL A   1      44.397  25.001  28.770  1.00  0.00     0.049 A 
ATOM     58  C   UNL A   1      43.489  28.796  32.877  1.00  0.00     0.074 A 
ATOM     59  C   UNL A   1      45.412  25.929  28.606  1.00  0.00     0.029 A 
ATOM     60  N   UNL A   1      44.244  24.842  30.135  1.00  0.00    -0.354 N 
ATOM     61  N   UNL A   1      44.018  27.901  32.090  1.00  0.00    -0.248 NA
ATOM     62  C   UNL A   1      43.606  28.431  34.291  1.00  0.00     0.031 C 
ATOM     63  C   UNL A   1      45.841  26.351  29.896  1.00  0.00     0.029 A 
ATOM     64  C   UNL A   1      45.093  25.672  30.840  1.00  0.00     0.049 A 
ATOM     65  H   UNL A   1      43.608  24.217  30.552  1.00  0.00     0.167 HD
ATOM     66  C   UNL A   1      44.469  26.849  32.840  1.00  0.00     0.074 A 
ATOM     67  C   UNL A   1      44.196  27.227  34.214  1.00  0.00     0.031 C 
ATOM     68  C   UNL A   1      44.998  25.721  32.287  1.00  0.00     0.037 A 
BRANCH  55  69
ATOM     69  C   UNL A   1      43.639  23.487  26.770  1.00  0.00     0.064 A 
ATOM     70  C   UNL A   1      43.237  22.141  26.872  1.00  0.00     0.173 A 
ATOM     71  C   UNL A   1      44.332  23.820  25.592  1.00  0.00     0.173 A 
ATOM     72  F   UNL A   1      42.499  21.708  27.903  1.00  0.00    -0.203 F 
ATOM     73  C   UNL A   1      43.598  21.183  25.924  1.00  0.00     0.198 A 
ATOM     74  C   UNL A   1      44.747  22.851  24.674  1.00  0.00     0.198 A 
ATOM     75  F   UNL A   1      44.604  25.097  25.286  1.00  0.00    -0.203 F 
ATOM     76  F   UNL A   1      43.193  19.914  26.077  1.00  0.00    -0.200 F 
ATOM     77  C   UNL A   1      44.386  21.529  24.846  1.00  0.00     0.200 A 
ATOM     78  F   UNL A   1      45.504  23.205  23.627  1.00  0.00    -0.200 F 
ATOM     79  F   UNL A   1      44.782  20.597  23.969  1.00  0.00    -0.200 F 
ENDBRANCH  55  69
BRANCH  56  80
ATOM     80  C   UNL A   1      41.524  30.584  33.034  1.00  0.00     0.064 A 
ATOM     81  C   UNL A   1      41.419  31.985  33.141  1.00  0.00     0.173 A 
ATOM     82  C   UNL A   1      40.348  29.834  33.135  1.00  0.00     0.173 A 
ATOM     83  F   UNL A   1      42.520  32.750  33.049  1.00  0.00    -0.203 F 
ATOM     84  C   UNL A   1      40.177  32.611  33.199  1.00  0.00     0.198 A 
ATOM     85  C   UNL A   1      39.107  30.466  33.216  1.00  0.00     0.198 A 
ATOM     86  F   UNL A   1      40.385  28.498  33.029  1.00  0.00    -0.203 F 
ATOM     87  F   UNL A   1      40.101  33.950  33.159  1.00  0.00    -0.200 F 
ATOM     88  C   UNL A   1      39.021  31.851  33.205  1.00  0.00     0.200 A 
ATOM     89  F   UNL A   1      37.987  29.730  33.205  1.00  0.00    -0.200 F 
ATOM     90  F   UNL A   1      37.825  32.452  33.156  1.00  0.00    -0.200 F 
ENDBRANCH  56  80
BRANCH  68  91
ATOM     91  C   UNL A   1      45.495  24.570  33.101  1.00  0.00     0.064 A 
ATOM     92  C   UNL A   1      44.665  23.490  33.436  1.00  0.00     0.173 A 
ATOM     93  C   UNL A   1      46.778  24.585  33.682  1.00  0.00     0.173 A 
ATOM     94  F   UNL A   1      43.415  23.414  32.954  1.00  0.00    -0.203 F 
ATOM     95  C   UNL A   1      45.103  22.475  34.288  1.00  0.00     0.198 A 
ATOM     96  C   UNL A   1      47.193  23.599  34.573  1.00  0.00     0.198 A 
ATOM     97  F   UNL A   1      47.663  25.548  33.384  1.00  0.00    -0.203 F 
ATOM     98  F   UNL A   1      44.298  21.437  34.553  1.00  0.00    -0.200 F 
ATOM     99  C   UNL A   1      46.358  22.538  34.868  1.00  0.00     0.200 A 
ATOM    100  F   UNL A   1      48.404  23.682  35.140  1.00  0.00    -0.200 F 
ATOM    101  F   UNL A   1      46.765  21.578  35.709  1.00  0.00    -0.200 F 
ENDBRANCH  68  91
ENDBRANCH  42  43
ENDBRANCH  34  37
ENDBRANCH  32  33
ENDBRANCH  31  32
ENDBRANCH   1  31
TORSDOF 14
ENDMDL
MODEL 2
REMARK VINA RESULT:     -14.2      1.329      1.983
REMARK SMILES Cc1ccc(-c2nc(NC(=O)[C@H]3[C@@H](C(=O)NCCCCNC(=O)c4ccc(-c5c6nc(c(-c7c(F)c(F)c(F)c(F)c7F)c7ccc([nH]7)c(-c7c(F)c(F)c(F)c(F)c7F)c7nc(c(-c8c(F)c(F)c(F)c(F)c8F)c8ccc5[nH]8)C=C7)C=C6)cc4)[C@@H]4CC[C@H]3O4)sc2C)cc1
REMARK SMILES IDX 18 1 17 2 16 3 14 4 15 5 13 7 12 8 90 9 87 10 89 11 91 12
REMARK SMILES IDX 88 13 10 14 9 15 11 17 8 18 6 19 7 20 93 21 92 22 94 23 5 24
REMARK SMILES IDX 1 25 2 26 3 27 96 28 4 29 95 30 19 31 20 32 21 33 22 34
REMARK SMILES IDX 23 36 24 37 25 38 86 39 26 40 85 41 27 42 28 43 29 44 79 45
REMARK SMILES IDX 30 46 84 47 78 48 80 49 31 50 83 51 77 52 76 53 32 55 64 56
REMARK SMILES IDX 44 57 63 58 45 59 48 60 62 61 81 62 46 63 47 64 61 66 82 67
REMARK SMILES IDX 49 68 33 69 34 70 42 71 35 72 36 73 40 74 43 75 37 76 38 77
REMARK SMILES IDX 41 78 39 79 65 80 66 81 74 82 67 83 68 84 72 85 75 86 69 87
REMARK SMILES IDX 70 88 73 89 71 90 50 91 51 92 59 93 52 94 53 95 57 96 60 97
REMARK SMILES IDX 54 98 55 99 58 100 56 101
REMARK H PARENT 16 6 9 16 21 35 80 54 48 65
REMARK Flexibility Score: inf
ROOT
ATOM      1  C   UNL A   1      33.214  28.327  27.368  1.00  0.00     0.023 C 
ENDROOT
BRANCH   1   2
ATOM      2  C   UNL A   1      34.108  27.895  26.207  1.00  0.00     0.116 C 
BRANCH   2   3
ATOM      3  N   UNL A   1      33.945  26.542  25.692  1.00  0.00    -0.356 N 
ATOM      4  C   UNL A   1      33.313  26.210  24.526  1.00  0.00     0.226 C 
ATOM      5  O   UNL A   1      33.954  25.573  23.687  1.00  0.00    -0.275 OA
ATOM      6  H   UNL A   1      34.319  25.806  26.228  1.00  0.00     0.163 HD
BRANCH   4   7
ATOM      7  C   UNL A   1      31.938  26.752  24.248  1.00  0.00     0.122 C 
ATOM      8  C   UNL A   1      30.719  26.481  25.134  1.00  0.00     0.123 C 
ATOM      9  C   UNL A   1      29.603  26.650  24.095  1.00  0.00     0.132 C 
ATOM     10  C   UNL A   1      31.358  26.446  22.832  1.00  0.00     0.132 C 
ATOM     11  C   UNL A   1      29.691  28.010  23.349  1.00  0.00     0.035 C 
ATOM     12  O   UNL A   1      30.114  25.737  23.106  1.00  0.00    -0.373 OA
ATOM     13  C   UNL A   1      30.737  27.717  22.263  1.00  0.00     0.035 C 
BRANCH   8  14
ATOM     14  C   UNL A   1      30.323  25.327  26.092  1.00  0.00     0.232 C 
ATOM     15  N   UNL A   1      30.786  24.084  26.353  1.00  0.00    -0.302 N 
ATOM     16  H   UNL A   1      30.258  23.659  27.066  1.00  0.00     0.172 HD
ATOM     17  O   UNL A   1      29.315  25.591  26.789  1.00  0.00    -0.274 OA
BRANCH  15  18
ATOM     18  C   UNL A   1      31.773  23.247  25.914  1.00  0.00     0.190 A 
ATOM     19  C   UNL A   1      33.824  22.444  25.489  1.00  0.00     0.086 A 
ATOM     20  N   UNL A   1      33.067  23.458  26.111  1.00  0.00    -0.220 NA
ATOM     21  C   UNL A   1      33.040  21.461  24.897  1.00  0.00     0.031 A 
ATOM     22  S   UNL A   1      31.397  21.810  25.154  1.00  0.00    -0.101 S 
ATOM     23  C   UNL A   1      33.347  20.209  24.157  1.00  0.00     0.059 C 
BRANCH  19  24
ATOM     24  C   UNL A   1      35.300  22.397  25.483  1.00  0.00     0.001 A 
ATOM     25  C   UNL A   1      39.606  22.035  26.024  1.00  0.00     0.044 C 
ATOM     26  C   UNL A   1      38.126  22.173  25.797  1.00  0.00    -0.051 A 
ATOM     27  C   UNL A   1      37.491  23.422  25.845  1.00  0.00     0.004 A 
ATOM     28  C   UNL A   1      37.350  21.048  25.529  1.00  0.00     0.004 A 
ATOM     29  C   UNL A   1      36.091  23.534  25.691  1.00  0.00     0.010 A 
ATOM     30  C   UNL A   1      35.966  21.165  25.351  1.00  0.00     0.010 A 
ENDBRANCH  19  24
ENDBRANCH  15  18
ENDBRANCH   8  14
ENDBRANCH   4   7
ENDBRANCH   2   3
ENDBRANCH   1   2
BRANCH   1  31
ATOM     31  C   UNL A   1      32.678  29.753  27.311  1.00  0.00     0.023 C 
BRANCH  31  32
ATOM     32  C   UNL A   1      33.743  30.798  27.050  1.00  0.00     0.116 C 
BRANCH  32  33
ATOM     33  N   UNL A   1      34.111  31.588  28.221  1.00  0.00    -0.352 N 
ATOM     34  C   UNL A   1      35.103  31.356  29.163  1.00  0.00     0.251 C 
ATOM     35  H   UNL A   1      33.577  32.403  28.363  1.00  0.00     0.163 HD
ATOM     36  O   UNL A   1      35.272  32.124  30.091  1.00  0.00    -0.269 OA
BRANCH  34  37
ATOM     37  C   UNL A   1      36.050  30.236  28.934  1.00  0.00     0.039 A 
ATOM     38  C   UNL A   1      36.403  29.440  30.030  1.00  0.00     0.014 A 
ATOM     39  C   UNL A   1      36.770  30.164  27.749  1.00  0.00     0.014 A 
ATOM     40  C   UNL A   1      37.636  28.793  30.026  1.00  0.00     0.010 A 
ATOM     41  C   UNL A   1      38.046  29.653  27.797  1.00  0.00     0.010 A 
ATOM     42  C   UNL A   1      38.500  29.017  28.957  1.00  0.00    -0.014 A 
BRANCH  42  43
ATOM     43  C   UNL A   1      39.908  28.657  28.957  1.00  0.00     0.031 A 
ATOM     44  C   UNL A   1      40.308  27.295  28.553  1.00  0.00     0.074 A 
ATOM     45  C   UNL A   1      40.849  29.596  29.205  1.00  0.00     0.049 A 
ATOM     46  N   UNL A   1      41.422  26.741  28.885  1.00  0.00    -0.248 NA
ATOM     47  C   UNL A   1      39.451  26.433  27.744  1.00  0.00     0.031 C 
ATOM     48  C   UNL A   1      42.287  29.486  28.972  1.00  0.00     0.029 A 
ATOM     49  N   UNL A   1      40.704  30.805  29.907  1.00  0.00    -0.354 N 
ATOM     50  C   UNL A   1      41.549  25.592  28.146  1.00  0.00     0.074 A 
ATOM     51  C   UNL A   1      40.278  25.418  27.483  1.00  0.00     0.031 C 
ATOM     52  C   UNL A   1      42.921  30.370  29.759  1.00  0.00     0.029 A 
ATOM     53  C   UNL A   1      41.920  30.974  30.619  1.00  0.00     0.049 A 
ATOM     54  H   UNL A   1      39.925  31.407  29.904  1.00  0.00     0.167 HD
ATOM     55  C   UNL A   1      42.758  24.968  28.074  1.00  0.00     0.037 A 
ATOM     56  C   UNL A   1      41.935  30.948  31.983  1.00  0.00     0.037 A 
ATOM     57  C   UNL A   1      43.763  25.640  28.888  1.00  0.00     0.049 A 
ATOM     58  C   UNL A   1      42.727  29.806  32.584  1.00  0.00     0.074 A 
ATOM     59  C   UNL A   1      44.742  26.583  28.621  1.00  0.00     0.029 A 
ATOM     60  N   UNL A   1      43.620  25.619  30.263  1.00  0.00    -0.354 N 
ATOM     61  N   UNL A   1      43.286  28.854  31.891  1.00  0.00    -0.248 NA
ATOM     62  C   UNL A   1      42.862  29.595  34.028  1.00  0.00     0.031 C 
ATOM     63  C   UNL A   1      45.159  27.152  29.857  1.00  0.00     0.029 A 
ATOM     64  C   UNL A   1      44.440  26.549  30.872  1.00  0.00     0.049 A 
ATOM     65  H   UNL A   1      43.010  25.017  30.748  1.00  0.00     0.167 HD
ATOM     66  C   UNL A   1      43.779  27.904  32.743  1.00  0.00     0.074 A 
ATOM     67  C   UNL A   1      43.497  28.412  34.072  1.00  0.00     0.031 C 
ATOM     68  C   UNL A   1      44.348  26.745  32.307  1.00  0.00     0.037 A 
BRANCH  55  69
ATOM     69  C   UNL A   1      43.056  23.899  27.062  1.00  0.00     0.064 A 
ATOM     70  C   UNL A   1      42.795  22.544  27.347  1.00  0.00     0.173 A 
ATOM     71  C   UNL A   1      43.646  24.147  25.810  1.00  0.00     0.173 A 
ATOM     72  F   UNL A   1      42.161  22.175  28.467  1.00  0.00    -0.203 F 
ATOM     73  C   UNL A   1      43.196  21.514  26.494  1.00  0.00     0.198 A 
ATOM     74  C   UNL A   1      44.104  23.116  24.985  1.00  0.00     0.198 A 
ATOM     75  F   UNL A   1      43.773  25.397  25.340  1.00  0.00    -0.203 F 
ATOM     76  F   UNL A   1      42.927  20.242  26.820  1.00  0.00    -0.200 F 
ATOM     77  C   UNL A   1      43.886  21.797  25.333  1.00  0.00     0.200 A 
ATOM     78  F   UNL A   1      44.763  23.408  23.856  1.00  0.00    -0.200 F 
ATOM     79  F   UNL A   1      44.322  20.805  24.546  1.00  0.00    -0.200 F 
ENDBRANCH  55  69
BRANCH  56  80
ATOM     80  C   UNL A   1      40.697  31.527  32.569  1.00  0.00     0.064 A 
ATOM     81  C   UNL A   1      40.527  32.924  32.505  1.00  0.00     0.173 A 
ATOM     82  C   UNL A   1      39.559  30.742  32.781  1.00  0.00     0.173 A 
ATOM     83  F   UNL A   1      41.589  33.722  32.302  1.00  0.00    -0.203 F 
ATOM     84  C   UNL A   1      39.257  33.495  32.508  1.00  0.00     0.198 A 
ATOM     85  C   UNL A   1      38.290  31.322  32.805  1.00  0.00     0.198 A 
ATOM     86  F   UNL A   1      39.658  29.406  32.838  1.00  0.00    -0.203 F 
ATOM     87  F   UNL A   1      39.117  34.814  32.305  1.00  0.00    -0.200 F 
ATOM     88  C   UNL A   1      38.138  32.689  32.626  1.00  0.00     0.200 A 
ATOM     89  F   UNL A   1      37.206  30.539  32.903  1.00  0.00    -0.200 F 
ATOM     90  F   UNL A   1      36.914  33.224  32.524  1.00  0.00    -0.200 F 
ENDBRANCH  56  80
BRANCH  68  91
ATOM     91  C   UNL A   1      44.891  25.704  33.233  1.00  0.00     0.064 A 
ATOM     92  C   UNL A   1      46.248  25.352  33.235  1.00  0.00     0.173 A 
ATOM     93  C   UNL A   1      44.037  24.935  34.048  1.00  0.00     0.173 A 
ATOM     94  F   UNL A   1      47.125  26.010  32.461  1.00  0.00    -0.203 F 
ATOM     95  C   UNL A   1      46.725  24.303  34.021  1.00  0.00     0.198 A 
ATOM     96  C   UNL A   1      44.507  23.856  34.792  1.00  0.00     0.198 A 
ATOM     97  F   UNL A   1      42.731  25.225  34.154  1.00  0.00    -0.203 F 
ATOM     98  F   UNL A   1      48.035  24.021  34.030  1.00  0.00    -0.200 F 
ATOM     99  C   UNL A   1      45.854  23.546  34.786  1.00  0.00     0.200 A 
ATOM    100  F   UNL A   1      43.649  23.122  35.513  1.00  0.00    -0.200 F 
ATOM    101  F   UNL A   1      46.310  22.521  35.517  1.00  0.00    -0.200 F 
ENDBRANCH  68  91
ENDBRANCH  42  43
ENDBRANCH  34  37
ENDBRANCH  32  33
ENDBRANCH  31  32
ENDBRANCH   1  31
TORSDOF 14
ENDMDL
MODEL 3
REMARK VINA RESULT:     -14.0      3.509      9.976
REMARK SMILES Cc1ccc(-c2nc(NC(=O)[C@H]3[C@@H](C(=O)NCCCCNC(=O)c4ccc(-c5c6nc(c(-c7c(F)c(F)c(F)c(F)c7F)c7ccc([nH]7)c(-c7c(F)c(F)c(F)c(F)c7F)c7nc(c(-c8c(F)c(F)c(F)c(F)c8F)c8ccc5[nH]8)C=C7)C=C6)cc4)[C@@H]4CC[C@H]3O4)sc2C)cc1
REMARK SMILES IDX 18 1 17 2 16 3 14 4 15 5 13 7 12 8 90 9 87 10 89 11 91 12
REMARK SMILES IDX 88 13 10 14 9 15 11 17 8 18 6 19 7 20 93 21 92 22 94 23 5 24
REMARK SMILES IDX 1 25 2 26 3 27 96 28 4 29 95 30 19 31 20 32 21 33 22 34
REMARK SMILES IDX 23 36 24 37 25 38 86 39 26 40 85 41 27 42 28 43 29 44 79 45
REMARK SMILES IDX 30 46 84 47 78 48 80 49 31 50 83 51 77 52 76 53 32 55 64 56
REMARK SMILES IDX 44 57 63 58 45 59 48 60 62 61 81 62 46 63 47 64 61 66 82 67
REMARK SMILES IDX 49 68 33 69 34 70 42 71 35 72 36 73 40 74 43 75 37 76 38 77
REMARK SMILES IDX 41 78 39 79 65 80 66 81 74 82 67 83 68 84 72 85 75 86 69 87
REMARK SMILES IDX 70 88 73 89 71 90 50 91 51 92 59 93 52 94 53 95 57 96 60 97
REMARK SMILES IDX 54 98 55 99 58 100 56 101
REMARK H PARENT 16 6 9 16 21 35 80 54 48 65
REMARK Flexibility Score: inf
ROOT
ATOM      1  C   UNL A   1      37.407  22.287  24.570  1.00  0.00     0.023 C 
ENDROOT
BRANCH   1   2
ATOM      2  C   UNL A   1      36.525  22.880  23.473  1.00  0.00     0.116 C 
BRANCH   2   3
ATOM      3  N   UNL A   1      35.393  23.701  23.882  1.00  0.00    -0.356 N 
ATOM      4  C   UNL A   1      34.418  23.323  24.763  1.00  0.00     0.226 C 
ATOM      5  O   UNL A   1      34.238  24.028  25.758  1.00  0.00    -0.275 OA
ATOM      6  H   UNL A   1      35.323  24.601  23.491  1.00  0.00     0.163 HD
BRANCH   4   7
ATOM      7  C   UNL A   1      33.718  22.005  24.573  1.00  0.00     0.122 C 
ATOM      8  C   UNL A   1      32.199  21.827  24.653  1.00  0.00     0.123 C 
ATOM      9  C   UNL A   1      32.135  20.348  25.058  1.00  0.00     0.132 C 
ATOM     10  C   UNL A   1      34.210  20.834  25.479  1.00  0.00     0.132 C 
ATOM     11  C   UNL A   1      32.940  19.435  24.093  1.00  0.00     0.035 C 
ATOM     12  O   UNL A   1      33.012  20.417  26.198  1.00  0.00    -0.373 OA
ATOM     13  C   UNL A   1      34.372  19.580  24.628  1.00  0.00     0.035 C 
BRANCH   8  14
ATOM     14  C   UNL A   1      31.067  22.585  25.395  1.00  0.00     0.232 C 
ATOM     15  N   UNL A   1      30.686  23.875  25.519  1.00  0.00    -0.302 N 
ATOM     16  H   UNL A   1      29.879  23.948  26.078  1.00  0.00     0.172 HD
ATOM     17  O   UNL A   1      30.324  21.827  26.062  1.00  0.00    -0.274 OA
BRANCH  15  18
ATOM     18  C   UNL A   1      31.097  25.109  25.096  1.00  0.00     0.190 A 
ATOM     19  C   UNL A   1      31.885  27.207  25.162  1.00  0.00     0.086 A 
ATOM     20  N   UNL A   1      31.619  26.030  25.892  1.00  0.00    -0.220 NA
ATOM     21  C   UNL A   1      31.603  27.086  23.807  1.00  0.00     0.031 A 
ATOM     22  S   UNL A   1      31.046  25.514  23.478  1.00  0.00    -0.101 S 
ATOM     23  C   UNL A   1      31.727  28.005  22.645  1.00  0.00     0.059 C 
BRANCH  19  24
ATOM     24  C   UNL A   1      32.437  28.443  25.754  1.00  0.00     0.001 A 
ATOM     25  C   UNL A   1      34.021  31.802  28.028  1.00  0.00     0.044 C 
ATOM     26  C   UNL A   1      33.481  30.664  27.207  1.00  0.00    -0.051 A 
ATOM     27  C   UNL A   1      32.176  30.686  26.693  1.00  0.00     0.004 A 
ATOM     28  C   UNL A   1      34.278  29.555  26.936  1.00  0.00     0.004 A 
ATOM     29  C   UNL A   1      31.657  29.586  25.974  1.00  0.00     0.010 A 
ATOM     30  C   UNL A   1      33.769  28.477  26.202  1.00  0.00     0.010 A 
ENDBRANCH  19  24
ENDBRANCH  15  18
ENDBRANCH   8  14
ENDBRANCH   4   7
ENDBRANCH   2   3
ENDBRANCH   1   2
BRANCH   1  31
ATOM     31  C   UNL A   1      38.023  23.279  25.549  1.00  0.00     0.023 C 
BRANCH  31  32
ATOM     32  C   UNL A   1      39.005  22.655  26.518  1.00  0.00     0.116 C 
BRANCH  32  33
ATOM     33  N   UNL A   1      40.406  22.941  26.225  1.00  0.00    -0.352 N 
ATOM     34  C   UNL A   1      41.082  24.153  26.256  1.00  0.00     0.251 C 
ATOM     35  H   UNL A   1      40.950  22.162  25.967  1.00  0.00     0.163 HD
ATOM     36  O   UNL A   1      42.263  24.214  25.974  1.00  0.00    -0.269 OA
BRANCH  34  37
ATOM     37  C   UNL A   1      40.373  25.346  26.784  1.00  0.00     0.039 A 
ATOM     38  C   UNL A   1      40.575  26.570  26.135  1.00  0.00     0.014 A 
ATOM     39  C   UNL A   1      39.771  25.301  28.033  1.00  0.00     0.014 A 
ATOM     40  C   UNL A   1      40.431  27.750  26.859  1.00  0.00     0.010 A 
ATOM     41  C   UNL A   1      39.770  26.448  28.793  1.00  0.00     0.010 A 
ATOM     42  C   UNL A   1      40.154  27.664  28.221  1.00  0.00    -0.014 A 
BRANCH  42  43
ATOM     43  C   UNL A   1      40.270  28.779  29.148  1.00  0.00     0.031 A 
ATOM     44  C   UNL A   1      39.179  29.769  29.228  1.00  0.00     0.074 A 
ATOM     45  C   UNL A   1      41.307  28.837  30.014  1.00  0.00     0.049 A 
ATOM     46  N   UNL A   1      39.324  30.967  29.680  1.00  0.00    -0.248 NA
ATOM     47  C   UNL A   1      37.821  29.480  28.777  1.00  0.00     0.031 C 
ATOM     48  C   UNL A   1      41.432  29.706  31.181  1.00  0.00     0.029 A 
ATOM     49  N   UNL A   1      42.568  28.229  29.899  1.00  0.00    -0.354 N 
ATOM     50  C   UNL A   1      38.071  31.508  29.823  1.00  0.00     0.074 A 
ATOM     51  C   UNL A   1      37.170  30.564  29.207  1.00  0.00     0.031 C 
ATOM     52  C   UNL A   1      42.732  29.832  31.488  1.00  0.00     0.029 A 
ATOM     53  C   UNL A   1      43.486  29.163  30.445  1.00  0.00     0.049 A 
ATOM     54  H   UNL A   1      42.771  27.342  29.521  1.00  0.00     0.167 HD
ATOM     55  C   UNL A   1      37.908  32.645  30.556  1.00  0.00     0.037 A 
ATOM     56  C   UNL A   1      44.431  29.751  29.654  1.00  0.00     0.037 A 
ATOM     57  C   UNL A   1      39.181  33.155  31.052  1.00  0.00     0.049 A 
ATOM     58  C   UNL A   1      44.290  31.252  29.514  1.00  0.00     0.074 A 
ATOM     59  C   UNL A   1      39.868  33.022  32.248  1.00  0.00     0.029 A 
ATOM     60  N   UNL A   1      40.096  33.647  30.140  1.00  0.00    -0.354 N 
ATOM     61  N   UNL A   1      43.310  31.949  30.017  1.00  0.00    -0.248 NA
ATOM     62  C   UNL A   1      45.197  32.071  28.706  1.00  0.00     0.031 C 
ATOM     63  C   UNL A   1      41.220  33.409  32.028  1.00  0.00     0.029 A 
ATOM     64  C   UNL A   1      41.349  33.785  30.704  1.00  0.00     0.049 A 
ATOM     65  H   UNL A   1      39.882  33.870  29.206  1.00  0.00     0.167 HD
ATOM     66  C   UNL A   1      43.399  33.240  29.573  1.00  0.00     0.074 A 
ATOM     67  C   UNL A   1      44.599  33.273  28.760  1.00  0.00     0.031 C 
ATOM     68  C   UNL A   1      42.464  34.188  29.866  1.00  0.00     0.037 A 
BRANCH  55  69
ATOM     69  C   UNL A   1      36.561  33.127  31.012  1.00  0.00     0.064 A 
ATOM     70  C   UNL A   1      35.774  33.955  30.186  1.00  0.00     0.173 A 
ATOM     71  C   UNL A   1      36.014  32.844  32.276  1.00  0.00     0.173 A 
ATOM     72  F   UNL A   1      36.138  34.235  28.928  1.00  0.00    -0.203 F 
ATOM     73  C   UNL A   1      34.590  34.541  30.634  1.00  0.00     0.198 A 
ATOM     74  C   UNL A   1      34.861  33.480  32.747  1.00  0.00     0.198 A 
ATOM     75  F   UNL A   1      36.567  31.924  33.080  1.00  0.00    -0.203 F 
ATOM     76  F   UNL A   1      33.885  35.327  29.806  1.00  0.00    -0.200 F 
ATOM     77  C   UNL A   1      34.154  34.337  31.927  1.00  0.00     0.200 A 
ATOM     78  F   UNL A   1      34.445  33.262  34.002  1.00  0.00    -0.200 F 
ATOM     79  F   UNL A   1      33.049  34.948  32.374  1.00  0.00    -0.200 F 
ENDBRANCH  55  69
BRANCH  56  80
ATOM     80  C   UNL A   1      44.915  28.838  28.585  1.00  0.00     0.064 A 
ATOM     81  C   UNL A   1      45.828  27.827  28.944  1.00  0.00     0.173 A 
ATOM     82  C   UNL A   1      44.208  28.681  27.389  1.00  0.00     0.173 A 
ATOM     83  F   UNL A   1      46.531  27.930  30.084  1.00  0.00    -0.203 F 
ATOM     84  C   UNL A   1      45.918  26.646  28.213  1.00  0.00     0.198 A 
ATOM     85  C   UNL A   1      44.318  27.504  26.647  1.00  0.00     0.198 A 
ATOM     86  F   UNL A   1      43.316  29.605  27.002  1.00  0.00    -0.203 F 
ATOM     87  F   UNL A   1      46.692  25.643  28.655  1.00  0.00    -0.200 F 
ATOM     88  C   UNL A   1      45.139  26.474  27.081  1.00  0.00     0.200 A 
ATOM     89  F   UNL A   1      43.551  27.331  25.562  1.00  0.00    -0.200 F 
ATOM     90  F   UNL A   1      45.147  25.300  26.436  1.00  0.00    -0.200 F 
ENDBRANCH  56  80
BRANCH  68  91
ATOM     91  C   UNL A   1      42.556  35.601  29.386  1.00  0.00     0.064 A 
ATOM     92  C   UNL A   1      42.013  35.999  28.156  1.00  0.00     0.173 A 
ATOM     93  C   UNL A   1      43.310  36.563  30.086  1.00  0.00     0.173 A 
ATOM     94  F   UNL A   1      41.310  35.136  27.408  1.00  0.00    -0.203 F 
ATOM     95  C   UNL A   1      42.201  37.292  27.664  1.00  0.00     0.198 A 
ATOM     96  C   UNL A   1      43.540  37.835  29.569  1.00  0.00     0.198 A 
ATOM     97  F   UNL A   1      43.827  36.294  31.295  1.00  0.00    -0.203 F 
ATOM     98  F   UNL A   1      41.633  37.650  26.505  1.00  0.00    -0.200 F 
ATOM     99  C   UNL A   1      42.976  38.202  28.362  1.00  0.00     0.200 A 
ATOM    100  F   UNL A   1      44.306  38.700  30.247  1.00  0.00    -0.200 F 
ATOM    101  F   UNL A   1      43.179  39.433  27.874  1.00  0.00    -0.200 F 
ENDBRANCH  68  91
ENDBRANCH  42  43
ENDBRANCH  34  37
ENDBRANCH  32  33
ENDBRANCH  31  32
ENDBRANCH   1  31
TORSDOF 14
ENDMDL
