MODEL 1
REMARK VINA RESULT:     -14.4      0.000      0.000
REMARK SMILES C[C@H]1CC[C@H]([NH2+]Cc2c(C(=O)NCCCCNC(=O)c3ccc(-c4c5nc(c(-c6c(F)c(F)c(F)c(F)c6F)c6ccc([nH]6)c(-c6c(F)c(F)c(F)c(F)c6F)c6nc(c(-c7c(F)c(F)c(F)c(F)c7F)c7ccc4[nH]7)C=C6)C=C5)cc3)n(Cc3ccccc3F)c3ccccc23)CC1
REMARK SMILES IDX 14 1 13 2 12 3 10 4 11 5 9 7 8 8 97 9 83 10 92 11 96 12
REMARK SMILES IDX 93 13 95 14 94 15 7 16 6 17 5 20 1 21 2 22 3 23 99 24 4 25
REMARK SMILES IDX 98 26 84 27 85 28 86 29 90 30 87 31 89 32 91 33 88 34 15 35
REMARK SMILES IDX 16 36 17 37 18 38 19 40 20 41 21 42 82 43 22 44 81 45 23 46
REMARK SMILES IDX 24 47 25 48 75 49 26 50 80 51 74 52 76 53 27 54 79 55 73 56
REMARK SMILES IDX 72 57 28 59 60 60 40 61 59 62 41 63 44 64 58 65 77 66 42 67
REMARK SMILES IDX 43 68 57 70 78 71 45 72 29 73 30 74 38 75 31 76 32 77 36 78
REMARK SMILES IDX 39 79 33 80 34 81 37 82 35 83 61 84 62 85 70 86 63 87 64 88
REMARK SMILES IDX 68 89 71 90 65 91 66 92 69 93 67 94 46 95 47 96 55 97 48 98
REMARK SMILES IDX 49 99 53 100 56 101 50 102 51 103 54 104 52 105
REMARK H PARENT 12 6 6 18 6 19 17 39 76 58 44 69
REMARK Flexibility Score: inf
ROOT
ATOM      1  C   UNL A   1      31.688  28.341  27.383  1.00  0.00     0.023 C 
ENDROOT
BRANCH   1   2
ATOM      2  C   UNL A   1      32.133  26.981  26.858  1.00  0.00     0.116 C 
BRANCH   2   3
ATOM      3  N   UNL A   1      31.175  25.907  26.845  1.00  0.00    -0.351 N 
ATOM      4  C   UNL A   1      31.388  24.575  26.581  1.00  0.00     0.268 C 
ATOM      5  O   UNL A   1      30.379  23.861  26.788  1.00  0.00    -0.268 OA
ATOM      6  H   UNL A   1      30.247  26.160  27.051  1.00  0.00     0.163 HD
BRANCH   4   7
ATOM      7  C   UNL A   1      32.633  24.012  26.042  1.00  0.00     0.117 A 
ATOM      8  C   UNL A   1      33.538  23.031  26.507  1.00  0.00     0.045 A 
ATOM      9  C   UNL A   1      34.760  23.262  25.795  1.00  0.00     0.009 A 
ATOM     10  N   UNL A   1      33.100  24.268  24.725  1.00  0.00    -0.331 N 
ATOM     11  C   UNL A   1      34.398  23.797  24.573  1.00  0.00     0.049 A 
ATOM     12  C   UNL A   1      36.104  22.889  26.015  1.00  0.00     0.011 A 
ATOM     13  C   UNL A   1      35.288  23.765  23.485  1.00  0.00     0.027 A 
ATOM     14  C   UNL A   1      37.039  23.032  24.989  1.00  0.00     0.001 A 
ATOM     15  C   UNL A   1      36.622  23.419  23.724  1.00  0.00     0.002 A 
BRANCH   8  16
ATOM     16  C   UNL A   1      33.502  21.901  27.498  1.00  0.00     0.300 C 
BRANCH  16  17
ATOM     17  N   UNL A   1      33.221  20.564  27.004  1.00  0.00    -0.340 N 
ATOM     18  H   UNL A   1      33.806  19.937  27.555  1.00  0.00     0.346 HD
ATOM     19  H   UNL A   1      32.205  20.537  27.086  1.00  0.00     0.346 HD
BRANCH  17  20
ATOM     20  C   UNL A   1      33.401  20.154  25.611  1.00  0.00     0.182 C 
ATOM     21  C   UNL A   1      32.158  17.804  22.066  1.00  0.00     0.007 C 
ATOM     22  C   UNL A   1      32.219  18.523  23.405  1.00  0.00    -0.014 C 
ATOM     23  C   UNL A   1      32.498  20.019  23.232  1.00  0.00     0.009 C 
ATOM     24  C   UNL A   1      33.290  17.918  24.310  1.00  0.00     0.009 C 
ATOM     25  C   UNL A   1      32.421  20.722  24.584  1.00  0.00     0.065 C 
ATOM     26  C   UNL A   1      33.293  18.613  25.664  1.00  0.00     0.065 C 
ENDBRANCH  17  20
ENDBRANCH  16  17
ENDBRANCH   8  16
BRANCH  10  27
ATOM     27  C   UNL A   1      32.330  24.829  23.597  1.00  0.00     0.161 C 
BRANCH  27  28
ATOM     28  C   UNL A   1      32.412  26.331  23.449  1.00  0.00     0.008 A 
ATOM     29  C   UNL A   1      33.635  27.023  23.404  1.00  0.00     0.008 A 
ATOM     30  C   UNL A   1      31.254  27.088  23.260  1.00  0.00     0.128 A 
ATOM     31  C   UNL A   1      33.695  28.407  23.226  1.00  0.00     0.001 A 
ATOM     32  C   UNL A   1      31.300  28.474  23.093  1.00  0.00     0.039 A 
ATOM     33  F   UNL A   1      30.059  26.487  23.185  1.00  0.00    -0.207 F 
ATOM     34  C   UNL A   1      32.524  29.138  23.085  1.00  0.00     0.003 A 
ENDBRANCH  27  28
ENDBRANCH  10  27
ENDBRANCH   4   7
ENDBRANCH   2   3
ENDBRANCH   1   2
BRANCH   1  35
ATOM     35  C   UNL A   1      32.246  29.576  26.651  1.00  0.00     0.023 C 
BRANCH  35  36
ATOM     36  C   UNL A   1      33.714  29.965  26.897  1.00  0.00     0.116 C 
BRANCH  36  37
ATOM     37  N   UNL A   1      33.992  31.274  27.460  1.00  0.00    -0.352 N 
ATOM     38  C   UNL A   1      35.187  31.879  27.753  1.00  0.00     0.251 C 
ATOM     39  H   UNL A   1      33.195  31.813  27.666  1.00  0.00     0.163 HD
ATOM     40  O   UNL A   1      35.259  33.115  27.650  1.00  0.00    -0.269 OA
BRANCH  38  41
ATOM     41  C   UNL A   1      36.308  31.143  28.375  1.00  0.00     0.039 A 
ATOM     42  C   UNL A   1      37.354  31.762  29.051  1.00  0.00     0.014 A 
ATOM     43  C   UNL A   1      36.380  29.764  28.107  1.00  0.00     0.014 A 
ATOM     44  C   UNL A   1      38.539  31.085  29.249  1.00  0.00     0.010 A 
ATOM     45  C   UNL A   1      37.548  29.061  28.359  1.00  0.00     0.010 A 
ATOM     46  C   UNL A   1      38.650  29.752  28.854  1.00  0.00    -0.014 A 
BRANCH  46  47
ATOM     47  C   UNL A   1      39.942  29.125  29.076  1.00  0.00     0.031 A 
ATOM     48  C   UNL A   1      40.289  28.920  30.510  1.00  0.00     0.074 A 
ATOM     49  C   UNL A   1      40.744  28.724  28.072  1.00  0.00     0.049 A 
ATOM     50  N   UNL A   1      41.320  29.355  31.161  1.00  0.00    -0.248 NA
ATOM     51  C   UNL A   1      39.288  28.242  31.350  1.00  0.00     0.031 C 
ATOM     52  C   UNL A   1      40.433  28.637  26.645  1.00  0.00     0.029 A 
ATOM     53  N   UNL A   1      42.002  28.210  28.149  1.00  0.00    -0.354 N 
ATOM     54  C   UNL A   1      41.175  28.881  32.464  1.00  0.00     0.074 A 
ATOM     55  C   UNL A   1      39.856  28.313  32.552  1.00  0.00     0.031 C 
ATOM     56  C   UNL A   1      41.378  27.889  26.033  1.00  0.00     0.029 A 
ATOM     57  C   UNL A   1      42.414  27.558  26.998  1.00  0.00     0.049 A 
ATOM     58  H   UNL A   1      42.567  28.293  28.950  1.00  0.00     0.167 HD
ATOM     59  C   UNL A   1      42.224  28.819  33.326  1.00  0.00     0.037 A 
ATOM     60  C   UNL A   1      43.479  26.728  26.886  1.00  0.00     0.037 A 
ATOM     61  C   UNL A   1      43.269  29.733  32.953  1.00  0.00     0.049 A 
ATOM     62  C   UNL A   1      44.395  27.020  28.019  1.00  0.00     0.074 A 
ATOM     63  C   UNL A   1      43.356  31.107  32.846  1.00  0.00     0.029 A 
ATOM     64  N   UNL A   1      44.373  29.240  32.305  1.00  0.00    -0.354 N 
ATOM     65  N   UNL A   1      45.071  28.128  28.148  1.00  0.00    -0.248 NA
ATOM     66  C   UNL A   1      44.236  26.241  29.238  1.00  0.00     0.031 C 
ATOM     67  C   UNL A   1      44.225  31.339  31.743  1.00  0.00     0.029 A 
ATOM     68  C   UNL A   1      44.646  30.095  31.270  1.00  0.00     0.049 A 
ATOM     69  H   UNL A   1      44.874  28.425  32.539  1.00  0.00     0.167 HD
ATOM     70  C   UNL A   1      45.062  28.391  29.510  1.00  0.00     0.074 A 
ATOM     71  C   UNL A   1      44.621  27.150  30.136  1.00  0.00     0.031 C 
ATOM     72  C   UNL A   1      45.142  29.669  29.982  1.00  0.00     0.037 A 
BRANCH  59  73
ATOM     73  C   UNL A   1      42.436  27.697  34.312  1.00  0.00     0.064 A 
ATOM     74  C   UNL A   1      43.011  26.488  33.873  1.00  0.00     0.173 A 
ATOM     75  C   UNL A   1      41.829  27.651  35.587  1.00  0.00     0.173 A 
ATOM     76  F   UNL A   1      43.599  26.406  32.669  1.00  0.00    -0.203 F 
ATOM     77  C   UNL A   1      42.914  25.308  34.618  1.00  0.00     0.198 A 
ATOM     78  C   UNL A   1      41.781  26.487  36.351  1.00  0.00     0.198 A 
ATOM     79  F   UNL A   1      41.160  28.691  36.097  1.00  0.00    -0.203 F 
ATOM     80  F   UNL A   1      43.363  24.157  34.102  1.00  0.00    -0.200 F 
ATOM     81  C   UNL A   1      42.293  25.309  35.853  1.00  0.00     0.200 A 
ATOM     82  F   UNL A   1      41.158  26.505  37.538  1.00  0.00    -0.200 F 
ATOM     83  F   UNL A   1      42.143  24.169  36.541  1.00  0.00    -0.200 F 
ENDBRANCH  59  73
BRANCH  60  84
ATOM     84  C   UNL A   1      43.577  25.495  26.067  1.00  0.00     0.064 A 
ATOM     85  C   UNL A   1      44.710  25.237  25.280  1.00  0.00     0.173 A 
ATOM     86  C   UNL A   1      42.679  24.421  26.239  1.00  0.00     0.173 A 
ATOM     87  F   UNL A   1      45.642  26.185  25.107  1.00  0.00    -0.203 F 
ATOM     88  C   UNL A   1      44.939  23.978  24.712  1.00  0.00     0.198 A 
ATOM     89  C   UNL A   1      42.901  23.170  25.662  1.00  0.00     0.198 A 
ATOM     90  F   UNL A   1      41.617  24.529  27.048  1.00  0.00    -0.203 F 
ATOM     91  F   UNL A   1      46.063  23.751  24.019  1.00  0.00    -0.200 F 
ATOM     92  C   UNL A   1      44.037  22.945  24.910  1.00  0.00     0.200 A 
ATOM     93  F   UNL A   1      42.038  22.171  25.893  1.00  0.00    -0.200 F 
ATOM     94  F   UNL A   1      44.282  21.724  24.412  1.00  0.00    -0.200 F 
ENDBRANCH  60  84
BRANCH  72  95
ATOM     95  C   UNL A   1      45.504  30.762  29.019  1.00  0.00     0.064 A 
ATOM     96  C   UNL A   1      46.828  31.100  28.691  1.00  0.00     0.173 A 
ATOM     97  C   UNL A   1      44.480  31.344  28.258  1.00  0.00     0.173 A 
ATOM     98  F   UNL A   1      47.862  30.514  29.306  1.00  0.00    -0.203 F 
ATOM     99  C   UNL A   1      47.110  31.996  27.660  1.00  0.00     0.198 A 
ATOM    100  C   UNL A   1      44.766  32.208  27.206  1.00  0.00     0.198 A 
ATOM    101  F   UNL A   1      43.200  31.013  28.491  1.00  0.00    -0.203 F 
ATOM    102  F   UNL A   1      48.382  32.296  27.360  1.00  0.00    -0.200 F 
ATOM    103  C   UNL A   1      46.079  32.538  26.911  1.00  0.00     0.200 A 
ATOM    104  F   UNL A   1      43.770  32.689  26.448  1.00  0.00    -0.200 F 
ATOM    105  F   UNL A   1      46.353  33.350  25.880  1.00  0.00    -0.200 F 
ENDBRANCH  72  95
ENDBRANCH  46  47
ENDBRANCH  38  41
ENDBRANCH  36  37
ENDBRANCH  35  36
ENDBRANCH   1  35
TORSDOF 16
ENDMDL
MODEL 2
REMARK VINA RESULT:     -14.4      1.930      3.188
REMARK SMILES C[C@H]1CC[C@H]([NH2+]Cc2c(C(=O)NCCCCNC(=O)c3ccc(-c4c5nc(c(-c6c(F)c(F)c(F)c(F)c6F)c6ccc([nH]6)c(-c6c(F)c(F)c(F)c(F)c6F)c6nc(c(-c7c(F)c(F)c(F)c(F)c7F)c7ccc4[nH]7)C=C6)C=C5)cc3)n(Cc3ccccc3F)c3ccccc23)CC1
REMARK SMILES IDX 14 1 13 2 12 3 10 4 11 5 9 7 8 8 97 9 83 10 92 11 96 12
REMARK SMILES IDX 93 13 95 14 94 15 7 16 6 17 5 20 1 21 2 22 3 23 99 24 4 25
REMARK SMILES IDX 98 26 84 27 85 28 86 29 90 30 87 31 89 32 91 33 88 34 15 35
REMARK SMILES IDX 16 36 17 37 18 38 19 40 20 41 21 42 82 43 22 44 81 45 23 46
REMARK SMILES IDX 24 47 25 48 75 49 26 50 80 51 74 52 76 53 27 54 79 55 73 56
REMARK SMILES IDX 72 57 28 59 60 60 40 61 59 62 41 63 44 64 58 65 77 66 42 67
REMARK SMILES IDX 43 68 57 70 78 71 45 72 29 73 30 74 38 75 31 76 32 77 36 78
REMARK SMILES IDX 39 79 33 80 34 81 37 82 35 83 61 84 62 85 70 86 63 87 64 88
REMARK SMILES IDX 68 89 71 90 65 91 66 92 69 93 67 94 46 95 47 96 55 97 48 98
REMARK SMILES IDX 49 99 53 100 56 101 50 102 51 103 54 104 52 105
REMARK H PARENT 12 6 6 18 6 19 17 39 76 58 44 69
REMARK Flexibility Score: inf
ROOT
ATOM      1  C   UNL A   1      34.773  30.131  27.373  1.00  0.00     0.023 C 
ENDROOT
BRANCH   1   2
ATOM      2  C   UNL A   1      34.076  28.796  27.142  1.00  0.00     0.116 C 
BRANCH   2   3
ATOM      3  N   UNL A   1      32.728  28.638  27.621  1.00  0.00    -0.351 N 
ATOM      4  C   UNL A   1      31.729  27.842  27.114  1.00  0.00     0.268 C 
ATOM      5  O   UNL A   1      30.705  27.810  27.835  1.00  0.00    -0.268 OA
ATOM      6  H   UNL A   1      32.491  29.169  28.414  1.00  0.00     0.163 HD
BRANCH   4   7
ATOM      7  C   UNL A   1      31.785  27.139  25.825  1.00  0.00     0.117 A 
ATOM      8  C   UNL A   1      31.568  25.796  25.439  1.00  0.00     0.045 A 
ATOM      9  C   UNL A   1      32.219  25.647  24.171  1.00  0.00     0.009 A 
ATOM     10  N   UNL A   1      31.915  27.805  24.577  1.00  0.00    -0.331 N 
ATOM     11  C   UNL A   1      32.168  26.888  23.564  1.00  0.00     0.049 A 
ATOM     12  C   UNL A   1      32.668  24.533  23.429  1.00  0.00     0.011 A 
ATOM     13  C   UNL A   1      32.339  27.013  22.174  1.00  0.00     0.027 A 
ATOM     14  C   UNL A   1      33.020  24.691  22.088  1.00  0.00     0.001 A 
ATOM     15  C   UNL A   1      32.810  25.908  21.458  1.00  0.00     0.002 A 
BRANCH   8  16
ATOM     16  C   UNL A   1      30.868  24.598  26.017  1.00  0.00     0.300 C 
BRANCH  16  17
ATOM     17  N   UNL A   1      31.459  23.952  27.176  1.00  0.00    -0.340 N 
ATOM     18  H   UNL A   1      32.001  24.674  27.650  1.00  0.00     0.346 HD
ATOM     19  H   UNL A   1      30.633  23.546  27.615  1.00  0.00     0.346 HD
BRANCH  17  20
ATOM     20  C   UNL A   1      32.337  22.783  27.099  1.00  0.00     0.182 C 
ATOM     21  C   UNL A   1      35.056  20.114  24.836  1.00  0.00     0.007 C 
ATOM     22  C   UNL A   1      34.191  21.273  25.309  1.00  0.00    -0.014 C 
ATOM     23  C   UNL A   1      34.649  21.802  26.671  1.00  0.00     0.009 C 
ATOM     24  C   UNL A   1      32.722  20.866  25.401  1.00  0.00     0.009 C 
ATOM     25  C   UNL A   1      33.842  23.042  27.044  1.00  0.00     0.065 C 
ATOM     26  C   UNL A   1      31.869  22.055  25.817  1.00  0.00     0.065 C 
ENDBRANCH  17  20
ENDBRANCH  16  17
ENDBRANCH   8  16
BRANCH  10  27
ATOM     27  C   UNL A   1      31.696  29.238  24.302  1.00  0.00     0.161 C 
BRANCH  27  28
ATOM     28  C   UNL A   1      30.302  29.596  23.840  1.00  0.00     0.008 A 
ATOM     29  C   UNL A   1      29.483  28.698  23.135  1.00  0.00     0.008 A 
ATOM     30  C   UNL A   1      29.737  30.828  24.181  1.00  0.00     0.128 A 
ATOM     31  C   UNL A   1      28.182  29.030  22.749  1.00  0.00     0.001 A 
ATOM     32  C   UNL A   1      28.442  31.176  23.791  1.00  0.00     0.039 A 
ATOM     33  F   UNL A   1      30.417  31.695  24.942  1.00  0.00    -0.207 F 
ATOM     34  C   UNL A   1      27.664  30.278  23.065  1.00  0.00     0.003 A 
ENDBRANCH  27  28
ENDBRANCH  10  27
ENDBRANCH   4   7
ENDBRANCH   2   3
ENDBRANCH   1   2
BRANCH   1  35
ATOM     35  C   UNL A   1      33.862  31.348  27.622  1.00  0.00     0.023 C 
BRANCH  35  36
ATOM     36  C   UNL A   1      34.357  32.444  28.581  1.00  0.00     0.116 C 
BRANCH  36  37
ATOM     37  N   UNL A   1      34.404  32.142  30.000  1.00  0.00    -0.352 N 
ATOM     38  C   UNL A   1      35.472  31.865  30.814  1.00  0.00     0.251 C 
ATOM     39  H   UNL A   1      33.529  32.135  30.451  1.00  0.00     0.163 HD
ATOM     40  O   UNL A   1      35.411  32.216  32.003  1.00  0.00    -0.269 OA
BRANCH  38  41
ATOM     41  C   UNL A   1      36.584  30.992  30.379  1.00  0.00     0.039 A 
ATOM     42  C   UNL A   1      36.567  29.606  30.501  1.00  0.00     0.014 A 
ATOM     43  C   UNL A   1      37.770  31.635  29.983  1.00  0.00     0.014 A 
ATOM     44  C   UNL A   1      37.751  28.899  30.459  1.00  0.00     0.010 A 
ATOM     45  C   UNL A   1      38.954  30.921  29.880  1.00  0.00     0.010 A 
ATOM     46  C   UNL A   1      38.948  29.567  30.202  1.00  0.00    -0.014 A 
BRANCH  46  47
ATOM     47  C   UNL A   1      40.149  28.749  30.202  1.00  0.00     0.031 A 
ATOM     48  C   UNL A   1      40.797  28.607  31.536  1.00  0.00     0.074 A 
ATOM     49  C   UNL A   1      40.619  28.137  29.099  1.00  0.00     0.049 A 
ATOM     50  N   UNL A   1      42.006  28.911  31.883  1.00  0.00    -0.248 NA
ATOM     51  C   UNL A   1      39.939  28.180  32.653  1.00  0.00     0.031 C 
ATOM     52  C   UNL A   1      39.965  27.988  27.799  1.00  0.00     0.029 A 
ATOM     53  N   UNL A   1      41.769  27.424  28.953  1.00  0.00    -0.354 N 
ATOM     54  C   UNL A   1      42.110  28.577  33.232  1.00  0.00     0.074 A 
ATOM     55  C   UNL A   1      40.783  28.251  33.681  1.00  0.00     0.031 C 
ATOM     56  C   UNL A   1      40.615  27.042  27.085  1.00  0.00     0.029 A 
ATOM     57  C   UNL A   1      41.792  26.619  27.825  1.00  0.00     0.049 A 
ATOM     58  H   UNL A   1      42.516  27.475  29.591  1.00  0.00     0.167 HD
ATOM     59  C   UNL A   1      43.315  28.407  33.839  1.00  0.00     0.037 A 
ATOM     60  C   UNL A   1      42.666  25.614  27.578  1.00  0.00     0.037 A 
ATOM     61  C   UNL A   1      44.362  29.096  33.135  1.00  0.00     0.049 A 
ATOM     62  C   UNL A   1      43.860  25.837  28.433  1.00  0.00     0.074 A 
ATOM     63  C   UNL A   1      44.621  30.422  32.848  1.00  0.00     0.029 A 
ATOM     64  N   UNL A   1      45.193  28.372  32.320  1.00  0.00    -0.354 N 
ATOM     65  N   UNL A   1      44.702  26.821  28.275  1.00  0.00    -0.248 NA
ATOM     66  C   UNL A   1      43.885  25.199  29.741  1.00  0.00     0.031 C 
ATOM     67  C   UNL A   1      45.224  30.412  31.558  1.00  0.00     0.029 A 
ATOM     68  C   UNL A   1      45.332  29.080  31.155  1.00  0.00     0.049 A 
ATOM     69  H   UNL A   1      45.612  27.505  32.530  1.00  0.00     0.167 HD
ATOM     70  C   UNL A   1      45.059  27.192  29.563  1.00  0.00     0.074 A 
ATOM     71  C   UNL A   1      44.604  26.099  30.416  1.00  0.00     0.031 C 
ATOM     72  C   UNL A   1      45.436  28.471  29.849  1.00  0.00     0.037 A 
BRANCH  59  73
ATOM     73  C   UNL A   1      43.590  27.350  34.879  1.00  0.00     0.064 A 
ATOM     74  C   UNL A   1      43.957  27.740  36.183  1.00  0.00     0.173 A 
ATOM     75  C   UNL A   1      43.799  25.987  34.572  1.00  0.00     0.173 A 
ATOM     76  F   UNL A   1      43.823  29.014  36.581  1.00  0.00    -0.203 F 
ATOM     77  C   UNL A   1      44.560  26.851  37.078  1.00  0.00     0.198 A 
ATOM     78  C   UNL A   1      44.349  25.091  35.486  1.00  0.00     0.198 A 
ATOM     79  F   UNL A   1      43.588  25.490  33.349  1.00  0.00    -0.203 F 
ATOM     80  F   UNL A   1      45.008  27.298  38.259  1.00  0.00    -0.200 F 
ATOM     81  C   UNL A   1      44.761  25.529  36.726  1.00  0.00     0.200 A 
ATOM     82  F   UNL A   1      44.553  23.818  35.118  1.00  0.00    -0.200 F 
ATOM     83  F   UNL A   1      45.394  24.691  37.558  1.00  0.00    -0.200 F 
ENDBRANCH  59  73
BRANCH  60  84
ATOM     84  C   UNL A   1      42.383  24.320  26.911  1.00  0.00     0.064 A 
ATOM     85  C   UNL A   1      43.198  23.848  25.870  1.00  0.00     0.173 A 
ATOM     86  C   UNL A   1      41.464  23.396  27.451  1.00  0.00     0.173 A 
ATOM     87  F   UNL A   1      44.135  24.642  25.334  1.00  0.00    -0.203 F 
ATOM     88  C   UNL A   1      43.109  22.529  25.409  1.00  0.00     0.198 A 
ATOM     89  C   UNL A   1      41.367  22.086  26.982  1.00  0.00     0.198 A 
ATOM     90  F   UNL A   1      40.705  23.712  28.509  1.00  0.00    -0.203 F 
ATOM     91  F   UNL A   1      43.947  22.096  24.456  1.00  0.00    -0.200 F 
ATOM     92  C   UNL A   1      42.199  21.649  25.969  1.00  0.00     0.200 A 
ATOM     93  F   UNL A   1      40.507  21.236  27.559  1.00  0.00    -0.200 F 
ATOM     94  F   UNL A   1      42.151  20.371  25.566  1.00  0.00    -0.200 F 
ENDBRANCH  60  84
BRANCH  72  95
ATOM     95  C   UNL A   1      45.713  29.405  28.706  1.00  0.00     0.064 A 
ATOM     96  C   UNL A   1      44.720  30.171  28.072  1.00  0.00     0.173 A 
ATOM     97  C   UNL A   1      47.049  29.682  28.383  1.00  0.00     0.173 A 
ATOM     98  F   UNL A   1      43.429  30.034  28.399  1.00  0.00    -0.203 F 
ATOM     99  C   UNL A   1      45.051  31.154  27.141  1.00  0.00     0.198 A 
ATOM    100  C   UNL A   1      47.378  30.690  27.481  1.00  0.00     0.198 A 
ATOM    101  F   UNL A   1      48.040  29.021  29.000  1.00  0.00    -0.203 F 
ATOM    102  F   UNL A   1      44.086  31.877  26.555  1.00  0.00    -0.200 F 
ATOM    103  C   UNL A   1      46.380  31.421  26.857  1.00  0.00     0.200 A 
ATOM    104  F   UNL A   1      48.666  30.982  27.249  1.00  0.00    -0.200 F 
ATOM    105  F   UNL A   1      46.701  32.408  26.009  1.00  0.00    -0.200 F 
ENDBRANCH  72  95
ENDBRANCH  46  47
ENDBRANCH  38  41
ENDBRANCH  36  37
ENDBRANCH  35  36
ENDBRANCH   1  35
TORSDOF 16
ENDMDL
MODEL 3
REMARK VINA RESULT:     -14.2      3.168      8.963
REMARK SMILES C[C@H]1CC[C@H]([NH2+]Cc2c(C(=O)NCCCCNC(=O)c3ccc(-c4c5nc(c(-c6c(F)c(F)c(F)c(F)c6F)c6ccc([nH]6)c(-c6c(F)c(F)c(F)c(F)c6F)c6nc(c(-c7c(F)c(F)c(F)c(F)c7F)c7ccc4[nH]7)C=C6)C=C5)cc3)n(Cc3ccccc3F)c3ccccc23)CC1
REMARK SMILES IDX 14 1 13 2 12 3 10 4 11 5 9 7 8 8 97 9 83 10 92 11 96 12
REMARK SMILES IDX 93 13 95 14 94 15 7 16 6 17 5 20 1 21 2 22 3 23 99 24 4 25
REMARK SMILES IDX 98 26 84 27 85 28 86 29 90 30 87 31 89 32 91 33 88 34 15 35
REMARK SMILES IDX 16 36 17 37 18 38 19 40 20 41 21 42 82 43 22 44 81 45 23 46
REMARK SMILES IDX 24 47 25 48 75 49 26 50 80 51 74 52 76 53 27 54 79 55 73 56
REMARK SMILES IDX 72 57 28 59 60 60 40 61 59 62 41 63 44 64 58 65 77 66 42 67
REMARK SMILES IDX 43 68 57 70 78 71 45 72 29 73 30 74 38 75 31 76 32 77 36 78
REMARK SMILES IDX 39 79 33 80 34 81 37 82 35 83 61 84 62 85 70 86 63 87 64 88
REMARK SMILES IDX 68 89 71 90 65 91 66 92 69 93 67 94 46 95 47 96 55 97 48 98
REMARK SMILES IDX 49 99 53 100 56 101 50 102 51 103 54 104 52 105
REMARK H PARENT 12 6 6 18 6 19 17 39 76 58 44 69
REMARK Flexibility Score: inf
ROOT
ATOM      1  C   UNL A   1      38.382  23.158  26.404  1.00  0.00     0.023 C 
ENDROOT
BRANCH   1   2
ATOM      2  C   UNL A   1      37.162  23.618  25.614  1.00  0.00     0.116 C 
BRANCH   2   3
ATOM      3  N   UNL A   1      37.040  23.201  24.242  1.00  0.00    -0.351 N 
ATOM      4  C   UNL A   1      35.900  23.087  23.482  1.00  0.00     0.268 C 
ATOM      5  O   UNL A   1      36.131  22.837  22.277  1.00  0.00    -0.268 OA
ATOM      6  H   UNL A   1      37.881  22.967  23.790  1.00  0.00     0.163 HD
BRANCH   4   7
ATOM      7  C   UNL A   1      34.529  23.171  24.003  1.00  0.00     0.117 A 
ATOM      8  C   UNL A   1      33.386  23.909  23.618  1.00  0.00     0.045 A 
ATOM      9  C   UNL A   1      32.527  23.921  24.765  1.00  0.00     0.009 A 
ATOM     10  N   UNL A   1      34.014  22.293  24.994  1.00  0.00    -0.331 N 
ATOM     11  C   UNL A   1      32.783  22.748  25.450  1.00  0.00     0.049 A 
ATOM     12  C   UNL A   1      31.441  24.731  25.163  1.00  0.00     0.011 A 
ATOM     13  C   UNL A   1      31.855  22.243  26.378  1.00  0.00     0.027 A 
ATOM     14  C   UNL A   1      30.622  24.321  26.216  1.00  0.00     0.001 A 
ATOM     15  C   UNL A   1      30.800  23.067  26.782  1.00  0.00     0.002 A 
BRANCH   8  16
ATOM     16  C   UNL A   1      32.917  24.620  22.379  1.00  0.00     0.300 C 
BRANCH  16  17
ATOM     17  N   UNL A   1      33.644  25.801  21.950  1.00  0.00    -0.340 N 
ATOM     18  H   UNL A   1      34.620  25.627  22.188  1.00  0.00     0.346 HD
ATOM     19  H   UNL A   1      33.348  25.869  20.977  1.00  0.00     0.346 HD
BRANCH  17  20
ATOM     20  C   UNL A   1      33.355  27.155  22.426  1.00  0.00     0.182 C 
ATOM     21  C   UNL A   1      31.233  29.944  25.138  1.00  0.00     0.007 C 
ATOM     22  C   UNL A   1      31.847  28.720  24.474  1.00  0.00    -0.014 C 
ATOM     23  C   UNL A   1      33.363  28.863  24.317  1.00  0.00     0.009 C 
ATOM     24  C   UNL A   1      31.225  28.463  23.103  1.00  0.00     0.009 C 
ATOM     25  C   UNL A   1      33.953  27.565  23.771  1.00  0.00     0.065 C 
ATOM     26  C   UNL A   1      31.810  27.201  22.486  1.00  0.00     0.065 C 
ENDBRANCH  17  20
ENDBRANCH  16  17
ENDBRANCH   8  16
BRANCH  10  27
ATOM     27  C   UNL A   1      34.586  21.004  25.428  1.00  0.00     0.161 C 
BRANCH  27  28
ATOM     28  C   UNL A   1      34.074  19.792  24.682  1.00  0.00     0.008 A 
ATOM     29  C   UNL A   1      32.823  19.768  24.043  1.00  0.00     0.008 A 
ATOM     30  C   UNL A   1      34.883  18.663  24.525  1.00  0.00     0.128 A 
ATOM     31  C   UNL A   1      32.381  18.655  23.324  1.00  0.00     0.001 A 
ATOM     32  C   UNL A   1      34.448  17.540  23.819  1.00  0.00     0.039 A 
ATOM     33  F   UNL A   1      36.129  18.652  25.016  1.00  0.00    -0.207 F 
ATOM     34  C   UNL A   1      33.190  17.531  23.223  1.00  0.00     0.003 A 
ENDBRANCH  27  28
ENDBRANCH  10  27
ENDBRANCH   4   7
ENDBRANCH   2   3
ENDBRANCH   1   2
BRANCH   1  35
ATOM     35  C   UNL A   1      38.990  21.801  25.999  1.00  0.00     0.023 C 
BRANCH  35  36
ATOM     36  C   UNL A   1      40.480  21.556  26.292  1.00  0.00     0.116 C 
BRANCH  36  37
ATOM     37  N   UNL A   1      41.462  22.245  25.473  1.00  0.00    -0.352 N 
ATOM     38  C   UNL A   1      42.258  23.324  25.762  1.00  0.00     0.251 C 
ATOM     39  H   UNL A   1      41.574  21.880  24.566  1.00  0.00     0.163 HD
ATOM     40  O   UNL A   1      43.377  23.387  25.227  1.00  0.00    -0.269 OA
BRANCH  38  41
ATOM     41  C   UNL A   1      41.752  24.494  26.510  1.00  0.00     0.039 A 
ATOM     42  C   UNL A   1      41.033  25.531  25.922  1.00  0.00     0.014 A 
ATOM     43  C   UNL A   1      42.179  24.620  27.844  1.00  0.00     0.014 A 
ATOM     44  C   UNL A   1      40.942  26.750  26.561  1.00  0.00     0.010 A 
ATOM     45  C   UNL A   1      42.038  25.826  28.514  1.00  0.00     0.010 A 
ATOM     46  C   UNL A   1      41.492  26.909  27.832  1.00  0.00    -0.014 A 
BRANCH  46  47
ATOM     47  C   UNL A   1      41.374  28.235  28.419  1.00  0.00     0.031 A 
ATOM     48  C   UNL A   1      42.453  29.182  28.021  1.00  0.00     0.074 A 
ATOM     49  C   UNL A   1      40.356  28.591  29.223  1.00  0.00     0.049 A 
ATOM     50  N   UNL A   1      43.278  29.829  28.779  1.00  0.00    -0.248 NA
ATOM     51  C   UNL A   1      42.715  29.328  26.581  1.00  0.00     0.031 C 
ATOM     52  C   UNL A   1      39.119  27.858  29.497  1.00  0.00     0.029 A 
ATOM     53  N   UNL A   1      40.181  29.761  29.897  1.00  0.00    -0.354 N 
ATOM     54  C   UNL A   1      44.075  30.582  27.918  1.00  0.00     0.074 A 
ATOM     55  C   UNL A   1      43.769  30.144  26.583  1.00  0.00     0.031 C 
ATOM     56  C   UNL A   1      38.232  28.694  30.081  1.00  0.00     0.029 A 
ATOM     57  C   UNL A   1      38.881  29.970  30.331  1.00  0.00     0.049 A 
ATOM     58  H   UNL A   1      40.910  30.400  30.060  1.00  0.00     0.167 HD
ATOM     59  C   UNL A   1      44.793  31.650  28.356  1.00  0.00     0.037 A 
ATOM     60  C   UNL A   1      38.365  31.143  30.771  1.00  0.00     0.037 A 
ATOM     61  C   UNL A   1      45.049  31.572  29.767  1.00  0.00     0.049 A 
ATOM     62  C   UNL A   1      39.501  32.008  31.180  1.00  0.00     0.074 A 
ATOM     63  C   UNL A   1      45.745  30.693  30.575  1.00  0.00     0.029 A 
ATOM     64  N   UNL A   1      44.284  32.329  30.618  1.00  0.00    -0.354 N 
ATOM     65  N   UNL A   1      40.265  31.776  32.211  1.00  0.00    -0.248 NA
ATOM     66  C   UNL A   1      40.054  32.915  30.186  1.00  0.00     0.031 C 
ATOM     67  C   UNL A   1      45.006  30.641  31.791  1.00  0.00     0.029 A 
ATOM     68  C   UNL A   1      43.930  31.521  31.666  1.00  0.00     0.049 A 
ATOM     69  H   UNL A   1      44.036  33.274  30.497  1.00  0.00     0.167 HD
ATOM     70  C   UNL A   1      41.533  32.163  31.806  1.00  0.00     0.074 A 
ATOM     71  C   UNL A   1      41.325  32.944  30.592  1.00  0.00     0.031 C 
ATOM     72  C   UNL A   1      42.650  31.582  32.333  1.00  0.00     0.037 A 
BRANCH  59  73
ATOM     73  C   UNL A   1      44.977  32.921  27.562  1.00  0.00     0.064 A 
ATOM     74  C   UNL A   1      46.197  33.152  26.897  1.00  0.00     0.173 A 
ATOM     75  C   UNL A   1      44.126  34.042  27.675  1.00  0.00     0.173 A 
ATOM     76  F   UNL A   1      47.094  32.165  26.747  1.00  0.00    -0.203 F 
ATOM     77  C   UNL A   1      46.568  34.424  26.452  1.00  0.00     0.198 A 
ATOM     78  C   UNL A   1      44.475  35.297  27.182  1.00  0.00     0.198 A 
ATOM     79  F   UNL A   1      42.978  34.002  28.361  1.00  0.00    -0.203 F 
ATOM     80  F   UNL A   1      47.790  34.620  25.941  1.00  0.00    -0.200 F 
ATOM     81  C   UNL A   1      45.708  35.497  26.602  1.00  0.00     0.200 A 
ATOM     82  F   UNL A   1      43.635  36.328  27.353  1.00  0.00    -0.200 F 
ATOM     83  F   UNL A   1      46.085  36.729  26.233  1.00  0.00    -0.200 F 
ENDBRANCH  59  73
BRANCH  60  84
ATOM     84  C   UNL A   1      36.996  31.665  30.539  1.00  0.00     0.064 A 
ATOM     85  C   UNL A   1      36.122  31.907  31.611  1.00  0.00     0.173 A 
ATOM     86  C   UNL A   1      36.605  32.186  29.287  1.00  0.00     0.173 A 
ATOM     87  F   UNL A   1      36.439  31.493  32.846  1.00  0.00    -0.203 F 
ATOM     88  C   UNL A   1      34.938  32.635  31.443  1.00  0.00     0.198 A 
ATOM     89  C   UNL A   1      35.420  32.900  29.119  1.00  0.00     0.198 A 
ATOM     90  F   UNL A   1      37.410  32.097  28.220  1.00  0.00    -0.203 F 
ATOM     91  F   UNL A   1      34.159  32.898  32.502  1.00  0.00    -0.200 F 
ATOM     92  C   UNL A   1      34.592  33.136  30.199  1.00  0.00     0.200 A 
ATOM     93  F   UNL A   1      35.117  33.410  27.917  1.00  0.00    -0.200 F 
ATOM     94  F   UNL A   1      33.487  33.880  30.049  1.00  0.00    -0.200 F 
ENDBRANCH  60  84
BRANCH  72  95
ATOM     95  C   UNL A   1      42.494  30.706  33.543  1.00  0.00     0.064 A 
ATOM     96  C   UNL A   1      42.466  31.199  34.858  1.00  0.00     0.173 A 
ATOM     97  C   UNL A   1      42.160  29.358  33.349  1.00  0.00     0.173 A 
ATOM     98  F   UNL A   1      42.677  32.495  35.115  1.00  0.00    -0.203 F 
ATOM     99  C   UNL A   1      42.139  30.372  35.932  1.00  0.00     0.198 A 
ATOM    100  C   UNL A   1      41.797  28.545  34.418  1.00  0.00     0.198 A 
ATOM    101  F   UNL A   1      42.115  28.849  32.108  1.00  0.00    -0.203 F 
ATOM    102  F   UNL A   1      42.111  30.867  37.177  1.00  0.00    -0.200 F 
ATOM    103  C   UNL A   1      41.792  29.049  35.709  1.00  0.00     0.200 A 
ATOM    104  F   UNL A   1      41.410  27.281  34.193  1.00  0.00    -0.200 F 
ATOM    105  F   UNL A   1      41.417  28.271  36.733  1.00  0.00    -0.200 F 
ENDBRANCH  72  95
ENDBRANCH  46  47
ENDBRANCH  38  41
ENDBRANCH  36  37
ENDBRANCH  35  36
ENDBRANCH   1  35
TORSDOF 16
ENDMDL
