MODEL 1
REMARK VINA RESULT:     -12.7      0.000      0.000
REMARK SMILES CC(C)Cc1noc([C@@H]2CC=CC[C@H]2C(=O)NCCCCNC(=O)c2ccc(-c3c4nc(c(-c5c(F)c(F)c(F)c(F)c5F)c5ccc([nH]5)c(-c5c(F)c(F)c(F)c(F)c5F)c5nc(c(-c6c(F)c(F)c(F)c(F)c6F)c6ccc3[nH]6)C=C5)C=C4)cc2)n1
REMARK SMILES IDX 19 1 18 2 17 3 15 4 16 5 14 7 9 8 10 9 11 10 13 11 12 12
REMARK SMILES IDX 8 13 5 14 6 15 88 16 7 17 4 18 2 19 1 20 3 21 20 22 21 23
REMARK SMILES IDX 22 24 23 25 24 27 25 28 26 29 87 30 27 31 86 32 28 33 29 34
REMARK SMILES IDX 30 35 80 36 31 37 85 38 79 39 81 40 32 41 84 42 78 43 77 44
REMARK SMILES IDX 33 46 65 47 45 48 64 49 46 50 49 51 63 52 82 53 47 54 48 55
REMARK SMILES IDX 62 57 83 58 50 59 34 60 35 61 43 62 36 63 37 64 41 65 44 66
REMARK SMILES IDX 38 67 39 68 42 69 40 70 66 71 67 72 75 73 68 74 69 75 73 76
REMARK SMILES IDX 76 77 70 78 71 79 74 80 72 81 51 82 52 83 60 84 53 85 54 86
REMARK SMILES IDX 58 87 61 88 55 89 56 90 59 91 57 92
REMARK H PARENT 17 6 22 26 81 45 49 56
REMARK Flexibility Score: inf
ROOT
ATOM      1  C   UNL A   1      31.485  30.821  26.035  1.00  0.00     0.023 C 
ENDROOT
BRANCH   1   2
ATOM      2  C   UNL A   1      32.821  30.177  26.394  1.00  0.00     0.116 C 
BRANCH   2   3
ATOM      3  N   UNL A   1      33.447  29.548  25.245  1.00  0.00    -0.356 N 
ATOM      4  C   UNL A   1      33.191  28.364  24.625  1.00  0.00     0.224 C 
ATOM      5  O   UNL A   1      33.862  28.087  23.629  1.00  0.00    -0.275 OA
ATOM      6  H   UNL A   1      34.182  30.067  24.845  1.00  0.00     0.163 HD
BRANCH   4   7
ATOM      7  C   UNL A   1      32.109  27.410  25.120  1.00  0.00     0.095 C 
ATOM      8  C   UNL A   1      31.204  26.930  23.966  1.00  0.00     0.095 C 
ATOM      9  C   UNL A   1      30.236  25.816  24.394  1.00  0.00     0.041 C 
ATOM     10  C   UNL A   1      30.861  24.791  25.290  1.00  0.00    -0.030 C 
ATOM     11  C   UNL A   1      32.727  26.306  25.993  1.00  0.00     0.041 C 
ATOM     12  C   UNL A   1      31.976  25.012  25.997  1.00  0.00    -0.030 C 
BRANCH   8  13
ATOM     13  C   UNL A   1      30.440  28.063  23.359  1.00  0.00     0.230 A 
ATOM     14  C   UNL A   1      29.265  29.714  22.861  1.00  0.00     0.172 A 
ATOM     15  N   UNL A   1      29.677  29.262  21.670  1.00  0.00    -0.062 NA
ATOM     16  N   UNL A   1      29.714  28.994  23.940  1.00  0.00    -0.196 NA
ATOM     17  O   UNL A   1      30.479  28.178  21.999  1.00  0.00    -0.339 OA
BRANCH  14  18
ATOM     18  C   UNL A   1      28.389  30.908  22.984  1.00  0.00     0.084 C 
BRANCH  18  19
ATOM     19  C   UNL A   1      28.861  32.117  22.152  1.00  0.00    -0.010 C 
ATOM     20  C   UNL A   1      27.965  32.390  20.939  1.00  0.00     0.008 C 
ATOM     21  C   UNL A   1      28.907  33.366  23.036  1.00  0.00     0.008 C 
ENDBRANCH  18  19
ENDBRANCH  14  18
ENDBRANCH   8  13
ENDBRANCH   4   7
ENDBRANCH   2   3
ENDBRANCH   1   2
BRANCH   1  22
ATOM     22  C   UNL A   1      31.319  32.261  26.518  1.00  0.00     0.023 C 
BRANCH  22  23
ATOM     23  C   UNL A   1      32.533  32.855  27.222  1.00  0.00     0.116 C 
BRANCH  23  24
ATOM     24  N   UNL A   1      32.322  34.224  27.667  1.00  0.00    -0.352 N 
ATOM     25  C   UNL A   1      32.992  34.940  28.626  1.00  0.00     0.251 C 
ATOM     26  H   UNL A   1      31.593  34.706  27.214  1.00  0.00     0.163 HD
ATOM     27  O   UNL A   1      32.587  36.053  28.955  1.00  0.00    -0.269 OA
BRANCH  25  28
ATOM     28  C   UNL A   1      34.181  34.365  29.290  1.00  0.00     0.039 A 
ATOM     29  C   UNL A   1      33.988  33.495  30.366  1.00  0.00     0.014 A 
ATOM     30  C   UNL A   1      35.474  34.675  28.861  1.00  0.00     0.014 A 
ATOM     31  C   UNL A   1      35.090  32.893  30.974  1.00  0.00     0.010 A 
ATOM     32  C   UNL A   1      36.566  34.011  29.414  1.00  0.00     0.010 A 
ATOM     33  C   UNL A   1      36.386  33.119  30.481  1.00  0.00    -0.014 A 
BRANCH  33  34
ATOM     34  C   UNL A   1      37.553  32.419  31.077  1.00  0.00     0.031 A 
ATOM     35  C   UNL A   1      38.045  32.787  32.450  1.00  0.00     0.074 A 
ATOM     36  C   UNL A   1      38.189  31.471  30.363  1.00  0.00     0.049 A 
ATOM     37  N   UNL A   1      39.035  32.274  33.138  1.00  0.00    -0.248 NA
ATOM     38  C   UNL A   1      37.354  33.892  33.130  1.00  0.00     0.031 C 
ATOM     39  C   UNL A   1      37.848  31.072  28.997  1.00  0.00     0.029 A 
ATOM     40  N   UNL A   1      39.255  30.669  30.687  1.00  0.00    -0.354 N 
ATOM     41  C   UNL A   1      39.086  32.996  34.324  1.00  0.00     0.074 A 
ATOM     42  C   UNL A   1      38.072  34.024  34.236  1.00  0.00     0.031 C 
ATOM     43  C   UNL A   1      38.662  30.076  28.613  1.00  0.00     0.029 A 
ATOM     44  C   UNL A   1      39.602  29.788  29.691  1.00  0.00     0.049 A 
ATOM     45  H   UNL A   1      39.724  30.718  31.551  1.00  0.00     0.167 HD
ATOM     46  C   UNL A   1      39.887  32.803  35.398  1.00  0.00     0.037 A 
ATOM     47  C   UNL A   1      40.568  28.851  29.655  1.00  0.00     0.037 A 
ATOM     48  C   UNL A   1      40.885  31.768  35.487  1.00  0.00     0.049 A 
ATOM     49  C   UNL A   1      41.437  28.649  30.867  1.00  0.00     0.074 A 
ATOM     50  C   UNL A   1      41.708  31.450  36.554  1.00  0.00     0.029 A 
ATOM     51  N   UNL A   1      41.201  30.884  34.464  1.00  0.00    -0.354 N 
ATOM     52  N   UNL A   1      41.419  29.281  32.015  1.00  0.00    -0.248 NA
ATOM     53  C   UNL A   1      42.452  27.591  30.781  1.00  0.00     0.031 C 
ATOM     54  C   UNL A   1      42.557  30.411  36.158  1.00  0.00     0.029 A 
ATOM     55  C   UNL A   1      42.222  30.038  34.867  1.00  0.00     0.049 A 
ATOM     56  H   UNL A   1      40.763  30.863  33.583  1.00  0.00     0.167 HD
ATOM     57  C   UNL A   1      42.397  28.682  32.797  1.00  0.00     0.074 A 
ATOM     58  C   UNL A   1      42.973  27.620  31.999  1.00  0.00     0.031 C 
ATOM     59  C   UNL A   1      42.786  28.985  34.060  1.00  0.00     0.037 A 
BRANCH  46  60
ATOM     60  C   UNL A   1      39.715  33.728  36.569  1.00  0.00     0.064 A 
ATOM     61  C   UNL A   1      40.349  34.980  36.618  1.00  0.00     0.173 A 
ATOM     62  C   UNL A   1      38.879  33.377  37.640  1.00  0.00     0.173 A 
ATOM     63  F   UNL A   1      41.168  35.362  35.627  1.00  0.00    -0.203 F 
ATOM     64  C   UNL A   1      40.177  35.829  37.709  1.00  0.00     0.198 A 
ATOM     65  C   UNL A   1      38.684  34.243  38.712  1.00  0.00     0.198 A 
ATOM     66  F   UNL A   1      38.244  32.195  37.642  1.00  0.00    -0.203 F 
ATOM     67  F   UNL A   1      40.836  36.996  37.758  1.00  0.00    -0.200 F 
ATOM     68  C   UNL A   1      39.339  35.464  38.751  1.00  0.00     0.200 A 
ATOM     69  F   UNL A   1      37.861  33.894  39.713  1.00  0.00    -0.200 F 
ATOM     70  F   UNL A   1      39.168  36.286  39.796  1.00  0.00    -0.200 F 
ENDBRANCH  46  60
BRANCH  47  71
ATOM     71  C   UNL A   1      40.740  28.007  28.444  1.00  0.00     0.064 A 
ATOM     72  C   UNL A   1      41.539  28.435  27.374  1.00  0.00     0.173 A 
ATOM     73  C   UNL A   1      40.106  26.762  28.325  1.00  0.00     0.173 A 
ATOM     74  F   UNL A   1      42.152  29.627  27.431  1.00  0.00    -0.203 F 
ATOM     75  C   UNL A   1      41.676  27.663  26.222  1.00  0.00     0.198 A 
ATOM     76  C   UNL A   1      40.268  25.977  27.186  1.00  0.00     0.198 A 
ATOM     77  F   UNL A   1      39.335  26.303  29.322  1.00  0.00    -0.203 F 
ATOM     78  F   UNL A   1      42.404  28.121  25.194  1.00  0.00    -0.200 F 
ATOM     79  C   UNL A   1      41.045  26.432  26.131  1.00  0.00     0.200 A 
ATOM     80  F   UNL A   1      39.671  24.780  27.109  1.00  0.00    -0.200 F 
ATOM     81  F   UNL A   1      41.180  25.688  25.026  1.00  0.00    -0.200 F 
ENDBRANCH  47  71
BRANCH  59  82
ATOM     82  C   UNL A   1      43.864  28.130  34.666  1.00  0.00     0.064 A 
ATOM     83  C   UNL A   1      43.569  26.934  35.337  1.00  0.00     0.173 A 
ATOM     84  C   UNL A   1      45.212  28.511  34.566  1.00  0.00     0.173 A 
ATOM     85  F   UNL A   1      42.296  26.531  35.472  1.00  0.00    -0.203 F 
ATOM     86  C   UNL A   1      44.577  26.173  35.923  1.00  0.00     0.198 A 
ATOM     87  C   UNL A   1      46.221  27.728  35.121  1.00  0.00     0.198 A 
ATOM     88  F   UNL A   1      45.550  29.640  33.927  1.00  0.00    -0.203 F 
ATOM     89  F   UNL A   1      44.264  25.070  36.617  1.00  0.00    -0.200 F 
ATOM     90  C   UNL A   1      45.902  26.568  35.810  1.00  0.00     0.200 A 
ATOM     91  F   UNL A   1      47.501  28.104  34.997  1.00  0.00    -0.200 F 
ATOM     92  F   UNL A   1      46.871  25.836  36.375  1.00  0.00    -0.200 F 
ENDBRANCH  59  82
ENDBRANCH  33  34
ENDBRANCH  25  28
ENDBRANCH  23  24
ENDBRANCH  22  23
ENDBRANCH   1  22
TORSDOF 14
ENDMDL
MODEL 2
REMARK VINA RESULT:     -12.7      0.084      1.604
REMARK SMILES CC(C)Cc1noc([C@@H]2CC=CC[C@H]2C(=O)NCCCCNC(=O)c2ccc(-c3c4nc(c(-c5c(F)c(F)c(F)c(F)c5F)c5ccc([nH]5)c(-c5c(F)c(F)c(F)c(F)c5F)c5nc(c(-c6c(F)c(F)c(F)c(F)c6F)c6ccc3[nH]6)C=C5)C=C4)cc2)n1
REMARK SMILES IDX 19 1 18 2 17 3 15 4 16 5 14 7 9 8 10 9 11 10 13 11 12 12
REMARK SMILES IDX 8 13 5 14 6 15 88 16 7 17 4 18 2 19 1 20 3 21 20 22 21 23
REMARK SMILES IDX 22 24 23 25 24 27 25 28 26 29 87 30 27 31 86 32 28 33 29 34
REMARK SMILES IDX 30 35 80 36 31 37 85 38 79 39 81 40 32 41 84 42 78 43 77 44
REMARK SMILES IDX 33 46 65 47 45 48 64 49 46 50 49 51 63 52 82 53 47 54 48 55
REMARK SMILES IDX 62 57 83 58 50 59 34 60 35 61 43 62 36 63 37 64 41 65 44 66
REMARK SMILES IDX 38 67 39 68 42 69 40 70 66 71 67 72 75 73 68 74 69 75 73 76
REMARK SMILES IDX 76 77 70 78 71 79 74 80 72 81 51 82 52 83 60 84 53 85 54 86
REMARK SMILES IDX 58 87 61 88 55 89 56 90 59 91 57 92
REMARK H PARENT 17 6 22 26 81 45 49 56
REMARK Flexibility Score: inf
ROOT
ATOM      1  C   UNL A   1      31.525  30.841  25.893  1.00  0.00     0.023 C 
ENDROOT
BRANCH   1   2
ATOM      2  C   UNL A   1      32.807  30.137  26.325  1.00  0.00     0.116 C 
BRANCH   2   3
ATOM      3  N   UNL A   1      33.443  29.441  25.220  1.00  0.00    -0.356 N 
ATOM      4  C   UNL A   1      33.166  28.239  24.644  1.00  0.00     0.224 C 
ATOM      5  O   UNL A   1      33.853  27.900  23.679  1.00  0.00    -0.275 OA
ATOM      6  H   UNL A   1      34.203  29.920  24.819  1.00  0.00     0.163 HD
BRANCH   4   7
ATOM      7  C   UNL A   1      32.042  27.341  25.149  1.00  0.00     0.095 C 
ATOM      8  C   UNL A   1      31.116  26.890  24.000  1.00  0.00     0.095 C 
ATOM      9  C   UNL A   1      30.099  25.825  24.439  1.00  0.00     0.041 C 
ATOM     10  C   UNL A   1      30.677  24.783  25.346  1.00  0.00    -0.030 C 
ATOM     11  C   UNL A   1      32.610  26.219  26.033  1.00  0.00     0.041 C 
ATOM     12  C   UNL A   1      31.801  24.960  26.050  1.00  0.00    -0.030 C 
BRANCH   8  13
ATOM     13  C   UNL A   1      30.404  28.050  23.380  1.00  0.00     0.230 A 
ATOM     14  C   UNL A   1      29.269  29.722  22.857  1.00  0.00     0.172 A 
ATOM     15  N   UNL A   1      29.790  29.328  21.689  1.00  0.00    -0.062 NA
ATOM     16  N   UNL A   1      29.622  28.950  23.937  1.00  0.00    -0.196 NA
ATOM     17  O   UNL A   1      30.566  28.231  22.037  1.00  0.00    -0.339 OA
BRANCH  14  18
ATOM     18  C   UNL A   1      28.378  30.906  22.957  1.00  0.00     0.084 C 
BRANCH  18  19
ATOM     19  C   UNL A   1      28.863  32.122  22.144  1.00  0.00    -0.010 C 
ATOM     20  C   UNL A   1      27.974  32.421  20.931  1.00  0.00     0.008 C 
ATOM     21  C   UNL A   1      28.917  33.358  23.046  1.00  0.00     0.008 C 
ENDBRANCH  18  19
ENDBRANCH  14  18
ENDBRANCH   8  13
ENDBRANCH   4   7
ENDBRANCH   2   3
ENDBRANCH   1   2
BRANCH   1  22
ATOM     22  C   UNL A   1      31.304  32.213  26.530  1.00  0.00     0.023 C 
BRANCH  22  23
ATOM     23  C   UNL A   1      32.530  32.827  27.194  1.00  0.00     0.116 C 
BRANCH  23  24
ATOM     24  N   UNL A   1      32.310  34.192  27.648  1.00  0.00    -0.352 N 
ATOM     25  C   UNL A   1      32.979  34.908  28.607  1.00  0.00     0.251 C 
ATOM     26  H   UNL A   1      31.574  34.670  27.203  1.00  0.00     0.163 HD
ATOM     27  O   UNL A   1      32.566  36.015  28.945  1.00  0.00    -0.269 OA
BRANCH  25  28
ATOM     28  C   UNL A   1      34.177  34.339  29.260  1.00  0.00     0.039 A 
ATOM     29  C   UNL A   1      34.003  33.538  30.391  1.00  0.00     0.014 A 
ATOM     30  C   UNL A   1      35.461  34.588  28.767  1.00  0.00     0.014 A 
ATOM     31  C   UNL A   1      35.112  32.941  30.993  1.00  0.00     0.010 A 
ATOM     32  C   UNL A   1      36.556  33.927  29.318  1.00  0.00     0.010 A 
ATOM     33  C   UNL A   1      36.393  33.103  30.441  1.00  0.00    -0.014 A 
BRANCH  33  34
ATOM     34  C   UNL A   1      37.563  32.407  31.035  1.00  0.00     0.031 A 
ATOM     35  C   UNL A   1      38.055  32.772  32.408  1.00  0.00     0.074 A 
ATOM     36  C   UNL A   1      38.204  31.464  30.317  1.00  0.00     0.049 A 
ATOM     37  N   UNL A   1      39.048  32.262  33.093  1.00  0.00    -0.248 NA
ATOM     38  C   UNL A   1      37.359  33.872  33.092  1.00  0.00     0.031 C 
ATOM     39  C   UNL A   1      37.864  31.068  28.949  1.00  0.00     0.029 A 
ATOM     40  N   UNL A   1      39.273  30.666  30.637  1.00  0.00    -0.354 N 
ATOM     41  C   UNL A   1      39.096  32.980  34.282  1.00  0.00     0.074 A 
ATOM     42  C   UNL A   1      38.077  34.004  34.197  1.00  0.00     0.031 C 
ATOM     43  C   UNL A   1      38.682  30.076  28.562  1.00  0.00     0.029 A 
ATOM     44  C   UNL A   1      39.624  29.790  29.639  1.00  0.00     0.049 A 
ATOM     45  H   UNL A   1      39.743  30.714  31.501  1.00  0.00     0.167 HD
ATOM     46  C   UNL A   1      39.899  32.787  35.355  1.00  0.00     0.037 A 
ATOM     47  C   UNL A   1      40.594  28.857  29.600  1.00  0.00     0.037 A 
ATOM     48  C   UNL A   1      40.902  31.757  35.440  1.00  0.00     0.049 A 
ATOM     49  C   UNL A   1      41.465  28.655  30.810  1.00  0.00     0.074 A 
ATOM     50  C   UNL A   1      41.727  31.439  36.506  1.00  0.00     0.029 A 
ATOM     51  N   UNL A   1      41.220  30.878  34.414  1.00  0.00    -0.354 N 
ATOM     52  N   UNL A   1      41.445  29.283  31.960  1.00  0.00    -0.248 NA
ATOM     53  C   UNL A   1      42.485  27.602  30.720  1.00  0.00     0.031 C 
ATOM     54  C   UNL A   1      42.580  30.405  36.106  1.00  0.00     0.029 A 
ATOM     55  C   UNL A   1      42.246  30.035  34.814  1.00  0.00     0.049 A 
ATOM     56  H   UNL A   1      40.783  30.857  33.533  1.00  0.00     0.167 HD
ATOM     57  C   UNL A   1      42.426  28.687  32.740  1.00  0.00     0.074 A 
ATOM     58  C   UNL A   1      43.006  27.629  31.938  1.00  0.00     0.031 C 
ATOM     59  C   UNL A   1      42.814  28.987  34.003  1.00  0.00     0.037 A 
BRANCH  46  60
ATOM     60  C   UNL A   1      39.723  33.708  36.529  1.00  0.00     0.064 A 
ATOM     61  C   UNL A   1      40.363  34.956  36.589  1.00  0.00     0.173 A 
ATOM     62  C   UNL A   1      38.877  33.356  37.592  1.00  0.00     0.173 A 
ATOM     63  F   UNL A   1      41.192  35.338  35.605  1.00  0.00    -0.203 F 
ATOM     64  C   UNL A   1      40.188  35.801  37.682  1.00  0.00     0.198 A 
ATOM     65  C   UNL A   1      38.679  34.218  38.667  1.00  0.00     0.198 A 
ATOM     66  F   UNL A   1      38.235  32.178  37.584  1.00  0.00    -0.203 F 
ATOM     67  F   UNL A   1      40.853  36.964  37.742  1.00  0.00    -0.200 F 
ATOM     68  C   UNL A   1      39.341  35.435  38.717  1.00  0.00     0.200 A 
ATOM     69  F   UNL A   1      37.847  33.869  39.660  1.00  0.00    -0.200 F 
ATOM     70  F   UNL A   1      39.166  36.254  39.764  1.00  0.00    -0.200 F 
ENDBRANCH  46  60
BRANCH  47  71
ATOM     71  C   UNL A   1      40.769  28.018  28.385  1.00  0.00     0.064 A 
ATOM     72  C   UNL A   1      40.145  26.766  28.275  1.00  0.00     0.173 A 
ATOM     73  C   UNL A   1      41.567  28.443  27.313  1.00  0.00     0.173 A 
ATOM     74  F   UNL A   1      39.387  26.307  29.282  1.00  0.00    -0.203 F 
ATOM     75  C   UNL A   1      40.334  25.963  27.153  1.00  0.00     0.198 A 
ATOM     76  C   UNL A   1      41.730  27.652  26.177  1.00  0.00     0.198 A 
ATOM     77  F   UNL A   1      42.180  29.636  27.363  1.00  0.00    -0.203 F 
ATOM     78  F   UNL A   1      39.768  24.749  27.099  1.00  0.00    -0.200 F 
ATOM     79  C   UNL A   1      41.121  26.409  26.102  1.00  0.00     0.200 A 
ATOM     80  F   UNL A   1      42.476  28.095  25.157  1.00  0.00    -0.200 F 
ATOM     81  F   UNL A   1      41.299  25.637  25.022  1.00  0.00    -0.200 F 
ENDBRANCH  47  71
BRANCH  59  82
ATOM     82  C   UNL A   1      43.896  28.135  34.606  1.00  0.00     0.064 A 
ATOM     83  C   UNL A   1      45.250  28.499  34.534  1.00  0.00     0.173 A 
ATOM     84  C   UNL A   1      43.573  26.943  35.273  1.00  0.00     0.173 A 
ATOM     85  F   UNL A   1      45.614  29.622  33.897  1.00  0.00    -0.203 F 
ATOM     86  C   UNL A   1      46.241  27.680  35.067  1.00  0.00     0.198 A 
ATOM     87  C   UNL A   1      44.564  26.145  35.837  1.00  0.00     0.198 A 
ATOM     88  F   UNL A   1      42.293  26.553  35.379  1.00  0.00    -0.203 F 
ATOM     89  F   UNL A   1      47.532  28.014  34.926  1.00  0.00    -0.200 F 
ATOM     90  C   UNL A   1      45.897  26.507  35.723  1.00  0.00     0.200 A 
ATOM     91  F   UNL A   1      44.228  25.020  36.483  1.00  0.00    -0.200 F 
ATOM     92  F   UNL A   1      46.852  25.719  36.234  1.00  0.00    -0.200 F 
ENDBRANCH  59  82
ENDBRANCH  33  34
ENDBRANCH  25  28
ENDBRANCH  23  24
ENDBRANCH  22  23
ENDBRANCH   1  22
TORSDOF 14
ENDMDL
MODEL 3
REMARK VINA RESULT:     -12.7      0.599      7.377
REMARK SMILES CC(C)Cc1noc([C@@H]2CC=CC[C@H]2C(=O)NCCCCNC(=O)c2ccc(-c3c4nc(c(-c5c(F)c(F)c(F)c(F)c5F)c5ccc([nH]5)c(-c5c(F)c(F)c(F)c(F)c5F)c5nc(c(-c6c(F)c(F)c(F)c(F)c6F)c6ccc3[nH]6)C=C5)C=C4)cc2)n1
REMARK SMILES IDX 19 1 18 2 17 3 15 4 16 5 14 7 9 8 10 9 11 10 13 11 12 12
REMARK SMILES IDX 8 13 5 14 6 15 88 16 7 17 4 18 2 19 1 20 3 21 20 22 21 23
REMARK SMILES IDX 22 24 23 25 24 27 25 28 26 29 87 30 27 31 86 32 28 33 29 34
REMARK SMILES IDX 30 35 80 36 31 37 85 38 79 39 81 40 32 41 84 42 78 43 77 44
REMARK SMILES IDX 33 46 65 47 45 48 64 49 46 50 49 51 63 52 82 53 47 54 48 55
REMARK SMILES IDX 62 57 83 58 50 59 34 60 35 61 43 62 36 63 37 64 41 65 44 66
REMARK SMILES IDX 38 67 39 68 42 69 40 70 66 71 67 72 75 73 68 74 69 75 73 76
REMARK SMILES IDX 76 77 70 78 71 79 74 80 72 81 51 82 52 83 60 84 53 85 54 86
REMARK SMILES IDX 58 87 61 88 55 89 56 90 59 91 57 92
REMARK H PARENT 17 6 22 26 81 45 49 56
REMARK Flexibility Score: inf
ROOT
ATOM      1  C   UNL A   1      31.469  30.942  26.071  1.00  0.00     0.023 C 
ENDROOT
BRANCH   1   2
ATOM      2  C   UNL A   1      32.810  30.305  26.420  1.00  0.00     0.116 C 
BRANCH   2   3
ATOM      3  N   UNL A   1      33.409  29.640  25.276  1.00  0.00    -0.356 N 
ATOM      4  C   UNL A   1      33.115  28.453  24.678  1.00  0.00     0.224 C 
ATOM      5  O   UNL A   1      33.771  28.141  23.682  1.00  0.00    -0.275 OA
ATOM      6  H   UNL A   1      34.155  30.131  24.862  1.00  0.00     0.163 HD
BRANCH   4   7
ATOM      7  C   UNL A   1      32.012  27.539  25.197  1.00  0.00     0.095 C 
ATOM      8  C   UNL A   1      31.110  27.030  24.052  1.00  0.00     0.095 C 
ATOM      9  C   UNL A   1      30.118  25.951  24.511  1.00  0.00     0.041 C 
ATOM     10  C   UNL A   1      30.715  24.951  25.453  1.00  0.00    -0.030 C 
ATOM     11  C   UNL A   1      32.600  26.458  26.119  1.00  0.00     0.041 C 
ATOM     12  C   UNL A   1      31.826  25.178  26.164  1.00  0.00    -0.030 C 
BRANCH   8  13
ATOM     13  C   UNL A   1      30.374  28.152  23.393  1.00  0.00     0.230 A 
ATOM     14  C   UNL A   1      29.210  29.785  22.814  1.00  0.00     0.172 A 
ATOM     15  N   UNL A   1      29.717  29.346  21.656  1.00  0.00    -0.062 NA
ATOM     16  N   UNL A   1      29.589  29.067  23.922  1.00  0.00    -0.196 NA
ATOM     17  O   UNL A   1      30.513  28.275  22.041  1.00  0.00    -0.339 OA
BRANCH  14  18
ATOM     18  C   UNL A   1      28.305  30.962  22.875  1.00  0.00     0.084 C 
BRANCH  18  19
ATOM     19  C   UNL A   1      28.825  32.189  22.101  1.00  0.00    -0.010 C 
ATOM     20  C   UNL A   1      27.923  32.576  20.923  1.00  0.00     0.008 C 
ATOM     21  C   UNL A   1      28.952  33.383  23.051  1.00  0.00     0.008 C 
ENDBRANCH  18  19
ENDBRANCH  14  18
ENDBRANCH   8  13
ENDBRANCH   4   7
ENDBRANCH   2   3
ENDBRANCH   1   2
BRANCH   1  22
ATOM     22  C   UNL A   1      31.304  32.386  26.545  1.00  0.00     0.023 C 
BRANCH  22  23
ATOM     23  C   UNL A   1      32.479  32.949  27.335  1.00  0.00     0.116 C 
BRANCH  23  24
ATOM     24  N   UNL A   1      32.312  34.351  27.686  1.00  0.00    -0.352 N 
ATOM     25  C   UNL A   1      32.989  35.102  28.612  1.00  0.00     0.251 C 
ATOM     26  H   UNL A   1      31.611  34.829  27.186  1.00  0.00     0.163 HD
ATOM     27  O   UNL A   1      32.619  36.248  28.859  1.00  0.00    -0.269 OA
BRANCH  25  28
ATOM     28  C   UNL A   1      34.140  34.528  29.339  1.00  0.00     0.039 A 
ATOM     29  C   UNL A   1      33.910  33.910  30.571  1.00  0.00     0.014 A 
ATOM     30  C   UNL A   1      35.435  34.593  28.817  1.00  0.00     0.014 A 
ATOM     31  C   UNL A   1      34.970  33.309  31.251  1.00  0.00     0.010 A 
ATOM     32  C   UNL A   1      36.475  33.922  29.456  1.00  0.00     0.010 A 
ATOM     33  C   UNL A   1      36.254  33.280  30.683  1.00  0.00    -0.014 A 
BRANCH  33  34
ATOM     34  C   UNL A   1      37.367  32.574  31.369  1.00  0.00     0.031 A 
ATOM     35  C   UNL A   1      38.071  31.426  30.701  1.00  0.00     0.074 A 
ATOM     36  C   UNL A   1      37.720  32.952  32.613  1.00  0.00     0.049 A 
ATOM     37  N   UNL A   1      39.072  30.703  31.138  1.00  0.00    -0.248 NA
ATOM     38  C   UNL A   1      37.569  31.016  29.381  1.00  0.00     0.031 C 
ATOM     39  C   UNL A   1      37.071  34.007  33.392  1.00  0.00     0.029 A 
ATOM     40  N   UNL A   1      38.714  32.493  33.441  1.00  0.00    -0.354 N 
ATOM     41  C   UNL A   1      39.314  29.755  30.152  1.00  0.00     0.074 A 
ATOM     42  C   UNL A   1      38.315  29.951  29.124  1.00  0.00     0.031 C 
ATOM     43  C   UNL A   1      37.706  34.141  34.567  1.00  0.00     0.029 A 
ATOM     44  C   UNL A   1      38.784  33.161  34.639  1.00  0.00     0.049 A 
ATOM     45  H   UNL A   1      39.320  31.756  33.198  1.00  0.00     0.167 HD
ATOM     46  C   UNL A   1      40.296  28.824  30.096  1.00  0.00     0.037 A 
ATOM     47  C   UNL A   1      39.628  33.003  35.677  1.00  0.00     0.037 A 
ATOM     48  C   UNL A   1      41.298  28.643  31.114  1.00  0.00     0.049 A 
ATOM     49  C   UNL A   1      40.716  31.969  35.583  1.00  0.00     0.074 A 
ATOM     50  C   UNL A   1      42.371  27.768  31.125  1.00  0.00     0.029 A 
ATOM     51  N   UNL A   1      41.346  29.348  32.309  1.00  0.00    -0.354 N 
ATOM     52  N   UNL A   1      40.988  31.136  34.609  1.00  0.00    -0.248 NA
ATOM     53  C   UNL A   1      41.625  31.864  36.732  1.00  0.00     0.031 C 
ATOM     54  C   UNL A   1      43.036  27.906  32.348  1.00  0.00     0.029 A 
ATOM     55  C   UNL A   1      42.416  28.910  33.074  1.00  0.00     0.049 A 
ATOM     56  H   UNL A   1      40.714  30.054  32.574  1.00  0.00     0.167 HD
ATOM     57  C   UNL A   1      42.112  30.428  35.012  1.00  0.00     0.074 A 
ATOM     58  C   UNL A   1      42.486  30.949  36.311  1.00  0.00     0.031 C 
ATOM     59  C   UNL A   1      42.775  29.437  34.367  1.00  0.00     0.037 A 
BRANCH  46  60
ATOM     60  C   UNL A   1      40.337  27.930  28.889  1.00  0.00     0.064 A 
ATOM     61  C   UNL A   1      41.066  28.275  27.740  1.00  0.00     0.173 A 
ATOM     62  C   UNL A   1      39.669  26.696  28.893  1.00  0.00     0.173 A 
ATOM     63  F   UNL A   1      41.714  29.448  27.679  1.00  0.00    -0.203 F 
ATOM     64  C   UNL A   1      41.097  27.435  26.630  1.00  0.00     0.198 A 
ATOM     65  C   UNL A   1      39.730  25.843  27.793  1.00  0.00     0.198 A 
ATOM     66  F   UNL A   1      38.961  26.312  29.966  1.00  0.00    -0.203 F 
ATOM     67  F   UNL A   1      41.755  27.811  25.524  1.00  0.00    -0.200 F 
ATOM     68  C   UNL A   1      40.436  26.216  26.660  1.00  0.00     0.200 A 
ATOM     69  F   UNL A   1      39.102  24.659  27.829  1.00  0.00    -0.200 F 
ATOM     70  F   UNL A   1      40.475  25.404  25.594  1.00  0.00    -0.200 F 
ENDBRANCH  46  60
BRANCH  47  71
ATOM     71  C   UNL A   1      39.499  33.870  36.877  1.00  0.00     0.064 A 
ATOM     72  C   UNL A   1      38.772  33.446  37.999  1.00  0.00     0.173 A 
ATOM     73  C   UNL A   1      40.091  35.140  36.927  1.00  0.00     0.173 A 
ATOM     74  F   UNL A   1      38.171  32.247  37.993  1.00  0.00    -0.203 F 
ATOM     75  C   UNL A   1      38.620  34.269  39.113  1.00  0.00     0.198 A 
ATOM     76  C   UNL A   1      39.965  35.950  38.054  1.00  0.00     0.198 A 
ATOM     77  F   UNL A   1      40.804  35.591  35.884  1.00  0.00    -0.203 F 
ATOM     78  F   UNL A   1      37.876  33.860  40.149  1.00  0.00    -0.200 F 
ATOM     79  C   UNL A   1      39.222  35.518  39.142  1.00  0.00     0.200 A 
ATOM     80  F   UNL A   1      40.563  37.149  38.085  1.00  0.00    -0.200 F 
ATOM     81  F   UNL A   1      39.079  36.307  40.215  1.00  0.00    -0.200 F 
ENDBRANCH  47  71
BRANCH  59  82
ATOM     82  C   UNL A   1      43.993  28.875  35.047  1.00  0.00     0.064 A 
ATOM     83  C   UNL A   1      43.914  27.772  35.911  1.00  0.00     0.173 A 
ATOM     84  C   UNL A   1      45.256  29.444  34.822  1.00  0.00     0.173 A 
ATOM     85  F   UNL A   1      42.729  27.200  36.170  1.00  0.00    -0.203 F 
ATOM     86  C   UNL A   1      45.048  27.288  36.559  1.00  0.00     0.198 A 
ATOM     87  C   UNL A   1      46.393  28.933  35.443  1.00  0.00     0.198 A 
ATOM     88  F   UNL A   1      45.389  30.494  33.998  1.00  0.00    -0.203 F 
ATOM     89  F   UNL A   1      44.938  26.278  37.433  1.00  0.00    -0.200 F 
ATOM     90  C   UNL A   1      46.286  27.865  36.320  1.00  0.00     0.200 A 
ATOM     91  F   UNL A   1      47.591  29.483  35.199  1.00  0.00    -0.200 F 
ATOM     92  F   UNL A   1      47.375  27.400  36.945  1.00  0.00    -0.200 F 
ENDBRANCH  59  82
ENDBRANCH  33  34
ENDBRANCH  25  28
ENDBRANCH  23  24
ENDBRANCH  22  23
ENDBRANCH   1  22
TORSDOF 14
ENDMDL
