MODEL 1
REMARK VINA RESULT:     -13.1      0.000      0.000
REMARK SMILES CS(=O)(=O)c1ccc(/C=C(/C(=O)NCCCCNC(=O)c2ccc(-c3c4nc(c(-c5c(F)c(F)c(F)c(F)c5F)c5ccc([nH]5)c(-c5c(F)c(F)c(F)c(F)c5F)c5nc(c(-c6c(F)c(F)c(F)c(F)c6F)c6ccc3[nH]6)C=C5)C=C4)cc2)c2cccc(Br)c2)cc1
REMARK SMILES IDX 15 1 14 2 13 3 11 4 12 5 10 7 9 8 8 9 5 10 6 11 92 12 7 13
REMARK SMILES IDX 91 14 2 15 1 16 3 17 4 18 84 19 85 20 90 21 86 22 88 23
REMARK SMILES IDX 87 24 89 25 16 26 17 27 18 28 19 29 20 31 21 32 22 33 83 34
REMARK SMILES IDX 23 35 82 36 24 37 25 38 26 39 76 40 27 41 81 42 75 43 77 44
REMARK SMILES IDX 28 45 80 46 74 47 73 48 29 50 61 51 41 52 60 53 42 54 45 55
REMARK SMILES IDX 59 56 78 57 43 58 44 59 58 61 79 62 46 63 30 64 31 65 39 66
REMARK SMILES IDX 32 67 33 68 37 69 40 70 34 71 35 72 38 73 36 74 62 75 63 76
REMARK SMILES IDX 71 77 64 78 65 79 69 80 72 81 66 82 67 83 70 84 68 85 47 86
REMARK SMILES IDX 48 87 56 88 49 89 50 90 54 91 57 92 51 93 52 94 55 95 53 96
REMARK H PARENT 13 6 18 30 77 49 45 60
REMARK Flexibility Score: inf
ROOT
ATOM      1  C   UNL A   1      31.147  28.105  24.541  1.00  0.00     0.023 C 
ENDROOT
BRANCH   1   2
ATOM      2  C   UNL A   1      30.929  26.824  23.728  1.00  0.00     0.116 C 
BRANCH   2   3
ATOM      3  N   UNL A   1      31.863  26.776  22.622  1.00  0.00    -0.352 N 
ATOM      4  C   UNL A   1      32.813  25.887  22.228  1.00  0.00     0.251 C 
ATOM      5  O   UNL A   1      33.479  26.218  21.244  1.00  0.00    -0.269 OA
ATOM      6  H   UNL A   1      31.796  27.557  22.027  1.00  0.00     0.163 HD
BRANCH   4   7
ATOM      7  C   UNL A   1      33.012  24.528  22.868  1.00  0.00     0.047 C 
ATOM      8  C   UNL A   1      32.089  23.542  22.771  1.00  0.00     0.022 C 
BRANCH   8   9
ATOM      9  C   UNL A   1      32.164  22.118  23.168  1.00  0.00    -0.025 A 
ATOM     10  C   UNL A   1      32.483  19.382  23.706  1.00  0.00     0.067 A 
ATOM     11  C   UNL A   1      32.539  20.307  24.749  1.00  0.00     0.021 A 
ATOM     12  C   UNL A   1      32.241  19.800  22.399  1.00  0.00     0.021 A 
ATOM     13  C   UNL A   1      32.337  21.664  24.480  1.00  0.00     0.009 A 
ATOM     14  C   UNL A   1      32.082  21.163  22.137  1.00  0.00     0.009 A 
BRANCH  10  15
ATOM     15  S   UNL A   1      32.757  17.662  24.051  1.00  0.00     0.175 S 
ATOM     16  C   UNL A   1      34.428  17.644  24.645  1.00  0.00     0.163 C 
ATOM     17  O   UNL A   1      32.712  16.950  22.791  1.00  0.00    -0.224 OA
ATOM     18  O   UNL A   1      31.885  17.290  25.152  1.00  0.00    -0.224 OA
ENDBRANCH  10  15
ENDBRANCH   8   9
BRANCH   7  19
ATOM     19  C   UNL A   1      34.185  24.380  23.768  1.00  0.00    -0.012 A 
ATOM     20  C   UNL A   1      34.227  25.171  24.932  1.00  0.00     0.009 A 
ATOM     21  C   UNL A   1      35.177  23.413  23.569  1.00  0.00     0.024 A 
ATOM     22  C   UNL A   1      35.211  24.975  25.898  1.00  0.00     0.002 A 
ATOM     23  C   UNL A   1      36.140  23.200  24.559  1.00  0.00     0.018 A 
ATOM     24  C   UNL A   1      36.159  23.972  25.722  1.00  0.00     0.016 A 
ATOM     25  Br  UNL A   1      37.389  21.793  24.361  1.00  0.00    -0.051 Br
ENDBRANCH   7  19
ENDBRANCH   4   7
ENDBRANCH   2   3
ENDBRANCH   1   2
BRANCH   1  26
ATOM     26  C   UNL A   1      32.242  27.985  25.605  1.00  0.00     0.023 C 
BRANCH  26  27
ATOM     27  C   UNL A   1      33.238  29.136  25.626  1.00  0.00     0.116 C 
BRANCH  27  28
ATOM     28  N   UNL A   1      32.656  30.388  26.092  1.00  0.00    -0.352 N 
ATOM     29  C   UNL A   1      33.164  31.255  27.030  1.00  0.00     0.251 C 
ATOM     30  H   UNL A   1      31.795  30.642  25.687  1.00  0.00     0.163 HD
ATOM     31  O   UNL A   1      32.515  32.217  27.421  1.00  0.00    -0.269 OA
BRANCH  29  32
ATOM     32  C   UNL A   1      34.501  30.976  27.583  1.00  0.00     0.039 A 
ATOM     33  C   UNL A   1      35.429  32.014  27.688  1.00  0.00     0.014 A 
ATOM     34  C   UNL A   1      34.788  29.704  28.083  1.00  0.00     0.014 A 
ATOM     35  C   UNL A   1      36.628  31.794  28.367  1.00  0.00     0.010 A 
ATOM     36  C   UNL A   1      35.943  29.511  28.825  1.00  0.00     0.010 A 
ATOM     37  C   UNL A   1      36.874  30.553  28.975  1.00  0.00    -0.014 A 
BRANCH  37  38
ATOM     38  C   UNL A   1      38.107  30.288  29.759  1.00  0.00     0.031 A 
ATOM     39  C   UNL A   1      39.129  29.333  29.211  1.00  0.00     0.074 A 
ATOM     40  C   UNL A   1      38.252  30.806  30.993  1.00  0.00     0.049 A 
ATOM     41  N   UNL A   1      40.172  28.806  29.797  1.00  0.00    -0.248 NA
ATOM     42  C   UNL A   1      38.925  28.882  27.825  1.00  0.00     0.031 C 
ATOM     43  C   UNL A   1      37.318  31.727  31.643  1.00  0.00     0.029 A 
ATOM     44  N   UNL A   1      39.232  30.609  31.936  1.00  0.00    -0.354 N 
ATOM     45  C   UNL A   1      40.728  27.943  28.863  1.00  0.00     0.074 A 
ATOM     46  C   UNL A   1      39.881  27.975  27.692  1.00  0.00     0.031 C 
ATOM     47  C   UNL A   1      37.772  32.019  32.873  1.00  0.00     0.029 A 
ATOM     48  C   UNL A   1      38.998  31.265  33.119  1.00  0.00     0.049 A 
ATOM     49  H   UNL A   1      40.026  30.049  31.777  1.00  0.00     0.167 HD
ATOM     50  C   UNL A   1      41.858  27.204  28.968  1.00  0.00     0.037 A 
ATOM     51  C   UNL A   1      39.683  31.239  34.280  1.00  0.00     0.037 A 
ATOM     52  C   UNL A   1      42.709  27.199  30.128  1.00  0.00     0.049 A 
ATOM     53  C   UNL A   1      40.920  30.384  34.384  1.00  0.00     0.074 A 
ATOM     54  C   UNL A   1      43.902  26.526  30.317  1.00  0.00     0.029 A 
ATOM     55  N   UNL A   1      42.453  27.901  31.296  1.00  0.00    -0.354 N 
ATOM     56  N   UNL A   1      41.467  29.608  33.479  1.00  0.00    -0.248 NA
ATOM     57  C   UNL A   1      41.635  30.400  35.667  1.00  0.00     0.031 C 
ATOM     58  C   UNL A   1      44.339  26.773  31.620  1.00  0.00     0.029 A 
ATOM     59  C   UNL A   1      43.456  27.658  32.219  1.00  0.00     0.049 A 
ATOM     60  H   UNL A   1      41.674  28.485  31.447  1.00  0.00     0.167 HD
ATOM     61  C   UNL A   1      42.611  29.083  34.066  1.00  0.00     0.074 A 
ATOM     62  C   UNL A   1      42.679  29.624  35.407  1.00  0.00     0.031 C 
ATOM     63  C   UNL A   1      43.526  28.235  33.537  1.00  0.00     0.037 A 
BRANCH  50  64
ATOM     64  C   UNL A   1      42.235  26.337  27.802  1.00  0.00     0.064 A 
ATOM     65  C   UNL A   1      41.650  25.078  27.597  1.00  0.00     0.173 A 
ATOM     66  C   UNL A   1      43.169  26.785  26.857  1.00  0.00     0.173 A 
ATOM     67  F   UNL A   1      40.759  24.596  28.478  1.00  0.00    -0.203 F 
ATOM     68  C   UNL A   1      42.011  24.287  26.510  1.00  0.00     0.198 A 
ATOM     69  C   UNL A   1      43.502  26.007  25.750  1.00  0.00     0.198 A 
ATOM     70  F   UNL A   1      43.757  27.983  26.999  1.00  0.00    -0.203 F 
ATOM     71  F   UNL A   1      41.481  23.065  26.368  1.00  0.00    -0.200 F 
ATOM     72  C   UNL A   1      42.930  24.756  25.583  1.00  0.00     0.200 A 
ATOM     73  F   UNL A   1      44.377  26.469  24.847  1.00  0.00    -0.200 F 
ATOM     74  F   UNL A   1      43.270  23.997  24.533  1.00  0.00    -0.200 F 
ENDBRANCH  50  64
BRANCH  51  75
ATOM     75  C   UNL A   1      39.222  32.052  35.438  1.00  0.00     0.064 A 
ATOM     76  C   UNL A   1      38.431  31.482  36.447  1.00  0.00     0.173 A 
ATOM     77  C   UNL A   1      39.546  33.411  35.557  1.00  0.00     0.173 A 
ATOM     78  F   UNL A   1      38.077  30.191  36.369  1.00  0.00    -0.203 F 
ATOM     79  C   UNL A   1      37.961  32.246  37.514  1.00  0.00     0.198 A 
ATOM     80  C   UNL A   1      39.104  34.166  36.642  1.00  0.00     0.198 A 
ATOM     81  F   UNL A   1      40.305  34.006  34.625  1.00  0.00    -0.203 F 
ATOM     82  F   UNL A   1      37.164  31.687  38.434  1.00  0.00    -0.200 F 
ATOM     83  C   UNL A   1      38.302  33.585  37.614  1.00  0.00     0.200 A 
ATOM     84  F   UNL A   1      39.449  35.457  36.743  1.00  0.00    -0.200 F 
ATOM     85  F   UNL A   1      37.853  34.319  38.640  1.00  0.00    -0.200 F 
ENDBRANCH  51  75
BRANCH  63  86
ATOM     86  C   UNL A   1      44.727  27.888  34.369  1.00  0.00     0.064 A 
ATOM     87  C   UNL A   1      45.878  28.688  34.382  1.00  0.00     0.173 A 
ATOM     88  C   UNL A   1      44.677  26.788  35.240  1.00  0.00     0.173 A 
ATOM     89  F   UNL A   1      45.978  29.741  33.558  1.00  0.00    -0.203 F 
ATOM     90  C   UNL A   1      46.939  28.396  35.236  1.00  0.00     0.198 A 
ATOM     91  C   UNL A   1      45.727  26.518  36.114  1.00  0.00     0.198 A 
ATOM     92  F   UNL A   1      43.596  25.996  35.269  1.00  0.00    -0.203 F 
ATOM     93  F   UNL A   1      48.041  29.158  35.216  1.00  0.00    -0.200 F 
ATOM     94  C   UNL A   1      46.856  27.321  36.110  1.00  0.00     0.200 A 
ATOM     95  F   UNL A   1      45.636  25.491  36.970  1.00  0.00    -0.200 F 
ATOM     96  F   UNL A   1      47.867  27.059  36.950  1.00  0.00    -0.200 F 
ENDBRANCH  63  86
ENDBRANCH  37  38
ENDBRANCH  29  32
ENDBRANCH  27  28
ENDBRANCH  26  27
ENDBRANCH   1  26
TORSDOF 14
ENDMDL
MODEL 2
REMARK VINA RESULT:     -13.0      0.210      1.930
REMARK SMILES CS(=O)(=O)c1ccc(/C=C(/C(=O)NCCCCNC(=O)c2ccc(-c3c4nc(c(-c5c(F)c(F)c(F)c(F)c5F)c5ccc([nH]5)c(-c5c(F)c(F)c(F)c(F)c5F)c5nc(c(-c6c(F)c(F)c(F)c(F)c6F)c6ccc3[nH]6)C=C5)C=C4)cc2)c2cccc(Br)c2)cc1
REMARK SMILES IDX 15 1 14 2 13 3 11 4 12 5 10 7 9 8 8 9 5 10 6 11 92 12 7 13
REMARK SMILES IDX 91 14 2 15 1 16 3 17 4 18 84 19 85 20 90 21 86 22 88 23
REMARK SMILES IDX 87 24 89 25 16 26 17 27 18 28 19 29 20 31 21 32 22 33 83 34
REMARK SMILES IDX 23 35 82 36 24 37 25 38 26 39 76 40 27 41 81 42 75 43 77 44
REMARK SMILES IDX 28 45 80 46 74 47 73 48 29 50 61 51 41 52 60 53 42 54 45 55
REMARK SMILES IDX 59 56 78 57 43 58 44 59 58 61 79 62 46 63 30 64 31 65 39 66
REMARK SMILES IDX 32 67 33 68 37 69 40 70 34 71 35 72 38 73 36 74 62 75 63 76
REMARK SMILES IDX 71 77 64 78 65 79 69 80 72 81 66 82 67 83 70 84 68 85 47 86
REMARK SMILES IDX 48 87 56 88 49 89 50 90 54 91 57 92 51 93 52 94 55 95 53 96
REMARK H PARENT 13 6 18 30 77 49 45 60
REMARK Flexibility Score: inf
ROOT
ATOM      1  C   UNL A   1      31.319  27.910  24.561  1.00  0.00     0.023 C 
ENDROOT
BRANCH   1   2
ATOM      2  C   UNL A   1      31.045  26.617  23.785  1.00  0.00     0.116 C 
BRANCH   2   3
ATOM      3  N   UNL A   1      31.922  26.536  22.635  1.00  0.00    -0.352 N 
ATOM      4  C   UNL A   1      32.844  25.630  22.215  1.00  0.00     0.251 C 
ATOM      5  O   UNL A   1      33.463  25.933  21.190  1.00  0.00    -0.269 OA
ATOM      6  H   UNL A   1      31.831  27.303  22.025  1.00  0.00     0.163 HD
BRANCH   4   7
ATOM      7  C   UNL A   1      33.066  24.284  22.874  1.00  0.00     0.047 C 
ATOM      8  C   UNL A   1      32.152  23.288  22.807  1.00  0.00     0.022 C 
BRANCH   8   9
ATOM      9  C   UNL A   1      32.246  21.872  23.228  1.00  0.00    -0.025 A 
ATOM     10  C   UNL A   1      32.588  19.145  23.801  1.00  0.00     0.067 A 
ATOM     11  C   UNL A   1      32.714  20.092  24.819  1.00  0.00     0.021 A 
ATOM     12  C   UNL A   1      32.265  19.538  22.503  1.00  0.00     0.021 A 
ATOM     13  C   UNL A   1      32.501  21.443  24.535  1.00  0.00     0.009 A 
ATOM     14  C   UNL A   1      32.095  20.897  22.224  1.00  0.00     0.009 A 
BRANCH  10  15
ATOM     15  S   UNL A   1      32.878  17.432  24.163  1.00  0.00     0.175 S 
ATOM     16  C   UNL A   1      34.524  17.444  24.822  1.00  0.00     0.163 C 
ATOM     17  O   UNL A   1      32.894  16.715  22.905  1.00  0.00    -0.224 OA
ATOM     18  O   UNL A   1      31.969  17.049  25.229  1.00  0.00    -0.224 OA
ENDBRANCH  10  15
ENDBRANCH   8   9
BRANCH   7  19
ATOM     19  C   UNL A   1      34.252  24.164  23.761  1.00  0.00    -0.012 A 
ATOM     20  C   UNL A   1      34.319  24.999  24.892  1.00  0.00     0.009 A 
ATOM     21  C   UNL A   1      35.235  23.182  23.584  1.00  0.00     0.024 A 
ATOM     22  C   UNL A   1      35.317  24.835  25.850  1.00  0.00     0.002 A 
ATOM     23  C   UNL A   1      36.212  23.002  24.567  1.00  0.00     0.018 A 
ATOM     24  C   UNL A   1      36.256  23.819  25.697  1.00  0.00     0.016 A 
ATOM     25  Br  UNL A   1      37.449  21.580  24.404  1.00  0.00    -0.051 Br
ENDBRANCH   7  19
ENDBRANCH   4   7
ENDBRANCH   2   3
ENDBRANCH   1   2
BRANCH   1  26
ATOM     26  C   UNL A   1      32.587  27.859  25.420  1.00  0.00     0.023 C 
BRANCH  26  27
ATOM     27  C   UNL A   1      33.437  29.121  25.373  1.00  0.00     0.116 C 
BRANCH  27  28
ATOM     28  N   UNL A   1      32.766  30.284  25.939  1.00  0.00    -0.352 N 
ATOM     29  C   UNL A   1      33.197  31.086  26.970  1.00  0.00     0.251 C 
ATOM     30  H   UNL A   1      31.901  30.525  25.535  1.00  0.00     0.163 HD
ATOM     31  O   UNL A   1      32.480  31.964  27.433  1.00  0.00    -0.269 OA
BRANCH  29  32
ATOM     32  C   UNL A   1      34.536  30.835  27.533  1.00  0.00     0.039 A 
ATOM     33  C   UNL A   1      35.423  31.902  27.691  1.00  0.00     0.014 A 
ATOM     34  C   UNL A   1      34.863  29.556  27.990  1.00  0.00     0.014 A 
ATOM     35  C   UNL A   1      36.619  31.700  28.380  1.00  0.00     0.010 A 
ATOM     36  C   UNL A   1      36.014  29.378  28.742  1.00  0.00     0.010 A 
ATOM     37  C   UNL A   1      36.903  30.447  28.945  1.00  0.00    -0.014 A 
BRANCH  37  38
ATOM     38  C   UNL A   1      38.133  30.197  29.738  1.00  0.00     0.031 A 
ATOM     39  C   UNL A   1      39.174  29.260  29.194  1.00  0.00     0.074 A 
ATOM     40  C   UNL A   1      38.261  30.714  30.975  1.00  0.00     0.049 A 
ATOM     41  N   UNL A   1      40.221  28.747  29.786  1.00  0.00    -0.248 NA
ATOM     42  C   UNL A   1      38.988  28.811  27.805  1.00  0.00     0.031 C 
ATOM     43  C   UNL A   1      37.308  31.618  31.620  1.00  0.00     0.029 A 
ATOM     44  N   UNL A   1      39.237  30.527  31.924  1.00  0.00    -0.354 N 
ATOM     45  C   UNL A   1      40.797  27.896  28.854  1.00  0.00     0.074 A 
ATOM     46  C   UNL A   1      39.958  27.920  27.676  1.00  0.00     0.031 C 
ATOM     47  C   UNL A   1      37.748  31.912  32.855  1.00  0.00     0.029 A 
ATOM     48  C   UNL A   1      38.984  31.176  33.108  1.00  0.00     0.049 A 
ATOM     49  H   UNL A   1      40.041  29.981  31.769  1.00  0.00     0.167 HD
ATOM     50  C   UNL A   1      41.938  27.175  28.965  1.00  0.00     0.037 A 
ATOM     51  C   UNL A   1      39.660  31.156  34.274  1.00  0.00     0.037 A 
ATOM     52  C   UNL A   1      42.779  27.178  30.131  1.00  0.00     0.049 A 
ATOM     53  C   UNL A   1      40.909  30.320  34.384  1.00  0.00     0.074 A 
ATOM     54  C   UNL A   1      43.981  26.522  30.327  1.00  0.00     0.029 A 
ATOM     55  N   UNL A   1      42.503  27.871  31.300  1.00  0.00    -0.354 N 
ATOM     56  N   UNL A   1      41.474  29.555  33.481  1.00  0.00    -0.248 NA
ATOM     57  C   UNL A   1      41.614  30.341  35.674  1.00  0.00     0.031 C 
ATOM     58  C   UNL A   1      44.404  26.772  31.635  1.00  0.00     0.029 A 
ATOM     59  C   UNL A   1      43.503  27.641  32.230  1.00  0.00     0.049 A 
ATOM     60  H   UNL A   1      41.715  28.443  31.447  1.00  0.00     0.167 HD
ATOM     61  C   UNL A   1      42.622  29.046  34.075  1.00  0.00     0.074 A 
ATOM     62  C   UNL A   1      42.671  29.583  35.419  1.00  0.00     0.031 C 
ATOM     63  C   UNL A   1      43.554  28.214  33.551  1.00  0.00     0.037 A 
BRANCH  50  64
ATOM     64  C   UNL A   1      42.336  26.317  27.799  1.00  0.00     0.064 A 
ATOM     65  C   UNL A   1      43.288  26.742  26.859  1.00  0.00     0.173 A 
ATOM     66  C   UNL A   1      41.783  25.038  27.636  1.00  0.00     0.173 A 
ATOM     67  F   UNL A   1      43.840  27.961  26.962  1.00  0.00    -0.203 F 
ATOM     68  C   UNL A   1      43.645  25.934  25.784  1.00  0.00     0.198 A 
ATOM     69  C   UNL A   1      42.169  24.218  26.580  1.00  0.00     0.198 A 
ATOM     70  F   UNL A   1      40.872  24.578  28.507  1.00  0.00    -0.203 F 
ATOM     71  F   UNL A   1      44.514  26.385  24.869  1.00  0.00    -0.200 F 
ATOM     72  C   UNL A   1      43.092  24.669  25.650  1.00  0.00     0.200 A 
ATOM     73  F   UNL A   1      41.646  22.990  26.461  1.00  0.00    -0.200 F 
ATOM     74  F   UNL A   1      43.444  23.890  24.619  1.00  0.00    -0.200 F 
ENDBRANCH  50  64
BRANCH  51  75
ATOM     75  C   UNL A   1      39.177  31.957  35.431  1.00  0.00     0.064 A 
ATOM     76  C   UNL A   1      39.522  33.311  35.563  1.00  0.00     0.173 A 
ATOM     77  C   UNL A   1      38.377  31.391  36.434  1.00  0.00     0.173 A 
ATOM     78  F   UNL A   1      40.302  33.894  34.640  1.00  0.00    -0.203 F 
ATOM     79  C   UNL A   1      39.108  34.058  36.664  1.00  0.00     0.198 A 
ATOM     80  C   UNL A   1      37.935  32.148  37.518  1.00  0.00     0.198 A 
ATOM     81  F   UNL A   1      38.011  30.104  36.356  1.00  0.00    -0.203 F 
ATOM     82  F   UNL A   1      39.497  35.333  36.789  1.00  0.00    -0.200 F 
ATOM     83  C   UNL A   1      38.311  33.478  37.638  1.00  0.00     0.200 A 
ATOM     84  F   UNL A   1      37.151  31.588  38.449  1.00  0.00    -0.200 F 
ATOM     85  F   UNL A   1      37.911  34.196  38.695  1.00  0.00    -0.200 F 
ENDBRANCH  51  75
BRANCH  63  86
ATOM     86  C   UNL A   1      44.754  27.883  34.390  1.00  0.00     0.064 A 
ATOM     87  C   UNL A   1      44.801  26.743  35.203  1.00  0.00     0.173 A 
ATOM     88  C   UNL A   1      45.911  28.673  34.294  1.00  0.00     0.173 A 
ATOM     89  F   UNL A   1      43.717  25.964  35.338  1.00  0.00    -0.203 F 
ATOM     90  C   UNL A   1      45.962  26.407  35.895  1.00  0.00     0.198 A 
ATOM     91  C   UNL A   1      47.079  28.318  34.962  1.00  0.00     0.198 A 
ATOM     92  F   UNL A   1      45.918  29.771  33.524  1.00  0.00    -0.203 F 
ATOM     93  F   UNL A   1      45.979  25.327  36.688  1.00  0.00    -0.200 F 
ATOM     94  C   UNL A   1      47.103  27.186  35.762  1.00  0.00     0.200 A 
ATOM     95  F   UNL A   1      48.184  29.061  34.818  1.00  0.00    -0.200 F 
ATOM     96  F   UNL A   1      48.227  26.846  36.408  1.00  0.00    -0.200 F 
ENDBRANCH  63  86
ENDBRANCH  37  38
ENDBRANCH  29  32
ENDBRANCH  27  28
ENDBRANCH  26  27
ENDBRANCH   1  26
TORSDOF 14
ENDMDL
MODEL 3
REMARK VINA RESULT:     -12.9      2.219      3.802
REMARK SMILES CS(=O)(=O)c1ccc(/C=C(/C(=O)NCCCCNC(=O)c2ccc(-c3c4nc(c(-c5c(F)c(F)c(F)c(F)c5F)c5ccc([nH]5)c(-c5c(F)c(F)c(F)c(F)c5F)c5nc(c(-c6c(F)c(F)c(F)c(F)c6F)c6ccc3[nH]6)C=C5)C=C4)cc2)c2cccc(Br)c2)cc1
REMARK SMILES IDX 15 1 14 2 13 3 11 4 12 5 10 7 9 8 8 9 5 10 6 11 92 12 7 13
REMARK SMILES IDX 91 14 2 15 1 16 3 17 4 18 84 19 85 20 90 21 86 22 88 23
REMARK SMILES IDX 87 24 89 25 16 26 17 27 18 28 19 29 20 31 21 32 22 33 83 34
REMARK SMILES IDX 23 35 82 36 24 37 25 38 26 39 76 40 27 41 81 42 75 43 77 44
REMARK SMILES IDX 28 45 80 46 74 47 73 48 29 50 61 51 41 52 60 53 42 54 45 55
REMARK SMILES IDX 59 56 78 57 43 58 44 59 58 61 79 62 46 63 30 64 31 65 39 66
REMARK SMILES IDX 32 67 33 68 37 69 40 70 34 71 35 72 38 73 36 74 62 75 63 76
REMARK SMILES IDX 71 77 64 78 65 79 69 80 72 81 66 82 67 83 70 84 68 85 47 86
REMARK SMILES IDX 48 87 56 88 49 89 50 90 54 91 57 92 51 93 52 94 55 95 53 96
REMARK H PARENT 13 6 18 30 77 49 45 60
REMARK Flexibility Score: inf
ROOT
ATOM      1  C   UNL A   1      31.939  29.883  26.902  1.00  0.00     0.023 C 
ENDROOT
BRANCH   1   2
ATOM      2  C   UNL A   1      33.241  29.203  26.463  1.00  0.00     0.116 C 
BRANCH   2   3
ATOM      3  N   UNL A   1      33.519  29.517  25.077  1.00  0.00    -0.352 N 
ATOM      4  C   UNL A   1      33.531  28.787  23.930  1.00  0.00     0.251 C 
ATOM      5  O   UNL A   1      33.889  29.393  22.915  1.00  0.00    -0.269 OA
ATOM      6  H   UNL A   1      33.750  30.462  24.934  1.00  0.00     0.163 HD
BRANCH   4   7
ATOM      7  C   UNL A   1      33.058  27.351  23.838  1.00  0.00     0.047 C 
ATOM      8  C   UNL A   1      33.912  26.321  23.634  1.00  0.00     0.022 C 
BRANCH   8   9
ATOM      9  C   UNL A   1      33.679  24.860  23.683  1.00  0.00    -0.025 A 
ATOM     10  C   UNL A   1      33.086  22.136  24.007  1.00  0.00     0.067 A 
ATOM     11  C   UNL A   1      32.974  22.727  22.749  1.00  0.00     0.021 A 
ATOM     12  C   UNL A   1      33.519  22.878  25.104  1.00  0.00     0.021 A 
ATOM     13  C   UNL A   1      33.311  24.073  22.586  1.00  0.00     0.009 A 
ATOM     14  C   UNL A   1      33.814  24.234  24.937  1.00  0.00     0.009 A 
BRANCH  10  15
ATOM     15  S   UNL A   1      32.640  20.430  24.212  1.00  0.00     0.175 S 
ATOM     16  C   UNL A   1      34.181  19.671  24.650  1.00  0.00     0.163 C 
ATOM     17  O   UNL A   1      32.233  19.926  22.917  1.00  0.00    -0.224 OA
ATOM     18  O   UNL A   1      31.754  20.342  25.359  1.00  0.00    -0.224 OA
ENDBRANCH  10  15
ENDBRANCH   8   9
BRANCH   7  19
ATOM     19  C   UNL A   1      31.588  27.135  23.793  1.00  0.00    -0.012 A 
ATOM     20  C   UNL A   1      31.051  26.086  24.563  1.00  0.00     0.009 A 
ATOM     21  C   UNL A   1      30.716  27.997  23.118  1.00  0.00     0.024 A 
ATOM     22  C   UNL A   1      29.674  25.923  24.695  1.00  0.00     0.002 A 
ATOM     23  C   UNL A   1      29.336  27.847  23.283  1.00  0.00     0.018 A 
ATOM     24  C   UNL A   1      28.812  26.819  24.069  1.00  0.00     0.016 A 
ATOM     25  Br  UNL A   1      28.159  29.100  22.494  1.00  0.00    -0.051 Br
ENDBRANCH   7  19
ENDBRANCH   4   7
ENDBRANCH   2   3
ENDBRANCH   1   2
BRANCH   1  26
ATOM     26  C   UNL A   1      31.880  31.378  26.572  1.00  0.00     0.023 C 
BRANCH  26  27
ATOM     27  C   UNL A   1      32.897  32.234  27.315  1.00  0.00     0.116 C 
BRANCH  27  28
ATOM     28  N   UNL A   1      32.450  33.606  27.518  1.00  0.00    -0.352 N 
ATOM     29  C   UNL A   1      32.947  34.532  28.404  1.00  0.00     0.251 C 
ATOM     30  H   UNL A   1      31.701  33.906  26.951  1.00  0.00     0.163 HD
ATOM     31  O   UNL A   1      32.402  35.617  28.560  1.00  0.00    -0.269 OA
BRANCH  29  32
ATOM     32  C   UNL A   1      34.138  34.169  29.193  1.00  0.00     0.039 A 
ATOM     33  C   UNL A   1      33.990  33.363  30.324  1.00  0.00     0.014 A 
ATOM     34  C   UNL A   1      35.405  34.552  28.746  1.00  0.00     0.014 A 
ATOM     35  C   UNL A   1      35.127  32.876  30.970  1.00  0.00     0.010 A 
ATOM     36  C   UNL A   1      36.529  34.002  29.341  1.00  0.00     0.010 A 
ATOM     37  C   UNL A   1      36.403  33.159  30.458  1.00  0.00    -0.014 A 
BRANCH  37  38
ATOM     38  C   UNL A   1      37.639  32.616  31.073  1.00  0.00     0.031 A 
ATOM     39  C   UNL A   1      38.357  31.485  30.393  1.00  0.00     0.074 A 
ATOM     40  C   UNL A   1      38.047  33.054  32.280  1.00  0.00     0.049 A 
ATOM     41  N   UNL A   1      39.330  30.732  30.836  1.00  0.00    -0.248 NA
ATOM     42  C   UNL A   1      37.888  31.130  29.044  1.00  0.00     0.031 C 
ATOM     43  C   UNL A   1      37.421  34.130  33.049  1.00  0.00     0.029 A 
ATOM     44  N   UNL A   1      39.075  32.625  33.086  1.00  0.00    -0.354 N 
ATOM     45  C   UNL A   1      39.567  29.800  29.835  1.00  0.00     0.074 A 
ATOM     46  C   UNL A   1      38.604  30.047  28.785  1.00  0.00     0.031 C 
ATOM     47  C   UNL A   1      38.079  34.282  34.210  1.00  0.00     0.029 A 
ATOM     48  C   UNL A   1      39.138  33.279  34.292  1.00  0.00     0.049 A 
ATOM     49  H   UNL A   1      39.705  31.916  32.822  1.00  0.00     0.167 HD
ATOM     50  C   UNL A   1      40.518  28.838  29.789  1.00  0.00     0.037 A 
ATOM     51  C   UNL A   1      39.943  33.073  35.353  1.00  0.00     0.037 A 
ATOM     52  C   UNL A   1      41.488  28.618  30.827  1.00  0.00     0.049 A 
ATOM     53  C   UNL A   1      40.973  31.974  35.291  1.00  0.00     0.074 A 
ATOM     54  C   UNL A   1      42.524  27.702  30.857  1.00  0.00     0.029 A 
ATOM     55  N   UNL A   1      41.537  29.321  32.021  1.00  0.00    -0.354 N 
ATOM     56  N   UNL A   1      41.222  31.129  34.320  1.00  0.00    -0.248 NA
ATOM     57  C   UNL A   1      41.832  31.799  36.470  1.00  0.00     0.031 C 
ATOM     58  C   UNL A   1      43.166  27.812  32.093  1.00  0.00     0.029 A 
ATOM     59  C   UNL A   1      42.575  28.844  32.804  1.00  0.00     0.049 A 
ATOM     60  H   UNL A   1      40.927  30.050  32.274  1.00  0.00     0.167 HD
ATOM     61  C   UNL A   1      42.294  30.356  34.751  1.00  0.00     0.074 A 
ATOM     62  C   UNL A   1      42.645  30.829  36.073  1.00  0.00     0.031 C 
ATOM     63  C   UNL A   1      42.932  29.352  34.104  1.00  0.00     0.037 A 
BRANCH  50  64
ATOM     64  C   UNL A   1      40.549  27.947  28.581  1.00  0.00     0.064 A 
ATOM     65  C   UNL A   1      41.277  28.287  27.430  1.00  0.00     0.173 A 
ATOM     66  C   UNL A   1      39.870  26.720  28.585  1.00  0.00     0.173 A 
ATOM     67  F   UNL A   1      41.935  29.455  27.368  1.00  0.00    -0.203 F 
ATOM     68  C   UNL A   1      41.295  27.449  26.318  1.00  0.00     0.198 A 
ATOM     69  C   UNL A   1      39.919  25.867  27.486  1.00  0.00     0.198 A 
ATOM     70  F   UNL A   1      39.162  26.341  29.661  1.00  0.00    -0.203 F 
ATOM     71  F   UNL A   1      41.949  27.823  25.211  1.00  0.00    -0.200 F 
ATOM     72  C   UNL A   1      40.623  26.236  26.351  1.00  0.00     0.200 A 
ATOM     73  F   UNL A   1      39.283  24.688  27.525  1.00  0.00    -0.200 F 
ATOM     74  F   UNL A   1      40.649  25.427  25.283  1.00  0.00    -0.200 F 
ENDBRANCH  50  64
BRANCH  51  75
ATOM     75  C   UNL A   1      39.817  33.929  36.564  1.00  0.00     0.064 A 
ATOM     76  C   UNL A   1      40.562  35.110  36.691  1.00  0.00     0.173 A 
ATOM     77  C   UNL A   1      38.964  33.582  37.622  1.00  0.00     0.173 A 
ATOM     78  F   UNL A   1      41.407  35.475  35.715  1.00  0.00    -0.203 F 
ATOM     79  C   UNL A   1      40.480  35.895  37.839  1.00  0.00     0.198 A 
ATOM     80  C   UNL A   1      38.857  34.386  38.756  1.00  0.00     0.198 A 
ATOM     81  F   UNL A   1      38.223  32.467  37.551  1.00  0.00    -0.203 F 
ATOM     82  F   UNL A   1      41.243  36.990  37.955  1.00  0.00    -0.200 F 
ATOM     83  C   UNL A   1      39.623  35.536  38.868  1.00  0.00     0.200 A 
ATOM     84  F   UNL A   1      38.016  34.043  39.741  1.00  0.00    -0.200 F 
ATOM     85  F   UNL A   1      39.542  36.293  39.971  1.00  0.00    -0.200 F 
ENDBRANCH  51  75
BRANCH  63  86
ATOM     86  C   UNL A   1      44.128  28.734  34.770  1.00  0.00     0.064 A 
ATOM     87  C   UNL A   1      44.027  27.579  35.557  1.00  0.00     0.173 A 
ATOM     88  C   UNL A   1      45.409  29.258  34.528  1.00  0.00     0.173 A 
ATOM     89  F   UNL A   1      42.826  27.050  35.828  1.00  0.00    -0.203 F 
ATOM     90  C   UNL A   1      45.166  26.972  36.082  1.00  0.00     0.198 A 
ATOM     91  C   UNL A   1      46.546  28.631  35.029  1.00  0.00     0.198 A 
ATOM     92  F   UNL A   1      45.558  30.358  33.777  1.00  0.00    -0.203 F 
ATOM     93  F   UNL A   1      45.046  25.883  36.853  1.00  0.00    -0.200 F 
ATOM     94  C   UNL A   1      46.423  27.490  35.805  1.00  0.00     0.200 A 
ATOM     95  F   UNL A   1      47.760  29.122  34.744  1.00  0.00    -0.200 F 
ATOM     96  F   UNL A   1      47.519  26.888  36.289  1.00  0.00    -0.200 F 
ENDBRANCH  63  86
ENDBRANCH  37  38
ENDBRANCH  29  32
ENDBRANCH  27  28
ENDBRANCH  26  27
ENDBRANCH   1  26
TORSDOF 14
ENDMDL
