MODEL 1
REMARK VINA RESULT:     -12.5      0.000      0.000
REMARK SMILES CC(=O)OCC1=C(C(=O)NCCCCNC(=O)c2ccc(-c3c4nc(c(-c5c(F)c(F)c(F)c(F)c5F)c5ccc([nH]5)c(-c5c(F)c(F)c(F)c(F)c5F)c5nc(c(-c6c(F)c(F)c(F)c(F)c6F)c6ccc3[nH]6)C=C5)C=C4)cc2)N2C(=O)[C@H](NC(=O)c3c(C)nn(C(F)F)c3C)[C@@H]2SC1
REMARK SMILES IDX 12 1 11 2 10 3 8 4 9 5 7 7 6 8 100 9 81 10 99 11 82 12 98 13
REMARK SMILES IDX 83 14 84 15 5 16 4 17 2 18 1 19 3 20 85 21 86 22 87 24 88 25
REMARK SMILES IDX 89 26 96 27 90 28 91 29 92 30 97 31 93 32 94 33 95 34 13 35
REMARK SMILES IDX 14 36 15 37 16 38 17 40 18 41 19 42 80 43 20 44 79 45 21 46
REMARK SMILES IDX 22 47 23 48 73 49 24 50 78 51 72 52 74 53 25 54 77 55 71 56
REMARK SMILES IDX 70 57 26 59 58 60 38 61 57 62 39 63 42 64 56 65 75 66 40 67
REMARK SMILES IDX 41 68 55 70 76 71 43 72 27 73 28 74 36 75 29 76 30 77 34 78
REMARK SMILES IDX 37 79 31 80 32 81 35 82 33 83 59 84 60 85 68 86 61 87 62 88
REMARK SMILES IDX 66 89 69 90 63 91 64 92 67 93 65 94 44 95 45 96 53 97 46 98
REMARK SMILES IDX 47 99 51 100 54 101 48 102 49 103 52 104 50 105
REMARK H PARENT 10 6 85 23 15 39 74 58 42 69
REMARK Flexibility Score: inf
ROOT
ATOM      1  C   UNL A   1      37.042  21.229  24.630  1.00  0.00     0.023 C 
ENDROOT
BRANCH   1   2
ATOM      2  C   UNL A   1      36.591  22.302  25.636  1.00  0.00     0.116 C 
BRANCH   2   3
ATOM      3  N   UNL A   1      35.617  21.859  26.628  1.00  0.00    -0.351 N 
ATOM      4  C   UNL A   1      34.309  21.454  26.552  1.00  0.00     0.268 C 
ATOM      5  O   UNL A   1      33.779  21.078  27.598  1.00  0.00    -0.268 OA
ATOM      6  H   UNL A   1      35.975  21.849  27.545  1.00  0.00     0.163 HD
BRANCH   4   7
ATOM      7  C   UNL A   1      33.527  21.464  25.257  1.00  0.00     0.114 C 
ATOM      8  C   UNL A   1      33.373  20.392  24.438  1.00  0.00     0.007 C 
ATOM      9  C   UNL A   1      32.261  20.283  23.398  1.00  0.00     0.108 C 
ATOM     10  N   UNL A   1      33.183  22.676  24.715  1.00  0.00    -0.290 N 
ATOM     11  S   UNL A   1      31.409  21.840  23.020  1.00  0.00    -0.129 SA
ATOM     12  C   UNL A   1      33.228  23.999  24.980  1.00  0.00     0.253 C 
ATOM     13  C   UNL A   1      32.919  22.801  23.293  1.00  0.00     0.181 C 
ATOM     14  O   UNL A   1      33.469  24.655  25.966  1.00  0.00    -0.272 OA
ATOM     15  C   UNL A   1      32.836  24.329  23.491  1.00  0.00     0.206 C 
BRANCH   8  16
ATOM     16  C   UNL A   1      34.389  19.285  24.278  1.00  0.00     0.267 C 
BRANCH  16  17
ATOM     17  O   UNL A   1      33.904  18.021  24.742  1.00  0.00    -0.461 OA
BRANCH  17  18
ATOM     18  C   UNL A   1      34.177  16.888  24.052  1.00  0.00     0.302 C 
ATOM     19  C   UNL A   1      34.742  15.866  25.001  1.00  0.00     0.139 C 
ATOM     20  O   UNL A   1      34.030  16.748  22.849  1.00  0.00    -0.253 OA
ENDBRANCH  17  18
ENDBRANCH  16  17
ENDBRANCH   8  16
BRANCH  15  21
ATOM     21  N   UNL A   1      31.525  24.980  23.282  1.00  0.00    -0.337 N 
ATOM     22  C   UNL A   1      31.129  26.255  23.614  1.00  0.00     0.255 C 
ATOM     23  H   UNL A   1      30.840  24.424  22.844  1.00  0.00     0.164 HD
ATOM     24  O   UNL A   1      29.942  26.551  23.504  1.00  0.00    -0.269 OA
BRANCH  22  25
ATOM     25  C   UNL A   1      32.110  27.200  24.126  1.00  0.00     0.083 A 
ATOM     26  C   UNL A   1      33.224  27.733  23.418  1.00  0.00     0.073 A 
ATOM     27  C   UNL A   1      32.272  27.678  25.423  1.00  0.00     0.054 A 
ATOM     28  C   UNL A   1      33.654  27.473  22.020  1.00  0.00     0.069 C 
ATOM     29  N   UNL A   1      33.937  28.578  24.168  1.00  0.00    -0.172 NA
ATOM     30  N   UNL A   1      33.337  28.557  25.378  1.00  0.00    -0.208 N 
ATOM     31  C   UNL A   1      31.573  27.338  26.688  1.00  0.00     0.067 C 
BRANCH  30  32
ATOM     32  C   UNL A   1      33.849  29.402  26.461  1.00  0.00     0.465 C 
ATOM     33  F   UNL A   1      32.900  30.245  26.946  1.00  0.00    -0.184 F 
ATOM     34  F   UNL A   1      34.311  28.667  27.508  1.00  0.00    -0.184 F 
ENDBRANCH  30  32
ENDBRANCH  22  25
ENDBRANCH  15  21
ENDBRANCH   4   7
ENDBRANCH   2   3
ENDBRANCH   1   2
BRANCH   1  35
ATOM     35  C   UNL A   1      37.841  20.060  25.190  1.00  0.00     0.023 C 
BRANCH  35  36
ATOM     36  C   UNL A   1      39.129  20.496  25.849  1.00  0.00     0.116 C 
BRANCH  36  37
ATOM     37  N   UNL A   1      40.075  19.392  25.994  1.00  0.00    -0.352 N 
ATOM     38  C   UNL A   1      41.438  19.434  26.127  1.00  0.00     0.251 C 
ATOM     39  H   UNL A   1      39.677  18.491  25.994  1.00  0.00     0.163 HD
ATOM     40  O   UNL A   1      42.110  18.413  26.046  1.00  0.00    -0.269 OA
BRANCH  38  41
ATOM     41  C   UNL A   1      42.070  20.740  26.353  1.00  0.00     0.039 A 
ATOM     42  C   UNL A   1      42.375  21.553  25.261  1.00  0.00     0.014 A 
ATOM     43  C   UNL A   1      42.286  21.178  27.661  1.00  0.00     0.014 A 
ATOM     44  C   UNL A   1      42.852  22.840  25.495  1.00  0.00     0.010 A 
ATOM     45  C   UNL A   1      42.623  22.497  27.888  1.00  0.00     0.010 A 
ATOM     46  C   UNL A   1      42.946  23.328  26.808  1.00  0.00    -0.014 A 
BRANCH  46  47
ATOM     47  C   UNL A   1      43.446  24.690  27.090  1.00  0.00     0.031 A 
ATOM     48  C   UNL A   1      42.500  25.716  27.652  1.00  0.00     0.074 A 
ATOM     49  C   UNL A   1      44.719  25.010  26.792  1.00  0.00     0.049 A 
ATOM     50  N   UNL A   1      42.710  26.979  27.913  1.00  0.00    -0.248 NA
ATOM     51  C   UNL A   1      41.119  25.274  27.916  1.00  0.00     0.031 C 
ATOM     52  C   UNL A   1      45.702  24.105  26.190  1.00  0.00     0.029 A 
ATOM     53  N   UNL A   1      45.403  26.185  26.954  1.00  0.00    -0.354 N 
ATOM     54  C   UNL A   1      41.491  27.477  28.356  1.00  0.00     0.074 A 
ATOM     55  C   UNL A   1      40.526  26.409  28.246  1.00  0.00     0.031 C 
ATOM     56  C   UNL A   1      46.875  24.748  26.073  1.00  0.00     0.029 A 
ATOM     57  C   UNL A   1      46.713  26.118  26.546  1.00  0.00     0.049 A 
ATOM     58  H   UNL A   1      44.996  26.999  27.327  1.00  0.00     0.167 HD
ATOM     59  C   UNL A   1      41.213  28.704  28.849  1.00  0.00     0.037 A 
ATOM     60  C   UNL A   1      47.669  27.065  26.553  1.00  0.00     0.037 A 
ATOM     61  C   UNL A   1      42.192  29.747  28.981  1.00  0.00     0.049 A 
ATOM     62  C   UNL A   1      47.327  28.429  27.094  1.00  0.00     0.074 A 
ATOM     63  C   UNL A   1      42.037  31.011  29.518  1.00  0.00     0.029 A 
ATOM     64  N   UNL A   1      43.513  29.642  28.568  1.00  0.00    -0.354 N 
ATOM     65  N   UNL A   1      46.192  28.867  27.584  1.00  0.00    -0.248 NA
ATOM     66  C   UNL A   1      48.404  29.429  27.090  1.00  0.00     0.031 C 
ATOM     67  C   UNL A   1      43.248  31.693  29.374  1.00  0.00     0.029 A 
ATOM     68  C   UNL A   1      44.178  30.830  28.813  1.00  0.00     0.049 A 
ATOM     69  H   UNL A   1      43.916  28.841  28.162  1.00  0.00     0.167 HD
ATOM     70  C   UNL A   1      46.426  30.179  27.975  1.00  0.00     0.074 A 
ATOM     71  C   UNL A   1      47.817  30.457  27.684  1.00  0.00     0.031 C 
ATOM     72  C   UNL A   1      45.569  31.076  28.523  1.00  0.00     0.037 A 
BRANCH  59  73
ATOM     73  C   UNL A   1      39.803  28.976  29.286  1.00  0.00     0.064 A 
ATOM     74  C   UNL A   1      39.384  28.761  30.609  1.00  0.00     0.173 A 
ATOM     75  C   UNL A   1      38.861  29.480  28.377  1.00  0.00     0.173 A 
ATOM     76  F   UNL A   1      40.239  28.262  31.516  1.00  0.00    -0.203 F 
ATOM     77  C   UNL A   1      38.071  29.013  30.998  1.00  0.00     0.198 A 
ATOM     78  C   UNL A   1      37.559  29.766  28.778  1.00  0.00     0.198 A 
ATOM     79  F   UNL A   1      39.205  29.701  27.099  1.00  0.00    -0.203 F 
ATOM     80  F   UNL A   1      37.682  28.745  32.252  1.00  0.00    -0.200 F 
ATOM     81  C   UNL A   1      37.162  29.525  30.084  1.00  0.00     0.200 A 
ATOM     82  F   UNL A   1      36.685  30.272  27.897  1.00  0.00    -0.200 F 
ATOM     83  F   UNL A   1      35.901  29.778  30.461  1.00  0.00    -0.200 F 
ENDBRANCH  59  73
BRANCH  60  84
ATOM     84  C   UNL A   1      49.037  26.755  26.059  1.00  0.00     0.064 A 
ATOM     85  C   UNL A   1      49.409  27.041  24.737  1.00  0.00     0.173 A 
ATOM     86  C   UNL A   1      49.994  26.153  26.888  1.00  0.00     0.173 A 
ATOM     87  F   UNL A   1      48.526  27.605  23.900  1.00  0.00    -0.203 F 
ATOM     88  C   UNL A   1      50.672  26.704  24.255  1.00  0.00     0.198 A 
ATOM     89  C   UNL A   1      51.269  25.847  26.414  1.00  0.00     0.198 A 
ATOM     90  F   UNL A   1      49.696  25.868  28.164  1.00  0.00    -0.203 F 
ATOM     91  F   UNL A   1      50.979  26.934  22.971  1.00  0.00    -0.200 F 
ATOM     92  C   UNL A   1      51.602  26.112  25.095  1.00  0.00     0.200 A 
ATOM     93  F   UNL A   1      52.171  25.294  27.235  1.00  0.00    -0.200 F 
ATOM     94  F   UNL A   1      52.816  25.787  24.630  1.00  0.00    -0.200 F 
ENDBRANCH  60  84
BRANCH  72  95
ATOM     95  C   UNL A   1      46.121  32.424  28.884  1.00  0.00     0.064 A 
ATOM     96  C   UNL A   1      46.705  32.673  30.134  1.00  0.00     0.173 A 
ATOM     97  C   UNL A   1      46.105  33.469  27.945  1.00  0.00     0.173 A 
ATOM     98  F   UNL A   1      46.734  31.712  31.070  1.00  0.00    -0.203 F 
ATOM     99  C   UNL A   1      47.222  33.928  30.444  1.00  0.00     0.198 A 
ATOM    100  C   UNL A   1      46.658  34.710  28.246  1.00  0.00     0.198 A 
ATOM    101  F   UNL A   1      45.568  33.279  26.731  1.00  0.00    -0.203 F 
ATOM    102  F   UNL A   1      47.722  34.161  31.666  1.00  0.00    -0.200 F 
ATOM    103  C   UNL A   1      47.207  34.942  29.497  1.00  0.00     0.200 A 
ATOM    104  F   UNL A   1      46.661  35.680  27.321  1.00  0.00    -0.200 F 
ATOM    105  F   UNL A   1      47.715  36.145  29.794  1.00  0.00    -0.200 F 
ENDBRANCH  72  95
ENDBRANCH  46  47
ENDBRANCH  38  41
ENDBRANCH  36  37
ENDBRANCH  35  36
ENDBRANCH   1  35
TORSDOF 17
ENDMDL
MODEL 2
REMARK VINA RESULT:     -12.3      0.586      7.108
REMARK SMILES CC(=O)OCC1=C(C(=O)NCCCCNC(=O)c2ccc(-c3c4nc(c(-c5c(F)c(F)c(F)c(F)c5F)c5ccc([nH]5)c(-c5c(F)c(F)c(F)c(F)c5F)c5nc(c(-c6c(F)c(F)c(F)c(F)c6F)c6ccc3[nH]6)C=C5)C=C4)cc2)N2C(=O)[C@H](NC(=O)c3c(C)nn(C(F)F)c3C)[C@@H]2SC1
REMARK SMILES IDX 12 1 11 2 10 3 8 4 9 5 7 7 6 8 100 9 81 10 99 11 82 12 98 13
REMARK SMILES IDX 83 14 84 15 5 16 4 17 2 18 1 19 3 20 85 21 86 22 87 24 88 25
REMARK SMILES IDX 89 26 96 27 90 28 91 29 92 30 97 31 93 32 94 33 95 34 13 35
REMARK SMILES IDX 14 36 15 37 16 38 17 40 18 41 19 42 80 43 20 44 79 45 21 46
REMARK SMILES IDX 22 47 23 48 73 49 24 50 78 51 72 52 74 53 25 54 77 55 71 56
REMARK SMILES IDX 70 57 26 59 58 60 38 61 57 62 39 63 42 64 56 65 75 66 40 67
REMARK SMILES IDX 41 68 55 70 76 71 43 72 27 73 28 74 36 75 29 76 30 77 34 78
REMARK SMILES IDX 37 79 31 80 32 81 35 82 33 83 59 84 60 85 68 86 61 87 62 88
REMARK SMILES IDX 66 89 69 90 63 91 64 92 67 93 65 94 44 95 45 96 53 97 46 98
REMARK SMILES IDX 47 99 51 100 54 101 48 102 49 103 52 104 50 105
REMARK H PARENT 10 6 85 23 15 39 74 58 42 69
REMARK Flexibility Score: inf
ROOT
ATOM      1  C   UNL A   1      36.860  21.318  24.619  1.00  0.00     0.023 C 
ENDROOT
BRANCH   1   2
ATOM      2  C   UNL A   1      36.503  22.324  25.726  1.00  0.00     0.116 C 
BRANCH   2   3
ATOM      3  N   UNL A   1      35.514  21.864  26.694  1.00  0.00    -0.351 N 
ATOM      4  C   UNL A   1      34.203  21.475  26.593  1.00  0.00     0.268 C 
ATOM      5  O   UNL A   1      33.658  21.075  27.622  1.00  0.00    -0.268 OA
ATOM      6  H   UNL A   1      35.861  21.824  27.614  1.00  0.00     0.163 HD
BRANCH   4   7
ATOM      7  C   UNL A   1      33.435  21.529  25.290  1.00  0.00     0.114 C 
ATOM      8  C   UNL A   1      33.258  20.476  24.452  1.00  0.00     0.007 C 
ATOM      9  C   UNL A   1      32.154  20.417  23.400  1.00  0.00     0.108 C 
ATOM     10  N   UNL A   1      33.134  22.760  24.764  1.00  0.00    -0.290 N 
ATOM     11  S   UNL A   1      31.354  22.005  23.038  1.00  0.00    -0.129 SA
ATOM     12  C   UNL A   1      33.217  24.076  25.051  1.00  0.00     0.253 C 
ATOM     13  C   UNL A   1      32.890  22.915  23.342  1.00  0.00     0.181 C 
ATOM     14  O   UNL A   1      33.467  24.709  26.050  1.00  0.00    -0.272 OA
ATOM     15  C   UNL A   1      32.851  24.442  23.564  1.00  0.00     0.206 C 
BRANCH   8  16
ATOM     16  C   UNL A   1      34.242  19.340  24.285  1.00  0.00     0.267 C 
BRANCH  16  17
ATOM     17  O   UNL A   1      33.662  18.063  24.568  1.00  0.00    -0.461 OA
BRANCH  17  18
ATOM     18  C   UNL A   1      34.126  16.950  23.953  1.00  0.00     0.302 C 
ATOM     19  C   UNL A   1      34.822  16.087  24.971  1.00  0.00     0.139 C 
ATOM     20  O   UNL A   1      34.032  16.718  22.760  1.00  0.00    -0.253 OA
ENDBRANCH  17  18
ENDBRANCH  16  17
ENDBRANCH   8  16
BRANCH  15  21
ATOM     21  N   UNL A   1      31.562  25.136  23.352  1.00  0.00    -0.337 N 
ATOM     22  C   UNL A   1      31.189  26.403  23.735  1.00  0.00     0.255 C 
ATOM     23  H   UNL A   1      30.877  24.619  22.869  1.00  0.00     0.164 HD
ATOM     24  O   UNL A   1      30.013  26.734  23.607  1.00  0.00    -0.269 OA
BRANCH  22  25
ATOM     25  C   UNL A   1      32.179  27.297  24.318  1.00  0.00     0.083 A 
ATOM     26  C   UNL A   1      33.315  27.847  23.662  1.00  0.00     0.073 A 
ATOM     27  C   UNL A   1      32.326  27.695  25.644  1.00  0.00     0.054 A 
ATOM     28  C   UNL A   1      33.765  27.661  22.259  1.00  0.00     0.069 C 
ATOM     29  N   UNL A   1      34.030  28.633  24.472  1.00  0.00    -0.172 NA
ATOM     30  N   UNL A   1      33.408  28.553  25.668  1.00  0.00    -0.208 N 
ATOM     31  C   UNL A   1      31.598  27.295  26.874  1.00  0.00     0.067 C 
BRANCH  30  32
ATOM     32  C   UNL A   1      33.917  29.324  26.807  1.00  0.00     0.465 C 
ATOM     33  F   UNL A   1      35.169  28.939  27.169  1.00  0.00    -0.184 F 
ATOM     34  F   UNL A   1      33.964  30.658  26.541  1.00  0.00    -0.184 F 
ENDBRANCH  30  32
ENDBRANCH  22  25
ENDBRANCH  15  21
ENDBRANCH   4   7
ENDBRANCH   2   3
ENDBRANCH   1   2
BRANCH   1  35
ATOM     35  C   UNL A   1      37.801  20.183  25.002  1.00  0.00     0.023 C 
BRANCH  35  36
ATOM     36  C   UNL A   1      39.018  20.667  25.757  1.00  0.00     0.116 C 
BRANCH  36  37
ATOM     37  N   UNL A   1      40.007  19.607  25.944  1.00  0.00    -0.352 N 
ATOM     38  C   UNL A   1      41.355  19.712  26.158  1.00  0.00     0.251 C 
ATOM     39  H   UNL A   1      39.654  18.688  25.910  1.00  0.00     0.163 HD
ATOM     40  O   UNL A   1      42.080  18.726  26.105  1.00  0.00    -0.269 OA
BRANCH  38  41
ATOM     41  C   UNL A   1      41.909  21.044  26.437  1.00  0.00     0.039 A 
ATOM     42  C   UNL A   1      42.210  21.897  25.376  1.00  0.00     0.014 A 
ATOM     43  C   UNL A   1      42.054  21.461  27.761  1.00  0.00     0.014 A 
ATOM     44  C   UNL A   1      42.609  23.201  25.656  1.00  0.00     0.010 A 
ATOM     45  C   UNL A   1      42.313  22.789  28.030  1.00  0.00     0.010 A 
ATOM     46  C   UNL A   1      42.630  23.662  26.982  1.00  0.00    -0.014 A 
BRANCH  46  47
ATOM     47  C   UNL A   1      43.046  25.041  27.313  1.00  0.00     0.031 A 
ATOM     48  C   UNL A   1      44.461  25.466  27.032  1.00  0.00     0.074 A 
ATOM     49  C   UNL A   1      42.176  25.877  27.909  1.00  0.00     0.049 A 
ATOM     50  N   UNL A   1      45.052  26.601  27.298  1.00  0.00    -0.248 NA
ATOM     51  C   UNL A   1      45.344  24.467  26.404  1.00  0.00     0.031 C 
ATOM     52  C   UNL A   1      40.798  25.545  28.280  1.00  0.00     0.029 A 
ATOM     53  N   UNL A   1      42.324  27.178  28.310  1.00  0.00    -0.354 N 
ATOM     54  C   UNL A   1      46.369  26.442  26.884  1.00  0.00     0.074 A 
ATOM     55  C   UNL A   1      46.516  25.080  26.430  1.00  0.00     0.031 C 
ATOM     56  C   UNL A   1      40.214  26.629  28.815  1.00  0.00     0.029 A 
ATOM     57  C   UNL A   1      41.189  27.713  28.868  1.00  0.00     0.049 A 
ATOM     58  H   UNL A   1      43.163  27.682  28.208  1.00  0.00     0.167 HD
ATOM     59  C   UNL A   1      47.356  27.366  26.847  1.00  0.00     0.037 A 
ATOM     60  C   UNL A   1      40.969  28.943  29.368  1.00  0.00     0.037 A 
ATOM     61  C   UNL A   1      47.186  28.727  27.272  1.00  0.00     0.049 A 
ATOM     62  C   UNL A   1      42.091  29.947  29.329  1.00  0.00     0.074 A 
ATOM     63  C   UNL A   1      48.098  29.764  27.229  1.00  0.00     0.029 A 
ATOM     64  N   UNL A   1      46.018  29.238  27.822  1.00  0.00    -0.354 N 
ATOM     65  N   UNL A   1      43.310  29.812  28.863  1.00  0.00    -0.248 NA
ATOM     66  C   UNL A   1      41.804  31.279  29.878  1.00  0.00     0.031 C 
ATOM     67  C   UNL A   1      47.504  30.887  27.810  1.00  0.00     0.029 A 
ATOM     68  C   UNL A   1      46.197  30.571  28.149  1.00  0.00     0.049 A 
ATOM     69  H   UNL A   1      45.187  28.729  27.960  1.00  0.00     0.167 HD
ATOM     70  C   UNL A   1      43.923  31.047  29.032  1.00  0.00     0.074 A 
ATOM     71  C   UNL A   1      42.934  31.923  29.626  1.00  0.00     0.031 C 
ATOM     72  C   UNL A   1      45.190  31.424  28.729  1.00  0.00     0.037 A 
BRANCH  59  73
ATOM     73  C   UNL A   1      48.694  26.933  26.323  1.00  0.00     0.064 A 
ATOM     74  C   UNL A   1      49.029  27.051  24.964  1.00  0.00     0.173 A 
ATOM     75  C   UNL A   1      49.665  26.416  27.192  1.00  0.00     0.173 A 
ATOM     76  F   UNL A   1      48.132  27.522  24.084  1.00  0.00    -0.203 F 
ATOM     77  C   UNL A   1      50.274  26.640  24.492  1.00  0.00     0.198 A 
ATOM     78  C   UNL A   1      50.921  26.040  26.723  1.00  0.00     0.198 A 
ATOM     79  F   UNL A   1      49.399  26.278  28.500  1.00  0.00    -0.203 F 
ATOM     80  F   UNL A   1      50.548  26.709  23.182  1.00  0.00    -0.200 F 
ATOM     81  C   UNL A   1      51.222  26.145  25.374  1.00  0.00     0.200 A 
ATOM     82  F   UNL A   1      51.842  25.574  27.579  1.00  0.00    -0.200 F 
ATOM     83  F   UNL A   1      52.423  25.760  24.921  1.00  0.00    -0.200 F 
ENDBRANCH  59  73
BRANCH  60  84
ATOM     84  C   UNL A   1      39.637  29.301  29.924  1.00  0.00     0.064 A 
ATOM     85  C   UNL A   1      39.341  29.096  31.280  1.00  0.00     0.173 A 
ATOM     86  C   UNL A   1      38.627  29.838  29.113  1.00  0.00     0.173 A 
ATOM     87  F   UNL A   1      40.268  28.573  32.096  1.00  0.00    -0.203 F 
ATOM     88  C   UNL A   1      38.078  29.381  31.793  1.00  0.00     0.198 A 
ATOM     89  C   UNL A   1      37.374  30.155  29.635  1.00  0.00     0.198 A 
ATOM     90  F   UNL A   1      38.859  30.066  27.812  1.00  0.00    -0.203 F 
ATOM     91  F   UNL A   1      37.804  29.118  33.078  1.00  0.00    -0.200 F 
ATOM     92  C   UNL A   1      37.096  29.914  30.971  1.00  0.00     0.200 A 
ATOM     93  F   UNL A   1      36.436  30.689  28.841  1.00  0.00    -0.200 F 
ATOM     94  F   UNL A   1      35.882  30.187  31.465  1.00  0.00    -0.200 F 
ENDBRANCH  60  84
BRANCH  72  95
ATOM     95  C   UNL A   1      45.564  32.854  28.991  1.00  0.00     0.064 A 
ATOM     96  C   UNL A   1      45.337  33.863  28.044  1.00  0.00     0.173 A 
ATOM     97  C   UNL A   1      46.117  33.224  30.228  1.00  0.00     0.173 A 
ATOM     98  F   UNL A   1      44.823  33.558  26.843  1.00  0.00    -0.203 F 
ATOM     99  C   UNL A   1      45.681  35.184  28.312  1.00  0.00     0.198 A 
ATOM    100  C   UNL A   1      46.422  34.552  30.506  1.00  0.00     0.198 A 
ATOM    101  F   UNL A   1      46.343  32.298  31.172  1.00  0.00    -0.203 F 
ATOM    102  F   UNL A   1      45.510  36.123  27.371  1.00  0.00    -0.200 F 
ATOM    103  C   UNL A   1      46.214  35.530  29.546  1.00  0.00     0.200 A 
ATOM    104  F   UNL A   1      46.917  34.885  31.706  1.00  0.00    -0.200 F 
ATOM    105  F   UNL A   1      46.534  36.804  29.806  1.00  0.00    -0.200 F 
ENDBRANCH  72  95
ENDBRANCH  46  47
ENDBRANCH  38  41
ENDBRANCH  36  37
ENDBRANCH  35  36
ENDBRANCH   1  35
TORSDOF 17
ENDMDL
MODEL 3
REMARK VINA RESULT:     -12.2      2.906      7.937
REMARK SMILES CC(=O)OCC1=C(C(=O)NCCCCNC(=O)c2ccc(-c3c4nc(c(-c5c(F)c(F)c(F)c(F)c5F)c5ccc([nH]5)c(-c5c(F)c(F)c(F)c(F)c5F)c5nc(c(-c6c(F)c(F)c(F)c(F)c6F)c6ccc3[nH]6)C=C5)C=C4)cc2)N2C(=O)[C@H](NC(=O)c3c(C)nn(C(F)F)c3C)[C@@H]2SC1
REMARK SMILES IDX 12 1 11 2 10 3 8 4 9 5 7 7 6 8 100 9 81 10 99 11 82 12 98 13
REMARK SMILES IDX 83 14 84 15 5 16 4 17 2 18 1 19 3 20 85 21 86 22 87 24 88 25
REMARK SMILES IDX 89 26 96 27 90 28 91 29 92 30 97 31 93 32 94 33 95 34 13 35
REMARK SMILES IDX 14 36 15 37 16 38 17 40 18 41 19 42 80 43 20 44 79 45 21 46
REMARK SMILES IDX 22 47 23 48 73 49 24 50 78 51 72 52 74 53 25 54 77 55 71 56
REMARK SMILES IDX 70 57 26 59 58 60 38 61 57 62 39 63 42 64 56 65 75 66 40 67
REMARK SMILES IDX 41 68 55 70 76 71 43 72 27 73 28 74 36 75 29 76 30 77 34 78
REMARK SMILES IDX 37 79 31 80 32 81 35 82 33 83 59 84 60 85 68 86 61 87 62 88
REMARK SMILES IDX 66 89 69 90 63 91 64 92 67 93 65 94 44 95 45 96 53 97 46 98
REMARK SMILES IDX 47 99 51 100 54 101 48 102 49 103 52 104 50 105
REMARK H PARENT 10 6 85 23 15 39 74 58 42 69
REMARK Flexibility Score: inf
ROOT
ATOM      1  C   UNL A   1      34.490  23.083  27.153  1.00  0.00     0.023 C 
ENDROOT
BRANCH   1   2
ATOM      2  C   UNL A   1      33.599  21.978  27.745  1.00  0.00     0.116 C 
BRANCH   2   3
ATOM      3  N   UNL A   1      32.163  22.186  27.597  1.00  0.00    -0.351 N 
ATOM      4  C   UNL A   1      31.310  22.154  26.524  1.00  0.00     0.268 C 
ATOM      5  O   UNL A   1      30.112  22.319  26.757  1.00  0.00    -0.268 OA
ATOM      6  H   UNL A   1      31.712  22.392  28.447  1.00  0.00     0.163 HD
BRANCH   4   7
ATOM      7  C   UNL A   1      31.791  21.935  25.106  1.00  0.00     0.114 C 
ATOM      8  C   UNL A   1      32.194  20.740  24.602  1.00  0.00     0.007 C 
ATOM      9  C   UNL A   1      32.257  20.438  23.108  1.00  0.00     0.108 C 
ATOM     10  N   UNL A   1      32.117  23.035  24.353  1.00  0.00    -0.290 N 
ATOM     11  S   UNL A   1      32.171  21.893  22.027  1.00  0.00    -0.129 SA
ATOM     12  C   UNL A   1      32.093  24.383  24.394  1.00  0.00     0.253 C 
ATOM     13  C   UNL A   1      33.041  22.919  23.239  1.00  0.00     0.181 C 
ATOM     14  O   UNL A   1      31.573  25.197  25.121  1.00  0.00    -0.272 OA
ATOM     15  C   UNL A   1      33.008  24.456  23.114  1.00  0.00     0.206 C 
BRANCH   8  16
ATOM     16  C   UNL A   1      32.844  19.644  25.415  1.00  0.00     0.267 C 
BRANCH  16  17
ATOM     17  O   UNL A   1      32.206  18.375  25.237  1.00  0.00    -0.461 OA
BRANCH  17  18
ATOM     18  C   UNL A   1      32.942  17.239  25.205  1.00  0.00     0.302 C 
ATOM     19  C   UNL A   1      33.624  17.140  23.867  1.00  0.00     0.139 C 
ATOM     20  O   UNL A   1      32.995  16.413  26.101  1.00  0.00    -0.253 OA
ENDBRANCH  17  18
ENDBRANCH  16  17
ENDBRANCH   8  16
BRANCH  15  21
ATOM     21  N   UNL A   1      32.398  25.035  21.898  1.00  0.00    -0.337 N 
ATOM     22  C   UNL A   1      31.773  26.251  21.739  1.00  0.00     0.255 C 
ATOM     23  H   UNL A   1      32.445  24.474  21.091  1.00  0.00     0.164 HD
ATOM     24  O   UNL A   1      31.185  26.476  20.684  1.00  0.00    -0.269 OA
BRANCH  22  25
ATOM     25  C   UNL A   1      31.784  27.212  22.831  1.00  0.00     0.083 A 
ATOM     26  C   UNL A   1      30.659  27.661  23.577  1.00  0.00     0.073 A 
ATOM     27  C   UNL A   1      32.835  28.000  23.294  1.00  0.00     0.054 A 
ATOM     28  C   UNL A   1      29.231  27.273  23.440  1.00  0.00     0.069 C 
ATOM     29  N   UNL A   1      31.001  28.548  24.516  1.00  0.00    -0.172 NA
ATOM     30  N   UNL A   1      32.329  28.730  24.352  1.00  0.00    -0.208 N 
ATOM     31  C   UNL A   1      34.222  28.174  22.796  1.00  0.00     0.067 C 
BRANCH  30  32
ATOM     32  C   UNL A   1      33.057  29.637  25.245  1.00  0.00     0.465 C 
ATOM     33  F   UNL A   1      32.225  30.300  26.092  1.00  0.00    -0.184 F 
ATOM     34  F   UNL A   1      33.969  28.977  26.009  1.00  0.00    -0.184 F 
ENDBRANCH  30  32
ENDBRANCH  22  25
ENDBRANCH  15  21
ENDBRANCH   4   7
ENDBRANCH   2   3
ENDBRANCH   1   2
BRANCH   1  35
ATOM     35  C   UNL A   1      35.372  22.693  25.974  1.00  0.00     0.023 C 
BRANCH  35  36
ATOM     36  C   UNL A   1      36.682  23.446  25.954  1.00  0.00     0.116 C 
BRANCH  36  37
ATOM     37  N   UNL A   1      37.833  22.554  26.087  1.00  0.00    -0.352 N 
ATOM     38  C   UNL A   1      39.118  22.850  26.456  1.00  0.00     0.251 C 
ATOM     39  H   UNL A   1      37.659  21.607  25.880  1.00  0.00     0.163 HD
ATOM     40  O   UNL A   1      40.014  22.024  26.335  1.00  0.00    -0.269 OA
BRANCH  38  41
ATOM     41  C   UNL A   1      39.393  24.193  26.984  1.00  0.00     0.039 A 
ATOM     42  C   UNL A   1      39.139  24.467  28.328  1.00  0.00     0.014 A 
ATOM     43  C   UNL A   1      39.975  25.150  26.151  1.00  0.00     0.014 A 
ATOM     44  C   UNL A   1      39.526  25.699  28.846  1.00  0.00     0.010 A 
ATOM     45  C   UNL A   1      40.482  26.310  26.699  1.00  0.00     0.010 A 
ATOM     46  C   UNL A   1      40.229  26.613  28.043  1.00  0.00    -0.014 A 
BRANCH  46  47
ATOM     47  C   UNL A   1      40.656  27.928  28.563  1.00  0.00     0.031 A 
ATOM     48  C   UNL A   1      42.113  28.163  28.853  1.00  0.00     0.074 A 
ATOM     49  C   UNL A   1      39.735  28.875  28.820  1.00  0.00     0.049 A 
ATOM     50  N   UNL A   1      42.694  29.213  29.369  1.00  0.00    -0.248 NA
ATOM     51  C   UNL A   1      43.037  27.052  28.564  1.00  0.00     0.031 C 
ATOM     52  C   UNL A   1      38.290  28.729  28.629  1.00  0.00     0.029 A 
ATOM     53  N   UNL A   1      39.879  30.150  29.301  1.00  0.00    -0.354 N 
ATOM     54  C   UNL A   1      44.039  28.882  29.476  1.00  0.00     0.074 A 
ATOM     55  C   UNL A   1      44.177  27.508  29.056  1.00  0.00     0.031 C 
ATOM     56  C   UNL A   1      37.686  29.884  28.949  1.00  0.00     0.029 A 
ATOM     57  C   UNL A   1      38.693  30.833  29.411  1.00  0.00     0.049 A 
ATOM     58  H   UNL A   1      40.750  30.540  29.543  1.00  0.00     0.167 HD
ATOM     59  C   UNL A   1      45.072  29.669  29.853  1.00  0.00     0.037 A 
ATOM     60  C   UNL A   1      38.454  32.085  29.841  1.00  0.00     0.037 A 
ATOM     61  C   UNL A   1      44.923  31.044  30.238  1.00  0.00     0.049 A 
ATOM     62  C   UNL A   1      39.622  32.935  30.269  1.00  0.00     0.074 A 
ATOM     63  C   UNL A   1      45.904  31.953  30.585  1.00  0.00     0.029 A 
ATOM     64  N   UNL A   1      43.707  31.708  30.328  1.00  0.00    -0.354 N 
ATOM     65  N   UNL A   1      40.900  32.638  30.292  1.00  0.00    -0.248 NA
ATOM     66  C   UNL A   1      39.315  34.297  30.724  1.00  0.00     0.031 C 
ATOM     67  C   UNL A   1      45.278  33.149  30.945  1.00  0.00     0.029 A 
ATOM     68  C   UNL A   1      43.912  33.009  30.753  1.00  0.00     0.049 A 
ATOM     69  H   UNL A   1      42.830  31.312  30.121  1.00  0.00     0.167 HD
ATOM     70  C   UNL A   1      41.550  33.784  30.731  1.00  0.00     0.074 A 
ATOM     71  C   UNL A   1      40.526  34.786  30.943  1.00  0.00     0.031 C 
ATOM     72  C   UNL A   1      42.873  33.990  30.944  1.00  0.00     0.037 A 
BRANCH  59  73
ATOM     73  C   UNL A   1      46.444  29.061  29.855  1.00  0.00     0.064 A 
ATOM     74  C   UNL A   1      46.979  28.445  30.999  1.00  0.00     0.173 A 
ATOM     75  C   UNL A   1      47.228  29.071  28.692  1.00  0.00     0.173 A 
ATOM     76  F   UNL A   1      46.279  28.423  32.144  1.00  0.00    -0.203 F 
ATOM     77  C   UNL A   1      48.256  27.890  30.986  1.00  0.00     0.198 A 
ATOM     78  C   UNL A   1      48.490  28.482  28.672  1.00  0.00     0.198 A 
ATOM     79  F   UNL A   1      46.770  29.648  27.571  1.00  0.00    -0.203 F 
ATOM     80  F   UNL A   1      48.765  27.360  32.106  1.00  0.00    -0.200 F 
ATOM     81  C   UNL A   1      49.007  27.900  29.820  1.00  0.00     0.200 A 
ATOM     82  F   UNL A   1      49.210  28.481  27.541  1.00  0.00    -0.200 F 
ATOM     83  F   UNL A   1      50.231  27.356  29.805  1.00  0.00    -0.200 F 
ENDBRANCH  59  73
BRANCH  60  84
ATOM     84  C   UNL A   1      37.066  32.619  29.867  1.00  0.00     0.064 A 
ATOM     85  C   UNL A   1      36.536  33.305  28.765  1.00  0.00     0.173 A 
ATOM     86  C   UNL A   1      36.247  32.470  30.996  1.00  0.00     0.173 A 
ATOM     87  F   UNL A   1      37.282  33.486  27.666  1.00  0.00    -0.203 F 
ATOM     88  C   UNL A   1      35.255  33.852  28.805  1.00  0.00     0.198 A 
ATOM     89  C   UNL A   1      34.953  32.988  31.022  1.00  0.00     0.198 A 
ATOM     90  F   UNL A   1      36.700  31.813  32.074  1.00  0.00    -0.203 F 
ATOM     91  F   UNL A   1      34.796  34.555  27.760  1.00  0.00    -0.200 F 
ATOM     92  C   UNL A   1      34.463  33.689  29.932  1.00  0.00     0.200 A 
ATOM     93  F   UNL A   1      34.185  32.810  32.105  1.00  0.00    -0.200 F 
ATOM     94  F   UNL A   1      33.232  34.216  29.969  1.00  0.00    -0.200 F 
ENDBRANCH  60  84
BRANCH  72  95
ATOM     95  C   UNL A   1      43.293  35.362  31.387  1.00  0.00     0.064 A 
ATOM     96  C   UNL A   1      43.675  36.351  30.468  1.00  0.00     0.173 A 
ATOM     97  C   UNL A   1      43.271  35.702  32.749  1.00  0.00     0.173 A 
ATOM     98  F   UNL A   1      43.724  36.071  29.157  1.00  0.00    -0.203 F 
ATOM     99  C   UNL A   1      44.049  37.620  30.900  1.00  0.00     0.198 A 
ATOM    100  C   UNL A   1      43.609  36.984  33.172  1.00  0.00     0.198 A 
ATOM    101  F   UNL A   1      42.904  34.796  33.668  1.00  0.00    -0.203 F 
ATOM    102  F   UNL A   1      44.466  38.532  30.010  1.00  0.00    -0.200 F 
ATOM    103  C   UNL A   1      44.007  37.938  32.249  1.00  0.00     0.200 A 
ATOM    104  F   UNL A   1      43.546  37.294  34.474  1.00  0.00    -0.200 F 
ATOM    105  F   UNL A   1      44.358  39.164  32.661  1.00  0.00    -0.200 F 
ENDBRANCH  72  95
ENDBRANCH  46  47
ENDBRANCH  38  41
ENDBRANCH  36  37
ENDBRANCH  35  36
ENDBRANCH   1  35
TORSDOF 17
ENDMDL
