MODEL 1
REMARK VINA RESULT:     -12.5      0.000      0.000
REMARK SMILES C[C@@H](C(=O)NCCCCNC(=O)c1ccc(-c2c3nc(c(-c4c(F)c(F)c(F)c(F)c4F)c4ccc([nH]4)c(-c4c(F)c(F)c(F)c(F)c4F)c4nc(c(-c5c(F)c(F)c(F)c(F)c5F)c5ccc2[nH]5)C=C4)C=C3)cc1)c1ccc(C[C@@H]2CCC[C@@H]2O)cc1F
REMARK SMILES IDX 6 1 5 2 3 3 4 4 2 6 1 7 76 8 77 9 88 10 78 11 87 12 89 13
REMARK SMILES IDX 79 14 80 15 81 16 82 17 85 18 83 19 84 20 86 21 7 23 8 24
REMARK SMILES IDX 9 25 10 26 11 27 12 29 13 30 14 31 75 32 15 33 74 34 16 35
REMARK SMILES IDX 17 36 18 37 68 38 19 39 73 40 67 41 69 42 20 43 72 44 66 45
REMARK SMILES IDX 65 46 21 48 53 49 33 50 52 51 34 52 37 53 51 54 70 55 35 56
REMARK SMILES IDX 36 57 50 59 71 60 38 61 22 62 23 63 31 64 24 65 25 66 29 67
REMARK SMILES IDX 32 68 26 69 27 70 30 71 28 72 54 73 55 74 63 75 56 76 57 77
REMARK SMILES IDX 61 78 64 79 58 80 59 81 62 82 60 83 39 84 40 85 48 86 41 87
REMARK SMILES IDX 42 88 46 89 49 90 43 91 44 92 47 93 45 94
REMARK H PARENT 5 5 86 22 10 28 69 47 37 58
REMARK Flexibility Score: inf
ROOT
ATOM      1  C   UNL A   1      32.701  29.789  25.644  1.00  0.00     0.116 C 
ENDROOT
BRANCH   1   2
ATOM      2  N   UNL A   1      31.812  28.996  24.816  1.00  0.00    -0.356 N 
ATOM      3  C   UNL A   1      32.094  28.209  23.735  1.00  0.00     0.227 C 
ATOM      4  O   UNL A   1      31.137  27.895  23.025  1.00  0.00    -0.274 OA
ATOM      5  H   UNL A   1      30.863  29.030  25.073  1.00  0.00     0.163 HD
BRANCH   3   6
ATOM      6  C   UNL A   1      33.545  27.763  23.468  1.00  0.00     0.108 C 
ATOM      7  C   UNL A   1      33.894  28.141  22.023  1.00  0.00     0.023 C 
BRANCH   6   8
ATOM      8  C   UNL A   1      33.840  26.293  23.788  1.00  0.00    -0.000 A 
ATOM      9  C   UNL A   1      33.687  25.278  22.828  1.00  0.00     0.008 A 
ATOM     10  C   UNL A   1      34.213  25.883  25.076  1.00  0.00     0.127 A 
ATOM     11  C   UNL A   1      33.976  23.940  23.122  1.00  0.00     0.004 A 
ATOM     12  C   UNL A   1      34.486  24.552  25.382  1.00  0.00     0.043 A 
ATOM     13  F   UNL A   1      34.299  26.764  26.082  1.00  0.00    -0.207 F 
ATOM     14  C   UNL A   1      34.367  23.560  24.407  1.00  0.00    -0.045 A 
BRANCH  14  15
ATOM     15  C   UNL A   1      34.636  22.120  24.762  1.00  0.00     0.041 C 
BRANCH  15  16
ATOM     16  C   UNL A   1      33.529  21.337  25.500  1.00  0.00     0.022 C 
ATOM     17  C   UNL A   1      32.100  21.752  25.136  1.00  0.00     0.007 C 
ATOM     18  C   UNL A   1      33.519  21.402  27.031  1.00  0.00     0.117 C 
ATOM     19  C   UNL A   1      31.607  22.668  26.258  1.00  0.00     0.003 C 
ATOM     20  C   UNL A   1      32.652  22.609  27.366  1.00  0.00     0.032 C 
BRANCH  18  21
ATOM     21  O   UNL A   1      34.811  21.481  27.596  1.00  0.00    -0.393 OA
ATOM     22  H   UNL A   1      34.826  21.000  28.439  1.00  0.00     0.210 HD
ENDBRANCH  18  21
ENDBRANCH  15  16
ENDBRANCH  14  15
ENDBRANCH   6   8
ENDBRANCH   3   6
ENDBRANCH   1   2
BRANCH   1  23
ATOM     23  C   UNL A   1      31.975  30.314  26.889  1.00  0.00     0.023 C 
BRANCH  23  24
ATOM     24  C   UNL A   1      31.702  31.818  26.889  1.00  0.00     0.023 C 
BRANCH  24  25
ATOM     25  C   UNL A   1      32.850  32.671  27.401  1.00  0.00     0.116 C 
BRANCH  25  26
ATOM     26  N   UNL A   1      32.454  34.049  27.659  1.00  0.00    -0.352 N 
ATOM     27  C   UNL A   1      32.981  34.929  28.572  1.00  0.00     0.251 C 
ATOM     28  H   UNL A   1      31.715  34.392  27.108  1.00  0.00     0.163 HD
ATOM     29  O   UNL A   1      32.461  36.022  28.768  1.00  0.00    -0.269 OA
BRANCH  27  30
ATOM     30  C   UNL A   1      34.172  34.523  29.343  1.00  0.00     0.039 A 
ATOM     31  C   UNL A   1      34.002  33.935  30.599  1.00  0.00     0.014 A 
ATOM     32  C   UNL A   1      35.445  34.669  28.789  1.00  0.00     0.014 A 
ATOM     33  C   UNL A   1      35.111  33.423  31.273  1.00  0.00     0.010 A 
ATOM     34  C   UNL A   1      36.537  34.098  29.428  1.00  0.00     0.010 A 
ATOM     35  C   UNL A   1      36.379  33.467  30.674  1.00  0.00    -0.014 A 
BRANCH  35  36
ATOM     36  C   UNL A   1      37.576  32.876  31.319  1.00  0.00     0.031 A 
ATOM     37  C   UNL A   1      38.272  31.723  30.659  1.00  0.00     0.074 A 
ATOM     38  C   UNL A   1      37.950  33.287  32.545  1.00  0.00     0.049 A 
ATOM     39  N   UNL A   1      39.198  30.931  31.133  1.00  0.00    -0.248 NA
ATOM     40  C   UNL A   1      37.835  31.392  29.294  1.00  0.00     0.031 C 
ATOM     41  C   UNL A   1      37.323  34.368  33.304  1.00  0.00     0.029 A 
ATOM     42  N   UNL A   1      38.932  32.815  33.381  1.00  0.00    -0.354 N 
ATOM     43  C   UNL A   1      39.423  29.984  30.143  1.00  0.00     0.074 A 
ATOM     44  C   UNL A   1      38.513  30.280  29.057  1.00  0.00     0.031 C 
ATOM     45  C   UNL A   1      37.933  34.476  34.496  1.00  0.00     0.029 A 
ATOM     46  C   UNL A   1      38.963  33.447  34.599  1.00  0.00     0.049 A 
ATOM     47  H   UNL A   1      39.553  32.094  33.131  1.00  0.00     0.167 HD
ATOM     48  C   UNL A   1      40.318  28.968  30.138  1.00  0.00     0.037 A 
ATOM     49  C   UNL A   1      39.723  33.206  35.685  1.00  0.00     0.037 A 
ATOM     50  C   UNL A   1      41.249  28.707  31.202  1.00  0.00     0.049 A 
ATOM     51  C   UNL A   1      40.732  32.094  35.645  1.00  0.00     0.074 A 
ATOM     52  C   UNL A   1      42.248  27.753  31.262  1.00  0.00     0.029 A 
ATOM     53  N   UNL A   1      41.294  29.412  32.397  1.00  0.00    -0.354 N 
ATOM     54  N   UNL A   1      40.977  31.236  34.684  1.00  0.00    -0.248 NA
ATOM     55  C   UNL A   1      41.575  31.917  36.836  1.00  0.00     0.031 C 
ATOM     56  C   UNL A   1      42.876  27.858  32.507  1.00  0.00     0.029 A 
ATOM     57  C   UNL A   1      42.296  28.904  33.207  1.00  0.00     0.049 A 
ATOM     58  H   UNL A   1      40.702  30.162  32.634  1.00  0.00     0.167 HD
ATOM     59  C   UNL A   1      42.016  30.436  35.141  1.00  0.00     0.074 A 
ATOM     60  C   UNL A   1      42.359  30.914  36.465  1.00  0.00     0.031 C 
ATOM     61  C   UNL A   1      42.631  29.402  34.517  1.00  0.00     0.037 A 
BRANCH  48  62
ATOM     62  C   UNL A   1      40.317  28.060  28.943  1.00  0.00     0.064 A 
ATOM     63  C   UNL A   1      39.593  26.858  28.928  1.00  0.00     0.173 A 
ATOM     64  C   UNL A   1      41.053  28.397  27.797  1.00  0.00     0.173 A 
ATOM     65  F   UNL A   1      38.885  26.484  30.005  1.00  0.00    -0.203 F 
ATOM     66  C   UNL A   1      39.639  26.007  27.826  1.00  0.00     0.198 A 
ATOM     67  C   UNL A   1      41.071  27.559  26.686  1.00  0.00     0.198 A 
ATOM     68  F   UNL A   1      41.759  29.536  27.756  1.00  0.00    -0.203 F 
ATOM     69  F   UNL A   1      38.990  24.835  27.861  1.00  0.00    -0.200 F 
ATOM     70  C   UNL A   1      40.374  26.360  26.705  1.00  0.00     0.200 A 
ATOM     71  F   UNL A   1      41.774  27.906  25.598  1.00  0.00    -0.200 F 
ATOM     72  F   UNL A   1      40.420  25.539  25.647  1.00  0.00    -0.200 F 
ENDBRANCH  48  62
BRANCH  49  73
ATOM     73  C   UNL A   1      39.562  34.056  36.891  1.00  0.00     0.064 A 
ATOM     74  C   UNL A   1      38.767  33.632  37.964  1.00  0.00     0.173 A 
ATOM     75  C   UNL A   1      40.225  35.286  37.013  1.00  0.00     0.173 A 
ATOM     76  F   UNL A   1      38.100  32.471  37.885  1.00  0.00    -0.203 F 
ATOM     77  C   UNL A   1      38.635  34.409  39.113  1.00  0.00     0.198 A 
ATOM     78  C   UNL A   1      40.109  36.052  38.171  1.00  0.00     0.198 A 
ATOM     79  F   UNL A   1      41.001  35.731  36.015  1.00  0.00    -0.203 F 
ATOM     80  F   UNL A   1      37.848  33.994  40.115  1.00  0.00    -0.200 F 
ATOM     81  C   UNL A   1      39.313  35.615  39.218  1.00  0.00     0.200 A 
ATOM     82  F   UNL A   1      40.776  37.211  38.275  1.00  0.00    -0.200 F 
ATOM     83  F   UNL A   1      39.196  36.356  40.328  1.00  0.00    -0.200 F 
ENDBRANCH  49  73
BRANCH  61  84
ATOM     84  C   UNL A   1      43.767  28.740  35.235  1.00  0.00     0.064 A 
ATOM     85  C   UNL A   1      43.553  27.697  36.147  1.00  0.00     0.173 A 
ATOM     86  C   UNL A   1      45.092  29.109  34.954  1.00  0.00     0.173 A 
ATOM     87  F   UNL A   1      42.303  27.319  36.458  1.00  0.00    -0.203 F 
ATOM     88  C   UNL A   1      44.625  27.055  36.761  1.00  0.00     0.198 A 
ATOM     89  C   UNL A   1      46.160  28.450  35.553  1.00  0.00     0.198 A 
ATOM     90  F   UNL A   1      45.347  30.099  34.085  1.00  0.00    -0.203 F 
ATOM     91  F   UNL A   1      44.398  26.079  37.652  1.00  0.00    -0.200 F 
ATOM     92  C   UNL A   1      45.927  27.425  36.458  1.00  0.00     0.200 A 
ATOM     93  F   UNL A   1      47.418  28.801  35.248  1.00  0.00    -0.200 F 
ATOM     94  F   UNL A   1      46.957  26.795  37.039  1.00  0.00    -0.200 F 
ENDBRANCH  61  84
ENDBRANCH  35  36
ENDBRANCH  27  30
ENDBRANCH  25  26
ENDBRANCH  24  25
ENDBRANCH  23  24
ENDBRANCH   1  23
TORSDOF 15
ENDMDL
MODEL 2
REMARK VINA RESULT:     -12.5      4.322     10.559
REMARK SMILES C[C@@H](C(=O)NCCCCNC(=O)c1ccc(-c2c3nc(c(-c4c(F)c(F)c(F)c(F)c4F)c4ccc([nH]4)c(-c4c(F)c(F)c(F)c(F)c4F)c4nc(c(-c5c(F)c(F)c(F)c(F)c5F)c5ccc2[nH]5)C=C4)C=C3)cc1)c1ccc(C[C@@H]2CCC[C@@H]2O)cc1F
REMARK SMILES IDX 6 1 5 2 3 3 4 4 2 6 1 7 76 8 77 9 88 10 78 11 87 12 89 13
REMARK SMILES IDX 79 14 80 15 81 16 82 17 85 18 83 19 84 20 86 21 7 23 8 24
REMARK SMILES IDX 9 25 10 26 11 27 12 29 13 30 14 31 75 32 15 33 74 34 16 35
REMARK SMILES IDX 17 36 18 37 68 38 19 39 73 40 67 41 69 42 20 43 72 44 66 45
REMARK SMILES IDX 65 46 21 48 53 49 33 50 52 51 34 52 37 53 51 54 70 55 35 56
REMARK SMILES IDX 36 57 50 59 71 60 38 61 22 62 23 63 31 64 24 65 25 66 29 67
REMARK SMILES IDX 32 68 26 69 27 70 30 71 28 72 54 73 55 74 63 75 56 76 57 77
REMARK SMILES IDX 61 78 64 79 58 80 59 81 62 82 60 83 39 84 40 85 48 86 41 87
REMARK SMILES IDX 42 88 46 89 49 90 43 91 44 92 47 93 45 94
REMARK H PARENT 5 5 86 22 10 28 69 47 37 58
REMARK Flexibility Score: inf
ROOT
ATOM      1  C   UNL A   1      35.794  34.292  31.709  1.00  0.00     0.116 C 
ENDROOT
BRANCH   1   2
ATOM      2  N   UNL A   1      37.113  34.708  32.146  1.00  0.00    -0.356 N 
ATOM      3  C   UNL A   1      37.797  34.389  33.286  1.00  0.00     0.227 C 
ATOM      4  O   UNL A   1      38.756  35.111  33.565  1.00  0.00    -0.274 OA
ATOM      5  H   UNL A   1      37.587  35.309  31.528  1.00  0.00     0.163 HD
BRANCH   3   6
ATOM      6  C   UNL A   1      37.355  33.182  34.134  1.00  0.00     0.108 C 
ATOM      7  C   UNL A   1      37.190  33.661  35.582  1.00  0.00     0.023 C 
BRANCH   6   8
ATOM      8  C   UNL A   1      38.250  31.943  34.015  1.00  0.00    -0.000 A 
ATOM      9  C   UNL A   1      39.586  31.946  34.451  1.00  0.00     0.008 A 
ATOM     10  C   UNL A   1      37.795  30.766  33.401  1.00  0.00     0.127 A 
ATOM     11  C   UNL A   1      40.392  30.805  34.354  1.00  0.00     0.004 A 
ATOM     12  C   UNL A   1      38.595  29.632  33.287  1.00  0.00     0.043 A 
ATOM     13  F   UNL A   1      36.566  30.694  32.874  1.00  0.00    -0.207 F 
ATOM     14  C   UNL A   1      39.909  29.638  33.759  1.00  0.00    -0.045 A 
BRANCH  14  15
ATOM     15  C   UNL A   1      40.772  28.412  33.599  1.00  0.00     0.041 C 
BRANCH  15  16
ATOM     16  C   UNL A   1      41.940  28.215  34.589  1.00  0.00     0.022 C 
ATOM     17  C   UNL A   1      43.331  28.455  33.994  1.00  0.00     0.007 C 
ATOM     18  C   UNL A   1      42.086  26.837  35.244  1.00  0.00     0.117 C 
ATOM     19  C   UNL A   1      43.922  27.077  33.686  1.00  0.00     0.003 C 
ATOM     20  C   UNL A   1      42.979  26.046  34.297  1.00  0.00     0.032 C 
BRANCH  18  21
ATOM     21  O   UNL A   1      40.849  26.202  35.491  1.00  0.00    -0.393 OA
ATOM     22  H   UNL A   1      40.524  26.456  36.369  1.00  0.00     0.210 HD
ENDBRANCH  18  21
ENDBRANCH  15  16
ENDBRANCH  14  15
ENDBRANCH   6   8
ENDBRANCH   3   6
ENDBRANCH   1   2
BRANCH   1  23
ATOM     23  C   UNL A   1      35.884  33.132  30.709  1.00  0.00     0.023 C 
BRANCH  23  24
ATOM     24  C   UNL A   1      34.578  32.797  29.990  1.00  0.00     0.023 C 
BRANCH  24  25
ATOM     25  C   UNL A   1      34.693  32.695  28.479  1.00  0.00     0.116 C 
BRANCH  25  26
ATOM     26  N   UNL A   1      34.069  31.491  27.948  1.00  0.00    -0.352 N 
ATOM     27  C   UNL A   1      34.634  30.254  27.756  1.00  0.00     0.251 C 
ATOM     28  H   UNL A   1      33.122  31.575  27.695  1.00  0.00     0.163 HD
ATOM     29  O   UNL A   1      34.020  29.363  27.179  1.00  0.00    -0.269 OA
BRANCH  27  30
ATOM     30  C   UNL A   1      36.012  30.022  28.229  1.00  0.00     0.039 A 
ATOM     31  C   UNL A   1      36.216  29.543  29.525  1.00  0.00     0.014 A 
ATOM     32  C   UNL A   1      37.089  30.220  27.363  1.00  0.00     0.014 A 
ATOM     33  C   UNL A   1      37.502  29.191  29.933  1.00  0.00     0.010 A 
ATOM     34  C   UNL A   1      38.357  29.804  27.746  1.00  0.00     0.010 A 
ATOM     35  C   UNL A   1      38.575  29.283  29.033  1.00  0.00    -0.014 A 
BRANCH  35  36
ATOM     36  C   UNL A   1      39.947  28.856  29.396  1.00  0.00     0.031 A 
ATOM     37  C   UNL A   1      40.845  29.811  30.126  1.00  0.00     0.074 A 
ATOM     38  C   UNL A   1      40.420  27.674  28.959  1.00  0.00     0.049 A 
ATOM     39  N   UNL A   1      42.128  29.728  30.361  1.00  0.00    -0.248 NA
ATOM     40  C   UNL A   1      40.218  31.046  30.621  1.00  0.00     0.031 C 
ATOM     41  C   UNL A   1      39.656  26.683  28.203  1.00  0.00     0.029 A 
ATOM     42  N   UNL A   1      41.674  27.125  29.061  1.00  0.00    -0.354 N 
ATOM     43  C   UNL A   1      42.469  30.917  30.992  1.00  0.00     0.074 A 
ATOM     44  C   UNL A   1      41.267  31.717  31.071  1.00  0.00     0.031 C 
ATOM     45  C   UNL A   1      40.457  25.646  27.907  1.00  0.00     0.029 A 
ATOM     46  C   UNL A   1      41.798  25.920  28.415  1.00  0.00     0.049 A 
ATOM     47  H   UNL A   1      42.413  27.553  29.551  1.00  0.00     0.167 HD
ATOM     48  C   UNL A   1      43.677  31.298  31.472  1.00  0.00     0.037 A 
ATOM     49  C   UNL A   1      42.878  25.136  28.234  1.00  0.00     0.037 A 
ATOM     50  C   UNL A   1      44.858  30.479  31.428  1.00  0.00     0.049 A 
ATOM     51  C   UNL A   1      44.201  25.564  28.804  1.00  0.00     0.074 A 
ATOM     52  C   UNL A   1      46.109  30.739  31.955  1.00  0.00     0.029 A 
ATOM     53  N   UNL A   1      44.928  29.232  30.821  1.00  0.00    -0.354 N 
ATOM     54  N   UNL A   1      44.506  26.665  29.447  1.00  0.00    -0.248 NA
ATOM     55  C   UNL A   1      45.331  24.640  28.628  1.00  0.00     0.031 C 
ATOM     56  C   UNL A   1      46.948  29.664  31.638  1.00  0.00     0.029 A 
ATOM     57  C   UNL A   1      46.207  28.717  30.949  1.00  0.00     0.049 A 
ATOM     58  H   UNL A   1      44.180  28.782  30.367  1.00  0.00     0.167 HD
ATOM     59  C   UNL A   1      45.849  26.557  29.776  1.00  0.00     0.074 A 
ATOM     60  C   UNL A   1      46.303  25.280  29.265  1.00  0.00     0.031 C 
ATOM     61  C   UNL A   1      46.635  27.437  30.445  1.00  0.00     0.037 A 
BRANCH  48  62
ATOM     62  C   UNL A   1      43.773  32.669  32.075  1.00  0.00     0.064 A 
ATOM     63  C   UNL A   1      43.630  32.881  33.455  1.00  0.00     0.173 A 
ATOM     64  C   UNL A   1      44.011  33.786  31.261  1.00  0.00     0.173 A 
ATOM     65  F   UNL A   1      43.387  31.847  34.275  1.00  0.00    -0.203 F 
ATOM     66  C   UNL A   1      43.680  34.165  33.992  1.00  0.00     0.198 A 
ATOM     67  C   UNL A   1      44.092  35.065  31.805  1.00  0.00     0.198 A 
ATOM     68  F   UNL A   1      44.160  33.639  29.936  1.00  0.00    -0.203 F 
ATOM     69  F   UNL A   1      43.477  34.348  35.304  1.00  0.00    -0.200 F 
ATOM     70  C   UNL A   1      43.915  35.255  33.168  1.00  0.00     0.200 A 
ATOM     71  F   UNL A   1      44.330  36.117  31.009  1.00  0.00    -0.200 F 
ATOM     72  F   UNL A   1      43.959  36.490  33.684  1.00  0.00    -0.200 F 
ENDBRANCH  48  62
BRANCH  49  73
ATOM     73  C   UNL A   1      42.737  23.858  27.493  1.00  0.00     0.064 A 
ATOM     74  C   UNL A   1      43.020  23.790  26.123  1.00  0.00     0.173 A 
ATOM     75  C   UNL A   1      42.353  22.675  28.142  1.00  0.00     0.173 A 
ATOM     76  F   UNL A   1      43.372  24.899  25.457  1.00  0.00    -0.203 F 
ATOM     77  C   UNL A   1      42.919  22.588  25.426  1.00  0.00     0.198 A 
ATOM     78  C   UNL A   1      42.274  21.469  27.449  1.00  0.00     0.198 A 
ATOM     79  F   UNL A   1      42.078  22.689  29.454  1.00  0.00    -0.203 F 
ATOM     80  F   UNL A   1      43.171  22.554  24.110  1.00  0.00    -0.200 F 
ATOM     81  C   UNL A   1      42.554  21.426  26.092  1.00  0.00     0.200 A 
ATOM     82  F   UNL A   1      41.934  20.346  28.099  1.00  0.00    -0.200 F 
ATOM     83  F   UNL A   1      42.470  20.268  25.425  1.00  0.00    -0.200 F 
ENDBRANCH  49  73
BRANCH  61  84
ATOM     84  C   UNL A   1      48.056  27.036  30.702  1.00  0.00     0.064 A 
ATOM     85  C   UNL A   1      48.414  26.272  31.822  1.00  0.00     0.173 A 
ATOM     86  C   UNL A   1      49.061  27.363  29.779  1.00  0.00     0.173 A 
ATOM     87  F   UNL A   1      47.489  25.947  32.739  1.00  0.00    -0.203 F 
ATOM     88  C   UNL A   1      49.729  25.860  32.014  1.00  0.00     0.198 A 
ATOM     89  C   UNL A   1      50.370  26.931  29.962  1.00  0.00     0.198 A 
ATOM     90  F   UNL A   1      48.767  28.089  28.689  1.00  0.00    -0.203 F 
ATOM     91  F   UNL A   1      50.056  25.154  33.106  1.00  0.00    -0.200 F 
ATOM     92  C   UNL A   1      50.704  26.181  31.081  1.00  0.00     0.200 A 
ATOM     93  F   UNL A   1      51.308  27.231  29.053  1.00  0.00    -0.200 F 
ATOM     94  F   UNL A   1      51.967  25.771  31.261  1.00  0.00    -0.200 F 
ENDBRANCH  61  84
ENDBRANCH  35  36
ENDBRANCH  27  30
ENDBRANCH  25  26
ENDBRANCH  24  25
ENDBRANCH  23  24
ENDBRANCH   1  23
TORSDOF 15
ENDMDL
MODEL 3
REMARK VINA RESULT:     -12.4      1.253      2.309
REMARK SMILES C[C@@H](C(=O)NCCCCNC(=O)c1ccc(-c2c3nc(c(-c4c(F)c(F)c(F)c(F)c4F)c4ccc([nH]4)c(-c4c(F)c(F)c(F)c(F)c4F)c4nc(c(-c5c(F)c(F)c(F)c(F)c5F)c5ccc2[nH]5)C=C4)C=C3)cc1)c1ccc(C[C@@H]2CCC[C@@H]2O)cc1F
REMARK SMILES IDX 6 1 5 2 3 3 4 4 2 6 1 7 76 8 77 9 88 10 78 11 87 12 89 13
REMARK SMILES IDX 79 14 80 15 81 16 82 17 85 18 83 19 84 20 86 21 7 23 8 24
REMARK SMILES IDX 9 25 10 26 11 27 12 29 13 30 14 31 75 32 15 33 74 34 16 35
REMARK SMILES IDX 17 36 18 37 68 38 19 39 73 40 67 41 69 42 20 43 72 44 66 45
REMARK SMILES IDX 65 46 21 48 53 49 33 50 52 51 34 52 37 53 51 54 70 55 35 56
REMARK SMILES IDX 36 57 50 59 71 60 38 61 22 62 23 63 31 64 24 65 25 66 29 67
REMARK SMILES IDX 32 68 26 69 27 70 30 71 28 72 54 73 55 74 63 75 56 76 57 77
REMARK SMILES IDX 61 78 64 79 58 80 59 81 62 82 60 83 39 84 40 85 48 86 41 87
REMARK SMILES IDX 42 88 46 89 49 90 43 91 44 92 47 93 45 94
REMARK H PARENT 5 5 86 22 10 28 69 47 37 58
REMARK Flexibility Score: inf
ROOT
ATOM      1  C   UNL A   1      34.539  29.320  27.251  1.00  0.00     0.116 C 
ENDROOT
BRANCH   1   2
ATOM      2  N   UNL A   1      33.376  28.603  27.739  1.00  0.00    -0.356 N 
ATOM      3  C   UNL A   1      32.299  28.113  27.054  1.00  0.00     0.227 C 
ATOM      4  O   UNL A   1      31.310  27.825  27.730  1.00  0.00    -0.274 OA
ATOM      5  H   UNL A   1      33.362  28.445  28.711  1.00  0.00     0.163 HD
BRANCH   3   6
ATOM      6  C   UNL A   1      32.374  27.947  25.525  1.00  0.00     0.108 C 
ATOM      7  C   UNL A   1      31.036  28.412  24.936  1.00  0.00     0.023 C 
BRANCH   6   8
ATOM      8  C   UNL A   1      32.782  26.550  25.044  1.00  0.00    -0.000 A 
ATOM      9  C   UNL A   1      32.430  25.388  25.752  1.00  0.00     0.008 A 
ATOM     10  C   UNL A   1      33.585  26.370  23.908  1.00  0.00     0.127 A 
ATOM     11  C   UNL A   1      32.792  24.114  25.297  1.00  0.00     0.004 A 
ATOM     12  C   UNL A   1      33.963  25.107  23.458  1.00  0.00     0.043 A 
ATOM     13  F   UNL A   1      34.046  27.421  23.217  1.00  0.00    -0.207 F 
ATOM     14  C   UNL A   1      33.573  23.960  24.150  1.00  0.00    -0.045 A 
BRANCH  14  15
ATOM     15  C   UNL A   1      34.016  22.602  23.667  1.00  0.00     0.041 C 
BRANCH  15  16
ATOM     16  C   UNL A   1      35.288  21.991  24.294  1.00  0.00     0.022 C 
ATOM     17  C   UNL A   1      35.369  22.105  25.819  1.00  0.00     0.007 C 
ATOM     18  C   UNL A   1      36.639  22.554  23.841  1.00  0.00     0.117 C 
ATOM     19  C   UNL A   1      36.301  23.281  26.124  1.00  0.00     0.003 C 
ATOM     20  C   UNL A   1      36.926  23.703  24.799  1.00  0.00     0.032 C 
BRANCH  18  21
ATOM     21  O   UNL A   1      36.653  22.953  22.486  1.00  0.00    -0.393 OA
ATOM     22  H   UNL A   1      36.196  22.287  21.948  1.00  0.00     0.210 HD
ENDBRANCH  18  21
ENDBRANCH  15  16
ENDBRANCH  14  15
ENDBRANCH   6   8
ENDBRANCH   3   6
ENDBRANCH   1   2
BRANCH   1  23
ATOM     23  C   UNL A   1      34.709  30.659  27.980  1.00  0.00     0.023 C 
BRANCH  23  24
ATOM     24  C   UNL A   1      34.127  31.869  27.251  1.00  0.00     0.023 C 
BRANCH  24  25
ATOM     25  C   UNL A   1      32.693  32.206  27.626  1.00  0.00     0.116 C 
BRANCH  25  26
ATOM     26  N   UNL A   1      32.449  33.640  27.676  1.00  0.00    -0.352 N 
ATOM     27  C   UNL A   1      33.091  34.588  28.436  1.00  0.00     0.251 C 
ATOM     28  H   UNL A   1      31.732  33.973  27.090  1.00  0.00     0.163 HD
ATOM     29  O   UNL A   1      32.691  35.746  28.470  1.00  0.00    -0.269 OA
BRANCH  27  30
ATOM     30  C   UNL A   1      34.257  34.179  29.241  1.00  0.00     0.039 A 
ATOM     31  C   UNL A   1      34.053  33.445  30.413  1.00  0.00     0.014 A 
ATOM     32  C   UNL A   1      35.549  34.470  28.797  1.00  0.00     0.014 A 
ATOM     33  C   UNL A   1      35.151  32.937  31.106  1.00  0.00     0.010 A 
ATOM     34  C   UNL A   1      36.637  33.905  29.449  1.00  0.00     0.010 A 
ATOM     35  C   UNL A   1      36.448  33.131  30.606  1.00  0.00    -0.014 A 
BRANCH  35  36
ATOM     36  C   UNL A   1      37.642  32.553  31.268  1.00  0.00     0.031 A 
ATOM     37  C   UNL A   1      38.355  31.401  30.622  1.00  0.00     0.074 A 
ATOM     38  C   UNL A   1      38.000  32.974  32.495  1.00  0.00     0.049 A 
ATOM     39  N   UNL A   1      39.281  30.619  31.112  1.00  0.00    -0.248 NA
ATOM     40  C   UNL A   1      37.935  31.059  29.255  1.00  0.00     0.031 C 
ATOM     41  C   UNL A   1      37.356  34.054  33.241  1.00  0.00     0.029 A 
ATOM     42  N   UNL A   1      38.976  32.515  33.345  1.00  0.00    -0.354 N 
ATOM     43  C   UNL A   1      39.524  29.668  30.129  1.00  0.00     0.074 A 
ATOM     44  C   UNL A   1      38.624  29.950  29.032  1.00  0.00     0.031 C 
ATOM     45  C   UNL A   1      37.952  34.175  34.439  1.00  0.00     0.029 A 
ATOM     46  C   UNL A   1      38.989  33.154  34.560  1.00  0.00     0.049 A 
ATOM     47  H   UNL A   1      39.605  31.797  33.106  1.00  0.00     0.167 HD
ATOM     48  C   UNL A   1      40.426  28.658  30.141  1.00  0.00     0.037 A 
ATOM     49  C   UNL A   1      39.738  32.926  35.655  1.00  0.00     0.037 A 
ATOM     50  C   UNL A   1      41.347  28.411  31.216  1.00  0.00     0.049 A 
ATOM     51  C   UNL A   1      40.757  31.821  35.633  1.00  0.00     0.074 A 
ATOM     52  C   UNL A   1      42.353  27.465  31.293  1.00  0.00     0.029 A 
ATOM     53  N   UNL A   1      41.374  29.124  32.408  1.00  0.00    -0.354 N 
ATOM     54  N   UNL A   1      41.019  30.959  34.680  1.00  0.00    -0.248 NA
ATOM     55  C   UNL A   1      41.587  31.658  36.834  1.00  0.00     0.031 C 
ATOM     56  C   UNL A   1      42.967  27.582  32.545  1.00  0.00     0.029 A 
ATOM     57  C   UNL A   1      42.371  28.628  33.231  1.00  0.00     0.049 A 
ATOM     58  H   UNL A   1      40.774  29.870  32.634  1.00  0.00     0.167 HD
ATOM     59  C   UNL A   1      42.058  30.170  35.153  1.00  0.00     0.074 A 
ATOM     60  C   UNL A   1      42.383  30.658  36.478  1.00  0.00     0.031 C 
ATOM     61  C   UNL A   1      42.688  29.137  34.542  1.00  0.00     0.037 A 
BRANCH  48  62
ATOM     62  C   UNL A   1      40.446  27.743  28.951  1.00  0.00     0.064 A 
ATOM     63  C   UNL A   1      41.231  28.018  27.821  1.00  0.00     0.173 A 
ATOM     64  C   UNL A   1      39.667  26.577  28.942  1.00  0.00     0.173 A 
ATOM     65  F   UNL A   1      41.983  29.128  27.775  1.00  0.00    -0.203 F 
ATOM     66  C   UNL A   1      41.205  27.179  26.709  1.00  0.00     0.198 A 
ATOM     67  C   UNL A   1      39.667  25.724  27.842  1.00  0.00     0.198 A 
ATOM     68  F   UNL A   1      38.902  26.265  29.998  1.00  0.00    -0.203 F 
ATOM     69  F   UNL A   1      41.914  27.495  25.618  1.00  0.00    -0.200 F 
ATOM     70  C   UNL A   1      40.426  26.032  26.722  1.00  0.00     0.200 A 
ATOM     71  F   UNL A   1      38.922  24.610  27.859  1.00  0.00    -0.200 F 
ATOM     72  F   UNL A   1      40.398  25.228  25.651  1.00  0.00    -0.200 F 
ENDBRANCH  48  62
BRANCH  49  73
ATOM     73  C   UNL A   1      39.557  33.781  36.854  1.00  0.00     0.064 A 
ATOM     74  C   UNL A   1      40.179  35.034  36.940  1.00  0.00     0.173 A 
ATOM     75  C   UNL A   1      38.734  33.384  37.918  1.00  0.00     0.173 A 
ATOM     76  F   UNL A   1      40.990  35.447  35.955  1.00  0.00    -0.203 F 
ATOM     77  C   UNL A   1      39.990  35.856  38.049  1.00  0.00     0.198 A 
ATOM     78  C   UNL A   1      38.528  34.217  39.016  1.00  0.00     0.198 A 
ATOM     79  F   UNL A   1      38.113  32.197  37.878  1.00  0.00    -0.203 F 
ATOM     80  F   UNL A   1      40.616  37.039  38.119  1.00  0.00    -0.200 F 
ATOM     81  C   UNL A   1      39.158  35.450  39.082  1.00  0.00     0.200 A 
ATOM     82  F   UNL A   1      37.714  33.827  40.007  1.00  0.00    -0.200 F 
ATOM     83  F   UNL A   1      38.966  36.247  40.142  1.00  0.00    -0.200 F 
ENDBRANCH  49  73
BRANCH  61  84
ATOM     84  C   UNL A   1      43.821  28.487  35.277  1.00  0.00     0.064 A 
ATOM     85  C   UNL A   1      43.612  27.406  36.144  1.00  0.00     0.173 A 
ATOM     86  C   UNL A   1      45.141  28.911  35.056  1.00  0.00     0.173 A 
ATOM     87  F   UNL A   1      42.366  26.976  36.397  1.00  0.00    -0.203 F 
ATOM     88  C   UNL A   1      44.683  26.779  36.773  1.00  0.00     0.198 A 
ATOM     89  C   UNL A   1      46.210  28.267  35.669  1.00  0.00     0.198 A 
ATOM     90  F   UNL A   1      45.392  29.939  34.231  1.00  0.00    -0.203 F 
ATOM     91  F   UNL A   1      44.460  25.765  37.621  1.00  0.00    -0.200 F 
ATOM     92  C   UNL A   1      45.981  27.203  36.529  1.00  0.00     0.200 A 
ATOM     93  F   UNL A   1      47.465  28.670  35.421  1.00  0.00    -0.200 F 
ATOM     94  F   UNL A   1      47.012  26.587  37.125  1.00  0.00    -0.200 F 
ENDBRANCH  61  84
ENDBRANCH  35  36
ENDBRANCH  27  30
ENDBRANCH  25  26
ENDBRANCH  24  25
ENDBRANCH  23  24
ENDBRANCH   1  23
TORSDOF 15
ENDMDL
