MODEL 1
REMARK VINA RESULT:     -12.2      0.000      0.000
REMARK SMILES O=C(NCCCCNC(=O)c1ccc2ncccc2n1)c1ccc(-c2c3nc(c(-c4c(F)c(F)c(F)c(F)c4F)c4ccc([nH]4)c(-c4c(F)c(F)c(F)c(F)c4F)c4nc(c(-c5c(F)c(F)c(F)c(F)c5F)c5ccc2[nH]5)C=C4)C=C3)cc1
REMARK SMILES IDX 4 1 3 2 1 3 2 4 21 6 22 7 83 8 23 9 82 10 24 11 25 12 26 13
REMARK SMILES IDX 76 14 27 15 81 16 75 17 77 18 28 19 80 20 74 21 73 22 29 24
REMARK SMILES IDX 61 25 41 26 60 27 42 28 45 29 59 30 78 31 43 32 44 33 58 35
REMARK SMILES IDX 79 36 46 37 30 38 31 39 39 40 32 41 33 42 37 43 40 44 34 45
REMARK SMILES IDX 35 46 38 47 36 48 62 49 63 50 71 51 64 52 65 53 69 54 72 55
REMARK SMILES IDX 66 56 67 57 70 58 68 59 47 60 48 61 56 62 49 63 50 64 54 65
REMARK SMILES IDX 57 66 51 67 52 68 55 69 53 70 5 71 6 72 7 73 8 74 9 75 10 77
REMARK SMILES IDX 11 78 12 79 20 80 13 81 19 82 14 83 18 84 15 85 17 86 16 87
REMARK H PARENT 3 5 77 23 45 34 8 76
REMARK Flexibility Score: inf
ROOT
ATOM      1  C   UNL A   1      32.672  32.694  27.182  1.00  0.00     0.116 C 
ENDROOT
BRANCH   1   2
ATOM      2  N   UNL A   1      32.433  34.051  27.649  1.00  0.00    -0.352 N 
ATOM      3  O   UNL A   1      32.623  35.848  28.996  1.00  0.00    -0.269 OA
ATOM      4  C   UNL A   1      33.074  34.766  28.629  1.00  0.00     0.251 C 
ATOM      5  H   UNL A   1      31.703  34.528  27.192  1.00  0.00     0.163 HD
BRANCH   4   6
ATOM      6  C   UNL A   1      34.290  34.224  29.266  1.00  0.00     0.039 A 
ATOM      7  C   UNL A   1      35.562  34.553  28.785  1.00  0.00     0.014 A 
ATOM      8  C   UNL A   1      34.154  33.386  30.375  1.00  0.00     0.014 A 
ATOM      9  C   UNL A   1      36.687  33.937  29.325  1.00  0.00     0.010 A 
ATOM     10  C   UNL A   1      35.290  32.831  30.965  1.00  0.00     0.010 A 
ATOM     11  C   UNL A   1      36.564  33.080  30.427  1.00  0.00    -0.014 A 
BRANCH  11  12
ATOM     12  C   UNL A   1      37.767  32.478  31.051  1.00  0.00     0.031 A 
ATOM     13  C   UNL A   1      38.508  31.366  30.368  1.00  0.00     0.074 A 
ATOM     14  C   UNL A   1      38.164  32.912  32.260  1.00  0.00     0.049 A 
ATOM     15  N   UNL A   1      39.506  30.642  30.808  1.00  0.00    -0.248 NA
ATOM     16  C   UNL A   1      38.059  31.011  29.014  1.00  0.00     0.031 C 
ATOM     17  C   UNL A   1      37.524  33.988  33.019  1.00  0.00     0.029 A 
ATOM     18  N   UNL A   1      39.183  32.488  33.075  1.00  0.00    -0.354 N 
ATOM     19  C   UNL A   1      39.788  29.730  29.800  1.00  0.00     0.074 A 
ATOM     20  C   UNL A   1      38.837  29.974  28.736  1.00  0.00     0.031 C 
ATOM     21  C   UNL A   1      38.164  34.141  34.187  1.00  0.00     0.029 A 
ATOM     22  C   UNL A   1      39.213  33.132  34.288  1.00  0.00     0.049 A 
ATOM     23  H   UNL A   1      39.830  31.792  32.816  1.00  0.00     0.167 HD
ATOM     24  C   UNL A   1      40.753  28.778  29.769  1.00  0.00     0.037 A 
ATOM     25  C   UNL A   1      39.968  32.906  35.379  1.00  0.00     0.037 A 
ATOM     26  C   UNL A   1      41.692  28.547  30.839  1.00  0.00     0.049 A 
ATOM     27  C   UNL A   1      40.997  31.814  35.345  1.00  0.00     0.074 A 
ATOM     28  C   UNL A   1      42.733  27.638  30.891  1.00  0.00     0.029 A 
ATOM     29  N   UNL A   1      41.689  29.220  32.053  1.00  0.00    -0.354 N 
ATOM     30  N   UNL A   1      41.282  30.979  34.375  1.00  0.00    -0.248 NA
ATOM     31  C   UNL A   1      41.810  31.630  36.554  1.00  0.00     0.031 C 
ATOM     32  C   UNL A   1      43.316  27.712  32.160  1.00  0.00     0.029 A 
ATOM     33  C   UNL A   1      42.689  28.722  32.874  1.00  0.00     0.049 A 
ATOM     34  H   UNL A   1      41.068  29.945  32.296  1.00  0.00     0.167 HD
ATOM     35  C   UNL A   1      42.326  30.193  34.841  1.00  0.00     0.074 A 
ATOM     36  C   UNL A   1      42.624  30.650  36.183  1.00  0.00     0.031 C 
ATOM     37  C   UNL A   1      42.984  29.193  34.206  1.00  0.00     0.037 A 
BRANCH  24  38
ATOM     38  C   UNL A   1      40.811  27.888  28.560  1.00  0.00     0.064 A 
ATOM     39  C   UNL A   1      41.587  28.207  27.434  1.00  0.00     0.173 A 
ATOM     40  C   UNL A   1      40.082  26.688  28.528  1.00  0.00     0.173 A 
ATOM     41  F   UNL A   1      42.299  29.344  27.406  1.00  0.00    -0.203 F 
ATOM     42  C   UNL A   1      41.591  27.387  26.307  1.00  0.00     0.198 A 
ATOM     43  C   UNL A   1      40.118  25.852  27.415  1.00  0.00     0.198 A 
ATOM     44  F   UNL A   1      39.332  26.324  29.579  1.00  0.00    -0.203 F 
ATOM     45  F   UNL A   1      42.283  27.750  25.219  1.00  0.00    -0.200 F 
ATOM     46  C   UNL A   1      40.860  26.209  26.301  1.00  0.00     0.200 A 
ATOM     47  F   UNL A   1      39.425  24.704  27.418  1.00  0.00    -0.200 F 
ATOM     48  F   UNL A   1      40.862  25.424  25.215  1.00  0.00    -0.200 F 
ENDBRANCH  24  38
BRANCH  25  49
ATOM     49  C   UNL A   1      39.750  33.738  36.590  1.00  0.00     0.064 A 
ATOM     50  C   UNL A   1      40.344  34.998  36.716  1.00  0.00     0.173 A 
ATOM     51  C   UNL A   1      38.892  33.312  37.616  1.00  0.00     0.173 A 
ATOM     52  F   UNL A   1      41.183  35.441  35.768  1.00  0.00    -0.203 F 
ATOM     53  C   UNL A   1      40.092  35.803  37.826  1.00  0.00     0.198 A 
ATOM     54  C   UNL A   1      38.618  34.128  38.710  1.00  0.00     0.198 A 
ATOM     55  F   UNL A   1      38.290  32.115  37.535  1.00  0.00    -0.203 F 
ATOM     56  F   UNL A   1      40.692  36.995  37.936  1.00  0.00    -0.200 F 
ATOM     57  C   UNL A   1      39.220  35.372  38.816  1.00  0.00     0.200 A 
ATOM     58  F   UNL A   1      37.758  33.717  39.651  1.00  0.00    -0.200 F 
ATOM     59  F   UNL A   1      38.962  36.156  39.871  1.00  0.00    -0.200 F 
ENDBRANCH  25  49
BRANCH  37  60
ATOM     60  C   UNL A   1      44.134  28.549  34.923  1.00  0.00     0.064 A 
ATOM     61  C   UNL A   1      45.433  29.074  34.866  1.00  0.00     0.173 A 
ATOM     62  C   UNL A   1      43.911  27.435  35.748  1.00  0.00     0.173 A 
ATOM     63  F   UNL A   1      45.703  30.127  34.079  1.00  0.00    -0.203 F 
ATOM     64  C   UNL A   1      46.468  28.502  35.604  1.00  0.00     0.198 A 
ATOM     65  C   UNL A   1      44.940  26.885  36.507  1.00  0.00     0.198 A 
ATOM     66  F   UNL A   1      42.686  26.897  35.839  1.00  0.00    -0.203 F 
ATOM     67  F   UNL A   1      47.709  29.000  35.511  1.00  0.00    -0.200 F 
ATOM     68  C   UNL A   1      46.218  27.418  36.432  1.00  0.00     0.200 A 
ATOM     69  F   UNL A   1      44.692  25.849  37.319  1.00  0.00    -0.200 F 
ATOM     70  F   UNL A   1      47.210  26.885  37.159  1.00  0.00    -0.200 F 
ENDBRANCH  37  60
ENDBRANCH  11  12
ENDBRANCH   4   6
ENDBRANCH   1   2
BRANCH   1  71
ATOM     71  C   UNL A   1      31.432  32.057  26.568  1.00  0.00     0.023 C 
BRANCH  71  72
ATOM     72  C   UNL A   1      31.499  30.541  26.392  1.00  0.00     0.023 C 
BRANCH  72  73
ATOM     73  C   UNL A   1      32.859  29.992  25.976  1.00  0.00     0.116 C 
BRANCH  73  74
ATOM     74  N   UNL A   1      32.942  29.709  24.553  1.00  0.00    -0.351 N 
ATOM     75  C   UNL A   1      32.774  28.505  23.903  1.00  0.00     0.269 C 
ATOM     76  H   UNL A   1      33.144  30.480  23.976  1.00  0.00     0.163 HD
ATOM     77  O   UNL A   1      32.970  28.440  22.692  1.00  0.00    -0.268 OA
BRANCH  75  78
ATOM     78  C   UNL A   1      32.347  27.304  24.676  1.00  0.00     0.129 A 
ATOM     79  C   UNL A   1      31.036  27.188  25.114  1.00  0.00     0.036 A 
ATOM     80  N   UNL A   1      33.307  26.386  24.938  1.00  0.00    -0.241 NA
ATOM     81  C   UNL A   1      30.712  26.102  25.921  1.00  0.00     0.033 A 
ATOM     82  C   UNL A   1      32.955  25.328  25.694  1.00  0.00     0.090 A 
ATOM     83  C   UNL A   1      31.663  25.146  26.238  1.00  0.00     0.089 A 
ATOM     84  C   UNL A   1      33.889  24.346  25.981  1.00  0.00     0.032 A 
ATOM     85  N   UNL A   1      31.322  24.109  27.026  1.00  0.00    -0.255 NA
ATOM     86  C   UNL A   1      33.558  23.256  26.782  1.00  0.00     0.022 A 
ATOM     87  C   UNL A   1      32.273  23.188  27.286  1.00  0.00     0.112 A 
ENDBRANCH  75  78
ENDBRANCH  73  74
ENDBRANCH  72  73
ENDBRANCH  71  72
ENDBRANCH   1  71
TORSDOF 11
ENDMDL
MODEL 2
REMARK VINA RESULT:     -12.2      3.879      9.853
REMARK SMILES O=C(NCCCCNC(=O)c1ccc2ncccc2n1)c1ccc(-c2c3nc(c(-c4c(F)c(F)c(F)c(F)c4F)c4ccc([nH]4)c(-c4c(F)c(F)c(F)c(F)c4F)c4nc(c(-c5c(F)c(F)c(F)c(F)c5F)c5ccc2[nH]5)C=C4)C=C3)cc1
REMARK SMILES IDX 4 1 3 2 1 3 2 4 21 6 22 7 83 8 23 9 82 10 24 11 25 12 26 13
REMARK SMILES IDX 76 14 27 15 81 16 75 17 77 18 28 19 80 20 74 21 73 22 29 24
REMARK SMILES IDX 61 25 41 26 60 27 42 28 45 29 59 30 78 31 43 32 44 33 58 35
REMARK SMILES IDX 79 36 46 37 30 38 31 39 39 40 32 41 33 42 37 43 40 44 34 45
REMARK SMILES IDX 35 46 38 47 36 48 62 49 63 50 71 51 64 52 65 53 69 54 72 55
REMARK SMILES IDX 66 56 67 57 70 58 68 59 47 60 48 61 56 62 49 63 50 64 54 65
REMARK SMILES IDX 57 66 51 67 52 68 55 69 53 70 5 71 6 72 7 73 8 74 9 75 10 77
REMARK SMILES IDX 11 78 12 79 20 80 13 81 19 82 14 83 18 84 15 85 17 86 16 87
REMARK H PARENT 3 5 77 23 45 34 8 76
REMARK Flexibility Score: inf
ROOT
ATOM      1  C   UNL A   1      34.500  32.527  28.754  1.00  0.00     0.116 C 
ENDROOT
BRANCH   1   2
ATOM      2  N   UNL A   1      33.914  31.385  28.070  1.00  0.00    -0.352 N 
ATOM      3  O   UNL A   1      33.877  29.419  26.968  1.00  0.00    -0.269 OA
ATOM      4  C   UNL A   1      34.495  30.203  27.684  1.00  0.00     0.251 C 
ATOM      5  H   UNL A   1      32.958  31.473  27.851  1.00  0.00     0.163 HD
BRANCH   4   6
ATOM      6  C   UNL A   1      35.873  29.882  28.104  1.00  0.00     0.039 A 
ATOM      7  C   UNL A   1      36.958  30.114  27.252  1.00  0.00     0.014 A 
ATOM      8  C   UNL A   1      36.083  29.356  29.381  1.00  0.00     0.014 A 
ATOM      9  C   UNL A   1      38.231  29.694  27.623  1.00  0.00     0.010 A 
ATOM     10  C   UNL A   1      37.374  29.008  29.782  1.00  0.00     0.010 A 
ATOM     11  C   UNL A   1      38.454  29.147  28.895  1.00  0.00    -0.014 A 
BRANCH  11  12
ATOM     12  C   UNL A   1      39.822  28.765  29.320  1.00  0.00     0.031 A 
ATOM     13  C   UNL A   1      40.660  29.706  30.137  1.00  0.00     0.074 A 
ATOM     14  C   UNL A   1      40.323  27.580  28.928  1.00  0.00     0.049 A 
ATOM     15  N   UNL A   1      41.913  29.596  30.502  1.00  0.00    -0.248 NA
ATOM     16  C   UNL A   1      40.008  30.941  30.593  1.00  0.00     0.031 C 
ATOM     17  C   UNL A   1      39.602  26.584  28.134  1.00  0.00     0.029 A 
ATOM     18  N   UNL A   1      41.562  27.022  29.120  1.00  0.00    -0.354 N 
ATOM     19  C   UNL A   1      42.206  30.755  31.207  1.00  0.00     0.074 A 
ATOM     20  C   UNL A   1      41.008  31.568  31.195  1.00  0.00     0.031 C 
ATOM     21  C   UNL A   1      40.408  25.537  27.908  1.00  0.00     0.029 A 
ATOM     22  C   UNL A   1      41.720  25.818  28.480  1.00  0.00     0.049 A 
ATOM     23  H   UNL A   1      42.267  27.443  29.664  1.00  0.00     0.167 HD
ATOM     24  C   UNL A   1      43.370  31.105  31.808  1.00  0.00     0.037 A 
ATOM     25  C   UNL A   1      42.812  25.045  28.330  1.00  0.00     0.037 A 
ATOM     26  C   UNL A   1      44.555  30.283  31.810  1.00  0.00     0.049 A 
ATOM     27  C   UNL A   1      44.105  25.473  28.959  1.00  0.00     0.074 A 
ATOM     28  C   UNL A   1      45.771  30.525  32.423  1.00  0.00     0.029 A 
ATOM     29  N   UNL A   1      44.676  29.068  31.148  1.00  0.00    -0.354 N 
ATOM     30  N   UNL A   1      44.366  26.554  29.655  1.00  0.00    -0.248 NA
ATOM     31  C   UNL A   1      45.257  24.579  28.786  1.00  0.00     0.031 C 
ATOM     32  C   UNL A   1      46.649  29.493  32.077  1.00  0.00     0.029 A 
ATOM     33  C   UNL A   1      45.959  28.566  31.312  1.00  0.00     0.049 A 
ATOM     34  H   UNL A   1      43.958  28.628  30.639  1.00  0.00     0.167 HD
ATOM     35  C   UNL A   1      45.699  26.455  30.029  1.00  0.00     0.074 A 
ATOM     36  C   UNL A   1      46.194  25.209  29.482  1.00  0.00     0.031 C 
ATOM     37  C   UNL A   1      46.437  27.317  30.770  1.00  0.00     0.037 A 
BRANCH  24  38
ATOM     38  C   UNL A   1      43.430  32.451  32.473  1.00  0.00     0.064 A 
ATOM     39  C   UNL A   1      43.117  32.628  33.830  1.00  0.00     0.173 A 
ATOM     40  C   UNL A   1      43.815  33.586  31.741  1.00  0.00     0.173 A 
ATOM     41  F   UNL A   1      42.738  31.580  34.577  1.00  0.00    -0.203 F 
ATOM     42  C   UNL A   1      43.139  33.893  34.414  1.00  0.00     0.198 A 
ATOM     43  C   UNL A   1      43.871  34.843  32.337  1.00  0.00     0.198 A 
ATOM     44  F   UNL A   1      44.137  33.477  30.443  1.00  0.00    -0.203 F 
ATOM     45  F   UNL A   1      42.767  34.045  35.693  1.00  0.00    -0.200 F 
ATOM     46  C   UNL A   1      43.520  34.998  33.668  1.00  0.00     0.200 A 
ATOM     47  F   UNL A   1      44.258  35.907  31.619  1.00  0.00    -0.200 F 
ATOM     48  F   UNL A   1      43.536  36.214  34.231  1.00  0.00    -0.200 F 
ENDBRANCH  24  38
BRANCH  25  49
ATOM     49  C   UNL A   1      42.706  23.796  27.533  1.00  0.00     0.064 A 
ATOM     50  C   UNL A   1      43.087  23.764  26.187  1.00  0.00     0.173 A 
ATOM     51  C   UNL A   1      42.280  22.595  28.123  1.00  0.00     0.173 A 
ATOM     52  F   UNL A   1      43.486  24.890  25.577  1.00  0.00    -0.203 F 
ATOM     53  C   UNL A   1      43.042  22.578  25.457  1.00  0.00     0.198 A 
ATOM     54  C   UNL A   1      42.264  21.406  27.401  1.00  0.00     0.198 A 
ATOM     55  F   UNL A   1      41.915  22.573  29.414  1.00  0.00    -0.203 F 
ATOM     56  F   UNL A   1      43.388  22.578  24.163  1.00  0.00    -0.200 F 
ATOM     57  C   UNL A   1      42.642  21.397  26.068  1.00  0.00     0.200 A 
ATOM     58  F   UNL A   1      41.899  20.265  28.002  1.00  0.00    -0.200 F 
ATOM     59  F   UNL A   1      42.622  20.254  25.370  1.00  0.00    -0.200 F 
ENDBRANCH  25  49
BRANCH  37  60
ATOM     60  C   UNL A   1      47.852  26.927  31.089  1.00  0.00     0.064 A 
ATOM     61  C   UNL A   1      48.162  26.053  32.141  1.00  0.00     0.173 A 
ATOM     62  C   UNL A   1      48.903  27.373  30.273  1.00  0.00     0.173 A 
ATOM     63  F   UNL A   1      47.196  25.612  32.961  1.00  0.00    -0.203 F 
ATOM     64  C   UNL A   1      49.475  25.646  32.367  1.00  0.00     0.198 A 
ATOM     65  C   UNL A   1      50.209  26.940  30.483  1.00  0.00     0.198 A 
ATOM     66  F   UNL A   1      48.658  28.208  29.252  1.00  0.00    -0.203 F 
ATOM     67  F   UNL A   1      49.755  24.835  33.397  1.00  0.00    -0.200 F 
ATOM     68  C   UNL A   1      50.494  26.079  31.532  1.00  0.00     0.200 A 
ATOM     69  F   UNL A   1      51.188  27.347  29.664  1.00  0.00    -0.200 F 
ATOM     70  F   UNL A   1      51.752  25.667  31.737  1.00  0.00    -0.200 F 
ENDBRANCH  37  60
ENDBRANCH  11  12
ENDBRANCH   4   6
ENDBRANCH   1   2
BRANCH   1  71
ATOM     71  C   UNL A   1      34.298  33.834  27.995  1.00  0.00     0.023 C 
BRANCH  71  72
ATOM     72  C   UNL A   1      33.139  34.699  28.487  1.00  0.00     0.023 C 
BRANCH  72  73
ATOM     73  C   UNL A   1      33.540  35.937  29.281  1.00  0.00     0.116 C 
BRANCH  73  74
ATOM     74  N   UNL A   1      32.536  36.333  30.253  1.00  0.00    -0.351 N 
ATOM     75  C   UNL A   1      32.484  36.052  31.602  1.00  0.00     0.269 C 
ATOM     76  H   UNL A   1      31.793  36.876  29.902  1.00  0.00     0.163 HD
ATOM     77  O   UNL A   1      31.503  36.400  32.254  1.00  0.00    -0.268 OA
BRANCH  75  78
ATOM     78  C   UNL A   1      33.622  35.341  32.250  1.00  0.00     0.129 A 
ATOM     79  C   UNL A   1      34.414  35.998  33.179  1.00  0.00     0.036 A 
ATOM     80  N   UNL A   1      33.837  34.065  31.853  1.00  0.00    -0.241 NA
ATOM     81  C   UNL A   1      35.527  35.327  33.677  1.00  0.00     0.033 A 
ATOM     82  C   UNL A   1      34.902  33.429  32.377  1.00  0.00     0.090 A 
ATOM     83  C   UNL A   1      35.805  34.027  33.286  1.00  0.00     0.089 A 
ATOM     84  C   UNL A   1      35.164  32.116  32.023  1.00  0.00     0.032 A 
ATOM     85  N   UNL A   1      36.893  33.406  33.779  1.00  0.00    -0.255 NA
ATOM     86  C   UNL A   1      36.274  31.446  32.530  1.00  0.00     0.022 A 
ATOM     87  C   UNL A   1      37.109  32.132  33.391  1.00  0.00     0.112 A 
ENDBRANCH  75  78
ENDBRANCH  73  74
ENDBRANCH  72  73
ENDBRANCH  71  72
ENDBRANCH   1  71
TORSDOF 11
ENDMDL
MODEL 3
REMARK VINA RESULT:     -12.2      0.355      1.218
REMARK SMILES O=C(NCCCCNC(=O)c1ccc2ncccc2n1)c1ccc(-c2c3nc(c(-c4c(F)c(F)c(F)c(F)c4F)c4ccc([nH]4)c(-c4c(F)c(F)c(F)c(F)c4F)c4nc(c(-c5c(F)c(F)c(F)c(F)c5F)c5ccc2[nH]5)C=C4)C=C3)cc1
REMARK SMILES IDX 4 1 3 2 1 3 2 4 21 6 22 7 83 8 23 9 82 10 24 11 25 12 26 13
REMARK SMILES IDX 76 14 27 15 81 16 75 17 77 18 28 19 80 20 74 21 73 22 29 24
REMARK SMILES IDX 61 25 41 26 60 27 42 28 45 29 59 30 78 31 43 32 44 33 58 35
REMARK SMILES IDX 79 36 46 37 30 38 31 39 39 40 32 41 33 42 37 43 40 44 34 45
REMARK SMILES IDX 35 46 38 47 36 48 62 49 63 50 71 51 64 52 65 53 69 54 72 55
REMARK SMILES IDX 66 56 67 57 70 58 68 59 47 60 48 61 56 62 49 63 50 64 54 65
REMARK SMILES IDX 57 66 51 67 52 68 55 69 53 70 5 71 6 72 7 73 8 74 9 75 10 77
REMARK SMILES IDX 11 78 12 79 20 80 13 81 19 82 14 83 18 84 15 85 17 86 16 87
REMARK H PARENT 3 5 77 23 45 34 8 76
REMARK Flexibility Score: inf
ROOT
ATOM      1  C   UNL A   1      32.636  32.820  27.130  1.00  0.00     0.116 C 
ENDROOT
BRANCH   1   2
ATOM      2  N   UNL A   1      32.383  34.164  27.626  1.00  0.00    -0.352 N 
ATOM      3  O   UNL A   1      32.530  35.922  29.029  1.00  0.00    -0.269 OA
ATOM      4  C   UNL A   1      32.992  34.849  28.647  1.00  0.00     0.251 C 
ATOM      5  H   UNL A   1      31.667  34.655  27.160  1.00  0.00     0.163 HD
BRANCH   4   6
ATOM      6  C   UNL A   1      34.187  34.289  29.306  1.00  0.00     0.039 A 
ATOM      7  C   UNL A   1      35.463  34.475  28.764  1.00  0.00     0.014 A 
ATOM      8  C   UNL A   1      34.028  33.578  30.498  1.00  0.00     0.014 A 
ATOM      9  C   UNL A   1      36.559  33.837  29.337  1.00  0.00     0.010 A 
ATOM     10  C   UNL A   1      35.141  33.005  31.115  1.00  0.00     0.010 A 
ATOM     11  C   UNL A   1      36.411  33.106  30.524  1.00  0.00    -0.014 A 
BRANCH  11  12
ATOM     12  C   UNL A   1      37.589  32.485  31.177  1.00  0.00     0.031 A 
ATOM     13  C   UNL A   1      38.301  31.331  30.534  1.00  0.00     0.074 A 
ATOM     14  C   UNL A   1      37.987  32.941  32.378  1.00  0.00     0.049 A 
ATOM     15  N   UNL A   1      39.271  30.588  31.005  1.00  0.00    -0.248 NA
ATOM     16  C   UNL A   1      37.854  30.951  29.186  1.00  0.00     0.031 C 
ATOM     17  C   UNL A   1      37.375  34.057  33.099  1.00  0.00     0.029 A 
ATOM     18  N   UNL A   1      38.985  32.508  33.216  1.00  0.00    -0.354 N 
ATOM     19  C   UNL A   1      39.533  29.640  30.026  1.00  0.00     0.074 A 
ATOM     20  C   UNL A   1      38.601  29.883  28.945  1.00  0.00     0.031 C 
ATOM     21  C   UNL A   1      38.008  34.224  34.269  1.00  0.00     0.029 A 
ATOM     22  C   UNL A   1      39.023  33.185  34.410  1.00  0.00     0.049 A 
ATOM     23  H   UNL A   1      39.611  31.785  32.983  1.00  0.00     0.167 HD
ATOM     24  C   UNL A   1      40.468  28.658  30.033  1.00  0.00     0.037 A 
ATOM     25  C   UNL A   1      39.760  32.967  35.515  1.00  0.00     0.037 A 
ATOM     26  C   UNL A   1      41.389  28.428  31.118  1.00  0.00     0.049 A 
ATOM     27  C   UNL A   1      40.754  31.843  35.523  1.00  0.00     0.074 A 
ATOM     28  C   UNL A   1      42.400  27.489  31.207  1.00  0.00     0.029 A 
ATOM     29  N   UNL A   1      41.395  29.136  32.313  1.00  0.00    -0.354 N 
ATOM     30  N   UNL A   1      41.022  30.972  34.580  1.00  0.00    -0.248 NA
ATOM     31  C   UNL A   1      41.549  31.668  36.744  1.00  0.00     0.031 C 
ATOM     32  C   UNL A   1      42.972  27.581  32.480  1.00  0.00     0.029 A 
ATOM     33  C   UNL A   1      42.371  28.629  33.158  1.00  0.00     0.049 A 
ATOM     34  H   UNL A   1      40.795  29.886  32.529  1.00  0.00     0.167 HD
ATOM     35  C   UNL A   1      42.036  30.167  35.079  1.00  0.00     0.074 A 
ATOM     36  C   UNL A   1      42.335  30.653  36.411  1.00  0.00     0.031 C 
ATOM     37  C   UNL A   1      42.667  29.129  34.479  1.00  0.00     0.037 A 
BRANCH  24  38
ATOM     38  C   UNL A   1      40.509  27.732  28.849  1.00  0.00     0.064 A 
ATOM     39  C   UNL A   1      41.328  27.979  27.736  1.00  0.00     0.173 A 
ATOM     40  C   UNL A   1      39.720  26.570  28.832  1.00  0.00     0.173 A 
ATOM     41  F   UNL A   1      42.098  29.077  27.695  1.00  0.00    -0.203 F 
ATOM     42  C   UNL A   1      41.317  27.128  26.632  1.00  0.00     0.198 A 
ATOM     43  C   UNL A   1      39.740  25.702  27.743  1.00  0.00     0.198 A 
ATOM     44  F   UNL A   1      38.928  26.274  29.873  1.00  0.00    -0.203 F 
ATOM     45  F   UNL A   1      42.053  27.425  25.553  1.00  0.00    -0.200 F 
ATOM     46  C   UNL A   1      40.526  25.989  26.638  1.00  0.00     0.200 A 
ATOM     47  F   UNL A   1      38.989  24.591  27.759  1.00  0.00    -0.200 F 
ATOM     48  F   UNL A   1      40.515  25.175  25.575  1.00  0.00    -0.200 F 
ENDBRANCH  24  38
BRANCH  25  49
ATOM     49  C   UNL A   1      39.557  33.839  36.699  1.00  0.00     0.064 A 
ATOM     50  C   UNL A   1      38.732  33.441  37.757  1.00  0.00     0.173 A 
ATOM     51  C   UNL A   1      40.236  35.063  36.822  1.00  0.00     0.173 A 
ATOM     52  F   UNL A   1      38.052  32.288  37.678  1.00  0.00    -0.203 F 
ATOM     53  C   UNL A   1      38.589  34.234  38.894  1.00  0.00     0.198 A 
ATOM     54  C   UNL A   1      40.115  35.840  37.970  1.00  0.00     0.198 A 
ATOM     55  F   UNL A   1      41.047  35.482  35.839  1.00  0.00    -0.203 F 
ATOM     56  F   UNL A   1      37.774  33.842  39.882  1.00  0.00    -0.200 F 
ATOM     57  C   UNL A   1      39.290  35.427  39.005  1.00  0.00     0.200 A 
ATOM     58  F   UNL A   1      40.812  36.979  38.082  1.00  0.00    -0.200 F 
ATOM     59  F   UNL A   1      39.168  36.177  40.108  1.00  0.00    -0.200 F 
ENDBRANCH  25  49
BRANCH  37  60
ATOM     60  C   UNL A   1      43.790  28.470  35.227  1.00  0.00     0.064 A 
ATOM     61  C   UNL A   1      45.120  28.898  35.099  1.00  0.00     0.173 A 
ATOM     62  C   UNL A   1      43.514  27.447  36.148  1.00  0.00     0.173 A 
ATOM     63  F   UNL A   1      45.439  29.859  34.220  1.00  0.00    -0.203 F 
ATOM     64  C   UNL A   1      46.132  28.320  35.863  1.00  0.00     0.198 A 
ATOM     65  C   UNL A   1      44.523  26.894  36.931  1.00  0.00     0.198 A 
ATOM     66  F   UNL A   1      42.258  27.004  36.309  1.00  0.00    -0.203 F 
ATOM     67  F   UNL A   1      47.400  28.722  35.704  1.00  0.00    -0.200 F 
ATOM     68  C   UNL A   1      45.831  27.329  36.786  1.00  0.00     0.200 A 
ATOM     69  F   UNL A   1      44.226  25.949  37.834  1.00  0.00    -0.200 F 
ATOM     70  F   UNL A   1      46.803  26.793  37.536  1.00  0.00    -0.200 F 
ENDBRANCH  37  60
ENDBRANCH  11  12
ENDBRANCH   4   6
ENDBRANCH   1   2
BRANCH   1  71
ATOM     71  C   UNL A   1      31.401  32.182  26.504  1.00  0.00     0.023 C 
BRANCH  71  72
ATOM     72  C   UNL A   1      31.405  30.655  26.469  1.00  0.00     0.023 C 
BRANCH  72  73
ATOM     73  C   UNL A   1      32.738  30.015  26.096  1.00  0.00     0.116 C 
BRANCH  73  74
ATOM     74  N   UNL A   1      32.871  29.780  24.668  1.00  0.00    -0.351 N 
ATOM     75  C   UNL A   1      32.704  28.604  23.969  1.00  0.00     0.269 C 
ATOM     76  H   UNL A   1      33.113  30.567  24.128  1.00  0.00     0.163 HD
ATOM     77  O   UNL A   1      32.947  28.578  22.765  1.00  0.00    -0.268 OA
BRANCH  75  78
ATOM     78  C   UNL A   1      32.220  27.387  24.680  1.00  0.00     0.129 A 
ATOM     79  C   UNL A   1      30.873  27.241  24.971  1.00  0.00     0.036 A 
ATOM     80  N   UNL A   1      33.165  26.485  25.037  1.00  0.00    -0.241 NA
ATOM     81  C   UNL A   1      30.486  26.139  25.729  1.00  0.00     0.033 A 
ATOM     82  C   UNL A   1      32.756  25.412  25.741  1.00  0.00     0.090 A 
ATOM     83  C   UNL A   1      31.417  25.199  26.139  1.00  0.00     0.089 A 
ATOM     84  C   UNL A   1      33.674  24.446  26.119  1.00  0.00     0.032 A 
ATOM     85  N   UNL A   1      31.014  24.146  26.877  1.00  0.00    -0.255 NA
ATOM     86  C   UNL A   1      33.280  23.341  26.870  1.00  0.00     0.022 A 
ATOM     87  C   UNL A   1      31.950  23.242  27.231  1.00  0.00     0.112 A 
ENDBRANCH  75  78
ENDBRANCH  73  74
ENDBRANCH  72  73
ENDBRANCH  71  72
ENDBRANCH   1  71
TORSDOF 11
ENDMDL
