MODEL 1
REMARK VINA RESULT:     -12.8      0.000      0.000
REMARK SMILES C[C@@H](C(=O)NCCCCNC(=O)c1ccc(-c2c3nc(c(-c4c(F)c(F)c(F)c(F)c4F)c4ccc([nH]4)c(-c4c(F)c(F)c(F)c(F)c4F)c4nc(c(-c5c(F)c(F)c(F)c(F)c5F)c5ccc2[nH]5)C=C4)C=C3)cc1)c1ccc(C[C@H]2CCC[C@@H]2O)cc1
REMARK SMILES IDX 6 1 5 2 3 3 4 4 2 6 1 7 76 8 77 9 88 10 78 11 87 12 79 13
REMARK SMILES IDX 80 14 81 15 82 16 85 17 83 18 84 19 86 20 7 22 8 23 9 24
REMARK SMILES IDX 10 25 11 26 12 28 13 29 14 30 75 31 15 32 74 33 16 34 17 35
REMARK SMILES IDX 18 36 68 37 19 38 73 39 67 40 69 41 20 42 72 43 66 44 65 45
REMARK SMILES IDX 21 47 53 48 33 49 52 50 34 51 37 52 51 53 70 54 35 55 36 56
REMARK SMILES IDX 50 58 71 59 38 60 22 61 23 62 31 63 24 64 25 65 29 66 32 67
REMARK SMILES IDX 26 68 27 69 30 70 28 71 54 72 55 73 63 74 56 75 57 76 61 77
REMARK SMILES IDX 64 78 58 79 59 80 62 81 60 82 39 83 40 84 48 85 41 86 42 87
REMARK SMILES IDX 46 88 49 89 43 90 44 91 47 92 45 93
REMARK H PARENT 5 5 86 21 10 27 69 46 37 57
REMARK Flexibility Score: inf
ROOT
ATOM      1  C   UNL A   1      33.252  29.431  26.039  1.00  0.00     0.116 C 
ENDROOT
BRANCH   1   2
ATOM      2  N   UNL A   1      33.954  29.330  24.775  1.00  0.00    -0.356 N 
ATOM      3  C   UNL A   1      33.950  28.335  23.839  1.00  0.00     0.227 C 
ATOM      4  O   UNL A   1      34.725  28.472  22.891  1.00  0.00    -0.274 OA
ATOM      5  H   UNL A   1      34.524  30.102  24.555  1.00  0.00     0.163 HD
BRANCH   3   6
ATOM      6  C   UNL A   1      32.991  27.145  23.993  1.00  0.00     0.105 C 
ATOM      7  C   UNL A   1      33.456  25.916  23.203  1.00  0.00     0.023 C 
BRANCH   6   8
ATOM      8  C   UNL A   1      31.557  27.464  23.586  1.00  0.00    -0.036 A 
ATOM      9  C   UNL A   1      31.297  28.481  22.658  1.00  0.00     0.005 A 
ATOM     10  C   UNL A   1      30.472  26.816  24.192  1.00  0.00     0.005 A 
ATOM     11  C   UNL A   1      29.985  28.882  22.395  1.00  0.00     0.004 A 
ATOM     12  C   UNL A   1      29.164  27.225  23.937  1.00  0.00     0.004 A 
ATOM     13  C   UNL A   1      28.911  28.296  23.073  1.00  0.00    -0.048 A 
BRANCH  13  14
ATOM     14  C   UNL A   1      27.506  28.829  22.929  1.00  0.00     0.041 C 
BRANCH  14  15
ATOM     15  C   UNL A   1      27.396  30.332  22.609  1.00  0.00     0.022 C 
ATOM     16  C   UNL A   1      27.830  31.298  23.728  1.00  0.00     0.007 C 
ATOM     17  C   UNL A   1      28.172  30.806  21.375  1.00  0.00     0.117 C 
ATOM     18  C   UNL A   1      28.517  32.477  23.032  1.00  0.00     0.003 C 
ATOM     19  C   UNL A   1      28.201  32.316  21.555  1.00  0.00     0.032 C 
BRANCH  17  20
ATOM     20  O   UNL A   1      27.515  30.463  20.169  1.00  0.00    -0.393 OA
ATOM     21  H   UNL A   1      26.567  30.648  20.254  1.00  0.00     0.210 HD
ENDBRANCH  17  20
ENDBRANCH  14  15
ENDBRANCH  13  14
ENDBRANCH   6   8
ENDBRANCH   3   6
ENDBRANCH   1   2
BRANCH   1  22
ATOM     22  C   UNL A   1      32.016  30.323  25.919  1.00  0.00     0.023 C 
BRANCH  22  23
ATOM     23  C   UNL A   1      31.835  31.329  27.059  1.00  0.00     0.023 C 
BRANCH  23  24
ATOM     24  C   UNL A   1      32.997  32.294  27.269  1.00  0.00     0.116 C 
BRANCH  24  25
ATOM     25  N   UNL A   1      32.561  33.660  27.515  1.00  0.00    -0.352 N 
ATOM     26  C   UNL A   1      33.049  34.578  28.415  1.00  0.00     0.251 C 
ATOM     27  H   UNL A   1      31.810  33.971  26.960  1.00  0.00     0.163 HD
ATOM     28  O   UNL A   1      32.480  35.651  28.577  1.00  0.00    -0.269 OA
BRANCH  26  29
ATOM     29  C   UNL A   1      34.244  34.245  29.218  1.00  0.00     0.039 A 
ATOM     30  C   UNL A   1      34.067  33.622  30.456  1.00  0.00     0.014 A 
ATOM     31  C   UNL A   1      35.528  34.504  28.732  1.00  0.00     0.014 A 
ATOM     32  C   UNL A   1      35.182  33.171  31.166  1.00  0.00     0.010 A 
ATOM     33  C   UNL A   1      36.634  34.004  29.413  1.00  0.00     0.010 A 
ATOM     34  C   UNL A   1      36.470  33.311  30.623  1.00  0.00    -0.014 A 
BRANCH  34  35
ATOM     35  C   UNL A   1      37.649  32.679  31.264  1.00  0.00     0.031 A 
ATOM     36  C   UNL A   1      38.324  31.502  30.623  1.00  0.00     0.074 A 
ATOM     37  C   UNL A   1      38.042  33.108  32.480  1.00  0.00     0.049 A 
ATOM     38  N   UNL A   1      39.286  30.747  31.092  1.00  0.00    -0.248 NA
ATOM     39  C   UNL A   1      37.842  31.104  29.292  1.00  0.00     0.031 C 
ATOM     40  C   UNL A   1      37.431  34.209  33.227  1.00  0.00     0.029 A 
ATOM     41  N   UNL A   1      39.032  32.652  33.316  1.00  0.00    -0.354 N 
ATOM     42  C   UNL A   1      39.511  29.778  30.124  1.00  0.00     0.074 A 
ATOM     43  C   UNL A   1      38.567  30.020  29.055  1.00  0.00     0.031 C 
ATOM     44  C   UNL A   1      38.056  34.341  34.408  1.00  0.00     0.029 A 
ATOM     45  C   UNL A   1      39.082  33.311  34.521  1.00  0.00     0.049 A 
ATOM     46  H   UNL A   1      39.646  31.921  33.075  1.00  0.00     0.167 HD
ATOM     47  C   UNL A   1      40.434  28.788  30.126  1.00  0.00     0.037 A 
ATOM     48  C   UNL A   1      39.852  33.094  35.605  1.00  0.00     0.037 A 
ATOM     49  C   UNL A   1      41.395  28.574  31.176  1.00  0.00     0.049 A 
ATOM     50  C   UNL A   1      40.858  31.976  35.579  1.00  0.00     0.074 A 
ATOM     51  C   UNL A   1      42.437  27.664  31.216  1.00  0.00     0.029 A 
ATOM     52  N   UNL A   1      41.427  29.272  32.372  1.00  0.00    -0.354 N 
ATOM     53  N   UNL A   1      41.125  31.126  34.619  1.00  0.00    -0.248 NA
ATOM     54  C   UNL A   1      41.671  31.787  36.790  1.00  0.00     0.031 C 
ATOM     55  C   UNL A   1      43.070  27.776  32.458  1.00  0.00     0.029 A 
ATOM     56  C   UNL A   1      42.449  28.786  33.174  1.00  0.00     0.049 A 
ATOM     57  H   UNL A   1      40.817  30.004  32.617  1.00  0.00     0.167 HD
ATOM     58  C   UNL A   1      42.141  30.313  35.101  1.00  0.00     0.074 A 
ATOM     59  C   UNL A   1      42.462  30.786  36.431  1.00  0.00     0.031 C 
ATOM     60  C   UNL A   1      42.752  29.265  34.497  1.00  0.00     0.037 A 
BRANCH  47  61
ATOM     61  C   UNL A   1      40.464  27.851  28.956  1.00  0.00     0.064 A 
ATOM     62  C   UNL A   1      39.693  26.680  28.935  1.00  0.00     0.173 A 
ATOM     63  C   UNL A   1      41.202  28.174  27.808  1.00  0.00     0.173 A 
ATOM     64  F   UNL A   1      38.976  26.324  30.011  1.00  0.00    -0.203 F 
ATOM     65  C   UNL A   1      39.668  25.861  27.810  1.00  0.00     0.198 A 
ATOM     66  C   UNL A   1      41.158  27.366  26.676  1.00  0.00     0.198 A 
ATOM     67  F   UNL A   1      41.951  29.288  27.777  1.00  0.00    -0.203 F 
ATOM     68  F   UNL A   1      38.943  24.734  27.818  1.00  0.00    -0.200 F 
ATOM     69  C   UNL A   1      40.391  26.209  26.678  1.00  0.00     0.200 A 
ATOM     70  F   UNL A   1      41.848  27.710  25.580  1.00  0.00    -0.200 F 
ATOM     71  F   UNL A   1      40.351  25.430  25.589  1.00  0.00    -0.200 F 
ENDBRANCH  47  61
BRANCH  48  72
ATOM     72  C   UNL A   1      39.690  33.937  36.818  1.00  0.00     0.064 A 
ATOM     73  C   UNL A   1      38.864  33.529  37.875  1.00  0.00     0.173 A 
ATOM     74  C   UNL A   1      40.334  35.178  36.934  1.00  0.00     0.173 A 
ATOM     75  F   UNL A   1      38.209  32.361  37.799  1.00  0.00    -0.203 F 
ATOM     76  C   UNL A   1      38.667  34.343  38.988  1.00  0.00     0.198 A 
ATOM     77  C   UNL A   1      40.158  35.977  38.061  1.00  0.00     0.198 A 
ATOM     78  F   UNL A   1      41.137  35.612  35.952  1.00  0.00    -0.203 F 
ATOM     79  F   UNL A   1      37.829  33.954  39.959  1.00  0.00    -0.200 F 
ATOM     80  C   UNL A   1      39.317  35.564  39.082  1.00  0.00     0.200 A 
ATOM     81  F   UNL A   1      40.799  37.150  38.153  1.00  0.00    -0.200 F 
ATOM     82  F   UNL A   1      39.124  36.347  40.152  1.00  0.00    -0.200 F 
ENDBRANCH  48  72
BRANCH  60  83
ATOM     83  C   UNL A   1      43.831  28.564  35.266  1.00  0.00     0.064 A 
ATOM     84  C   UNL A   1      45.175  28.949  35.153  1.00  0.00     0.173 A 
ATOM     85  C   UNL A   1      43.515  27.528  36.158  1.00  0.00     0.173 A 
ATOM     86  F   UNL A   1      45.528  29.923  34.301  1.00  0.00    -0.203 F 
ATOM     87  C   UNL A   1      46.166  28.309  35.892  1.00  0.00     0.198 A 
ATOM     88  C   UNL A   1      44.506  26.909  36.915  1.00  0.00     0.198 A 
ATOM     89  F   UNL A   1      42.244  27.126  36.304  1.00  0.00    -0.203 F 
ATOM     90  F   UNL A   1      47.449  28.668  35.738  1.00  0.00    -0.200 F 
ATOM     91  C   UNL A   1      45.830  27.297  36.778  1.00  0.00     0.200 A 
ATOM     92  F   UNL A   1      44.178  25.938  37.778  1.00  0.00    -0.200 F 
ATOM     93  F   UNL A   1      46.785  26.689  37.494  1.00  0.00    -0.200 F 
ENDBRANCH  60  83
ENDBRANCH  34  35
ENDBRANCH  26  29
ENDBRANCH  24  25
ENDBRANCH  23  24
ENDBRANCH  22  23
ENDBRANCH   1  22
TORSDOF 15
ENDMDL
MODEL 2
REMARK VINA RESULT:     -12.8      0.237      1.975
REMARK SMILES C[C@@H](C(=O)NCCCCNC(=O)c1ccc(-c2c3nc(c(-c4c(F)c(F)c(F)c(F)c4F)c4ccc([nH]4)c(-c4c(F)c(F)c(F)c(F)c4F)c4nc(c(-c5c(F)c(F)c(F)c(F)c5F)c5ccc2[nH]5)C=C4)C=C3)cc1)c1ccc(C[C@H]2CCC[C@@H]2O)cc1
REMARK SMILES IDX 6 1 5 2 3 3 4 4 2 6 1 7 76 8 77 9 88 10 78 11 87 12 79 13
REMARK SMILES IDX 80 14 81 15 82 16 85 17 83 18 84 19 86 20 7 22 8 23 9 24
REMARK SMILES IDX 10 25 11 26 12 28 13 29 14 30 75 31 15 32 74 33 16 34 17 35
REMARK SMILES IDX 18 36 68 37 19 38 73 39 67 40 69 41 20 42 72 43 66 44 65 45
REMARK SMILES IDX 21 47 53 48 33 49 52 50 34 51 37 52 51 53 70 54 35 55 36 56
REMARK SMILES IDX 50 58 71 59 38 60 22 61 23 62 31 63 24 64 25 65 29 66 32 67
REMARK SMILES IDX 26 68 27 69 30 70 28 71 54 72 55 73 63 74 56 75 57 76 61 77
REMARK SMILES IDX 64 78 58 79 59 80 62 81 60 82 39 83 40 84 48 85 41 86 42 87
REMARK SMILES IDX 46 88 49 89 43 90 44 91 47 92 45 93
REMARK H PARENT 5 5 86 21 10 27 69 46 37 57
REMARK Flexibility Score: inf
ROOT
ATOM      1  C   UNL A   1      33.153  29.560  26.131  1.00  0.00     0.116 C 
ENDROOT
BRANCH   1   2
ATOM      2  N   UNL A   1      33.915  29.429  24.906  1.00  0.00    -0.356 N 
ATOM      3  C   UNL A   1      33.941  28.421  23.985  1.00  0.00     0.227 C 
ATOM      4  O   UNL A   1      34.766  28.532  23.075  1.00  0.00    -0.274 OA
ATOM      5  H   UNL A   1      34.509  30.188  24.705  1.00  0.00     0.163 HD
BRANCH   3   6
ATOM      6  C   UNL A   1      32.956  27.250  24.105  1.00  0.00     0.105 C 
ATOM      7  C   UNL A   1      33.444  25.998  23.364  1.00  0.00     0.023 C 
BRANCH   6   8
ATOM      8  C   UNL A   1      31.552  27.584  23.612  1.00  0.00    -0.036 A 
ATOM      9  C   UNL A   1      31.364  28.570  22.635  1.00  0.00     0.005 A 
ATOM     10  C   UNL A   1      30.423  26.982  24.184  1.00  0.00     0.005 A 
ATOM     11  C   UNL A   1      30.078  28.988  22.289  1.00  0.00     0.004 A 
ATOM     12  C   UNL A   1      29.140  27.409  23.846  1.00  0.00     0.004 A 
ATOM     13  C   UNL A   1      28.957  28.452  22.932  1.00  0.00    -0.048 A 
BRANCH  13  14
ATOM     14  C   UNL A   1      27.574  29.009  22.695  1.00  0.00     0.041 C 
BRANCH  14  15
ATOM     15  C   UNL A   1      27.489  30.542  22.566  1.00  0.00     0.022 C 
ATOM     16  C   UNL A   1      28.025  31.355  23.760  1.00  0.00     0.007 C 
ATOM     17  C   UNL A   1      28.195  31.145  21.347  1.00  0.00     0.117 C 
ATOM     18  C   UNL A   1      28.701  32.593  23.164  1.00  0.00     0.003 C 
ATOM     19  C   UNL A   1      28.282  32.622  21.704  1.00  0.00     0.032 C 
BRANCH  17  20
ATOM     20  O   UNL A   1      27.449  30.967  20.157  1.00  0.00    -0.393 OA
ATOM     21  H   UNL A   1      26.799  30.259  20.286  1.00  0.00     0.210 HD
ENDBRANCH  17  20
ENDBRANCH  14  15
ENDBRANCH  13  14
ENDBRANCH   6   8
ENDBRANCH   3   6
ENDBRANCH   1   2
BRANCH   1  22
ATOM     22  C   UNL A   1      31.908  30.423  25.922  1.00  0.00     0.023 C 
BRANCH  22  23
ATOM     23  C   UNL A   1      31.673  31.486  26.998  1.00  0.00     0.023 C 
BRANCH  23  24
ATOM     24  C   UNL A   1      32.850  32.419  27.263  1.00  0.00     0.116 C 
BRANCH  24  25
ATOM     25  N   UNL A   1      32.438  33.792  27.513  1.00  0.00    -0.352 N 
ATOM     26  C   UNL A   1      32.958  34.706  28.398  1.00  0.00     0.251 C 
ATOM     27  H   UNL A   1      31.680  34.111  26.972  1.00  0.00     0.163 HD
ATOM     28  O   UNL A   1      32.407  35.787  28.569  1.00  0.00    -0.269 OA
BRANCH  26  29
ATOM     29  C   UNL A   1      34.164  34.359  29.178  1.00  0.00     0.039 A 
ATOM     30  C   UNL A   1      34.004  33.762  30.431  1.00  0.00     0.014 A 
ATOM     31  C   UNL A   1      35.441  34.579  28.656  1.00  0.00     0.014 A 
ATOM     32  C   UNL A   1      35.125  33.297  31.121  1.00  0.00     0.010 A 
ATOM     33  C   UNL A   1      36.552  34.064  29.318  1.00  0.00     0.010 A 
ATOM     34  C   UNL A   1      36.402  33.397  30.545  1.00  0.00    -0.014 A 
BRANCH  34  35
ATOM     35  C   UNL A   1      37.582  32.748  31.168  1.00  0.00     0.031 A 
ATOM     36  C   UNL A   1      38.220  31.552  30.527  1.00  0.00     0.074 A 
ATOM     37  C   UNL A   1      38.009  33.182  32.371  1.00  0.00     0.049 A 
ATOM     38  N   UNL A   1      39.176  30.782  30.984  1.00  0.00    -0.248 NA
ATOM     39  C   UNL A   1      37.702  31.149  29.210  1.00  0.00     0.031 C 
ATOM     40  C   UNL A   1      37.436  34.304  33.118  1.00  0.00     0.029 A 
ATOM     41  N   UNL A   1      39.007  32.716  33.191  1.00  0.00    -0.354 N 
ATOM     42  C   UNL A   1      39.361  29.798  30.023  1.00  0.00     0.074 A 
ATOM     43  C   UNL A   1      38.400  30.047  28.970  1.00  0.00     0.031 C 
ATOM     44  C   UNL A   1      38.088  34.437  34.284  1.00  0.00     0.029 A 
ATOM     45  C   UNL A   1      39.096  33.387  34.387  1.00  0.00     0.049 A 
ATOM     46  H   UNL A   1      39.602  31.971  32.946  1.00  0.00     0.167 HD
ATOM     47  C   UNL A   1      40.264  28.790  30.016  1.00  0.00     0.037 A 
ATOM     48  C   UNL A   1      39.884  33.166  35.456  1.00  0.00     0.037 A 
ATOM     49  C   UNL A   1      41.243  28.568  31.048  1.00  0.00     0.049 A 
ATOM     50  C   UNL A   1      40.868  32.029  35.423  1.00  0.00     0.074 A 
ATOM     51  C   UNL A   1      42.268  27.638  31.076  1.00  0.00     0.029 A 
ATOM     52  N   UNL A   1      41.314  29.279  32.236  1.00  0.00    -0.354 N 
ATOM     53  N   UNL A   1      41.097  31.163  34.467  1.00  0.00    -0.248 NA
ATOM     54  C   UNL A   1      41.701  31.836  36.618  1.00  0.00     0.031 C 
ATOM     55  C   UNL A   1      42.928  27.751  32.304  1.00  0.00     0.029 A 
ATOM     56  C   UNL A   1      42.343  28.781  33.021  1.00  0.00     0.049 A 
ATOM     57  H   UNL A   1      40.724  30.026  32.484  1.00  0.00     0.167 HD
ATOM     58  C   UNL A   1      42.106  30.335  34.937  1.00  0.00     0.074 A 
ATOM     59  C   UNL A   1      42.465  30.816  36.254  1.00  0.00     0.031 C 
ATOM     60  C   UNL A   1      42.683  29.268  34.332  1.00  0.00     0.037 A 
BRANCH  47  61
ATOM     61  C   UNL A   1      40.251  27.840  28.857  1.00  0.00     0.064 A 
ATOM     62  C   UNL A   1      40.992  28.093  27.694  1.00  0.00     0.173 A 
ATOM     63  C   UNL A   1      39.562  26.621  28.947  1.00  0.00     0.173 A 
ATOM     64  F   UNL A   1      41.661  29.247  27.557  1.00  0.00    -0.203 F 
ATOM     65  C   UNL A   1      41.035  27.163  26.658  1.00  0.00     0.198 A 
ATOM     66  C   UNL A   1      39.626  25.684  27.920  1.00  0.00     0.198 A 
ATOM     67  F   UNL A   1      38.844  26.330  30.043  1.00  0.00    -0.203 F 
ATOM     68  F   UNL A   1      41.731  27.434  25.545  1.00  0.00    -0.200 F 
ATOM     69  C   UNL A   1      40.362  25.956  26.776  1.00  0.00     0.200 A 
ATOM     70  F   UNL A   1      38.985  24.514  28.041  1.00  0.00    -0.200 F 
ATOM     71  F   UNL A   1      40.421  25.055  25.787  1.00  0.00    -0.200 F 
ENDBRANCH  47  61
BRANCH  48  72
ATOM     72  C   UNL A   1      39.765  34.026  36.664  1.00  0.00     0.064 A 
ATOM     73  C   UNL A   1      40.489  35.222  36.771  1.00  0.00     0.173 A 
ATOM     74  C   UNL A   1      38.949  33.657  37.743  1.00  0.00     0.173 A 
ATOM     75  F   UNL A   1      41.300  35.605  35.774  1.00  0.00    -0.203 F 
ATOM     76  C   UNL A   1      40.422  36.001  37.924  1.00  0.00     0.198 A 
ATOM     77  C   UNL A   1      38.861  34.453  38.883  1.00  0.00     0.198 A 
ATOM     78  F   UNL A   1      38.234  32.524  37.688  1.00  0.00    -0.203 F 
ATOM     79  F   UNL A   1      41.166  37.111  38.023  1.00  0.00    -0.200 F 
ATOM     80  C   UNL A   1      39.606  35.618  38.977  1.00  0.00     0.200 A 
ATOM     81  F   UNL A   1      38.061  34.085  39.893  1.00  0.00    -0.200 F 
ATOM     82  F   UNL A   1      39.545  36.366  40.087  1.00  0.00    -0.200 F 
ENDBRANCH  48  72
BRANCH  60  83
ATOM     83  C   UNL A   1      43.764  28.554  35.086  1.00  0.00     0.064 A 
ATOM     84  C   UNL A   1      43.474  27.466  35.922  1.00  0.00     0.173 A 
ATOM     85  C   UNL A   1      45.107  28.931  34.937  1.00  0.00     0.173 A 
ATOM     86  F   UNL A   1      42.204  27.079  36.109  1.00  0.00    -0.203 F 
ATOM     87  C   UNL A   1      44.489  26.793  36.596  1.00  0.00     0.198 A 
ATOM     88  C   UNL A   1      46.122  28.239  35.592  1.00  0.00     0.198 A 
ATOM     89  F   UNL A   1      45.436  29.963  34.145  1.00  0.00    -0.203 F 
ATOM     90  F   UNL A   1      44.185  25.781  37.421  1.00  0.00    -0.200 F 
ATOM     91  C   UNL A   1      45.812  27.174  36.424  1.00  0.00     0.200 A 
ATOM     92  F   UNL A   1      47.400  28.601  35.416  1.00  0.00    -0.200 F 
ATOM     93  F   UNL A   1      46.787  26.519  37.068  1.00  0.00    -0.200 F 
ENDBRANCH  60  83
ENDBRANCH  34  35
ENDBRANCH  26  29
ENDBRANCH  24  25
ENDBRANCH  23  24
ENDBRANCH  22  23
ENDBRANCH   1  22
TORSDOF 15
ENDMDL
MODEL 3
REMARK VINA RESULT:     -12.6      3.617     10.237
REMARK SMILES C[C@@H](C(=O)NCCCCNC(=O)c1ccc(-c2c3nc(c(-c4c(F)c(F)c(F)c(F)c4F)c4ccc([nH]4)c(-c4c(F)c(F)c(F)c(F)c4F)c4nc(c(-c5c(F)c(F)c(F)c(F)c5F)c5ccc2[nH]5)C=C4)C=C3)cc1)c1ccc(C[C@H]2CCC[C@@H]2O)cc1
REMARK SMILES IDX 6 1 5 2 3 3 4 4 2 6 1 7 76 8 77 9 88 10 78 11 87 12 79 13
REMARK SMILES IDX 80 14 81 15 82 16 85 17 83 18 84 19 86 20 7 22 8 23 9 24
REMARK SMILES IDX 10 25 11 26 12 28 13 29 14 30 75 31 15 32 74 33 16 34 17 35
REMARK SMILES IDX 18 36 68 37 19 38 73 39 67 40 69 41 20 42 72 43 66 44 65 45
REMARK SMILES IDX 21 47 53 48 33 49 52 50 34 51 37 52 51 53 70 54 35 55 36 56
REMARK SMILES IDX 50 58 71 59 38 60 22 61 23 62 31 63 24 64 25 65 29 66 32 67
REMARK SMILES IDX 26 68 27 69 30 70 28 71 54 72 55 73 63 74 56 75 57 76 61 77
REMARK SMILES IDX 64 78 58 79 59 80 62 81 60 82 39 83 40 84 48 85 41 86 42 87
REMARK SMILES IDX 46 88 49 89 43 90 44 91 47 92 45 93
REMARK H PARENT 5 5 86 21 10 27 69 46 37 57
REMARK Flexibility Score: inf
ROOT
ATOM      1  C   UNL A   1      32.867  35.746  30.555  1.00  0.00     0.116 C 
ENDROOT
BRANCH   1   2
ATOM      2  N   UNL A   1      33.448  36.335  31.745  1.00  0.00    -0.356 N 
ATOM      3  C   UNL A   1      34.346  35.820  32.637  1.00  0.00     0.227 C 
ATOM      4  O   UNL A   1      34.597  36.516  33.624  1.00  0.00    -0.274 OA
ATOM      5  H   UNL A   1      33.149  37.251  31.942  1.00  0.00     0.163 HD
BRANCH   3   6
ATOM      6  C   UNL A   1      35.000  34.458  32.365  1.00  0.00     0.105 C 
ATOM      7  C   UNL A   1      34.713  33.440  33.475  1.00  0.00     0.023 C 
BRANCH   6   8
ATOM      8  C   UNL A   1      36.509  34.538  32.165  1.00  0.00    -0.036 A 
ATOM      9  C   UNL A   1      37.060  34.391  30.885  1.00  0.00     0.005 A 
ATOM     10  C   UNL A   1      37.378  34.670  33.257  1.00  0.00     0.005 A 
ATOM     11  C   UNL A   1      38.443  34.310  30.714  1.00  0.00     0.004 A 
ATOM     12  C   UNL A   1      38.757  34.578  33.086  1.00  0.00     0.004 A 
ATOM     13  C   UNL A   1      39.302  34.347  31.818  1.00  0.00    -0.048 A 
BRANCH  13  14
ATOM     14  C   UNL A   1      40.782  34.092  31.671  1.00  0.00     0.041 C 
BRANCH  14  15
ATOM     15  C   UNL A   1      41.181  32.627  31.411  1.00  0.00     0.022 C 
ATOM     16  C   UNL A   1      41.016  32.123  29.964  1.00  0.00     0.007 C 
ATOM     17  C   UNL A   1      42.621  32.256  31.782  1.00  0.00     0.117 C 
ATOM     18  C   UNL A   1      42.195  31.182  29.703  1.00  0.00     0.003 C 
ATOM     19  C   UNL A   1      42.823  30.930  31.063  1.00  0.00     0.032 C 
BRANCH  17  20
ATOM     20  O   UNL A   1      42.786  32.092  33.178  1.00  0.00    -0.393 OA
ATOM     21  H   UNL A   1      41.919  32.114  33.611  1.00  0.00     0.210 HD
ENDBRANCH  17  20
ENDBRANCH  14  15
ENDBRANCH  13  14
ENDBRANCH   6   8
ENDBRANCH   3   6
ENDBRANCH   1   2
BRANCH   1  22
ATOM     22  C   UNL A   1      33.416  36.400  29.287  1.00  0.00     0.023 C 
BRANCH  22  23
ATOM     23  C   UNL A   1      34.102  35.439  28.312  1.00  0.00     0.023 C 
BRANCH  23  24
ATOM     24  C   UNL A   1      34.175  33.987  28.769  1.00  0.00     0.116 C 
BRANCH  24  25
ATOM     25  N   UNL A   1      33.430  33.083  27.906  1.00  0.00    -0.352 N 
ATOM     26  C   UNL A   1      33.760  31.818  27.482  1.00  0.00     0.251 C 
ATOM     27  H   UNL A   1      32.567  33.427  27.579  1.00  0.00     0.163 HD
ATOM     28  O   UNL A   1      33.068  31.242  26.651  1.00  0.00    -0.269 OA
BRANCH  26  29
ATOM     29  C   UNL A   1      34.983  31.172  28.003  1.00  0.00     0.039 A 
ATOM     30  C   UNL A   1      36.157  31.926  28.084  1.00  0.00     0.014 A 
ATOM     31  C   UNL A   1      34.957  29.848  28.450  1.00  0.00     0.014 A 
ATOM     32  C   UNL A   1      37.283  31.381  28.703  1.00  0.00     0.010 A 
ATOM     33  C   UNL A   1      36.062  29.328  29.117  1.00  0.00     0.010 A 
ATOM     34  C   UNL A   1      37.227  30.098  29.272  1.00  0.00    -0.014 A 
BRANCH  34  35
ATOM     35  C   UNL A   1      38.343  29.569  30.094  1.00  0.00     0.031 A 
ATOM     36  C   UNL A   1      38.540  30.043  31.504  1.00  0.00     0.074 A 
ATOM     37  C   UNL A   1      39.239  28.738  29.526  1.00  0.00     0.049 A 
ATOM     38  N   UNL A   1      39.524  29.788  32.331  1.00  0.00    -0.248 NA
ATOM     39  C   UNL A   1      37.512  30.941  32.053  1.00  0.00     0.031 C 
ATOM     40  C   UNL A   1      39.183  28.248  28.147  1.00  0.00     0.029 A 
ATOM     41  N   UNL A   1      40.389  28.178  30.028  1.00  0.00    -0.354 N 
ATOM     42  C   UNL A   1      39.243  30.505  33.485  1.00  0.00     0.074 A 
ATOM     43  C   UNL A   1      38.013  31.229  33.246  1.00  0.00     0.031 C 
ATOM     44  C   UNL A   1      40.248  27.466  27.913  1.00  0.00     0.029 A 
ATOM     45  C   UNL A   1      41.084  27.431  29.108  1.00  0.00     0.049 A 
ATOM     46  H   UNL A   1      40.687  28.303  30.958  1.00  0.00     0.167 HD
ATOM     47  C   UNL A   1      39.942  30.539  34.643  1.00  0.00     0.037 A 
ATOM     48  C   UNL A   1      42.274  26.808  29.208  1.00  0.00     0.037 A 
ATOM     49  C   UNL A   1      41.145  29.787  34.890  1.00  0.00     0.049 A 
ATOM     50  C   UNL A   1      43.032  26.876  30.505  1.00  0.00     0.074 A 
ATOM     51  C   UNL A   1      41.864  29.675  36.067  1.00  0.00     0.029 A 
ATOM     52  N   UNL A   1      41.810  29.027  33.940  1.00  0.00    -0.354 N 
ATOM     53  N   UNL A   1      42.708  27.481  31.621  1.00  0.00    -0.248 NA
ATOM     54  C   UNL A   1      44.325  26.177  30.556  1.00  0.00     0.031 C 
ATOM     55  C   UNL A   1      42.992  28.887  35.818  1.00  0.00     0.029 A 
ATOM     56  C   UNL A   1      42.953  28.474  34.497  1.00  0.00     0.049 A 
ATOM     57  H   UNL A   1      41.515  28.899  33.011  1.00  0.00     0.167 HD
ATOM     58  C   UNL A   1      43.744  27.224  32.508  1.00  0.00     0.074 A 
ATOM     59  C   UNL A   1      44.697  26.389  31.811  1.00  0.00     0.031 C 
ATOM     60  C   UNL A   1      43.894  27.648  33.787  1.00  0.00     0.037 A 
BRANCH  47  61
ATOM     61  C   UNL A   1      39.432  31.413  35.749  1.00  0.00     0.064 A 
ATOM     62  C   UNL A   1      39.888  32.729  35.912  1.00  0.00     0.173 A 
ATOM     63  C   UNL A   1      38.411  30.959  36.597  1.00  0.00     0.173 A 
ATOM     64  F   UNL A   1      40.868  33.206  35.131  1.00  0.00    -0.203 F 
ATOM     65  C   UNL A   1      39.346  33.555  36.893  1.00  0.00     0.198 A 
ATOM     66  C   UNL A   1      37.856  31.795  37.562  1.00  0.00     0.198 A 
ATOM     67  F   UNL A   1      37.936  29.710  36.476  1.00  0.00    -0.203 F 
ATOM     68  F   UNL A   1      39.812  34.803  37.048  1.00  0.00    -0.200 F 
ATOM     69  C   UNL A   1      38.324  33.093  37.709  1.00  0.00     0.200 A 
ATOM     70  F   UNL A   1      36.861  31.350  38.341  1.00  0.00    -0.200 F 
ATOM     71  F   UNL A   1      37.791  33.896  38.639  1.00  0.00    -0.200 F 
ENDBRANCH  47  61
BRANCH  48  72
ATOM     72  C   UNL A   1      42.838  26.080  28.041  1.00  0.00     0.064 A 
ATOM     73  C   UNL A   1      42.599  24.710  27.863  1.00  0.00     0.173 A 
ATOM     74  C   UNL A   1      43.647  26.731  27.098  1.00  0.00     0.173 A 
ATOM     75  F   UNL A   1      41.850  24.040  28.751  1.00  0.00    -0.203 F 
ATOM     76  C   UNL A   1      43.172  24.013  26.800  1.00  0.00     0.198 A 
ATOM     77  C   UNL A   1      44.195  26.038  26.021  1.00  0.00     0.198 A 
ATOM     78  F   UNL A   1      43.903  28.041  27.223  1.00  0.00    -0.203 F 
ATOM     79  F   UNL A   1      42.973  22.693  26.684  1.00  0.00    -0.200 F 
ATOM     80  C   UNL A   1      43.966  24.679  25.879  1.00  0.00     0.200 A 
ATOM     81  F   UNL A   1      44.951  26.688  25.126  1.00  0.00    -0.200 F 
ATOM     82  F   UNL A   1      44.519  24.007  24.860  1.00  0.00    -0.200 F 
ENDBRANCH  48  72
BRANCH  60  83
ATOM     83  C   UNL A   1      45.129  27.208  34.515  1.00  0.00     0.064 A 
ATOM     84  C   UNL A   1      45.188  25.969  35.168  1.00  0.00     0.173 A 
ATOM     85  C   UNL A   1      46.278  28.012  34.521  1.00  0.00     0.173 A 
ATOM     86  F   UNL A   1      44.109  25.173  35.204  1.00  0.00    -0.203 F 
ATOM     87  C   UNL A   1      46.349  25.558  35.818  1.00  0.00     0.198 A 
ATOM     88  C   UNL A   1      47.446  27.587  35.149  1.00  0.00     0.198 A 
ATOM     89  F   UNL A   1      46.273  29.205  33.907  1.00  0.00    -0.203 F 
ATOM     90  F   UNL A   1      46.370  24.387  36.470  1.00  0.00    -0.200 F 
ATOM     91  C   UNL A   1      47.478  26.363  35.800  1.00  0.00     0.200 A 
ATOM     92  F   UNL A   1      48.539  28.360  35.122  1.00  0.00    -0.200 F 
ATOM     93  F   UNL A   1      48.597  25.962  36.419  1.00  0.00    -0.200 F 
ENDBRANCH  60  83
ENDBRANCH  34  35
ENDBRANCH  26  29
ENDBRANCH  24  25
ENDBRANCH  23  24
ENDBRANCH  22  23
ENDBRANCH   1  22
TORSDOF 15
ENDMDL
