MODEL 1
REMARK VINA RESULT:     -12.0      0.000      0.000
REMARK SMILES COc1ccc(C(=O)NCCCCNC(=O)c2ccc(-c3c4nc(c(-c5c(F)c(F)c(F)c(F)c5F)c5ccc([nH]5)c(-c5c(F)c(F)c(F)c(F)c5F)c5nc(c(-c6c(F)c(F)c(F)c(F)c6F)c6ccc3[nH]6)C=C5)C=C4)cc2)cc1C(F)(F)F
REMARK SMILES IDX 12 1 11 2 10 3 9 4 7 5 8 6 6 8 3 9 4 10 81 11 5 12 80 13
REMARK SMILES IDX 2 14 1 15 82 16 83 17 84 18 85 19 13 20 14 21 15 22 16 24
REMARK SMILES IDX 17 25 18 26 79 27 19 28 78 29 20 30 21 31 22 32 72 33 23 34
REMARK SMILES IDX 77 35 71 36 73 37 24 38 76 39 70 40 69 41 25 43 57 44 37 45
REMARK SMILES IDX 56 46 38 47 41 48 55 49 74 50 39 51 40 52 54 54 75 55 42 56
REMARK SMILES IDX 26 57 27 58 35 59 28 60 29 61 33 62 36 63 30 64 31 65 34 66
REMARK SMILES IDX 32 67 58 68 59 69 67 70 60 71 61 72 65 73 68 74 62 75 63 76
REMARK SMILES IDX 66 77 64 78 43 79 44 80 52 81 45 82 46 83 50 84 53 85 47 86
REMARK SMILES IDX 48 87 51 88 49 89
REMARK H PARENT 9 7 14 23 73 42 41 53
REMARK Flexibility Score: inf
ROOT
ATOM      1  C   UNL A   1      31.636  31.885  26.830  1.00  0.00     0.023 C 
ENDROOT
BRANCH   1   2
ATOM      2  C   UNL A   1      31.904  30.379  26.845  1.00  0.00     0.023 C 
BRANCH   2   3
ATOM      3  C   UNL A   1      33.372  29.998  26.630  1.00  0.00     0.116 C 
BRANCH   3   4
ATOM      4  N   UNL A   1      33.609  29.614  25.252  1.00  0.00    -0.352 N 
ATOM      5  C   UNL A   1      33.453  28.419  24.593  1.00  0.00     0.251 C 
ATOM      6  O   UNL A   1      33.676  28.401  23.383  1.00  0.00    -0.269 OA
ATOM      7  H   UNL A   1      33.942  30.345  24.683  1.00  0.00     0.163 HD
BRANCH   5   8
ATOM      8  C   UNL A   1      32.989  27.169  25.262  1.00  0.00     0.040 A 
ATOM      9  C   UNL A   1      31.998  24.897  26.590  1.00  0.00     0.131 A 
ATOM     10  C   UNL A   1      31.179  26.011  26.400  1.00  0.00     0.048 A 
ATOM     11  C   UNL A   1      33.292  24.870  26.071  1.00  0.00     0.098 A 
ATOM     12  C   UNL A   1      31.679  27.146  25.754  1.00  0.00     0.017 A 
ATOM     13  C   UNL A   1      33.761  26.009  25.387  1.00  0.00     0.030 A 
BRANCH   9  14
ATOM     14  O   UNL A   1      31.450  23.801  27.197  1.00  0.00    -0.496 OA
ATOM     15  C   UNL A   1      30.588  23.093  26.306  1.00  0.00     0.278 C 
ENDBRANCH   9  14
BRANCH  11  16
ATOM     16  C   UNL A   1      34.226  23.706  26.278  1.00  0.00     0.419 C 
ATOM     17  F   UNL A   1      33.884  22.617  25.527  1.00  0.00    -0.166 F 
ATOM     18  F   UNL A   1      35.499  24.014  25.896  1.00  0.00    -0.166 F 
ATOM     19  F   UNL A   1      34.312  23.255  27.557  1.00  0.00    -0.166 F 
ENDBRANCH  11  16
ENDBRANCH   5   8
ENDBRANCH   3   4
ENDBRANCH   2   3
ENDBRANCH   1   2
BRANCH   1  20
ATOM     20  C   UNL A   1      32.812  32.745  27.274  1.00  0.00     0.116 C 
BRANCH  20  21
ATOM     21  N   UNL A   1      32.434  34.105  27.628  1.00  0.00    -0.352 N 
ATOM     22  C   UNL A   1      32.987  34.917  28.587  1.00  0.00     0.251 C 
ATOM     23  H   UNL A   1      31.687  34.490  27.116  1.00  0.00     0.163 HD
ATOM     24  O   UNL A   1      32.497  36.013  28.839  1.00  0.00    -0.269 OA
BRANCH  22  25
ATOM     25  C   UNL A   1      34.157  34.436  29.348  1.00  0.00     0.039 A 
ATOM     26  C   UNL A   1      33.945  33.760  30.552  1.00  0.00     0.014 A 
ATOM     27  C   UNL A   1      35.451  34.616  28.852  1.00  0.00     0.014 A 
ATOM     28  C   UNL A   1      35.032  33.205  31.230  1.00  0.00     0.010 A 
ATOM     29  C   UNL A   1      36.523  34.003  29.492  1.00  0.00     0.010 A 
ATOM     30  C   UNL A   1      36.323  33.294  30.686  1.00  0.00    -0.014 A 
BRANCH  30  31
ATOM     31  C   UNL A   1      37.487  32.662  31.354  1.00  0.00     0.031 A 
ATOM     32  C   UNL A   1      38.194  31.514  30.693  1.00  0.00     0.074 A 
ATOM     33  C   UNL A   1      37.853  33.068  32.583  1.00  0.00     0.049 A 
ATOM     34  N   UNL A   1      39.160  30.761  31.151  1.00  0.00    -0.248 NA
ATOM     35  C   UNL A   1      37.728  31.142  29.347  1.00  0.00     0.031 C 
ATOM     36  C   UNL A   1      37.215  34.142  33.346  1.00  0.00     0.029 A 
ATOM     37  N   UNL A   1      38.844  32.612  33.417  1.00  0.00    -0.354 N 
ATOM     38  C   UNL A   1      39.402  29.816  30.163  1.00  0.00     0.074 A 
ATOM     39  C   UNL A   1      38.449  30.058  29.101  1.00  0.00     0.031 C 
ATOM     40  C   UNL A   1      37.842  34.275  34.526  1.00  0.00     0.029 A 
ATOM     41  C   UNL A   1      38.900  33.273  34.619  1.00  0.00     0.049 A 
ATOM     42  H   UNL A   1      39.456  31.879  33.176  1.00  0.00     0.167 HD
ATOM     43  C   UNL A   1      40.347  28.847  30.135  1.00  0.00     0.037 A 
ATOM     44  C   UNL A   1      39.710  33.086  35.678  1.00  0.00     0.037 A 
ATOM     45  C   UNL A   1      41.315  28.633  31.178  1.00  0.00     0.049 A 
ATOM     46  C   UNL A   1      40.757  32.006  35.619  1.00  0.00     0.074 A 
ATOM     47  C   UNL A   1      42.357  27.724  31.215  1.00  0.00     0.029 A 
ATOM     48  N   UNL A   1      41.358  29.341  32.370  1.00  0.00    -0.354 N 
ATOM     49  N   UNL A   1      41.019  31.159  34.653  1.00  0.00    -0.248 NA
ATOM     50  C   UNL A   1      41.623  31.861  36.796  1.00  0.00     0.031 C 
ATOM     51  C   UNL A   1      43.006  27.854  32.447  1.00  0.00     0.029 A 
ATOM     52  C   UNL A   1      42.398  28.876  33.159  1.00  0.00     0.049 A 
ATOM     53  H   UNL A   1      40.741  30.067  32.619  1.00  0.00     0.167 HD
ATOM     54  C   UNL A   1      42.096  30.402  35.092  1.00  0.00     0.074 A 
ATOM     55  C   UNL A   1      42.446  30.896  36.407  1.00  0.00     0.031 C 
ATOM     56  C   UNL A   1      42.739  29.388  34.461  1.00  0.00     0.037 A 
BRANCH  43  57
ATOM     57  C   UNL A   1      40.377  27.946  28.936  1.00  0.00     0.064 A 
ATOM     58  C   UNL A   1      41.135  28.260  27.797  1.00  0.00     0.173 A 
ATOM     59  C   UNL A   1      39.658  26.741  28.933  1.00  0.00     0.173 A 
ATOM     60  F   UNL A   1      41.830  29.407  27.744  1.00  0.00    -0.203 F 
ATOM     61  C   UNL A   1      41.143  27.420  26.687  1.00  0.00     0.198 A 
ATOM     62  C   UNL A   1      39.693  25.888  27.832  1.00  0.00     0.198 A 
ATOM     63  F   UNL A   1      38.922  26.389  29.998  1.00  0.00    -0.203 F 
ATOM     64  F   UNL A   1      41.829  27.769  25.589  1.00  0.00    -0.200 F 
ATOM     65  C   UNL A   1      40.428  26.232  26.708  1.00  0.00     0.200 A 
ATOM     66  F   UNL A   1      39.011  24.735  27.859  1.00  0.00    -0.200 F 
ATOM     67  F   UNL A   1      40.439  25.423  25.640  1.00  0.00    -0.200 F 
ENDBRANCH  43  57
BRANCH  44  68
ATOM     68  C   UNL A   1      39.584  33.961  36.871  1.00  0.00     0.064 A 
ATOM     69  C   UNL A   1      38.812  33.564  37.971  1.00  0.00     0.173 A 
ATOM     70  C   UNL A   1      40.231  35.203  36.940  1.00  0.00     0.173 A 
ATOM     71  F   UNL A   1      38.160  32.392  37.942  1.00  0.00    -0.203 F 
ATOM     72  C   UNL A   1      38.677  34.384  39.089  1.00  0.00     0.198 A 
ATOM     73  C   UNL A   1      40.115  36.012  38.068  1.00  0.00     0.198 A 
ATOM     74  F   UNL A   1      40.984  35.627  35.914  1.00  0.00    -0.203 F 
ATOM     75  F   UNL A   1      37.900  33.998  40.110  1.00  0.00    -0.200 F 
ATOM     76  C   UNL A   1      39.333  35.605  39.139  1.00  0.00     0.200 A 
ATOM     77  F   UNL A   1      40.760  37.185  38.119  1.00  0.00    -0.200 F 
ATOM     78  F   UNL A   1      39.206  36.392  40.216  1.00  0.00    -0.200 F 
ENDBRANCH  44  68
BRANCH  56  79
ATOM     79  C   UNL A   1      43.910  28.772  35.167  1.00  0.00     0.064 A 
ATOM     80  C   UNL A   1      45.209  29.279  35.018  1.00  0.00     0.173 A 
ATOM     81  C   UNL A   1      43.722  27.688  36.037  1.00  0.00     0.173 A 
ATOM     82  F   UNL A   1      45.442  30.304  34.186  1.00  0.00    -0.203 F 
ATOM     83  C   UNL A   1      46.280  28.709  35.701  1.00  0.00     0.198 A 
ATOM     84  C   UNL A   1      44.791  27.139  36.739  1.00  0.00     0.198 A 
ATOM     85  F   UNL A   1      42.496  27.170  36.218  1.00  0.00    -0.203 F 
ATOM     86  F   UNL A   1      47.520  29.182  35.512  1.00  0.00    -0.200 F 
ATOM     87  C   UNL A   1      46.069  27.645  36.566  1.00  0.00     0.200 A 
ATOM     88  F   UNL A   1      44.582  26.119  37.584  1.00  0.00    -0.200 F 
ATOM     89  F   UNL A   1      47.101  27.104  37.228  1.00  0.00    -0.200 F 
ENDBRANCH  56  79
ENDBRANCH  30  31
ENDBRANCH  22  25
ENDBRANCH  20  21
ENDBRANCH   1  20
TORSDOF 13
ENDMDL
MODEL 2
REMARK VINA RESULT:     -12.0      0.126      1.634
REMARK SMILES COc1ccc(C(=O)NCCCCNC(=O)c2ccc(-c3c4nc(c(-c5c(F)c(F)c(F)c(F)c5F)c5ccc([nH]5)c(-c5c(F)c(F)c(F)c(F)c5F)c5nc(c(-c6c(F)c(F)c(F)c(F)c6F)c6ccc3[nH]6)C=C5)C=C4)cc2)cc1C(F)(F)F
REMARK SMILES IDX 12 1 11 2 10 3 9 4 7 5 8 6 6 8 3 9 4 10 81 11 5 12 80 13
REMARK SMILES IDX 2 14 1 15 82 16 83 17 84 18 85 19 13 20 14 21 15 22 16 24
REMARK SMILES IDX 17 25 18 26 79 27 19 28 78 29 20 30 21 31 22 32 72 33 23 34
REMARK SMILES IDX 77 35 71 36 73 37 24 38 76 39 70 40 69 41 25 43 57 44 37 45
REMARK SMILES IDX 56 46 38 47 41 48 55 49 74 50 39 51 40 52 54 54 75 55 42 56
REMARK SMILES IDX 26 57 27 58 35 59 28 60 29 61 33 62 36 63 30 64 31 65 34 66
REMARK SMILES IDX 32 67 58 68 59 69 67 70 60 71 61 72 65 73 68 74 62 75 63 76
REMARK SMILES IDX 66 77 64 78 43 79 44 80 52 81 45 82 46 83 50 84 53 85 47 86
REMARK SMILES IDX 48 87 51 88 49 89
REMARK H PARENT 9 7 14 23 73 42 41 53
REMARK Flexibility Score: inf
ROOT
ATOM      1  C   UNL A   1      31.575  31.924  26.846  1.00  0.00     0.023 C 
ENDROOT
BRANCH   1   2
ATOM      2  C   UNL A   1      31.834  30.417  26.826  1.00  0.00     0.023 C 
BRANCH   2   3
ATOM      3  C   UNL A   1      33.313  30.032  26.717  1.00  0.00     0.116 C 
BRANCH   3   4
ATOM      4  N   UNL A   1      33.648  29.649  25.359  1.00  0.00    -0.352 N 
ATOM      5  C   UNL A   1      33.555  28.451  24.695  1.00  0.00     0.251 C 
ATOM      6  O   UNL A   1      33.859  28.434  23.502  1.00  0.00    -0.269 OA
ATOM      7  H   UNL A   1      34.008  30.384  24.812  1.00  0.00     0.163 HD
BRANCH   5   8
ATOM      8  C   UNL A   1      33.065  27.195  25.335  1.00  0.00     0.040 A 
ATOM      9  C   UNL A   1      32.025  24.913  26.606  1.00  0.00     0.131 A 
ATOM     10  C   UNL A   1      31.221  26.038  26.415  1.00  0.00     0.048 A 
ATOM     11  C   UNL A   1      33.329  24.882  26.115  1.00  0.00     0.098 A 
ATOM     12  C   UNL A   1      31.744  27.178  25.798  1.00  0.00     0.017 A 
ATOM     13  C   UNL A   1      33.824  26.027  25.459  1.00  0.00     0.030 A 
BRANCH   9  14
ATOM     14  O   UNL A   1      31.454  23.814  27.184  1.00  0.00    -0.496 OA
ATOM     15  C   UNL A   1      30.568  23.154  26.280  1.00  0.00     0.278 C 
ENDBRANCH   9  14
BRANCH  11  16
ATOM     16  C   UNL A   1      34.248  23.706  26.325  1.00  0.00     0.419 C 
ATOM     17  F   UNL A   1      33.894  22.621  25.574  1.00  0.00    -0.166 F 
ATOM     18  F   UNL A   1      35.526  23.998  25.946  1.00  0.00    -0.166 F 
ATOM     19  F   UNL A   1      34.325  23.255  27.604  1.00  0.00    -0.166 F 
ENDBRANCH  11  16
ENDBRANCH   5   8
ENDBRANCH   3   4
ENDBRANCH   2   3
ENDBRANCH   1   2
BRANCH   1  20
ATOM     20  C   UNL A   1      32.759  32.767  27.301  1.00  0.00     0.116 C 
BRANCH  20  21
ATOM     21  N   UNL A   1      32.402  34.138  27.630  1.00  0.00    -0.352 N 
ATOM     22  C   UNL A   1      32.977  34.964  28.563  1.00  0.00     0.251 C 
ATOM     23  H   UNL A   1      31.653  34.521  27.119  1.00  0.00     0.163 HD
ATOM     24  O   UNL A   1      32.503  36.071  28.798  1.00  0.00    -0.269 OA
BRANCH  22  25
ATOM     25  C   UNL A   1      34.152  34.486  29.320  1.00  0.00     0.039 A 
ATOM     26  C   UNL A   1      33.950  33.867  30.556  1.00  0.00     0.014 A 
ATOM     27  C   UNL A   1      35.438  34.612  28.790  1.00  0.00     0.014 A 
ATOM     28  C   UNL A   1      35.037  33.313  31.234  1.00  0.00     0.010 A 
ATOM     29  C   UNL A   1      36.508  34.000  29.432  1.00  0.00     0.010 A 
ATOM     30  C   UNL A   1      36.318  33.346  30.659  1.00  0.00    -0.014 A 
BRANCH  30  31
ATOM     31  C   UNL A   1      37.481  32.714  31.329  1.00  0.00     0.031 A 
ATOM     32  C   UNL A   1      38.207  31.586  30.654  1.00  0.00     0.074 A 
ATOM     33  C   UNL A   1      37.827  33.099  32.570  1.00  0.00     0.049 A 
ATOM     34  N   UNL A   1      39.177  30.835  31.109  1.00  0.00    -0.248 NA
ATOM     35  C   UNL A   1      37.762  31.236  29.296  1.00  0.00     0.031 C 
ATOM     36  C   UNL A   1      37.169  34.152  33.346  1.00  0.00     0.029 A 
ATOM     37  N   UNL A   1      38.813  32.637  33.407  1.00  0.00    -0.354 N 
ATOM     38  C   UNL A   1      39.440  29.912  30.105  1.00  0.00     0.074 A 
ATOM     39  C   UNL A   1      38.497  30.165  29.037  1.00  0.00     0.031 C 
ATOM     40  C   UNL A   1      37.780  34.268  34.536  1.00  0.00     0.029 A 
ATOM     41  C   UNL A   1      38.848  33.275  34.622  1.00  0.00     0.049 A 
ATOM     42  H   UNL A   1      39.436  31.916  33.159  1.00  0.00     0.167 HD
ATOM     43  C   UNL A   1      40.396  28.953  30.070  1.00  0.00     0.037 A 
ATOM     44  C   UNL A   1      39.647  33.076  35.686  1.00  0.00     0.037 A 
ATOM     45  C   UNL A   1      41.353  28.729  31.120  1.00  0.00     0.049 A 
ATOM     46  C   UNL A   1      40.706  32.009  35.619  1.00  0.00     0.074 A 
ATOM     47  C   UNL A   1      42.405  27.830  31.152  1.00  0.00     0.029 A 
ATOM     48  N   UNL A   1      41.374  29.414  32.326  1.00  0.00    -0.354 N 
ATOM     49  N   UNL A   1      40.988  31.184  34.640  1.00  0.00    -0.248 NA
ATOM     50  C   UNL A   1      41.560  31.849  36.804  1.00  0.00     0.031 C 
ATOM     51  C   UNL A   1      43.038  27.943  32.395  1.00  0.00     0.029 A 
ATOM     52  C   UNL A   1      42.410  28.944  33.118  1.00  0.00     0.049 A 
ATOM     53  H   UNL A   1      40.747  30.128  32.582  1.00  0.00     0.167 HD
ATOM     54  C   UNL A   1      42.069  30.429  35.077  1.00  0.00     0.074 A 
ATOM     55  C   UNL A   1      42.398  30.901  36.406  1.00  0.00     0.031 C 
ATOM     56  C   UNL A   1      42.730  29.435  34.435  1.00  0.00     0.037 A 
BRANCH  43  57
ATOM     57  C   UNL A   1      40.449  28.076  28.854  1.00  0.00     0.064 A 
ATOM     58  C   UNL A   1      39.749  26.862  28.791  1.00  0.00     0.173 A 
ATOM     59  C   UNL A   1      41.191  28.465  27.729  1.00  0.00     0.173 A 
ATOM     60  F   UNL A   1      39.035  26.438  29.845  1.00  0.00    -0.203 F 
ATOM     61  C   UNL A   1      39.818  26.052  27.660  1.00  0.00     0.198 A 
ATOM     62  C   UNL A   1      41.233  27.667  26.587  1.00  0.00     0.198 A 
ATOM     63  F   UNL A   1      41.875  29.619  27.734  1.00  0.00    -0.203 F 
ATOM     64  F   UNL A   1      39.187  24.870  27.644  1.00  0.00    -0.200 F 
ATOM     65  C   UNL A   1      40.554  26.459  26.558  1.00  0.00     0.200 A 
ATOM     66  F   UNL A   1      41.936  28.067  25.519  1.00  0.00    -0.200 F 
ATOM     67  F   UNL A   1      40.617  25.681  25.469  1.00  0.00    -0.200 F 
ENDBRANCH  43  57
BRANCH  44  68
ATOM     68  C   UNL A   1      39.498  33.926  36.895  1.00  0.00     0.064 A 
ATOM     69  C   UNL A   1      40.125  35.177  36.971  1.00  0.00     0.173 A 
ATOM     70  C   UNL A   1      38.730  33.512  37.992  1.00  0.00     0.173 A 
ATOM     71  F   UNL A   1      40.886  35.606  35.953  1.00  0.00    -0.203 F 
ATOM     72  C   UNL A   1      40.004  35.976  38.106  1.00  0.00     0.198 A 
ATOM     73  C   UNL A   1      38.588  34.322  39.117  1.00  0.00     0.198 A 
ATOM     74  F   UNL A   1      38.107  32.324  37.967  1.00  0.00    -0.203 F 
ATOM     75  F   UNL A   1      40.646  37.150  38.169  1.00  0.00    -0.200 F 
ATOM     76  C   UNL A   1      39.231  35.550  39.176  1.00  0.00     0.200 A 
ATOM     77  F   UNL A   1      37.831  33.913  40.144  1.00  0.00    -0.200 F 
ATOM     78  F   UNL A   1      39.111  36.319  40.266  1.00  0.00    -0.200 F 
ENDBRANCH  44  68
BRANCH  56  79
ATOM     79  C   UNL A   1      43.899  28.817  35.142  1.00  0.00     0.064 A 
ATOM     80  C   UNL A   1      45.204  29.300  34.968  1.00  0.00     0.173 A 
ATOM     81  C   UNL A   1      43.704  27.757  36.040  1.00  0.00     0.173 A 
ATOM     82  F   UNL A   1      45.444  30.301  34.109  1.00  0.00    -0.203 F 
ATOM     83  C   UNL A   1      46.274  28.729  35.653  1.00  0.00     0.198 A 
ATOM     84  C   UNL A   1      44.772  27.208  36.743  1.00  0.00     0.198 A 
ATOM     85  F   UNL A   1      42.473  27.263  36.246  1.00  0.00    -0.203 F 
ATOM     86  F   UNL A   1      47.518  29.178  35.439  1.00  0.00    -0.200 F 
ATOM     87  C   UNL A   1      46.056  27.690  36.544  1.00  0.00     0.200 A 
ATOM     88  F   UNL A   1      44.557  26.211  37.615  1.00  0.00    -0.200 F 
ATOM     89  F   UNL A   1      47.086  27.148  37.209  1.00  0.00    -0.200 F 
ENDBRANCH  56  79
ENDBRANCH  30  31
ENDBRANCH  22  25
ENDBRANCH  20  21
ENDBRANCH   1  20
TORSDOF 13
ENDMDL
MODEL 3
REMARK VINA RESULT:     -11.9      0.282      1.697
REMARK SMILES COc1ccc(C(=O)NCCCCNC(=O)c2ccc(-c3c4nc(c(-c5c(F)c(F)c(F)c(F)c5F)c5ccc([nH]5)c(-c5c(F)c(F)c(F)c(F)c5F)c5nc(c(-c6c(F)c(F)c(F)c(F)c6F)c6ccc3[nH]6)C=C5)C=C4)cc2)cc1C(F)(F)F
REMARK SMILES IDX 12 1 11 2 10 3 9 4 7 5 8 6 6 8 3 9 4 10 81 11 5 12 80 13
REMARK SMILES IDX 2 14 1 15 82 16 83 17 84 18 85 19 13 20 14 21 15 22 16 24
REMARK SMILES IDX 17 25 18 26 79 27 19 28 78 29 20 30 21 31 22 32 72 33 23 34
REMARK SMILES IDX 77 35 71 36 73 37 24 38 76 39 70 40 69 41 25 43 57 44 37 45
REMARK SMILES IDX 56 46 38 47 41 48 55 49 74 50 39 51 40 52 54 54 75 55 42 56
REMARK SMILES IDX 26 57 27 58 35 59 28 60 29 61 33 62 36 63 30 64 31 65 34 66
REMARK SMILES IDX 32 67 58 68 59 69 67 70 60 71 61 72 65 73 68 74 62 75 63 76
REMARK SMILES IDX 66 77 64 78 43 79 44 80 52 81 45 82 46 83 50 84 53 85 47 86
REMARK SMILES IDX 48 87 51 88 49 89
REMARK H PARENT 9 7 14 23 73 42 41 53
REMARK Flexibility Score: inf
ROOT
ATOM      1  C   UNL A   1      31.668  32.040  26.763  1.00  0.00     0.023 C 
ENDROOT
BRANCH   1   2
ATOM      2  C   UNL A   1      31.907  30.530  26.819  1.00  0.00     0.023 C 
BRANCH   2   3
ATOM      3  C   UNL A   1      33.231  30.078  26.195  1.00  0.00     0.116 C 
BRANCH   3   4
ATOM      4  N   UNL A   1      33.048  29.716  24.803  1.00  0.00    -0.352 N 
ATOM      5  C   UNL A   1      32.693  28.533  24.202  1.00  0.00     0.251 C 
ATOM      6  O   UNL A   1      32.550  28.534  22.979  1.00  0.00    -0.269 OA
ATOM      7  H   UNL A   1      33.207  30.455  24.171  1.00  0.00     0.163 HD
BRANCH   5   8
ATOM      8  C   UNL A   1      32.434  27.274  24.959  1.00  0.00     0.040 A 
ATOM      9  C   UNL A   1      31.830  24.979  26.468  1.00  0.00     0.131 A 
ATOM     10  C   UNL A   1      30.902  26.016  26.367  1.00  0.00     0.048 A 
ATOM     11  C   UNL A   1      33.039  25.038  25.775  1.00  0.00     0.098 A 
ATOM     12  C   UNL A   1      31.209  27.164  25.630  1.00  0.00     0.017 A 
ATOM     13  C   UNL A   1      33.311  26.186  25.005  1.00  0.00     0.030 A 
BRANCH   9  14
ATOM     14  O   UNL A   1      31.466  23.865  27.173  1.00  0.00    -0.496 OA
ATOM     15  C   UNL A   1      30.249  23.312  26.674  1.00  0.00     0.278 C 
ENDBRANCH   9  14
BRANCH  11  16
ATOM     16  C   UNL A   1      34.088  23.962  25.879  1.00  0.00     0.419 C 
ATOM     17  F   UNL A   1      35.269  24.321  25.293  1.00  0.00    -0.166 F 
ATOM     18  F   UNL A   1      34.404  23.696  27.179  1.00  0.00    -0.166 F 
ATOM     19  F   UNL A   1      33.751  22.771  25.319  1.00  0.00    -0.166 F 
ENDBRANCH  11  16
ENDBRANCH   5   8
ENDBRANCH   3   4
ENDBRANCH   2   3
ENDBRANCH   1   2
BRANCH   1  20
ATOM     20  C   UNL A   1      32.836  32.887  27.252  1.00  0.00     0.116 C 
BRANCH  20  21
ATOM     21  N   UNL A   1      32.453  34.241  27.624  1.00  0.00    -0.352 N 
ATOM     22  C   UNL A   1      33.004  35.043  28.592  1.00  0.00     0.251 C 
ATOM     23  H   UNL A   1      31.705  34.630  27.116  1.00  0.00     0.163 HD
ATOM     24  O   UNL A   1      32.511  36.133  28.858  1.00  0.00    -0.269 OA
BRANCH  22  25
ATOM     25  C   UNL A   1      34.176  34.555  29.347  1.00  0.00     0.039 A 
ATOM     26  C   UNL A   1      33.972  33.958  30.594  1.00  0.00     0.014 A 
ATOM     27  C   UNL A   1      35.460  34.652  28.807  1.00  0.00     0.014 A 
ATOM     28  C   UNL A   1      35.055  33.396  31.272  1.00  0.00     0.010 A 
ATOM     29  C   UNL A   1      36.525  34.031  29.451  1.00  0.00     0.010 A 
ATOM     30  C   UNL A   1      36.332  33.399  30.689  1.00  0.00    -0.014 A 
BRANCH  30  31
ATOM     31  C   UNL A   1      37.489  32.757  31.359  1.00  0.00     0.031 A 
ATOM     32  C   UNL A   1      38.203  31.620  30.688  1.00  0.00     0.074 A 
ATOM     33  C   UNL A   1      37.840  33.143  32.600  1.00  0.00     0.049 A 
ATOM     34  N   UNL A   1      39.165  30.860  31.144  1.00  0.00    -0.248 NA
ATOM     35  C   UNL A   1      37.754  31.270  29.331  1.00  0.00     0.031 C 
ATOM     36  C   UNL A   1      37.193  34.204  33.373  1.00  0.00     0.029 A 
ATOM     37  N   UNL A   1      38.821  32.673  33.437  1.00  0.00    -0.354 N 
ATOM     38  C   UNL A   1      39.418  29.931  30.144  1.00  0.00     0.074 A 
ATOM     39  C   UNL A   1      38.477  30.191  29.076  1.00  0.00     0.031 C 
ATOM     40  C   UNL A   1      37.806  34.317  34.562  1.00  0.00     0.029 A 
ATOM     41  C   UNL A   1      38.863  33.314  34.650  1.00  0.00     0.049 A 
ATOM     42  H   UNL A   1      39.437  31.945  33.191  1.00  0.00     0.167 HD
ATOM     43  C   UNL A   1      40.364  28.963  30.111  1.00  0.00     0.037 A 
ATOM     44  C   UNL A   1      39.661  33.110  35.715  1.00  0.00     0.037 A 
ATOM     45  C   UNL A   1      41.320  28.732  31.161  1.00  0.00     0.049 A 
ATOM     46  C   UNL A   1      40.709  32.032  35.650  1.00  0.00     0.074 A 
ATOM     47  C   UNL A   1      42.362  27.823  31.195  1.00  0.00     0.029 A 
ATOM     48  N   UNL A   1      41.349  29.420  32.365  1.00  0.00    -0.354 N 
ATOM     49  N   UNL A   1      40.982  31.201  34.674  1.00  0.00    -0.248 NA
ATOM     50  C   UNL A   1      41.562  31.867  36.835  1.00  0.00     0.031 C 
ATOM     51  C   UNL A   1      42.997  27.933  32.437  1.00  0.00     0.029 A 
ATOM     52  C   UNL A   1      42.381  28.943  33.158  1.00  0.00     0.049 A 
ATOM     53  H   UNL A   1      40.729  30.142  32.619  1.00  0.00     0.167 HD
ATOM     54  C   UNL A   1      42.056  30.436  35.113  1.00  0.00     0.074 A 
ATOM     55  C   UNL A   1      42.390  30.909  36.440  1.00  0.00     0.031 C 
ATOM     56  C   UNL A   1      42.706  29.434  34.473  1.00  0.00     0.037 A 
BRANCH  43  57
ATOM     57  C   UNL A   1      40.408  28.082  28.898  1.00  0.00     0.064 A 
ATOM     58  C   UNL A   1      41.179  28.416  27.773  1.00  0.00     0.173 A 
ATOM     59  C   UNL A   1      39.691  26.877  28.867  1.00  0.00     0.173 A 
ATOM     60  F   UNL A   1      41.873  29.563  27.747  1.00  0.00    -0.203 F 
ATOM     61  C   UNL A   1      41.200  27.594  26.649  1.00  0.00     0.198 A 
ATOM     62  C   UNL A   1      39.739  26.042  27.753  1.00  0.00     0.198 A 
ATOM     63  F   UNL A   1      38.943  26.507  29.917  1.00  0.00    -0.203 F 
ATOM     64  F   UNL A   1      41.898  27.961  25.565  1.00  0.00    -0.200 F 
ATOM     65  C   UNL A   1      40.486  26.405  26.643  1.00  0.00     0.200 A 
ATOM     66  F   UNL A   1      39.057  24.889  27.752  1.00  0.00    -0.200 F 
ATOM     67  F   UNL A   1      40.510  25.613  25.562  1.00  0.00    -0.200 F 
ENDBRANCH  43  57
BRANCH  44  68
ATOM     68  C   UNL A   1      39.522  33.965  36.921  1.00  0.00     0.064 A 
ATOM     69  C   UNL A   1      40.173  35.204  36.999  1.00  0.00     0.173 A 
ATOM     70  C   UNL A   1      38.738  33.569  38.014  1.00  0.00     0.173 A 
ATOM     71  F   UNL A   1      40.949  35.616  35.985  1.00  0.00    -0.203 F 
ATOM     72  C   UNL A   1      40.060  36.007  38.131  1.00  0.00     0.198 A 
ATOM     73  C   UNL A   1      38.606  34.383  39.137  1.00  0.00     0.198 A 
ATOM     74  F   UNL A   1      38.092  32.394  37.987  1.00  0.00    -0.203 F 
ATOM     75  F   UNL A   1      40.726  37.168  38.196  1.00  0.00    -0.200 F 
ATOM     76  C   UNL A   1      39.272  35.599  39.197  1.00  0.00     0.200 A 
ATOM     77  F   UNL A   1      37.834  33.992  40.159  1.00  0.00    -0.200 F 
ATOM     78  F   UNL A   1      39.161  36.373  40.285  1.00  0.00    -0.200 F 
ENDBRANCH  44  68
BRANCH  56  79
ATOM     79  C   UNL A   1      43.869  28.806  35.182  1.00  0.00     0.064 A 
ATOM     80  C   UNL A   1      43.706  27.693  36.020  1.00  0.00     0.173 A 
ATOM     81  C   UNL A   1      45.168  29.297  34.984  1.00  0.00     0.173 A 
ATOM     82  F   UNL A   1      42.482  27.197  36.252  1.00  0.00    -0.203 F 
ATOM     83  C   UNL A   1      44.801  27.108  36.650  1.00  0.00     0.198 A 
ATOM     84  C   UNL A   1      46.263  28.692  35.594  1.00  0.00     0.198 A 
ATOM     85  F   UNL A   1      45.376  30.357  34.187  1.00  0.00    -0.203 F 
ATOM     86  F   UNL A   1      44.618  26.072  37.480  1.00  0.00    -0.200 F 
ATOM     87  C   UNL A   1      46.078  27.604  36.431  1.00  0.00     0.200 A 
ATOM     88  F   UNL A   1      47.498  29.165  35.371  1.00  0.00    -0.200 F 
ATOM     89  F   UNL A   1      47.131  27.033  37.032  1.00  0.00    -0.200 F 
ENDBRANCH  56  79
ENDBRANCH  30  31
ENDBRANCH  22  25
ENDBRANCH  20  21
ENDBRANCH   1  20
TORSDOF 13
ENDMDL
