MODEL 1
REMARK VINA RESULT:     -13.5      0.000      0.000
REMARK SMILES Cc1ccc(-c2cc3cccnc3n2CCC(=O)NCCCCNC(=O)c2ccc(-c3c4nc(c(-c5c(F)c(F)c(F)c(F)c5F)c5ccc([nH]5)c(-c5c(F)c(F)c(F)c(F)c5F)c5nc(c(-c6c(F)c(F)c(F)c(F)c6F)c6ccc3[nH]6)C=C5)C=C4)cc2)cn1
REMARK SMILES IDX 21 1 20 2 19 3 17 4 18 5 16 7 15 8 14 9 6 10 7 11 8 12 13 13
REMARK SMILES IDX 9 14 12 15 10 16 11 17 5 18 1 19 2 20 3 21 91 22 4 23 90 24
REMARK SMILES IDX 22 25 23 26 24 27 25 28 26 30 27 31 28 32 89 33 29 34 88 35
REMARK SMILES IDX 30 36 31 37 32 38 82 39 33 40 87 41 81 42 83 43 34 44 86 45
REMARK SMILES IDX 80 46 79 47 35 49 67 50 47 51 66 52 48 53 51 54 65 55 84 56
REMARK SMILES IDX 49 57 50 58 64 60 85 61 52 62 36 63 37 64 45 65 38 66 39 67
REMARK SMILES IDX 43 68 46 69 40 70 41 71 44 72 42 73 68 74 69 75 77 76 70 77
REMARK SMILES IDX 71 78 75 79 78 80 72 81 73 82 76 83 74 84 53 85 54 86 62 87
REMARK SMILES IDX 55 88 56 89 60 90 63 91 57 92 58 93 61 94 59 95
REMARK H PARENT 19 6 24 29 83 48 51 59
REMARK Flexibility Score: inf
ROOT
ATOM      1  C   UNL A   1      40.350  21.662  26.121  1.00  0.00     0.023 C 
ENDROOT
BRANCH   1   2
ATOM      2  C   UNL A   1      38.872  21.976  26.284  1.00  0.00     0.116 C 
BRANCH   2   3
ATOM      3  N   UNL A   1      38.231  22.361  25.032  1.00  0.00    -0.356 N 
ATOM      4  C   UNL A   1      37.085  21.929  24.429  1.00  0.00     0.221 C 
ATOM      5  O   UNL A   1      36.767  22.475  23.366  1.00  0.00    -0.275 OA
ATOM      6  H   UNL A   1      38.711  23.060  24.532  1.00  0.00     0.163 HD
BRANCH   4   7
ATOM      7  C   UNL A   1      36.208  20.830  25.001  1.00  0.00     0.122 C 
BRANCH   7   8
ATOM      8  C   UNL A   1      34.817  21.255  25.519  1.00  0.00     0.134 C 
BRANCH   8   9
ATOM      9  N   UNL A   1      33.806  21.453  24.487  1.00  0.00    -0.325 N 
ATOM     10  C   UNL A   1      33.035  20.516  23.780  1.00  0.00     0.052 A 
ATOM     11  C   UNL A   1      32.153  21.299  23.008  1.00  0.00     0.039 A 
ATOM     12  C   UNL A   1      32.261  22.663  23.398  1.00  0.00     0.020 A 
ATOM     13  C   UNL A   1      33.366  22.742  24.226  1.00  0.00     0.140 A 
ATOM     14  C   UNL A   1      31.490  23.829  23.233  1.00  0.00     0.013 A 
ATOM     15  N   UNL A   1      33.847  23.855  24.822  1.00  0.00    -0.238 NA
ATOM     16  C   UNL A   1      31.920  24.992  23.878  1.00  0.00     0.021 A 
ATOM     17  C   UNL A   1      33.094  24.954  24.612  1.00  0.00     0.113 A 
BRANCH  10  18
ATOM     18  C   UNL A   1      32.854  19.052  24.071  1.00  0.00     0.017 A 
ATOM     19  C   UNL A   1      33.203  14.956  25.376  1.00  0.00     0.066 C 
ATOM     20  C   UNL A   1      33.058  16.373  24.909  1.00  0.00     0.037 A 
ATOM     21  C   UNL A   1      33.343  16.701  23.600  1.00  0.00     0.024 A 
ATOM     22  N   UNL A   1      32.622  17.301  25.789  1.00  0.00    -0.261 NA
ATOM     23  C   UNL A   1      33.219  18.031  23.194  1.00  0.00     0.014 A 
ATOM     24  C   UNL A   1      32.528  18.594  25.351  1.00  0.00     0.121 A 
ENDBRANCH  10  18
ENDBRANCH   8   9
ENDBRANCH   7   8
ENDBRANCH   4   7
ENDBRANCH   2   3
ENDBRANCH   1   2
BRANCH   1  25
ATOM     25  C   UNL A   1      40.910  20.243  26.228  1.00  0.00     0.023 C 
BRANCH  25  26
ATOM     26  C   UNL A   1      42.231  20.146  26.958  1.00  0.00     0.116 C 
BRANCH  26  27
ATOM     27  N   UNL A   1      43.321  19.594  26.136  1.00  0.00    -0.352 N 
ATOM     28  C   UNL A   1      44.142  20.264  25.245  1.00  0.00     0.251 C 
ATOM     29  H   UNL A   1      43.487  18.628  26.232  1.00  0.00     0.163 HD
ATOM     30  O   UNL A   1      44.809  19.682  24.397  1.00  0.00    -0.269 OA
BRANCH  28  31
ATOM     31  C   UNL A   1      44.200  21.724  25.374  1.00  0.00     0.039 A 
ATOM     32  C   UNL A   1      43.446  22.580  24.569  1.00  0.00     0.014 A 
ATOM     33  C   UNL A   1      44.866  22.179  26.504  1.00  0.00     0.014 A 
ATOM     34  C   UNL A   1      43.273  23.891  25.001  1.00  0.00     0.010 A 
ATOM     35  C   UNL A   1      44.455  23.357  27.053  1.00  0.00     0.010 A 
ATOM     36  C   UNL A   1      43.743  24.253  26.275  1.00  0.00    -0.014 A 
BRANCH  36  37
ATOM     37  C   UNL A   1      43.452  25.542  26.874  1.00  0.00     0.031 A 
ATOM     38  C   UNL A   1      44.394  26.617  26.498  1.00  0.00     0.074 A 
ATOM     39  C   UNL A   1      42.336  25.776  27.601  1.00  0.00     0.049 A 
ATOM     40  N   UNL A   1      45.423  26.997  27.175  1.00  0.00    -0.248 NA
ATOM     41  C   UNL A   1      44.307  27.227  25.163  1.00  0.00     0.031 C 
ATOM     42  C   UNL A   1      41.157  24.913  27.778  1.00  0.00     0.029 A 
ATOM     43  N   UNL A   1      42.005  26.883  28.320  1.00  0.00    -0.354 N 
ATOM     44  C   UNL A   1      45.952  28.079  26.485  1.00  0.00     0.074 A 
ATOM     45  C   UNL A   1      45.381  28.025  25.166  1.00  0.00     0.031 C 
ATOM     46  C   UNL A   1      40.164  25.604  28.379  1.00  0.00     0.029 A 
ATOM     47  C   UNL A   1      40.708  26.871  28.817  1.00  0.00     0.049 A 
ATOM     48  H   UNL A   1      42.630  27.628  28.474  1.00  0.00     0.167 HD
ATOM     49  C   UNL A   1      46.547  29.089  27.180  1.00  0.00     0.037 A 
ATOM     50  C   UNL A   1      40.137  27.805  29.611  1.00  0.00     0.037 A 
ATOM     51  C   UNL A   1      46.728  28.700  28.560  1.00  0.00     0.049 A 
ATOM     52  C   UNL A   1      41.243  28.490  30.319  1.00  0.00     0.074 A 
ATOM     53  C   UNL A   1      47.598  27.904  29.270  1.00  0.00     0.029 A 
ATOM     54  N   UNL A   1      45.597  28.849  29.322  1.00  0.00    -0.354 N 
ATOM     55  N   UNL A   1      42.012  27.894  31.189  1.00  0.00    -0.248 NA
ATOM     56  C   UNL A   1      41.747  29.754  29.795  1.00  0.00     0.031 C 
ATOM     57  C   UNL A   1      46.885  27.459  30.426  1.00  0.00     0.029 A 
ATOM     58  C   UNL A   1      45.617  28.034  30.422  1.00  0.00     0.049 A 
ATOM     59  H   UNL A   1      44.862  29.465  29.105  1.00  0.00     0.167 HD
ATOM     60  C   UNL A   1      43.250  28.475  30.998  1.00  0.00     0.074 A 
ATOM     61  C   UNL A   1      42.993  29.713  30.273  1.00  0.00     0.031 C 
ATOM     62  C   UNL A   1      44.396  27.752  31.145  1.00  0.00     0.037 A 
BRANCH  49  63
ATOM     63  C   UNL A   1      46.528  30.553  26.801  1.00  0.00     0.064 A 
ATOM     64  C   UNL A   1      47.728  31.293  26.876  1.00  0.00     0.173 A 
ATOM     65  C   UNL A   1      45.354  31.321  26.661  1.00  0.00     0.173 A 
ATOM     66  F   UNL A   1      48.906  30.670  27.037  1.00  0.00    -0.203 F 
ATOM     67  C   UNL A   1      47.740  32.691  26.868  1.00  0.00     0.198 A 
ATOM     68  C   UNL A   1      45.374  32.715  26.602  1.00  0.00     0.198 A 
ATOM     69  F   UNL A   1      44.135  30.773  26.693  1.00  0.00    -0.203 F 
ATOM     70  F   UNL A   1      48.892  33.350  27.053  1.00  0.00    -0.200 F 
ATOM     71  C   UNL A   1      46.562  33.401  26.732  1.00  0.00     0.200 A 
ATOM     72  F   UNL A   1      44.217  33.385  26.499  1.00  0.00    -0.200 F 
ATOM     73  F   UNL A   1      46.563  34.740  26.774  1.00  0.00    -0.200 F 
ENDBRANCH  49  63
BRANCH  50  74
ATOM     74  C   UNL A   1      38.773  28.370  29.525  1.00  0.00     0.064 A 
ATOM     75  C   UNL A   1      38.020  28.573  30.692  1.00  0.00     0.173 A 
ATOM     76  C   UNL A   1      38.327  29.026  28.362  1.00  0.00     0.173 A 
ATOM     77  F   UNL A   1      38.391  27.993  31.843  1.00  0.00    -0.203 F 
ATOM     78  C   UNL A   1      36.933  29.452  30.717  1.00  0.00     0.198 A 
ATOM     79  C   UNL A   1      37.240  29.900  28.387  1.00  0.00     0.198 A 
ATOM     80  F   UNL A   1      39.003  28.915  27.209  1.00  0.00    -0.203 F 
ATOM     81  F   UNL A   1      36.298  29.695  31.871  1.00  0.00    -0.200 F 
ATOM     82  C   UNL A   1      36.560  30.132  29.570  1.00  0.00     0.200 A 
ATOM     83  F   UNL A   1      36.906  30.577  27.279  1.00  0.00    -0.200 F 
ATOM     84  F   UNL A   1      35.578  31.045  29.613  1.00  0.00    -0.200 F 
ENDBRANCH  50  74
BRANCH  62  85
ATOM     85  C   UNL A   1      44.337  26.522  31.996  1.00  0.00     0.064 A 
ATOM     86  C   UNL A   1      44.244  26.519  33.397  1.00  0.00     0.173 A 
ATOM     87  C   UNL A   1      44.295  25.284  31.342  1.00  0.00     0.173 A 
ATOM     88  F   UNL A   1      44.220  27.664  34.090  1.00  0.00    -0.203 F 
ATOM     89  C   UNL A   1      44.133  25.323  34.109  1.00  0.00     0.198 A 
ATOM     90  C   UNL A   1      44.153  24.095  32.050  1.00  0.00     0.198 A 
ATOM     91  F   UNL A   1      44.353  25.232  30.002  1.00  0.00    -0.203 F 
ATOM     92  F   UNL A   1      44.054  25.340  35.447  1.00  0.00    -0.200 F 
ATOM     93  C   UNL A   1      44.079  24.114  33.433  1.00  0.00     0.200 A 
ATOM     94  F   UNL A   1      44.065  22.934  31.388  1.00  0.00    -0.200 F 
ATOM     95  F   UNL A   1      43.935  22.968  34.112  1.00  0.00    -0.200 F 
ENDBRANCH  62  85
ENDBRANCH  36  37
ENDBRANCH  28  31
ENDBRANCH  26  27
ENDBRANCH  25  26
ENDBRANCH   1  25
TORSDOF 14
ENDMDL
MODEL 2
REMARK VINA RESULT:     -13.4      0.875      2.796
REMARK SMILES Cc1ccc(-c2cc3cccnc3n2CCC(=O)NCCCCNC(=O)c2ccc(-c3c4nc(c(-c5c(F)c(F)c(F)c(F)c5F)c5ccc([nH]5)c(-c5c(F)c(F)c(F)c(F)c5F)c5nc(c(-c6c(F)c(F)c(F)c(F)c6F)c6ccc3[nH]6)C=C5)C=C4)cc2)cn1
REMARK SMILES IDX 21 1 20 2 19 3 17 4 18 5 16 7 15 8 14 9 6 10 7 11 8 12 13 13
REMARK SMILES IDX 9 14 12 15 10 16 11 17 5 18 1 19 2 20 3 21 91 22 4 23 90 24
REMARK SMILES IDX 22 25 23 26 24 27 25 28 26 30 27 31 28 32 89 33 29 34 88 35
REMARK SMILES IDX 30 36 31 37 32 38 82 39 33 40 87 41 81 42 83 43 34 44 86 45
REMARK SMILES IDX 80 46 79 47 35 49 67 50 47 51 66 52 48 53 51 54 65 55 84 56
REMARK SMILES IDX 49 57 50 58 64 60 85 61 52 62 36 63 37 64 45 65 38 66 39 67
REMARK SMILES IDX 43 68 46 69 40 70 41 71 44 72 42 73 68 74 69 75 77 76 70 77
REMARK SMILES IDX 71 78 75 79 78 80 72 81 73 82 76 83 74 84 53 85 54 86 62 87
REMARK SMILES IDX 55 88 56 89 60 90 63 91 57 92 58 93 61 94 59 95
REMARK H PARENT 19 6 24 29 83 48 51 59
REMARK Flexibility Score: inf
ROOT
ATOM      1  C   UNL A   1      40.705  21.520  27.265  1.00  0.00     0.023 C 
ENDROOT
BRANCH   1   2
ATOM      2  C   UNL A   1      39.604  21.326  26.236  1.00  0.00     0.116 C 
BRANCH   2   3
ATOM      3  N   UNL A   1      38.846  22.545  25.978  1.00  0.00    -0.356 N 
ATOM      4  C   UNL A   1      37.684  22.763  25.294  1.00  0.00     0.221 C 
ATOM      5  O   UNL A   1      37.252  23.921  25.272  1.00  0.00    -0.275 OA
ATOM      6  H   UNL A   1      39.243  23.357  26.367  1.00  0.00     0.163 HD
BRANCH   4   7
ATOM      7  C   UNL A   1      36.921  21.662  24.579  1.00  0.00     0.122 C 
BRANCH   7   8
ATOM      8  C   UNL A   1      35.976  20.801  25.445  1.00  0.00     0.134 C 
BRANCH   8   9
ATOM      9  N   UNL A   1      34.606  20.704  24.957  1.00  0.00    -0.325 N 
ATOM     10  C   UNL A   1      33.672  21.713  24.665  1.00  0.00     0.052 A 
ATOM     11  C   UNL A   1      32.571  21.024  24.119  1.00  0.00     0.039 A 
ATOM     12  C   UNL A   1      32.919  19.661  23.905  1.00  0.00     0.020 A 
ATOM     13  C   UNL A   1      34.135  19.469  24.535  1.00  0.00     0.140 A 
ATOM     14  C   UNL A   1      32.401  18.586  23.159  1.00  0.00     0.013 A 
ATOM     15  N   UNL A   1      34.839  18.317  24.595  1.00  0.00    -0.238 NA
ATOM     16  C   UNL A   1      33.124  17.391  23.146  1.00  0.00     0.021 A 
ATOM     17  C   UNL A   1      34.288  17.306  23.891  1.00  0.00     0.113 A 
BRANCH  10  18
ATOM     18  C   UNL A   1      33.912  23.191  24.534  1.00  0.00     0.017 A 
ATOM     19  C   UNL A   1      33.619  27.489  24.313  1.00  0.00     0.066 C 
ATOM     20  C   UNL A   1      33.748  25.996  24.385  1.00  0.00     0.037 A 
ATOM     21  C   UNL A   1      33.864  25.258  23.226  1.00  0.00     0.024 A 
ATOM     22  N   UNL A   1      33.773  25.408  25.601  1.00  0.00    -0.261 NA
ATOM     23  C   UNL A   1      33.964  23.869  23.317  1.00  0.00     0.014 A 
ATOM     24  C   UNL A   1      33.857  24.043  25.641  1.00  0.00     0.121 A 
ENDBRANCH  10  18
ENDBRANCH   8   9
ENDBRANCH   7   8
ENDBRANCH   4   7
ENDBRANCH   2   3
ENDBRANCH   1   2
BRANCH   1  25
ATOM     25  C   UNL A   1      42.039  20.774  27.197  1.00  0.00     0.023 C 
BRANCH  25  26
ATOM     26  C   UNL A   1      42.351  20.177  25.843  1.00  0.00     0.116 C 
BRANCH  26  27
ATOM     27  N   UNL A   1      43.725  19.657  25.729  1.00  0.00    -0.352 N 
ATOM     28  C   UNL A   1      44.870  20.344  25.367  1.00  0.00     0.251 C 
ATOM     29  H   UNL A   1      43.843  18.702  25.937  1.00  0.00     0.163 HD
ATOM     30  O   UNL A   1      45.897  19.775  25.014  1.00  0.00    -0.269 OA
BRANCH  28  31
ATOM     31  C   UNL A   1      44.813  21.808  25.447  1.00  0.00     0.039 A 
ATOM     32  C   UNL A   1      43.952  22.570  24.655  1.00  0.00     0.014 A 
ATOM     33  C   UNL A   1      45.492  22.355  26.527  1.00  0.00     0.014 A 
ATOM     34  C   UNL A   1      43.691  23.877  25.054  1.00  0.00     0.010 A 
ATOM     35  C   UNL A   1      45.011  23.514  27.058  1.00  0.00     0.010 A 
ATOM     36  C   UNL A   1      44.190  24.321  26.290  1.00  0.00    -0.014 A 
BRANCH  36  37
ATOM     37  C   UNL A   1      43.821  25.603  26.862  1.00  0.00     0.031 A 
ATOM     38  C   UNL A   1      44.719  26.718  26.491  1.00  0.00     0.074 A 
ATOM     39  C   UNL A   1      42.679  25.791  27.559  1.00  0.00     0.049 A 
ATOM     40  N   UNL A   1      45.711  27.158  27.185  1.00  0.00    -0.248 NA
ATOM     41  C   UNL A   1      44.633  27.303  25.145  1.00  0.00     0.031 C 
ATOM     42  C   UNL A   1      41.539  24.874  27.723  1.00  0.00     0.029 A 
ATOM     43  N   UNL A   1      42.276  26.891  28.253  1.00  0.00    -0.354 N 
ATOM     44  C   UNL A   1      46.202  28.255  26.491  1.00  0.00     0.074 A 
ATOM     45  C   UNL A   1      45.666  28.154  25.160  1.00  0.00     0.031 C 
ATOM     46  C   UNL A   1      40.500  25.523  28.290  1.00  0.00     0.029 A 
ATOM     47  C   UNL A   1      40.970  26.821  28.721  1.00  0.00     0.049 A 
ATOM     48  H   UNL A   1      42.860  27.668  28.410  1.00  0.00     0.167 HD
ATOM     49  C   UNL A   1      46.730  29.303  27.184  1.00  0.00     0.037 A 
ATOM     50  C   UNL A   1      40.336  27.737  29.487  1.00  0.00     0.037 A 
ATOM     51  C   UNL A   1      46.897  28.944  28.573  1.00  0.00     0.049 A 
ATOM     52  C   UNL A   1      41.389  28.487  30.210  1.00  0.00     0.074 A 
ATOM     53  C   UNL A   1      47.788  28.202  29.316  1.00  0.00     0.029 A 
ATOM     54  N   UNL A   1      45.743  29.047  29.307  1.00  0.00    -0.354 N 
ATOM     55  N   UNL A   1      42.166  27.942  31.106  1.00  0.00    -0.248 NA
ATOM     56  C   UNL A   1      41.842  29.766  29.677  1.00  0.00     0.031 C 
ATOM     57  C   UNL A   1      47.070  27.739  30.461  1.00  0.00     0.029 A 
ATOM     58  C   UNL A   1      45.776  28.250  30.420  1.00  0.00     0.049 A 
ATOM     59  H   UNL A   1      44.983  29.623  29.063  1.00  0.00     0.167 HD
ATOM     60  C   UNL A   1      43.377  28.581  30.935  1.00  0.00     0.074 A 
ATOM     61  C   UNL A   1      43.077  29.794  30.185  1.00  0.00     0.031 C 
ATOM     62  C   UNL A   1      44.554  27.918  31.118  1.00  0.00     0.037 A 
BRANCH  49  63
ATOM     63  C   UNL A   1      46.647  30.759  26.782  1.00  0.00     0.064 A 
ATOM     64  C   UNL A   1      47.810  31.555  26.862  1.00  0.00     0.173 A 
ATOM     65  C   UNL A   1      45.441  31.469  26.614  1.00  0.00     0.173 A 
ATOM     66  F   UNL A   1      49.013  30.992  27.049  1.00  0.00    -0.203 F 
ATOM     67  C   UNL A   1      47.756  32.953  26.832  1.00  0.00     0.198 A 
ATOM     68  C   UNL A   1      45.396  32.861  26.533  1.00  0.00     0.198 A 
ATOM     69  F   UNL A   1      44.248  30.864  26.637  1.00  0.00    -0.203 F 
ATOM     70  F   UNL A   1      48.873  33.668  27.023  1.00  0.00    -0.200 F 
ATOM     71  C   UNL A   1      46.548  33.604  26.669  1.00  0.00     0.200 A 
ATOM     72  F   UNL A   1      44.210  33.474  26.404  1.00  0.00    -0.200 F 
ATOM     73  F   UNL A   1      46.486  34.942  26.690  1.00  0.00    -0.200 F 
ENDBRANCH  49  63
BRANCH  50  74
ATOM     74  C   UNL A   1      38.948  28.232  29.361  1.00  0.00     0.064 A 
ATOM     75  C   UNL A   1      38.145  28.380  30.504  1.00  0.00     0.173 A 
ATOM     76  C   UNL A   1      38.508  28.880  28.192  1.00  0.00     0.173 A 
ATOM     77  F   UNL A   1      38.507  27.804  31.659  1.00  0.00    -0.203 F 
ATOM     78  C   UNL A   1      37.015  29.201  30.501  1.00  0.00     0.198 A 
ATOM     79  C   UNL A   1      37.376  29.697  28.190  1.00  0.00     0.198 A 
ATOM     80  F   UNL A   1      39.227  28.821  27.061  1.00  0.00    -0.203 F 
ATOM     81  F   UNL A   1      36.329  29.395  31.636  1.00  0.00    -0.200 F 
ATOM     82  C   UNL A   1      36.646  29.877  29.351  1.00  0.00     0.200 A 
ATOM     83  F   UNL A   1      37.045  30.372  27.079  1.00  0.00    -0.200 F 
ATOM     84  F   UNL A   1      35.617  30.737  29.372  1.00  0.00    -0.200 F 
ENDBRANCH  50  74
BRANCH  62  85
ATOM     85  C   UNL A   1      44.535  26.699  31.987  1.00  0.00     0.064 A 
ATOM     86  C   UNL A   1      44.459  26.713  33.389  1.00  0.00     0.173 A 
ATOM     87  C   UNL A   1      44.518  25.451  31.350  1.00  0.00     0.173 A 
ATOM     88  F   UNL A   1      44.414  27.866  34.066  1.00  0.00    -0.203 F 
ATOM     89  C   UNL A   1      44.386  25.525  34.118  1.00  0.00     0.198 A 
ATOM     90  C   UNL A   1      44.414  24.269  32.077  1.00  0.00     0.198 A 
ATOM     91  F   UNL A   1      44.562  25.382  30.011  1.00  0.00    -0.203 F 
ATOM     92  F   UNL A   1      44.322  25.559  35.457  1.00  0.00    -0.200 F 
ATOM     93  C   UNL A   1      44.355  24.306  33.460  1.00  0.00     0.200 A 
ATOM     94  F   UNL A   1      44.348  23.097  31.432  1.00  0.00    -0.200 F 
ATOM     95  F   UNL A   1      44.248  23.166  34.156  1.00  0.00    -0.200 F 
ENDBRANCH  62  85
ENDBRANCH  36  37
ENDBRANCH  28  31
ENDBRANCH  26  27
ENDBRANCH  25  26
ENDBRANCH   1  25
TORSDOF 14
ENDMDL
MODEL 3
REMARK VINA RESULT:     -12.6      1.129      3.289
REMARK SMILES Cc1ccc(-c2cc3cccnc3n2CCC(=O)NCCCCNC(=O)c2ccc(-c3c4nc(c(-c5c(F)c(F)c(F)c(F)c5F)c5ccc([nH]5)c(-c5c(F)c(F)c(F)c(F)c5F)c5nc(c(-c6c(F)c(F)c(F)c(F)c6F)c6ccc3[nH]6)C=C5)C=C4)cc2)cn1
REMARK SMILES IDX 21 1 20 2 19 3 17 4 18 5 16 7 15 8 14 9 6 10 7 11 8 12 13 13
REMARK SMILES IDX 9 14 12 15 10 16 11 17 5 18 1 19 2 20 3 21 91 22 4 23 90 24
REMARK SMILES IDX 22 25 23 26 24 27 25 28 26 30 27 31 28 32 89 33 29 34 88 35
REMARK SMILES IDX 30 36 31 37 32 38 82 39 33 40 87 41 81 42 83 43 34 44 86 45
REMARK SMILES IDX 80 46 79 47 35 49 67 50 47 51 66 52 48 53 51 54 65 55 84 56
REMARK SMILES IDX 49 57 50 58 64 60 85 61 52 62 36 63 37 64 45 65 38 66 39 67
REMARK SMILES IDX 43 68 46 69 40 70 41 71 44 72 42 73 68 74 69 75 77 76 70 77
REMARK SMILES IDX 71 78 75 79 78 80 72 81 73 82 76 83 74 84 53 85 54 86 62 87
REMARK SMILES IDX 55 88 56 89 60 90 63 91 57 92 58 93 61 94 59 95
REMARK H PARENT 19 6 24 29 83 48 51 59
REMARK Flexibility Score: inf
ROOT
ATOM      1  C   UNL A   1      40.640  21.795  27.383  1.00  0.00     0.023 C 
ENDROOT
BRANCH   1   2
ATOM      2  C   UNL A   1      39.508  21.537  26.403  1.00  0.00     0.116 C 
BRANCH   2   3
ATOM      3  N   UNL A   1      38.690  22.719  26.155  1.00  0.00    -0.356 N 
ATOM      4  C   UNL A   1      37.531  22.890  25.453  1.00  0.00     0.221 C 
ATOM      5  O   UNL A   1      37.038  24.023  25.445  1.00  0.00    -0.275 OA
ATOM      6  H   UNL A   1      39.036  23.543  26.568  1.00  0.00     0.163 HD
BRANCH   4   7
ATOM      7  C   UNL A   1      36.841  21.765  24.701  1.00  0.00     0.122 C 
BRANCH   7   8
ATOM      8  C   UNL A   1      35.912  20.850  25.527  1.00  0.00     0.134 C 
BRANCH   8   9
ATOM      9  N   UNL A   1      34.543  20.750  25.033  1.00  0.00    -0.325 N 
ATOM     10  C   UNL A   1      33.594  21.754  24.781  1.00  0.00     0.052 A 
ATOM     11  C   UNL A   1      32.504  21.070  24.207  1.00  0.00     0.039 A 
ATOM     12  C   UNL A   1      32.875  19.722  23.939  1.00  0.00     0.020 A 
ATOM     13  C   UNL A   1      34.093  19.525  24.563  1.00  0.00     0.140 A 
ATOM     14  C   UNL A   1      32.374  18.669  23.150  1.00  0.00     0.013 A 
ATOM     15  N   UNL A   1      34.815  18.383  24.578  1.00  0.00    -0.238 NA
ATOM     16  C   UNL A   1      33.117  17.487  23.091  1.00  0.00     0.021 A 
ATOM     17  C   UNL A   1      34.282  17.392  23.835  1.00  0.00     0.113 A 
BRANCH  10  18
ATOM     18  C   UNL A   1      33.810  23.241  24.709  1.00  0.00     0.017 A 
ATOM     19  C   UNL A   1      33.439  27.535  24.568  1.00  0.00     0.066 C 
ATOM     20  C   UNL A   1      33.595  26.045  24.614  1.00  0.00     0.037 A 
ATOM     21  C   UNL A   1      33.832  25.340  23.453  1.00  0.00     0.024 A 
ATOM     22  N   UNL A   1      33.525  25.425  25.812  1.00  0.00    -0.261 NA
ATOM     23  C   UNL A   1      33.955  23.951  23.518  1.00  0.00     0.014 A 
ATOM     24  C   UNL A   1      33.637  24.061  25.827  1.00  0.00     0.121 A 
ENDBRANCH  10  18
ENDBRANCH   8   9
ENDBRANCH   7   8
ENDBRANCH   4   7
ENDBRANCH   2   3
ENDBRANCH   1   2
BRANCH   1  25
ATOM     25  C   UNL A   1      42.052  21.244  27.177  1.00  0.00     0.023 C 
BRANCH  25  26
ATOM     26  C   UNL A   1      42.350  20.809  25.759  1.00  0.00     0.116 C 
BRANCH  26  27
ATOM     27  N   UNL A   1      43.679  20.196  25.597  1.00  0.00    -0.352 N 
ATOM     28  C   UNL A   1      44.870  20.816  25.259  1.00  0.00     0.251 C 
ATOM     29  H   UNL A   1      43.727  19.224  25.748  1.00  0.00     0.163 HD
ATOM     30  O   UNL A   1      45.848  20.193  24.860  1.00  0.00    -0.269 OA
BRANCH  28  31
ATOM     31  C   UNL A   1      44.923  22.273  25.424  1.00  0.00     0.039 A 
ATOM     32  C   UNL A   1      44.118  23.142  24.685  1.00  0.00     0.014 A 
ATOM     33  C   UNL A   1      45.647  22.704  26.527  1.00  0.00     0.014 A 
ATOM     34  C   UNL A   1      43.958  24.439  25.161  1.00  0.00     0.010 A 
ATOM     35  C   UNL A   1      45.257  23.863  27.129  1.00  0.00     0.010 A 
ATOM     36  C   UNL A   1      44.496  24.772  26.416  1.00  0.00    -0.014 A 
BRANCH  36  37
ATOM     37  C   UNL A   1      44.227  26.043  27.064  1.00  0.00     0.031 A 
ATOM     38  C   UNL A   1      45.263  27.074  26.840  1.00  0.00     0.074 A 
ATOM     39  C   UNL A   1      43.065  26.307  27.702  1.00  0.00     0.049 A 
ATOM     40  N   UNL A   1      46.245  27.347  27.628  1.00  0.00    -0.248 NA
ATOM     41  C   UNL A   1      45.336  27.760  25.542  1.00  0.00     0.031 C 
ATOM     42  C   UNL A   1      41.825  25.514  27.721  1.00  0.00     0.029 A 
ATOM     43  N   UNL A   1      42.735  27.392  28.455  1.00  0.00    -0.354 N 
ATOM     44  C   UNL A   1      46.899  28.430  27.055  1.00  0.00     0.074 A 
ATOM     45  C   UNL A   1      46.450  28.486  25.689  1.00  0.00     0.031 C 
ATOM     46  C   UNL A   1      40.824  26.233  28.272  1.00  0.00     0.029 A 
ATOM     47  C   UNL A   1      41.399  27.436  28.833  1.00  0.00     0.049 A 
ATOM     48  H   UNL A   1      43.386  28.085  28.709  1.00  0.00     0.167 HD
ATOM     49  C   UNL A   1      47.486  29.359  27.861  1.00  0.00     0.037 A 
ATOM     50  C   UNL A   1      40.814  28.360  29.629  1.00  0.00     0.037 A 
ATOM     51  C   UNL A   1      47.515  28.883  29.225  1.00  0.00     0.049 A 
ATOM     52  C   UNL A   1      41.888  28.932  30.473  1.00  0.00     0.074 A 
ATOM     53  C   UNL A   1      48.267  27.994  29.960  1.00  0.00     0.029 A 
ATOM     54  N   UNL A   1      46.330  29.062  29.892  1.00  0.00    -0.354 N 
ATOM     55  N   UNL A   1      42.537  28.240  31.370  1.00  0.00    -0.248 NA
ATOM     56  C   UNL A   1      42.512  30.187  30.074  1.00  0.00     0.031 C 
ATOM     57  C   UNL A   1      47.424  27.533  31.018  1.00  0.00     0.029 A 
ATOM     58  C   UNL A   1      46.199  28.188  30.937  1.00  0.00     0.049 A 
ATOM     59  H   UNL A   1      45.655  29.736  29.647  1.00  0.00     0.167 HD
ATOM     60  C   UNL A   1      43.819  28.748  31.326  1.00  0.00     0.074 A 
ATOM     61  C   UNL A   1      43.704  30.039  30.658  1.00  0.00     0.031 C 
ATOM     62  C   UNL A   1      44.901  27.946  31.529  1.00  0.00     0.037 A 
BRANCH  49  63
ATOM     63  C   UNL A   1      47.589  30.840  27.572  1.00  0.00     0.064 A 
ATOM     64  C   UNL A   1      46.403  31.579  27.369  1.00  0.00     0.173 A 
ATOM     65  C   UNL A   1      48.779  31.494  27.193  1.00  0.00     0.173 A 
ATOM     66  F   UNL A   1      45.208  31.048  27.666  1.00  0.00    -0.203 F 
ATOM     67  C   UNL A   1      46.411  32.848  26.781  1.00  0.00     0.198 A 
ATOM     68  C   UNL A   1      48.788  32.781  26.655  1.00  0.00     0.198 A 
ATOM     69  F   UNL A   1      49.968  30.882  27.217  1.00  0.00    -0.203 F 
ATOM     70  F   UNL A   1      45.253  33.464  26.508  1.00  0.00    -0.200 F 
ATOM     71  C   UNL A   1      47.604  33.448  26.424  1.00  0.00     0.200 A 
ATOM     72  F   UNL A   1      49.954  33.332  26.288  1.00  0.00    -0.200 F 
ATOM     73  F   UNL A   1      47.613  34.641  25.816  1.00  0.00    -0.200 F 
ENDBRANCH  49  63
BRANCH  50  74
ATOM     74  C   UNL A   1      39.500  29.016  29.456  1.00  0.00     0.064 A 
ATOM     75  C   UNL A   1      39.059  29.383  28.174  1.00  0.00     0.173 A 
ATOM     76  C   UNL A   1      38.528  28.983  30.474  1.00  0.00     0.173 A 
ATOM     77  F   UNL A   1      39.924  29.423  27.151  1.00  0.00    -0.203 F 
ATOM     78  C   UNL A   1      37.708  29.618  27.906  1.00  0.00     0.198 A 
ATOM     79  C   UNL A   1      37.180  29.222  30.205  1.00  0.00     0.198 A 
ATOM     80  F   UNL A   1      38.852  28.613  31.721  1.00  0.00    -0.203 F 
ATOM     81  F   UNL A   1      37.311  29.870  26.651  1.00  0.00    -0.200 F 
ATOM     82  C   UNL A   1      36.767  29.513  28.917  1.00  0.00     0.200 A 
ATOM     83  F   UNL A   1      36.273  29.087  31.184  1.00  0.00    -0.200 F 
ATOM     84  F   UNL A   1      35.461  29.646  28.643  1.00  0.00    -0.200 F 
ENDBRANCH  50  74
BRANCH  62  85
ATOM     85  C   UNL A   1      44.691  26.677  32.295  1.00  0.00     0.064 A 
ATOM     86  C   UNL A   1      44.486  26.601  33.682  1.00  0.00     0.173 A 
ATOM     87  C   UNL A   1      44.618  25.484  31.563  1.00  0.00     0.173 A 
ATOM     88  F   UNL A   1      44.484  27.703  34.441  1.00  0.00    -0.203 F 
ATOM     89  C   UNL A   1      44.237  25.377  34.307  1.00  0.00     0.198 A 
ATOM     90  C   UNL A   1      44.339  24.271  32.183  1.00  0.00     0.198 A 
ATOM     91  F   UNL A   1      44.780  25.505  30.232  1.00  0.00    -0.203 F 
ATOM     92  F   UNL A   1      44.052  25.324  35.634  1.00  0.00    -0.200 F 
ATOM     93  C   UNL A   1      44.155  24.216  33.555  1.00  0.00     0.200 A 
ATOM     94  F   UNL A   1      44.227  23.159  31.445  1.00  0.00    -0.200 F 
ATOM     95  F   UNL A   1      43.880  23.046  34.148  1.00  0.00    -0.200 F 
ENDBRANCH  62  85
ENDBRANCH  36  37
ENDBRANCH  28  31
ENDBRANCH  26  27
ENDBRANCH  25  26
ENDBRANCH   1  25
TORSDOF 14
ENDMDL
