MODEL 1
REMARK VINA RESULT:     -13.4      0.000      0.000
REMARK SMILES O=C(NCCCCNC(=O)c1ccc(-c2c3nc(c(-c4c(F)c(F)c(F)c(F)c4F)c4ccc([nH]4)c(-c4c(F)c(F)c(F)c(F)c4F)c4nc(c(-c5c(F)c(F)c(F)c(F)c5F)c5ccc2[nH]5)C=C4)C=C3)cc1)C1=Cc2c(Cl)ccc(Cl)c2O[C@@H]1C(F)(F)F
REMARK SMILES IDX 6 1 5 2 4 3 3 4 1 5 2 6 74 8 75 9 85 10 76 11 84 12 77 13
REMARK SMILES IDX 83 14 78 15 79 16 81 17 80 18 82 19 86 20 87 21 88 22 89 23
REMARK SMILES IDX 7 24 8 25 9 26 10 28 11 29 12 30 73 31 13 32 72 33 14 34
REMARK SMILES IDX 15 35 16 36 66 37 17 38 71 39 65 40 67 41 18 42 70 43 64 44
REMARK SMILES IDX 63 45 19 47 51 48 31 49 50 50 32 51 35 52 49 53 68 54 33 55
REMARK SMILES IDX 34 56 48 58 69 59 36 60 20 61 21 62 29 63 22 64 23 65 27 66
REMARK SMILES IDX 30 67 24 68 25 69 28 70 26 71 52 72 53 73 61 74 54 75 55 76
REMARK SMILES IDX 59 77 62 78 56 79 57 80 60 81 58 82 37 83 38 84 46 85 39 86
REMARK SMILES IDX 40 87 44 88 47 89 41 90 42 91 45 92 43 93
REMARK H PARENT 3 7 8 27 67 46 35 57
REMARK Flexibility Score: inf
ROOT
ATOM      1  C   UNL A   1      31.785  29.868  25.546  1.00  0.00     0.023 C 
ENDROOT
BRANCH   1   2
ATOM      2  C   UNL A   1      31.442  28.397  25.348  1.00  0.00     0.023 C 
BRANCH   2   3
ATOM      3  C   UNL A   1      31.476  27.523  26.594  1.00  0.00     0.116 C 
BRANCH   3   4
ATOM      4  N   UNL A   1      30.655  26.327  26.539  1.00  0.00    -0.352 N 
ATOM      5  O   UNL A   1      30.188  24.143  26.308  1.00  0.00    -0.270 OA
ATOM      6  C   UNL A   1      30.980  25.064  26.121  1.00  0.00     0.251 C 
ATOM      7  H   UNL A   1      29.727  26.441  26.847  1.00  0.00     0.163 HD
BRANCH   6   8
ATOM      8  C   UNL A   1      32.312  24.740  25.530  1.00  0.00     0.067 C 
ATOM      9  C   UNL A   1      33.155  23.874  26.116  1.00  0.00     0.027 C 
ATOM     10  C   UNL A   1      32.351  24.893  24.031  1.00  0.00     0.314 C 
ATOM     11  C   UNL A   1      33.285  22.595  25.360  1.00  0.00     0.037 A 
ATOM     12  O   UNL A   1      32.276  23.602  23.372  1.00  0.00    -0.474 OA
ATOM     13  C   UNL A   1      33.702  21.422  26.019  1.00  0.00     0.052 A 
ATOM     14  C   UNL A   1      32.737  22.505  24.064  1.00  0.00     0.148 A 
ATOM     15  Cl  UNL A   1      34.344  21.454  27.626  1.00  0.00    -0.084 Cl
ATOM     16  C   UNL A   1      33.499  20.173  25.429  1.00  0.00     0.023 A 
ATOM     17  C   UNL A   1      32.548  21.245  23.480  1.00  0.00     0.083 A 
ATOM     18  C   UNL A   1      32.907  20.085  24.169  1.00  0.00     0.026 A 
ATOM     19  Cl  UNL A   1      31.778  21.078  21.944  1.00  0.00    -0.080 Cl
BRANCH  10  20
ATOM     20  C   UNL A   1      33.574  25.698  23.559  1.00  0.00     0.429 C 
ATOM     21  F   UNL A   1      33.237  26.591  22.599  1.00  0.00    -0.167 F 
ATOM     22  F   UNL A   1      34.134  26.397  24.573  1.00  0.00    -0.167 F 
ATOM     23  F   UNL A   1      34.541  24.900  23.043  1.00  0.00    -0.167 F 
ENDBRANCH  10  20
ENDBRANCH   6   8
ENDBRANCH   3   4
ENDBRANCH   2   3
ENDBRANCH   1   2
BRANCH   1  24
ATOM     24  C   UNL A   1      32.428  30.255  26.877  1.00  0.00     0.116 C 
BRANCH  24  25
ATOM     25  N   UNL A   1      32.456  31.685  27.160  1.00  0.00    -0.352 N 
ATOM     26  C   UNL A   1      33.492  32.468  27.628  1.00  0.00     0.251 C 
ATOM     27  H   UNL A   1      31.611  32.161  26.994  1.00  0.00     0.163 HD
ATOM     28  O   UNL A   1      33.325  33.668  27.805  1.00  0.00    -0.269 OA
BRANCH  26  29
ATOM     29  C   UNL A   1      34.787  31.840  27.977  1.00  0.00     0.039 A 
ATOM     30  C   UNL A   1      35.891  32.667  28.202  1.00  0.00     0.014 A 
ATOM     31  C   UNL A   1      34.894  30.461  28.163  1.00  0.00     0.014 A 
ATOM     32  C   UNL A   1      37.062  32.125  28.742  1.00  0.00     0.010 A 
ATOM     33  C   UNL A   1      36.030  29.935  28.774  1.00  0.00     0.010 A 
ATOM     34  C   UNL A   1      37.113  30.766  29.098  1.00  0.00    -0.014 A 
BRANCH  34  35
ATOM     35  C   UNL A   1      38.255  30.227  29.882  1.00  0.00     0.031 A 
ATOM     36  C   UNL A   1      38.496  30.665  31.298  1.00  0.00     0.074 A 
ATOM     37  C   UNL A   1      39.132  29.398  29.281  1.00  0.00     0.049 A 
ATOM     38  N   UNL A   1      39.454  30.314  32.120  1.00  0.00    -0.248 NA
ATOM     39  C   UNL A   1      37.555  31.646  31.856  1.00  0.00     0.031 C 
ATOM     40  C   UNL A   1      39.060  28.959  27.886  1.00  0.00     0.029 A 
ATOM     41  N   UNL A   1      40.259  28.779  29.764  1.00  0.00    -0.354 N 
ATOM     42  C   UNL A   1      39.238  31.039  33.283  1.00  0.00     0.074 A 
ATOM     43  C   UNL A   1      38.091  31.889  33.043  1.00  0.00     0.031 C 
ATOM     44  C   UNL A   1      40.075  28.117  27.636  1.00  0.00     0.029 A 
ATOM     45  C   UNL A   1      40.885  27.976  28.841  1.00  0.00     0.049 A 
ATOM     46  H   UNL A   1      40.587  28.900  30.684  1.00  0.00     0.167 HD
ATOM     47  C   UNL A   1      39.919  30.984  34.453  1.00  0.00     0.037 A 
ATOM     48  C   UNL A   1      41.983  27.206  28.956  1.00  0.00     0.037 A 
ATOM     49  C   UNL A   1      41.045  30.122  34.701  1.00  0.00     0.049 A 
ATOM     50  C   UNL A   1      42.707  27.143  30.272  1.00  0.00     0.074 A 
ATOM     51  C   UNL A   1      41.745  29.933  35.879  1.00  0.00     0.029 A 
ATOM     52  N   UNL A   1      41.638  29.306  33.748  1.00  0.00    -0.354 N 
ATOM     53  N   UNL A   1      42.435  27.762  31.394  1.00  0.00    -0.248 NA
ATOM     54  C   UNL A   1      43.888  26.270  30.335  1.00  0.00     0.031 C 
ATOM     55  C   UNL A   1      42.789  29.033  35.630  1.00  0.00     0.029 A 
ATOM     56  C   UNL A   1      42.713  28.630  34.307  1.00  0.00     0.049 A 
ATOM     57  H   UNL A   1      41.341  29.220  32.814  1.00  0.00     0.167 HD
ATOM     58  C   UNL A   1      43.395  27.338  32.304  1.00  0.00     0.074 A 
ATOM     59  C   UNL A   1      44.246  26.397  31.606  1.00  0.00     0.031 C 
ATOM     60  C   UNL A   1      43.555  27.699  33.600  1.00  0.00     0.037 A 
BRANCH  47  61
ATOM     61  C   UNL A   1      39.453  31.882  35.561  1.00  0.00     0.064 A 
ATOM     62  C   UNL A   1      39.954  33.184  35.709  1.00  0.00     0.173 A 
ATOM     63  C   UNL A   1      38.481  31.445  36.474  1.00  0.00     0.173 A 
ATOM     64  F   UNL A   1      40.894  33.645  34.869  1.00  0.00    -0.203 F 
ATOM     65  C   UNL A   1      39.526  34.003  36.750  1.00  0.00     0.198 A 
ATOM     66  C   UNL A   1      38.033  32.278  37.497  1.00  0.00     0.198 A 
ATOM     67  F   UNL A   1      37.964  30.211  36.374  1.00  0.00    -0.203 F 
ATOM     68  F   UNL A   1      40.058  35.224  36.903  1.00  0.00    -0.200 F 
ATOM     69  C   UNL A   1      38.562  33.552  37.640  1.00  0.00     0.200 A 
ATOM     70  F   UNL A   1      37.096  31.844  38.350  1.00  0.00    -0.200 F 
ATOM     71  F   UNL A   1      38.150  34.341  38.641  1.00  0.00    -0.200 F 
ENDBRANCH  47  61
BRANCH  48  72
ATOM     72  C   UNL A   1      42.435  26.389  27.801  1.00  0.00     0.064 A 
ATOM     73  C   UNL A   1      41.871  25.129  27.553  1.00  0.00     0.173 A 
ATOM     74  C   UNL A   1      43.423  26.848  26.919  1.00  0.00     0.173 A 
ATOM     75  F   UNL A   1      40.937  24.641  28.383  1.00  0.00    -0.203 F 
ATOM     76  C   UNL A   1      42.289  24.353  26.475  1.00  0.00     0.198 A 
ATOM     77  C   UNL A   1      43.823  26.081  25.826  1.00  0.00     0.198 A 
ATOM     78  F   UNL A   1      43.989  28.049  27.110  1.00  0.00    -0.203 F 
ATOM     79  F   UNL A   1      41.758  23.138  26.281  1.00  0.00    -0.200 F 
ATOM     80  C   UNL A   1      43.259  24.833  25.608  1.00  0.00     0.200 A 
ATOM     81  F   UNL A   1      44.753  26.552  24.984  1.00  0.00    -0.200 F 
ATOM     82  F   UNL A   1      43.656  24.089  24.567  1.00  0.00    -0.200 F 
ENDBRANCH  48  72
BRANCH  60  83
ATOM     83  C   UNL A   1      44.685  27.061  34.352  1.00  0.00     0.064 A 
ATOM     84  C   UNL A   1      45.949  27.665  34.427  1.00  0.00     0.173 A 
ATOM     85  C   UNL A   1      44.496  25.843  35.023  1.00  0.00     0.173 A 
ATOM     86  F   UNL A   1      46.184  28.820  33.786  1.00  0.00    -0.203 F 
ATOM     87  C   UNL A   1      46.989  27.061  35.126  1.00  0.00     0.198 A 
ATOM     88  C   UNL A   1      45.532  25.256  35.743  1.00  0.00     0.198 A 
ATOM     89  F   UNL A   1      43.305  25.228  34.984  1.00  0.00    -0.203 F 
ATOM     90  F   UNL A   1      48.202  27.632  35.146  1.00  0.00    -0.200 F 
ATOM     91  C   UNL A   1      46.780  25.860  35.789  1.00  0.00     0.200 A 
ATOM     92  F   UNL A   1      45.324  24.100  36.391  1.00  0.00    -0.200 F 
ATOM     93  F   UNL A   1      47.782  25.281  36.463  1.00  0.00    -0.200 F 
ENDBRANCH  60  83
ENDBRANCH  34  35
ENDBRANCH  26  29
ENDBRANCH  24  25
ENDBRANCH   1  24
TORSDOF 12
ENDMDL
MODEL 2
REMARK VINA RESULT:     -13.3      0.139      1.651
REMARK SMILES O=C(NCCCCNC(=O)c1ccc(-c2c3nc(c(-c4c(F)c(F)c(F)c(F)c4F)c4ccc([nH]4)c(-c4c(F)c(F)c(F)c(F)c4F)c4nc(c(-c5c(F)c(F)c(F)c(F)c5F)c5ccc2[nH]5)C=C4)C=C3)cc1)C1=Cc2c(Cl)ccc(Cl)c2O[C@@H]1C(F)(F)F
REMARK SMILES IDX 6 1 5 2 4 3 3 4 1 5 2 6 74 8 75 9 85 10 76 11 84 12 77 13
REMARK SMILES IDX 83 14 78 15 79 16 81 17 80 18 82 19 86 20 87 21 88 22 89 23
REMARK SMILES IDX 7 24 8 25 9 26 10 28 11 29 12 30 73 31 13 32 72 33 14 34
REMARK SMILES IDX 15 35 16 36 66 37 17 38 71 39 65 40 67 41 18 42 70 43 64 44
REMARK SMILES IDX 63 45 19 47 51 48 31 49 50 50 32 51 35 52 49 53 68 54 33 55
REMARK SMILES IDX 34 56 48 58 69 59 36 60 20 61 21 62 29 63 22 64 23 65 27 66
REMARK SMILES IDX 30 67 24 68 25 69 28 70 26 71 52 72 53 73 61 74 54 75 55 76
REMARK SMILES IDX 59 77 62 78 56 79 57 80 60 81 58 82 37 83 38 84 46 85 39 86
REMARK SMILES IDX 40 87 44 88 47 89 41 90 42 91 45 92 43 93
REMARK H PARENT 3 7 8 27 67 46 35 57
REMARK Flexibility Score: inf
ROOT
ATOM      1  C   UNL A   1      31.591  29.881  25.364  1.00  0.00     0.023 C 
ENDROOT
BRANCH   1   2
ATOM      2  C   UNL A   1      31.226  28.409  25.224  1.00  0.00     0.023 C 
BRANCH   2   3
ATOM      3  C   UNL A   1      31.431  27.543  26.459  1.00  0.00     0.116 C 
BRANCH   3   4
ATOM      4  N   UNL A   1      30.649  26.321  26.501  1.00  0.00    -0.352 N 
ATOM      5  O   UNL A   1      30.248  24.113  26.417  1.00  0.00    -0.270 OA
ATOM      6  C   UNL A   1      31.005  25.045  26.153  1.00  0.00     0.251 C 
ATOM      7  H   UNL A   1      29.725  26.424  26.826  1.00  0.00     0.163 HD
BRANCH   6   8
ATOM      8  C   UNL A   1      32.332  24.727  25.548  1.00  0.00     0.067 C 
ATOM      9  C   UNL A   1      33.186  23.865  26.126  1.00  0.00     0.027 C 
ATOM     10  C   UNL A   1      32.355  24.878  24.049  1.00  0.00     0.314 C 
ATOM     11  C   UNL A   1      33.314  22.587  25.371  1.00  0.00     0.037 A 
ATOM     12  O   UNL A   1      32.279  23.587  23.393  1.00  0.00    -0.474 OA
ATOM     13  C   UNL A   1      33.743  21.416  26.026  1.00  0.00     0.052 A 
ATOM     14  C   UNL A   1      32.753  22.493  24.081  1.00  0.00     0.148 A 
ATOM     15  Cl  UNL A   1      34.402  21.453  27.626  1.00  0.00    -0.084 Cl
ATOM     16  C   UNL A   1      33.540  20.166  25.439  1.00  0.00     0.023 A 
ATOM     17  C   UNL A   1      32.563  21.231  23.499  1.00  0.00     0.083 A 
ATOM     18  C   UNL A   1      32.935  20.073  24.185  1.00  0.00     0.026 A 
ATOM     19  Cl  UNL A   1      31.778  21.059  21.971  1.00  0.00    -0.080 Cl
BRANCH  10  20
ATOM     20  C   UNL A   1      33.569  25.689  23.564  1.00  0.00     0.429 C 
ATOM     21  F   UNL A   1      34.605  24.880  23.239  1.00  0.00    -0.167 F 
ATOM     22  F   UNL A   1      33.275  26.419  22.463  1.00  0.00    -0.167 F 
ATOM     23  F   UNL A   1      34.015  26.553  24.508  1.00  0.00    -0.167 F 
ENDBRANCH  10  20
ENDBRANCH   6   8
ENDBRANCH   3   4
ENDBRANCH   2   3
ENDBRANCH   1   2
BRANCH   1  24
ATOM     24  C   UNL A   1      32.654  30.234  26.403  1.00  0.00     0.116 C 
BRANCH  24  25
ATOM     25  N   UNL A   1      32.576  31.590  26.935  1.00  0.00    -0.352 N 
ATOM     26  C   UNL A   1      33.523  32.319  27.626  1.00  0.00     0.251 C 
ATOM     27  H   UNL A   1      31.722  32.053  26.777  1.00  0.00     0.163 HD
ATOM     28  O   UNL A   1      33.274  33.459  27.996  1.00  0.00    -0.269 OA
BRANCH  26  29
ATOM     29  C   UNL A   1      34.818  31.692  27.978  1.00  0.00     0.039 A 
ATOM     30  C   UNL A   1      35.929  32.519  28.172  1.00  0.00     0.014 A 
ATOM     31  C   UNL A   1      34.920  30.318  28.196  1.00  0.00     0.014 A 
ATOM     32  C   UNL A   1      37.102  31.983  28.713  1.00  0.00     0.010 A 
ATOM     33  C   UNL A   1      36.060  29.801  28.808  1.00  0.00     0.010 A 
ATOM     34  C   UNL A   1      37.150  30.633  29.101  1.00  0.00    -0.014 A 
BRANCH  34  35
ATOM     35  C   UNL A   1      38.297  30.107  29.886  1.00  0.00     0.031 A 
ATOM     36  C   UNL A   1      38.530  30.545  31.304  1.00  0.00     0.074 A 
ATOM     37  C   UNL A   1      39.185  29.290  29.286  1.00  0.00     0.049 A 
ATOM     38  N   UNL A   1      39.490  30.205  32.127  1.00  0.00    -0.248 NA
ATOM     39  C   UNL A   1      37.576  31.514  31.861  1.00  0.00     0.031 C 
ATOM     40  C   UNL A   1      39.122  28.853  27.889  1.00  0.00     0.029 A 
ATOM     41  N   UNL A   1      40.320  28.684  29.769  1.00  0.00    -0.354 N 
ATOM     42  C   UNL A   1      39.263  30.925  33.291  1.00  0.00     0.074 A 
ATOM     43  C   UNL A   1      38.106  31.762  33.049  1.00  0.00     0.031 C 
ATOM     44  C   UNL A   1      40.148  28.024  27.640  1.00  0.00     0.029 A 
ATOM     45  C   UNL A   1      40.957  27.891  28.847  1.00  0.00     0.049 A 
ATOM     46  H   UNL A   1      40.644  28.808  30.691  1.00  0.00     0.167 HD
ATOM     47  C   UNL A   1      39.942  30.877  34.462  1.00  0.00     0.037 A 
ATOM     48  C   UNL A   1      42.065  27.134  28.962  1.00  0.00     0.037 A 
ATOM     49  C   UNL A   1      41.078  30.028  34.711  1.00  0.00     0.049 A 
ATOM     50  C   UNL A   1      42.787  27.078  30.279  1.00  0.00     0.074 A 
ATOM     51  C   UNL A   1      41.779  29.846  35.890  1.00  0.00     0.029 A 
ATOM     52  N   UNL A   1      41.684  29.221  33.758  1.00  0.00    -0.354 N 
ATOM     53  N   UNL A   1      42.505  27.692  31.402  1.00  0.00    -0.248 NA
ATOM     54  C   UNL A   1      43.978  26.220  30.344  1.00  0.00     0.031 C 
ATOM     55  C   UNL A   1      42.834  28.959  35.642  1.00  0.00     0.029 A 
ATOM     56  C   UNL A   1      42.766  28.558  34.318  1.00  0.00     0.049 A 
ATOM     57  H   UNL A   1      41.390  29.133  32.823  1.00  0.00     0.167 HD
ATOM     58  C   UNL A   1      43.468  27.278  32.313  1.00  0.00     0.074 A 
ATOM     59  C   UNL A   1      44.332  26.349  31.615  1.00  0.00     0.031 C 
ATOM     60  C   UNL A   1      43.621  27.639  33.611  1.00  0.00     0.037 A 
BRANCH  47  61
ATOM     61  C   UNL A   1      39.463  31.767  35.571  1.00  0.00     0.064 A 
ATOM     62  C   UNL A   1      38.512  31.328  36.504  1.00  0.00     0.173 A 
ATOM     63  C   UNL A   1      39.975  33.065  35.715  1.00  0.00     0.173 A 
ATOM     64  F   UNL A   1      37.984  30.098  36.403  1.00  0.00    -0.203 F 
ATOM     65  C   UNL A   1      38.064  32.168  37.520  1.00  0.00     0.198 A 
ATOM     66  C   UNL A   1      39.545  33.893  36.750  1.00  0.00     0.198 A 
ATOM     67  F   UNL A   1      40.891  33.532  34.854  1.00  0.00    -0.203 F 
ATOM     68  F   UNL A   1      37.116  31.745  38.367  1.00  0.00    -0.200 F 
ATOM     69  C   UNL A   1      38.584  33.448  37.645  1.00  0.00     0.200 A 
ATOM     70  F   UNL A   1      40.055  35.125  36.876  1.00  0.00    -0.200 F 
ATOM     71  F   UNL A   1      38.153  34.255  38.624  1.00  0.00    -0.200 F 
ENDBRANCH  47  61
BRANCH  48  72
ATOM     72  C   UNL A   1      42.529  26.325  27.807  1.00  0.00     0.064 A 
ATOM     73  C   UNL A   1      43.503  26.826  26.931  1.00  0.00     0.173 A 
ATOM     74  C   UNL A   1      42.023  25.043  27.558  1.00  0.00     0.173 A 
ATOM     75  F   UNL A   1      44.001  28.057  27.118  1.00  0.00    -0.203 F 
ATOM     76  C   UNL A   1      43.945  26.077  25.842  1.00  0.00     0.198 A 
ATOM     77  C   UNL A   1      42.482  24.285  26.482  1.00  0.00     0.198 A 
ATOM     78  F   UNL A   1      41.093  24.518  28.370  1.00  0.00    -0.203 F 
ATOM     79  F   UNL A   1      44.852  26.593  25.001  1.00  0.00    -0.200 F 
ATOM     80  C   UNL A   1      43.439  24.805  25.622  1.00  0.00     0.200 A 
ATOM     81  F   UNL A   1      42.000  23.052  26.279  1.00  0.00    -0.200 F 
ATOM     82  F   UNL A   1      43.868  24.083  24.579  1.00  0.00    -0.200 F 
ENDBRANCH  48  72
BRANCH  60  83
ATOM     83  C   UNL A   1      44.757  27.013  34.363  1.00  0.00     0.064 A 
ATOM     84  C   UNL A   1      46.014  27.632  34.439  1.00  0.00     0.173 A 
ATOM     85  C   UNL A   1      44.581  25.794  35.035  1.00  0.00     0.173 A 
ATOM     86  F   UNL A   1      46.237  28.789  33.798  1.00  0.00    -0.203 F 
ATOM     87  C   UNL A   1      47.061  27.039  35.139  1.00  0.00     0.198 A 
ATOM     88  C   UNL A   1      45.623  25.218  35.756  1.00  0.00     0.198 A 
ATOM     89  F   UNL A   1      43.397  25.165  34.996  1.00  0.00    -0.203 F 
ATOM     90  F   UNL A   1      48.267  27.623  35.160  1.00  0.00    -0.200 F 
ATOM     91  C   UNL A   1      46.864  25.836  35.802  1.00  0.00     0.200 A 
ATOM     92  F   UNL A   1      45.428  24.060  36.404  1.00  0.00    -0.200 F 
ATOM     93  F   UNL A   1      47.872  25.268  36.478  1.00  0.00    -0.200 F 
ENDBRANCH  60  83
ENDBRANCH  34  35
ENDBRANCH  26  29
ENDBRANCH  24  25
ENDBRANCH   1  24
TORSDOF 12
ENDMDL
MODEL 3
REMARK VINA RESULT:     -13.3      1.303      2.175
REMARK SMILES O=C(NCCCCNC(=O)c1ccc(-c2c3nc(c(-c4c(F)c(F)c(F)c(F)c4F)c4ccc([nH]4)c(-c4c(F)c(F)c(F)c(F)c4F)c4nc(c(-c5c(F)c(F)c(F)c(F)c5F)c5ccc2[nH]5)C=C4)C=C3)cc1)C1=Cc2c(Cl)ccc(Cl)c2O[C@@H]1C(F)(F)F
REMARK SMILES IDX 6 1 5 2 4 3 3 4 1 5 2 6 74 8 75 9 85 10 76 11 84 12 77 13
REMARK SMILES IDX 83 14 78 15 79 16 81 17 80 18 82 19 86 20 87 21 88 22 89 23
REMARK SMILES IDX 7 24 8 25 9 26 10 28 11 29 12 30 73 31 13 32 72 33 14 34
REMARK SMILES IDX 15 35 16 36 66 37 17 38 71 39 65 40 67 41 18 42 70 43 64 44
REMARK SMILES IDX 63 45 19 47 51 48 31 49 50 50 32 51 35 52 49 53 68 54 33 55
REMARK SMILES IDX 34 56 48 58 69 59 36 60 20 61 21 62 29 63 22 64 23 65 27 66
REMARK SMILES IDX 30 67 24 68 25 69 28 70 26 71 52 72 53 73 61 74 54 75 55 76
REMARK SMILES IDX 59 77 62 78 56 79 57 80 60 81 58 82 37 83 38 84 46 85 39 86
REMARK SMILES IDX 40 87 44 88 47 89 41 90 42 91 45 92 43 93
REMARK H PARENT 3 7 8 27 67 46 35 57
REMARK Flexibility Score: inf
ROOT
ATOM      1  C   UNL A   1      31.662  29.830  25.150  1.00  0.00     0.023 C 
ENDROOT
BRANCH   1   2
ATOM      2  C   UNL A   1      32.498  29.316  23.985  1.00  0.00     0.023 C 
BRANCH   2   3
ATOM      3  C   UNL A   1      31.822  28.314  23.060  1.00  0.00     0.116 C 
BRANCH   3   4
ATOM      4  N   UNL A   1      32.719  27.481  22.280  1.00  0.00    -0.352 N 
ATOM      5  O   UNL A   1      33.794  25.611  21.657  1.00  0.00    -0.270 OA
ATOM      6  C   UNL A   1      33.164  26.210  22.526  1.00  0.00     0.251 C 
ATOM      7  H   UNL A   1      33.060  27.892  21.452  1.00  0.00     0.163 HD
BRANCH   6   8
ATOM      8  C   UNL A   1      32.827  25.479  23.784  1.00  0.00     0.067 C 
ATOM      9  C   UNL A   1      32.478  24.182  23.777  1.00  0.00     0.027 C 
ATOM     10  C   UNL A   1      33.516  26.041  25.001  1.00  0.00     0.314 C 
ATOM     11  C   UNL A   1      33.524  23.299  24.367  1.00  0.00     0.037 A 
ATOM     12  O   UNL A   1      34.646  25.218  25.388  1.00  0.00    -0.474 OA
ATOM     13  C   UNL A   1      33.577  21.935  24.022  1.00  0.00     0.052 A 
ATOM     14  C   UNL A   1      34.611  23.884  25.049  1.00  0.00     0.148 A 
ATOM     15  Cl  UNL A   1      32.300  21.162  23.147  1.00  0.00    -0.084 Cl
ATOM     16  C   UNL A   1      34.728  21.187  24.279  1.00  0.00     0.023 A 
ATOM     17  C   UNL A   1      35.756  23.120  25.311  1.00  0.00     0.083 A 
ATOM     18  C   UNL A   1      35.822  21.784  24.908  1.00  0.00     0.026 A 
ATOM     19  Cl  UNL A   1      37.153  23.822  26.043  1.00  0.00    -0.080 Cl
BRANCH  10  20
ATOM     20  C   UNL A   1      32.543  26.253  26.174  1.00  0.00     0.429 C 
ATOM     21  F   UNL A   1      32.373  25.114  26.887  1.00  0.00    -0.167 F 
ATOM     22  F   UNL A   1      32.994  27.195  27.034  1.00  0.00    -0.167 F 
ATOM     23  F   UNL A   1      31.317  26.650  25.754  1.00  0.00    -0.167 F 
ENDBRANCH  10  20
ENDBRANCH   6   8
ENDBRANCH   3   4
ENDBRANCH   2   3
ENDBRANCH   1   2
BRANCH   1  24
ATOM     24  C   UNL A   1      32.403  30.134  26.451  1.00  0.00     0.116 C 
BRANCH  24  25
ATOM     25  N   UNL A   1      32.345  31.524  26.888  1.00  0.00    -0.352 N 
ATOM     26  C   UNL A   1      33.317  32.297  27.492  1.00  0.00     0.251 C 
ATOM     27  H   UNL A   1      31.486  31.978  26.730  1.00  0.00     0.163 HD
ATOM     28  O   UNL A   1      33.082  33.461  27.789  1.00  0.00    -0.269 OA
BRANCH  26  29
ATOM     29  C   UNL A   1      34.624  31.693  27.839  1.00  0.00     0.039 A 
ATOM     30  C   UNL A   1      35.729  32.535  27.996  1.00  0.00     0.014 A 
ATOM     31  C   UNL A   1      34.743  30.325  28.091  1.00  0.00     0.014 A 
ATOM     32  C   UNL A   1      36.915  32.025  28.531  1.00  0.00     0.010 A 
ATOM     33  C   UNL A   1      35.897  29.835  28.698  1.00  0.00     0.010 A 
ATOM     34  C   UNL A   1      36.983  30.686  28.953  1.00  0.00    -0.014 A 
BRANCH  34  35
ATOM     35  C   UNL A   1      38.147  30.192  29.734  1.00  0.00     0.031 A 
ATOM     36  C   UNL A   1      38.381  30.647  31.146  1.00  0.00     0.074 A 
ATOM     37  C   UNL A   1      39.049  29.389  29.134  1.00  0.00     0.049 A 
ATOM     38  N   UNL A   1      39.355  30.335  31.965  1.00  0.00    -0.248 NA
ATOM     39  C   UNL A   1      37.410  31.599  31.703  1.00  0.00     0.031 C 
ATOM     40  C   UNL A   1      38.985  28.939  27.741  1.00  0.00     0.029 A 
ATOM     41  N   UNL A   1      40.200  28.813  29.613  1.00  0.00    -0.354 N 
ATOM     42  C   UNL A   1      39.120  31.059  33.124  1.00  0.00     0.074 A 
ATOM     43  C   UNL A   1      37.944  31.868  32.885  1.00  0.00     0.031 C 
ATOM     44  C   UNL A   1      40.026  28.131  27.491  1.00  0.00     0.029 A 
ATOM     45  C   UNL A   1      40.848  28.026  28.692  1.00  0.00     0.049 A 
ATOM     46  H   UNL A   1      40.529  28.951  30.531  1.00  0.00     0.167 HD
ATOM     47  C   UNL A   1      39.809  31.036  34.291  1.00  0.00     0.037 A 
ATOM     48  C   UNL A   1      41.973  27.295  28.806  1.00  0.00     0.037 A 
ATOM     49  C   UNL A   1      40.966  30.214  34.538  1.00  0.00     0.049 A 
ATOM     50  C   UNL A   1      42.705  27.266  30.118  1.00  0.00     0.074 A 
ATOM     51  C   UNL A   1      41.679  30.057  35.713  1.00  0.00     0.029 A 
ATOM     52  N   UNL A   1      41.581  29.413  33.587  1.00  0.00    -0.354 N 
ATOM     53  N   UNL A   1      42.419  27.882  31.238  1.00  0.00    -0.248 NA
ATOM     54  C   UNL A   1      43.915  26.434  30.180  1.00  0.00     0.031 C 
ATOM     55  C   UNL A   1      42.752  29.192  35.464  1.00  0.00     0.029 A 
ATOM     56  C   UNL A   1      42.682  28.779  34.144  1.00  0.00     0.049 A 
ATOM     57  H   UNL A   1      41.282  29.311  32.655  1.00  0.00     0.167 HD
ATOM     58  C   UNL A   1      43.397  27.498  32.145  1.00  0.00     0.074 A 
ATOM     59  C   UNL A   1      44.276  26.581  31.448  1.00  0.00     0.031 C 
ATOM     60  C   UNL A   1      43.552  27.872  33.438  1.00  0.00     0.037 A 
BRANCH  47  61
ATOM     61  C   UNL A   1      39.319  31.925  35.396  1.00  0.00     0.064 A 
ATOM     62  C   UNL A   1      39.686  33.277  35.465  1.00  0.00     0.173 A 
ATOM     63  C   UNL A   1      38.458  31.425  36.384  1.00  0.00     0.173 A 
ATOM     64  F   UNL A   1      40.516  33.800  34.550  1.00  0.00    -0.203 F 
ATOM     65  C   UNL A   1      39.237  34.088  36.504  1.00  0.00     0.198 A 
ATOM     66  C   UNL A   1      37.988  32.248  37.406  1.00  0.00     0.198 A 
ATOM     67  F   UNL A   1      38.072  30.141  36.361  1.00  0.00    -0.203 F 
ATOM     68  F   UNL A   1      39.642  35.363  36.579  1.00  0.00    -0.200 F 
ATOM     69  C   UNL A   1      38.384  33.575  37.470  1.00  0.00     0.200 A 
ATOM     70  F   UNL A   1      37.157  31.753  38.333  1.00  0.00    -0.200 F 
ATOM     71  F   UNL A   1      37.952  34.357  38.468  1.00  0.00    -0.200 F 
ENDBRANCH  47  61
BRANCH  48  72
ATOM     72  C   UNL A   1      42.446  26.487  27.653  1.00  0.00     0.064 A 
ATOM     73  C   UNL A   1      41.925  25.206  27.418  1.00  0.00     0.173 A 
ATOM     74  C   UNL A   1      43.412  26.974  26.763  1.00  0.00     0.173 A 
ATOM     75  F   UNL A   1      41.012  24.692  28.255  1.00  0.00    -0.203 F 
ATOM     76  C   UNL A   1      42.362  24.438  26.341  1.00  0.00     0.198 A 
ATOM     77  C   UNL A   1      43.832  26.214  25.673  1.00  0.00     0.198 A 
ATOM     78  F   UNL A   1      43.937  28.194  26.943  1.00  0.00    -0.203 F 
ATOM     79  F   UNL A   1      41.873  23.204  26.159  1.00  0.00    -0.200 F 
ATOM     80  C   UNL A   1      43.311  24.945  25.466  1.00  0.00     0.200 A 
ATOM     81  F   UNL A   1      44.741  26.711  24.822  1.00  0.00    -0.200 F 
ATOM     82  F   UNL A   1      43.727  24.208  24.427  1.00  0.00    -0.200 F 
ENDBRANCH  48  72
BRANCH  60  83
ATOM     83  C   UNL A   1      44.707  27.278  34.187  1.00  0.00     0.064 A 
ATOM     84  C   UNL A   1      44.592  26.051  34.857  1.00  0.00     0.173 A 
ATOM     85  C   UNL A   1      45.949  27.930  34.214  1.00  0.00     0.173 A 
ATOM     86  F   UNL A   1      43.420  25.399  34.875  1.00  0.00    -0.203 F 
ATOM     87  C   UNL A   1      45.672  25.512  35.550  1.00  0.00     0.198 A 
ATOM     88  C   UNL A   1      47.034  27.374  34.886  1.00  0.00     0.198 A 
ATOM     89  F   UNL A   1      46.110  29.104  33.585  1.00  0.00    -0.203 F 
ATOM     90  F   UNL A   1      45.528  24.362  36.223  1.00  0.00    -0.200 F 
ATOM     91  C   UNL A   1      46.894  26.169  35.559  1.00  0.00     0.200 A 
ATOM     92  F   UNL A   1      48.216  28.007  34.885  1.00  0.00    -0.200 F 
ATOM     93  F   UNL A   1      47.933  25.647  36.224  1.00  0.00    -0.200 F 
ENDBRANCH  60  83
ENDBRANCH  34  35
ENDBRANCH  26  29
ENDBRANCH  24  25
ENDBRANCH   1  24
TORSDOF 12
ENDMDL
