MODEL 1
REMARK VINA RESULT:     -12.8      0.000      0.000
REMARK SMILES COc1ccc(-c2ccc(S(=O)(=O)NC(C)(C)C)cc2)c(C(=O)NCCCCNC(=O)c2ccc(-c3c4nc(c(-c5c(F)c(F)c(F)c(F)c5F)c5ccc([nH]5)c(-c5c(F)c(F)c(F)c(F)c5F)c5nc(c(-c6c(F)c(F)c(F)c(F)c6F)c6ccc3[nH]6)C=C5)C=C4)cc2)c1
REMARK SMILES IDX 25 1 24 2 22 3 23 4 21 6 3 7 4 8 95 9 5 10 6 11 2 12 1 13
REMARK SMILES IDX 7 14 8 15 20 16 9 17 19 18 10 19 11 20 12 21 13 22 14 23
REMARK SMILES IDX 15 25 16 26 17 27 18 28 26 29 27 30 28 31 29 32 30 33 31 35
REMARK SMILES IDX 32 36 33 37 94 38 34 39 93 40 35 41 36 42 37 43 87 44 38 45
REMARK SMILES IDX 92 46 86 47 88 48 39 49 91 50 85 51 84 52 40 54 72 55 52 56
REMARK SMILES IDX 71 57 53 58 56 59 70 60 89 61 54 62 55 63 69 65 90 66 57 67
REMARK SMILES IDX 41 68 42 69 50 70 43 71 44 72 48 73 51 74 45 75 46 76 49 77
REMARK SMILES IDX 47 78 73 79 74 80 82 81 75 82 76 83 80 84 83 85 77 86 78 87
REMARK SMILES IDX 81 88 79 89 58 90 59 91 67 92 60 93 61 94 65 95 68 96 62 97
REMARK SMILES IDX 63 98 66 99 64 100
REMARK H PARENT 24 5 14 24 29 34 88 53 56 64
REMARK Flexibility Score: inf
ROOT
ATOM      1  C   UNL A   1      31.841  29.615  25.825  1.00  0.00     0.116 C 
ENDROOT
BRANCH   1   2
ATOM      2  N   UNL A   1      32.499  29.073  24.645  1.00  0.00    -0.352 N 
ATOM      3  C   UNL A   1      31.977  28.748  23.404  1.00  0.00     0.252 C 
ATOM      4  O   UNL A   1      32.759  28.504  22.490  1.00  0.00    -0.269 OA
ATOM      5  H   UNL A   1      33.466  28.913  24.745  1.00  0.00     0.163 HD
BRANCH   3   6
ATOM      6  C   UNL A   1      30.503  28.665  23.199  1.00  0.00     0.051 A 
ATOM      7  C   UNL A   1      28.491  29.863  22.504  1.00  0.00     0.119 A 
ATOM      8  C   UNL A   1      27.717  28.827  23.005  1.00  0.00     0.047 A 
ATOM      9  C   UNL A   1      29.878  29.754  22.556  1.00  0.00     0.060 A 
ATOM     10  C   UNL A   1      28.328  27.688  23.533  1.00  0.00     0.013 A 
ATOM     11  C   UNL A   1      29.734  27.555  23.614  1.00  0.00    -0.005 A 
BRANCH   7  12
ATOM     12  O   UNL A   1      27.795  30.923  21.999  1.00  0.00    -0.497 OA
ATOM     13  C   UNL A   1      27.994  31.210  20.619  1.00  0.00     0.278 C 
ENDBRANCH   7  12
BRANCH  11  14
ATOM     14  C   UNL A   1      30.263  26.243  24.066  1.00  0.00    -0.018 A 
ATOM     15  C   UNL A   1      30.333  25.976  25.451  1.00  0.00     0.010 A 
ATOM     16  C   UNL A   1      30.735  25.252  23.193  1.00  0.00     0.010 A 
ATOM     17  C   UNL A   1      30.905  24.804  25.948  1.00  0.00     0.022 A 
ATOM     18  C   UNL A   1      31.264  24.046  23.682  1.00  0.00     0.022 A 
ATOM     19  C   UNL A   1      31.383  23.846  25.057  1.00  0.00     0.082 A 
BRANCH  19  20
ATOM     20  S   UNL A   1      32.196  22.423  25.727  1.00  0.00     0.241 S 
ATOM     21  O   UNL A   1      32.567  22.718  27.091  1.00  0.00    -0.207 OA
ATOM     22  O   UNL A   1      31.360  21.286  25.406  1.00  0.00    -0.207 OA
BRANCH  20  23
ATOM     23  N   UNL A   1      33.589  22.212  24.820  1.00  0.00    -0.206 NA
ATOM     24  H   UNL A   1      33.307  22.403  23.858  1.00  0.00     0.141 HD
BRANCH  23  25
ATOM     25  C   UNL A   1      34.878  22.917  24.988  1.00  0.00     0.025 C 
ATOM     26  C   UNL A   1      35.745  22.305  26.090  1.00  0.00     0.028 C 
ATOM     27  C   UNL A   1      35.621  22.760  23.646  1.00  0.00     0.028 C 
ATOM     28  C   UNL A   1      34.667  24.409  25.249  1.00  0.00     0.028 C 
ENDBRANCH  23  25
ENDBRANCH  20  23
ENDBRANCH  19  20
ENDBRANCH  11  14
ENDBRANCH   3   6
ENDBRANCH   1   2
BRANCH   1  29
ATOM     29  C   UNL A   1      31.286  31.028  25.691  1.00  0.00     0.023 C 
BRANCH  29  30
ATOM     30  C   UNL A   1      31.322  31.919  26.927  1.00  0.00     0.023 C 
BRANCH  30  31
ATOM     31  C   UNL A   1      32.572  32.764  27.136  1.00  0.00     0.116 C 
BRANCH  31  32
ATOM     32  N   UNL A   1      32.310  34.121  27.588  1.00  0.00    -0.352 N 
ATOM     33  C   UNL A   1      32.959  34.886  28.531  1.00  0.00     0.251 C 
ATOM     34  H   UNL A   1      31.546  34.562  27.151  1.00  0.00     0.163 HD
ATOM     35  O   UNL A   1      32.540  36.010  28.792  1.00  0.00    -0.269 OA
BRANCH  33  36
ATOM     36  C   UNL A   1      34.121  34.348  29.274  1.00  0.00     0.039 A 
ATOM     37  C   UNL A   1      33.885  33.624  30.447  1.00  0.00     0.014 A 
ATOM     38  C   UNL A   1      35.430  34.532  28.824  1.00  0.00     0.014 A 
ATOM     39  C   UNL A   1      34.947  33.003  31.110  1.00  0.00     0.010 A 
ATOM     40  C   UNL A   1      36.477  33.847  29.437  1.00  0.00     0.010 A 
ATOM     41  C   UNL A   1      36.245  33.065  30.579  1.00  0.00    -0.014 A 
BRANCH  41  42
ATOM     42  C   UNL A   1      37.368  32.304  31.187  1.00  0.00     0.031 A 
ATOM     43  C   UNL A   1      37.880  32.665  32.552  1.00  0.00     0.074 A 
ATOM     44  C   UNL A   1      37.988  31.347  30.468  1.00  0.00     0.049 A 
ATOM     45  N   UNL A   1      38.911  32.190  33.203  1.00  0.00    -0.248 NA
ATOM     46  C   UNL A   1      37.153  33.725  33.267  1.00  0.00     0.031 C 
ATOM     47  C   UNL A   1      37.631  30.944  29.107  1.00  0.00     0.029 A 
ATOM     48  N   UNL A   1      39.065  30.551  30.778  1.00  0.00    -0.354 N 
ATOM     49  C   UNL A   1      38.970  32.906  34.391  1.00  0.00     0.074 A 
ATOM     50  C   UNL A   1      37.899  33.880  34.350  1.00  0.00     0.031 C 
ATOM     51  C   UNL A   1      38.466  29.974  28.703  1.00  0.00     0.029 A 
ATOM     52  C   UNL A   1      39.435  29.707  29.761  1.00  0.00     0.049 A 
ATOM     53  H   UNL A   1      39.527  30.585  31.647  1.00  0.00     0.167 HD
ATOM     54  C   UNL A   1      39.824  32.752  35.431  1.00  0.00     0.037 A 
ATOM     55  C   UNL A   1      40.448  28.822  29.685  1.00  0.00     0.037 A 
ATOM     56  C   UNL A   1      40.869  31.764  35.484  1.00  0.00     0.049 A 
ATOM     57  C   UNL A   1      41.363  28.645  30.864  1.00  0.00     0.074 A 
ATOM     58  C   UNL A   1      41.744  31.486  36.520  1.00  0.00     0.029 A 
ATOM     59  N   UNL A   1      41.180  30.889  34.454  1.00  0.00    -0.354 N 
ATOM     60  N   UNL A   1      41.367  29.282  32.008  1.00  0.00    -0.248 NA
ATOM     61  C   UNL A   1      42.408  27.620  30.744  1.00  0.00     0.031 C 
ATOM     62  C   UNL A   1      42.605  30.464  36.105  1.00  0.00     0.029 A 
ATOM     63  C   UNL A   1      42.242  30.079  34.825  1.00  0.00     0.049 A 
ATOM     64  H   UNL A   1      40.715  30.849  33.587  1.00  0.00     0.167 HD
ATOM     65  C   UNL A   1      42.399  28.726  32.752  1.00  0.00     0.074 A 
ATOM     66  C   UNL A   1      42.990  27.688  31.934  1.00  0.00     0.031 C 
ATOM     67  C   UNL A   1      42.819  29.049  33.999  1.00  0.00     0.037 A 
BRANCH  54  68
ATOM     68  C   UNL A   1      39.653  33.675  36.601  1.00  0.00     0.064 A 
ATOM     69  C   UNL A   1      38.851  33.328  37.698  1.00  0.00     0.173 A 
ATOM     70  C   UNL A   1      40.306  34.916  36.632  1.00  0.00     0.173 A 
ATOM     71  F   UNL A   1      38.195  32.157  37.710  1.00  0.00    -0.203 F 
ATOM     72  C   UNL A   1      38.679  34.203  38.766  1.00  0.00     0.198 A 
ATOM     73  C   UNL A   1      40.155  35.777  37.716  1.00  0.00     0.198 A 
ATOM     74  F   UNL A   1      41.090  35.295  35.611  1.00  0.00    -0.203 F 
ATOM     75  F   UNL A   1      37.863  33.873  39.777  1.00  0.00    -0.200 F 
ATOM     76  C   UNL A   1      39.335  35.425  38.778  1.00  0.00     0.200 A 
ATOM     77  F   UNL A   1      40.798  36.954  37.731  1.00  0.00    -0.200 F 
ATOM     78  F   UNL A   1      39.168  36.267  39.806  1.00  0.00    -0.200 F 
ENDBRANCH  54  68
BRANCH  55  79
ATOM     79  C   UNL A   1      40.629  28.019  28.450  1.00  0.00     0.064 A 
ATOM     80  C   UNL A   1      41.430  28.486  27.399  1.00  0.00     0.173 A 
ATOM     81  C   UNL A   1      40.026  26.762  28.304  1.00  0.00     0.173 A 
ATOM     82  F   UNL A   1      42.012  29.692  27.488  1.00  0.00    -0.203 F 
ATOM     83  C   UNL A   1      41.612  27.732  26.242  1.00  0.00     0.198 A 
ATOM     84  C   UNL A   1      40.227  25.998  27.155  1.00  0.00     0.198 A 
ATOM     85  F   UNL A   1      39.256  26.268  29.285  1.00  0.00    -0.203 F 
ATOM     86  F   UNL A   1      42.356  28.217  25.239  1.00  0.00    -0.200 F 
ATOM     87  C   UNL A   1      41.015  26.486  26.124  1.00  0.00     0.200 A 
ATOM     88  F   UNL A   1      39.659  24.789  27.050  1.00  0.00    -0.200 F 
ATOM     89  F   UNL A   1      41.196  25.757  25.015  1.00  0.00    -0.200 F 
ENDBRANCH  55  79
BRANCH  67  90
ATOM     90  C   UNL A   1      43.960  28.258  34.565  1.00  0.00     0.064 A 
ATOM     91  C   UNL A   1      45.288  28.688  34.429  1.00  0.00     0.173 A 
ATOM     92  C   UNL A   1      43.718  27.079  35.285  1.00  0.00     0.173 A 
ATOM     93  F   UNL A   1      45.568  29.800  33.734  1.00  0.00    -0.203 F 
ATOM     94  C   UNL A   1      46.335  27.954  34.979  1.00  0.00     0.198 A 
ATOM     95  C   UNL A   1      44.767  26.361  35.854  1.00  0.00     0.198 A 
ATOM     96  F   UNL A   1      42.465  26.629  35.445  1.00  0.00    -0.203 F 
ATOM     97  F   UNL A   1      47.599  28.362  34.804  1.00  0.00    -0.200 F 
ATOM     98  C   UNL A   1      46.073  26.796  35.696  1.00  0.00     0.200 A 
ATOM     99  F   UNL A   1      44.512  25.247  36.554  1.00  0.00    -0.200 F 
ATOM    100  F   UNL A   1      47.083  26.095  36.230  1.00  0.00    -0.200 F 
ENDBRANCH  67  90
ENDBRANCH  41  42
ENDBRANCH  33  36
ENDBRANCH  31  32
ENDBRANCH  30  31
ENDBRANCH  29  30
ENDBRANCH   1  29
TORSDOF 16
ENDMDL
MODEL 2
REMARK VINA RESULT:     -12.7      5.315     10.139
REMARK SMILES COc1ccc(-c2ccc(S(=O)(=O)NC(C)(C)C)cc2)c(C(=O)NCCCCNC(=O)c2ccc(-c3c4nc(c(-c5c(F)c(F)c(F)c(F)c5F)c5ccc([nH]5)c(-c5c(F)c(F)c(F)c(F)c5F)c5nc(c(-c6c(F)c(F)c(F)c(F)c6F)c6ccc3[nH]6)C=C5)C=C4)cc2)c1
REMARK SMILES IDX 25 1 24 2 22 3 23 4 21 6 3 7 4 8 95 9 5 10 6 11 2 12 1 13
REMARK SMILES IDX 7 14 8 15 20 16 9 17 19 18 10 19 11 20 12 21 13 22 14 23
REMARK SMILES IDX 15 25 16 26 17 27 18 28 26 29 27 30 28 31 29 32 30 33 31 35
REMARK SMILES IDX 32 36 33 37 94 38 34 39 93 40 35 41 36 42 37 43 87 44 38 45
REMARK SMILES IDX 92 46 86 47 88 48 39 49 91 50 85 51 84 52 40 54 72 55 52 56
REMARK SMILES IDX 71 57 53 58 56 59 70 60 89 61 54 62 55 63 69 65 90 66 57 67
REMARK SMILES IDX 41 68 42 69 50 70 43 71 44 72 48 73 51 74 45 75 46 76 49 77
REMARK SMILES IDX 47 78 73 79 74 80 82 81 75 82 76 83 80 84 83 85 77 86 78 87
REMARK SMILES IDX 81 88 79 89 58 90 59 91 67 92 60 93 61 94 65 95 68 96 62 97
REMARK SMILES IDX 63 98 66 99 64 100
REMARK H PARENT 24 5 14 24 29 34 88 53 56 64
REMARK Flexibility Score: inf
ROOT
ATOM      1  C   UNL A   1      36.412  21.808  25.403  1.00  0.00     0.116 C 
ENDROOT
BRANCH   1   2
ATOM      2  N   UNL A   1      35.476  21.992  26.503  1.00  0.00    -0.352 N 
ATOM      3  C   UNL A   1      34.194  21.498  26.674  1.00  0.00     0.252 C 
ATOM      4  O   UNL A   1      33.670  21.609  27.778  1.00  0.00    -0.269 OA
ATOM      5  H   UNL A   1      35.807  22.556  27.239  1.00  0.00     0.163 HD
BRANCH   3   6
ATOM      6  C   UNL A   1      33.462  20.877  25.534  1.00  0.00     0.051 A 
ATOM      7  C   UNL A   1      32.697  18.791  24.521  1.00  0.00     0.119 A 
ATOM      8  C   UNL A   1      32.377  19.483  23.364  1.00  0.00     0.047 A 
ATOM      9  C   UNL A   1      33.188  19.496  25.616  1.00  0.00     0.060 A 
ATOM     10  C   UNL A   1      32.528  20.870  23.314  1.00  0.00     0.013 A 
ATOM     11  C   UNL A   1      33.040  21.613  24.404  1.00  0.00    -0.005 A 
BRANCH   7  12
ATOM     12  O   UNL A   1      32.499  17.441  24.469  1.00  0.00    -0.497 OA
ATOM     13  C   UNL A   1      33.506  16.679  23.810  1.00  0.00     0.278 C 
ENDBRANCH   7  12
BRANCH  11  14
ATOM     14  C   UNL A   1      33.023  23.093  24.279  1.00  0.00    -0.018 A 
ATOM     15  C   UNL A   1      32.055  23.827  25.000  1.00  0.00     0.010 A 
ATOM     16  C   UNL A   1      33.896  23.816  23.453  1.00  0.00     0.010 A 
ATOM     17  C   UNL A   1      31.921  25.209  24.858  1.00  0.00     0.022 A 
ATOM     18  C   UNL A   1      33.804  25.212  23.344  1.00  0.00     0.022 A 
ATOM     19  C   UNL A   1      32.791  25.896  24.015  1.00  0.00     0.082 A 
BRANCH  19  20
ATOM     20  S   UNL A   1      32.521  27.631  23.781  1.00  0.00     0.241 S 
ATOM     21  O   UNL A   1      33.809  28.272  23.655  1.00  0.00    -0.207 OA
ATOM     22  O   UNL A   1      31.518  27.752  22.744  1.00  0.00    -0.207 OA
BRANCH  20  23
ATOM     23  N   UNL A   1      31.776  28.180  25.177  1.00  0.00    -0.206 NA
ATOM     24  H   UNL A   1      31.189  27.404  25.484  1.00  0.00     0.141 HD
BRANCH  23  25
ATOM     25  C   UNL A   1      32.437  28.669  26.407  1.00  0.00     0.025 C 
ATOM     26  C   UNL A   1      33.861  28.131  26.564  1.00  0.00     0.028 C 
ATOM     27  C   UNL A   1      32.512  30.202  26.262  1.00  0.00     0.028 C 
ATOM     28  C   UNL A   1      31.609  28.344  27.651  1.00  0.00     0.028 C 
ENDBRANCH  23  25
ENDBRANCH  20  23
ENDBRANCH  19  20
ENDBRANCH  11  14
ENDBRANCH   3   6
ENDBRANCH   1   2
BRANCH   1  29
ATOM     29  C   UNL A   1      36.711  20.364  25.015  1.00  0.00     0.023 C 
BRANCH  29  30
ATOM     30  C   UNL A   1      38.151  20.015  24.660  1.00  0.00     0.023 C 
BRANCH  30  31
ATOM     31  C   UNL A   1      39.196  20.183  25.757  1.00  0.00     0.116 C 
BRANCH  31  32
ATOM     32  N   UNL A   1      40.167  19.103  25.831  1.00  0.00    -0.352 N 
ATOM     33  C   UNL A   1      41.505  19.131  26.152  1.00  0.00     0.251 C 
ATOM     34  H   UNL A   1      39.810  18.211  25.618  1.00  0.00     0.163 HD
ATOM     35  O   UNL A   1      42.159  18.093  26.113  1.00  0.00    -0.269 OA
BRANCH  33  36
ATOM     36  C   UNL A   1      42.178  20.406  26.488  1.00  0.00     0.039 A 
ATOM     37  C   UNL A   1      42.774  21.138  25.456  1.00  0.00     0.014 A 
ATOM     38  C   UNL A   1      42.215  20.895  27.796  1.00  0.00     0.014 A 
ATOM     39  C   UNL A   1      43.315  22.400  25.716  1.00  0.00     0.010 A 
ATOM     40  C   UNL A   1      42.679  22.186  28.040  1.00  0.00     0.010 A 
ATOM     41  C   UNL A   1      43.223  22.957  27.001  1.00  0.00    -0.014 A 
BRANCH  41  42
ATOM     42  C   UNL A   1      43.667  24.349  27.276  1.00  0.00     0.031 A 
ATOM     43  C   UNL A   1      42.689  25.373  27.776  1.00  0.00     0.074 A 
ATOM     44  C   UNL A   1      44.932  24.712  26.987  1.00  0.00     0.049 A 
ATOM     45  N   UNL A   1      42.860  26.656  27.973  1.00  0.00    -0.248 NA
ATOM     46  C   UNL A   1      41.326  24.897  28.060  1.00  0.00     0.031 C 
ATOM     47  C   UNL A   1      45.962  23.830  26.437  1.00  0.00     0.029 A 
ATOM     48  N   UNL A   1      45.561  25.929  27.097  1.00  0.00    -0.354 N 
ATOM     49  C   UNL A   1      41.627  27.143  28.383  1.00  0.00     0.074 A 
ATOM     50  C   UNL A   1      40.704  26.027  28.360  1.00  0.00     0.031 C 
ATOM     51  C   UNL A   1      47.094  24.530  26.266  1.00  0.00     0.029 A 
ATOM     52  C   UNL A   1      46.863  25.916  26.664  1.00  0.00     0.049 A 
ATOM     53  H   UNL A   1      45.119  26.734  27.452  1.00  0.00     0.167 HD
ATOM     54  C   UNL A   1      41.297  28.400  28.764  1.00  0.00     0.037 A 
ATOM     55  C   UNL A   1      47.769  26.910  26.587  1.00  0.00     0.037 A 
ATOM     56  C   UNL A   1      42.221  29.502  28.815  1.00  0.00     0.049 A 
ATOM     57  C   UNL A   1      47.390  28.290  27.047  1.00  0.00     0.074 A 
ATOM     58  C   UNL A   1      41.998  30.797  29.250  1.00  0.00     0.029 A 
ATOM     59  N   UNL A   1      43.548  29.437  28.418  1.00  0.00    -0.354 N 
ATOM     60  N   UNL A   1      46.238  28.723  27.495  1.00  0.00    -0.248 NA
ATOM     61  C   UNL A   1      48.440  29.317  26.998  1.00  0.00     0.031 C 
ATOM     62  C   UNL A   1      43.183  31.524  29.087  1.00  0.00     0.029 A 
ATOM     63  C   UNL A   1      44.154  30.672  28.586  1.00  0.00     0.049 A 
ATOM     64  H   UNL A   1      43.994  28.631  28.069  1.00  0.00     0.167 HD
ATOM     65  C   UNL A   1      46.426  30.064  27.799  1.00  0.00     0.074 A 
ATOM     66  C   UNL A   1      47.810  30.371  27.499  1.00  0.00     0.031 C 
ATOM     67  C   UNL A   1      45.532  30.961  28.283  1.00  0.00     0.037 A 
BRANCH  54  68
ATOM     68  C   UNL A   1      39.871  28.643  29.163  1.00  0.00     0.064 A 
ATOM     69  C   UNL A   1      39.429  28.420  30.476  1.00  0.00     0.173 A 
ATOM     70  C   UNL A   1      38.939  29.117  28.228  1.00  0.00     0.173 A 
ATOM     71  F   UNL A   1      40.279  27.955  31.404  1.00  0.00    -0.203 F 
ATOM     72  C   UNL A   1      38.098  28.625  30.829  1.00  0.00     0.198 A 
ATOM     73  C   UNL A   1      37.615  29.349  28.592  1.00  0.00     0.198 A 
ATOM     74  F   UNL A   1      39.311  29.353  26.960  1.00  0.00    -0.203 F 
ATOM     75  F   UNL A   1      37.687  28.350  32.074  1.00  0.00    -0.200 F 
ATOM     76  C   UNL A   1      37.193  29.094  29.889  1.00  0.00     0.200 A 
ATOM     77  F   UNL A   1      36.743  29.811  27.685  1.00  0.00    -0.200 F 
ATOM     78  F   UNL A   1      35.912  29.289  30.229  1.00  0.00    -0.200 F 
ENDBRANCH  54  68
BRANCH  55  79
ATOM     79  C   UNL A   1      49.131  26.623  26.074  1.00  0.00     0.064 A 
ATOM     80  C   UNL A   1      49.483  26.935  24.753  1.00  0.00     0.173 A 
ATOM     81  C   UNL A   1      50.114  26.054  26.895  1.00  0.00     0.173 A 
ATOM     82  F   UNL A   1      48.570  27.464  23.925  1.00  0.00    -0.203 F 
ATOM     83  C   UNL A   1      50.764  26.677  24.270  1.00  0.00     0.198 A 
ATOM     84  C   UNL A   1      51.402  25.817  26.418  1.00  0.00     0.198 A 
ATOM     85  F   UNL A   1      49.829  25.744  28.169  1.00  0.00    -0.203 F 
ATOM     86  F   UNL A   1      51.064  26.955  22.994  1.00  0.00    -0.200 F 
ATOM     87  C   UNL A   1      51.724  26.124  25.104  1.00  0.00     0.200 A 
ATOM     88  F   UNL A   1      52.330  25.295  27.230  1.00  0.00    -0.200 F 
ATOM     89  F   UNL A   1      52.958  25.884  24.642  1.00  0.00    -0.200 F 
ENDBRANCH  55  79
BRANCH  67  90
ATOM     90  C   UNL A   1      46.026  32.353  28.536  1.00  0.00     0.064 A 
ATOM     91  C   UNL A   1      46.594  32.717  29.766  1.00  0.00     0.173 A 
ATOM     92  C   UNL A   1      45.967  33.323  27.524  1.00  0.00     0.173 A 
ATOM     93  F   UNL A   1      46.656  31.829  30.768  1.00  0.00    -0.203 F 
ATOM     94  C   UNL A   1      47.070  34.008  29.978  1.00  0.00     0.198 A 
ATOM     95  C   UNL A   1      46.465  34.607  27.733  1.00  0.00     0.198 A 
ATOM     96  F   UNL A   1      45.436  33.022  26.330  1.00  0.00    -0.203 F 
ATOM     97  F   UNL A   1      47.573  34.345  31.173  1.00  0.00    -0.200 F 
ATOM     98  C   UNL A   1      47.010  34.949  28.960  1.00  0.00     0.200 A 
ATOM     99  F   UNL A   1      46.416  35.511  26.746  1.00  0.00    -0.200 F 
ATOM    100  F   UNL A   1      47.474  36.190  29.166  1.00  0.00    -0.200 F 
ENDBRANCH  67  90
ENDBRANCH  41  42
ENDBRANCH  33  36
ENDBRANCH  31  32
ENDBRANCH  30  31
ENDBRANCH  29  30
ENDBRANCH   1  29
TORSDOF 16
ENDMDL
MODEL 3
REMARK VINA RESULT:     -12.7      1.261      7.329
REMARK SMILES COc1ccc(-c2ccc(S(=O)(=O)NC(C)(C)C)cc2)c(C(=O)NCCCCNC(=O)c2ccc(-c3c4nc(c(-c5c(F)c(F)c(F)c(F)c5F)c5ccc([nH]5)c(-c5c(F)c(F)c(F)c(F)c5F)c5nc(c(-c6c(F)c(F)c(F)c(F)c6F)c6ccc3[nH]6)C=C5)C=C4)cc2)c1
REMARK SMILES IDX 25 1 24 2 22 3 23 4 21 6 3 7 4 8 95 9 5 10 6 11 2 12 1 13
REMARK SMILES IDX 7 14 8 15 20 16 9 17 19 18 10 19 11 20 12 21 13 22 14 23
REMARK SMILES IDX 15 25 16 26 17 27 18 28 26 29 27 30 28 31 29 32 30 33 31 35
REMARK SMILES IDX 32 36 33 37 94 38 34 39 93 40 35 41 36 42 37 43 87 44 38 45
REMARK SMILES IDX 92 46 86 47 88 48 39 49 91 50 85 51 84 52 40 54 72 55 52 56
REMARK SMILES IDX 71 57 53 58 56 59 70 60 89 61 54 62 55 63 69 65 90 66 57 67
REMARK SMILES IDX 41 68 42 69 50 70 43 71 44 72 48 73 51 74 45 75 46 76 49 77
REMARK SMILES IDX 47 78 73 79 74 80 82 81 75 82 76 83 80 84 83 85 77 86 78 87
REMARK SMILES IDX 81 88 79 89 58 90 59 91 67 92 60 93 61 94 65 95 68 96 62 97
REMARK SMILES IDX 63 98 66 99 64 100
REMARK H PARENT 24 5 14 24 29 34 88 53 56 64
REMARK Flexibility Score: inf
ROOT
ATOM      1  C   UNL A   1      32.966  29.708  25.874  1.00  0.00     0.116 C 
ENDROOT
BRANCH   1   2
ATOM      2  N   UNL A   1      33.645  29.424  24.619  1.00  0.00    -0.352 N 
ATOM      3  C   UNL A   1      33.156  28.875  23.445  1.00  0.00     0.252 C 
ATOM      4  O   UNL A   1      33.860  28.924  22.441  1.00  0.00    -0.269 OA
ATOM      5  H   UNL A   1      34.601  29.659  24.601  1.00  0.00     0.163 HD
BRANCH   3   6
ATOM      6  C   UNL A   1      31.820  28.214  23.416  1.00  0.00     0.051 A 
ATOM      7  C   UNL A   1      29.421  28.524  23.079  1.00  0.00     0.119 A 
ATOM      8  C   UNL A   1      29.198  27.250  23.580  1.00  0.00     0.047 A 
ATOM      9  C   UNL A   1      30.730  28.979  22.950  1.00  0.00     0.060 A 
ATOM     10  C   UNL A   1      30.278  26.437  23.930  1.00  0.00     0.013 A 
ATOM     11  C   UNL A   1      31.619  26.877  23.827  1.00  0.00    -0.005 A 
BRANCH   7  12
ATOM     12  O   UNL A   1      28.298  29.230  22.755  1.00  0.00    -0.497 OA
ATOM     13  C   UNL A   1      28.394  30.084  21.619  1.00  0.00     0.278 C 
ENDBRANCH   7  12
BRANCH  11  14
ATOM     14  C   UNL A   1      32.681  25.875  24.096  1.00  0.00    -0.018 A 
ATOM     15  C   UNL A   1      33.282  25.209  23.006  1.00  0.00     0.010 A 
ATOM     16  C   UNL A   1      33.106  25.518  25.385  1.00  0.00     0.010 A 
ATOM     17  C   UNL A   1      34.217  24.190  23.190  1.00  0.00     0.022 A 
ATOM     18  C   UNL A   1      34.086  24.531  25.578  1.00  0.00     0.022 A 
ATOM     19  C   UNL A   1      34.607  23.844  24.482  1.00  0.00     0.082 A 
BRANCH  19  20
ATOM     20  S   UNL A   1      35.715  22.476  24.677  1.00  0.00     0.241 S 
ATOM     21  O   UNL A   1      36.698  22.541  23.621  1.00  0.00    -0.207 OA
ATOM     22  O   UNL A   1      36.108  22.465  26.070  1.00  0.00    -0.207 OA
BRANCH  20  23
ATOM     23  N   UNL A   1      34.790  21.095  24.472  1.00  0.00    -0.206 NA
ATOM     24  H   UNL A   1      35.430  20.321  24.653  1.00  0.00     0.141 HD
BRANCH  23  25
ATOM     25  C   UNL A   1      33.547  20.738  25.190  1.00  0.00     0.025 C 
ATOM     26  C   UNL A   1      32.306  21.391  24.578  1.00  0.00     0.028 C 
ATOM     27  C   UNL A   1      33.406  19.209  25.053  1.00  0.00     0.028 C 
ATOM     28  C   UNL A   1      33.646  21.080  26.677  1.00  0.00     0.028 C 
ENDBRANCH  23  25
ENDBRANCH  20  23
ENDBRANCH  19  20
ENDBRANCH  11  14
ENDBRANCH   3   6
ENDBRANCH   1   2
BRANCH   1  29
ATOM     29  C   UNL A   1      31.746  30.618  25.783  1.00  0.00     0.023 C 
BRANCH  29  30
ATOM     30  C   UNL A   1      31.549  31.644  26.892  1.00  0.00     0.023 C 
BRANCH  30  31
ATOM     31  C   UNL A   1      32.746  32.516  27.250  1.00  0.00     0.116 C 
BRANCH  31  32
ATOM     32  N   UNL A   1      32.407  33.886  27.602  1.00  0.00    -0.352 N 
ATOM     33  C   UNL A   1      33.009  34.752  28.487  1.00  0.00     0.251 C 
ATOM     34  H   UNL A   1      31.623  34.251  27.133  1.00  0.00     0.163 HD
ATOM     35  O   UNL A   1      32.528  35.867  28.665  1.00  0.00    -0.269 OA
BRANCH  33  36
ATOM     36  C   UNL A   1      34.196  34.335  29.268  1.00  0.00     0.039 A 
ATOM     37  C   UNL A   1      33.995  33.695  30.495  1.00  0.00     0.014 A 
ATOM     38  C   UNL A   1      35.494  34.550  28.802  1.00  0.00     0.014 A 
ATOM     39  C   UNL A   1      35.085  33.183  31.203  1.00  0.00     0.010 A 
ATOM     40  C   UNL A   1      36.574  33.970  29.466  1.00  0.00     0.010 A 
ATOM     41  C   UNL A   1      36.380  33.269  30.666  1.00  0.00    -0.014 A 
BRANCH  41  42
ATOM     42  C   UNL A   1      37.539  32.617  31.330  1.00  0.00     0.031 A 
ATOM     43  C   UNL A   1      38.237  31.460  30.675  1.00  0.00     0.074 A 
ATOM     44  C   UNL A   1      37.904  33.009  32.567  1.00  0.00     0.049 A 
ATOM     45  N   UNL A   1      39.195  30.699  31.140  1.00  0.00    -0.248 NA
ATOM     46  C   UNL A   1      37.774  31.090  29.328  1.00  0.00     0.031 C 
ATOM     47  C   UNL A   1      37.267  34.077  33.339  1.00  0.00     0.029 A 
ATOM     48  N   UNL A   1      38.889  32.538  33.400  1.00  0.00    -0.354 N 
ATOM     49  C   UNL A   1      39.433  29.749  30.156  1.00  0.00     0.074 A 
ATOM     50  C   UNL A   1      38.488  30.001  29.088  1.00  0.00     0.031 C 
ATOM     51  C   UNL A   1      37.881  34.185  34.528  1.00  0.00     0.029 A 
ATOM     52  C   UNL A   1      38.934  33.177  34.615  1.00  0.00     0.049 A 
ATOM     53  H   UNL A   1      39.504  31.811  33.151  1.00  0.00     0.167 HD
ATOM     54  C   UNL A   1      40.368  28.769  30.134  1.00  0.00     0.037 A 
ATOM     55  C   UNL A   1      39.727  32.969  35.683  1.00  0.00     0.037 A 
ATOM     56  C   UNL A   1      41.327  28.538  31.181  1.00  0.00     0.049 A 
ATOM     57  C   UNL A   1      40.780  31.897  35.623  1.00  0.00     0.074 A 
ATOM     58  C   UNL A   1      42.356  27.613  31.222  1.00  0.00     0.029 A 
ATOM     59  N   UNL A   1      41.375  29.241  32.376  1.00  0.00    -0.354 N 
ATOM     60  N   UNL A   1      41.039  31.049  34.660  1.00  0.00    -0.248 NA
ATOM     61  C   UNL A   1      41.655  31.762  36.795  1.00  0.00     0.031 C 
ATOM     62  C   UNL A   1      43.007  27.736  32.455  1.00  0.00     0.029 A 
ATOM     63  C   UNL A   1      42.408  28.762  33.166  1.00  0.00     0.049 A 
ATOM     64  H   UNL A   1      40.765  29.973  32.625  1.00  0.00     0.167 HD
ATOM     65  C   UNL A   1      42.116  30.291  35.098  1.00  0.00     0.074 A 
ATOM     66  C   UNL A   1      42.472  30.791  36.409  1.00  0.00     0.031 C 
ATOM     67  C   UNL A   1      42.750  29.271  34.469  1.00  0.00     0.037 A 
BRANCH  54  68
ATOM     68  C   UNL A   1      40.399  27.878  28.927  1.00  0.00     0.064 A 
ATOM     69  C   UNL A   1      41.172  28.196  27.801  1.00  0.00     0.173 A 
ATOM     70  C   UNL A   1      39.657  26.687  28.900  1.00  0.00     0.173 A 
ATOM     71  F   UNL A   1      41.889  29.330  27.773  1.00  0.00    -0.203 F 
ATOM     72  C   UNL A   1      41.173  27.375  26.677  1.00  0.00     0.198 A 
ATOM     73  C   UNL A   1      39.683  25.854  27.785  1.00  0.00     0.198 A 
ATOM     74  F   UNL A   1      38.905  26.334  29.954  1.00  0.00    -0.203 F 
ATOM     75  F   UNL A   1      41.875  27.727  25.591  1.00  0.00    -0.200 F 
ATOM     76  C   UNL A   1      40.433  26.202  26.671  1.00  0.00     0.200 A 
ATOM     77  F   UNL A   1      38.975  24.715  27.784  1.00  0.00    -0.200 F 
ATOM     78  F   UNL A   1      40.433  25.413  25.588  1.00  0.00    -0.200 F 
ENDBRANCH  54  68
BRANCH  55  79
ATOM     79  C   UNL A   1      39.567  33.815  36.892  1.00  0.00     0.064 A 
ATOM     80  C   UNL A   1      40.203  35.060  36.988  1.00  0.00     0.173 A 
ATOM     81  C   UNL A   1      38.760  33.409  37.964  1.00  0.00     0.173 A 
ATOM     82  F   UNL A   1      41.000  35.481  35.994  1.00  0.00    -0.203 F 
ATOM     83  C   UNL A   1      40.048  35.862  38.116  1.00  0.00     0.198 A 
ATOM     84  C   UNL A   1      38.587  34.222  39.083  1.00  0.00     0.198 A 
ATOM     85  F   UNL A   1      38.124  32.228  37.917  1.00  0.00    -0.203 F 
ATOM     86  F   UNL A   1      40.694  37.034  38.195  1.00  0.00    -0.200 F 
ATOM     87  C   UNL A   1      39.235  35.445  39.159  1.00  0.00     0.200 A 
ATOM     88  F   UNL A   1      37.791  33.822  40.083  1.00  0.00    -0.200 F 
ATOM     89  F   UNL A   1      39.080  36.221  40.240  1.00  0.00    -0.200 F 
ENDBRANCH  55  79
BRANCH  67  90
ATOM     90  C   UNL A   1      43.908  28.641  35.183  1.00  0.00     0.064 A 
ATOM     91  C   UNL A   1      43.731  27.552  36.049  1.00  0.00     0.173 A 
ATOM     92  C   UNL A   1      45.214  29.107  34.968  1.00  0.00     0.173 A 
ATOM     93  F   UNL A   1      42.499  27.083  36.298  1.00  0.00    -0.203 F 
ATOM     94  C   UNL A   1      44.819  26.962  36.687  1.00  0.00     0.198 A 
ATOM     95  C   UNL A   1      46.302  28.499  35.590  1.00  0.00     0.198 A 
ATOM     96  F   UNL A   1      45.435  30.143  34.147  1.00  0.00    -0.203 F 
ATOM     97  F   UNL A   1      44.622  25.947  37.539  1.00  0.00    -0.200 F 
ATOM     98  C   UNL A   1      46.102  27.432  36.452  1.00  0.00     0.200 A 
ATOM     99  F   UNL A   1      47.542  28.948  35.355  1.00  0.00    -0.200 F 
ATOM    100  F   UNL A   1      47.149  26.859  37.063  1.00  0.00    -0.200 F 
ENDBRANCH  67  90
ENDBRANCH  41  42
ENDBRANCH  33  36
ENDBRANCH  31  32
ENDBRANCH  30  31
ENDBRANCH  29  30
ENDBRANCH   1  29
TORSDOF 16
ENDMDL
