MODEL 1
REMARK VINA RESULT:     -11.9      0.000      0.000
REMARK SMILES CC(C)CN(C)S(=O)(=O)c1ccc(C(=O)NCCCCNC(=O)c2ccc(-c3c4nc(c(-c5c(F)c(F)c(F)c(F)c5F)c5ccc([nH]5)c(-c5c(F)c(F)c(F)c(F)c5F)c5nc(c(-c6c(F)c(F)c(F)c(F)c6F)c6ccc3[nH]6)C=C5)C=C4)cc2)cc1
REMARK SMILES IDX 17 1 16 2 14 3 15 4 13 6 10 7 11 8 88 9 12 10 87 11 7 12
REMARK SMILES IDX 8 13 9 14 5 15 6 16 4 17 2 18 1 19 3 20 18 21 19 22 20 23
REMARK SMILES IDX 21 24 22 25 23 27 24 28 25 29 86 30 26 31 85 32 27 33 28 34
REMARK SMILES IDX 29 35 79 36 30 37 84 38 78 39 80 40 31 41 83 42 77 43 76 44
REMARK SMILES IDX 32 46 64 47 44 48 63 49 45 50 48 51 62 52 81 53 46 54 47 55
REMARK SMILES IDX 61 57 82 58 49 59 33 60 34 61 42 62 35 63 36 64 40 65 43 66
REMARK SMILES IDX 37 67 38 68 41 69 39 70 65 71 66 72 74 73 67 74 68 75 72 76
REMARK SMILES IDX 75 77 69 78 70 79 73 80 71 81 50 82 51 83 59 84 52 85 53 86
REMARK SMILES IDX 57 87 60 88 54 89 55 90 58 91 56 92
REMARK H PARENT 16 5 21 26 80 45 48 56
REMARK Flexibility Score: inf
ROOT
ATOM      1  C   UNL A   1      32.723  29.788  25.434  1.00  0.00     0.116 C 
ENDROOT
BRANCH   1   2
ATOM      2  N   UNL A   1      31.565  29.606  24.581  1.00  0.00    -0.352 N 
ATOM      3  C   UNL A   1      30.882  28.485  24.189  1.00  0.00     0.251 C 
ATOM      4  O   UNL A   1      29.914  28.638  23.444  1.00  0.00    -0.269 OA
ATOM      5  H   UNL A   1      31.202  30.445  24.215  1.00  0.00     0.163 HD
BRANCH   3   6
ATOM      6  C   UNL A   1      31.216  27.114  24.669  1.00  0.00     0.039 A 
ATOM      7  C   UNL A   1      31.899  24.484  25.366  1.00  0.00     0.082 A 
ATOM      8  C   UNL A   1      32.465  25.070  24.232  1.00  0.00     0.022 A 
ATOM      9  C   UNL A   1      31.026  25.210  26.176  1.00  0.00     0.022 A 
ATOM     10  C   UNL A   1      32.114  26.375  23.883  1.00  0.00     0.015 A 
ATOM     11  C   UNL A   1      30.720  26.534  25.844  1.00  0.00     0.015 A 
BRANCH   7  12
ATOM     12  S   UNL A   1      32.323  22.802  25.744  1.00  0.00     0.242 S 
ATOM     13  O   UNL A   1      31.099  22.027  25.713  1.00  0.00    -0.207 OA
ATOM     14  O   UNL A   1      33.142  22.859  26.933  1.00  0.00    -0.207 OA
BRANCH  12  15
ATOM     15  N   UNL A   1      33.289  22.258  24.416  1.00  0.00    -0.201 NA
ATOM     16  C   UNL A   1      32.773  20.997  23.804  1.00  0.00     0.124 C 
BRANCH  15  17
ATOM     17  C   UNL A   1      34.741  22.090  24.784  1.00  0.00     0.105 C 
BRANCH  17  18
ATOM     18  C   UNL A   1      35.604  23.294  24.364  1.00  0.00    -0.002 C 
ATOM     19  C   UNL A   1      36.410  23.884  25.522  1.00  0.00     0.009 C 
ATOM     20  C   UNL A   1      36.577  22.853  23.263  1.00  0.00     0.009 C 
ENDBRANCH  17  18
ENDBRANCH  15  17
ENDBRANCH  12  15
ENDBRANCH   7  12
ENDBRANCH   3   6
ENDBRANCH   1   2
BRANCH   1  21
ATOM     21  C   UNL A   1      32.289  30.244  26.829  1.00  0.00     0.023 C 
BRANCH  21  22
ATOM     22  C   UNL A   1      31.902  31.723  26.911  1.00  0.00     0.023 C 
BRANCH  22  23
ATOM     23  C   UNL A   1      32.985  32.629  27.479  1.00  0.00     0.116 C 
BRANCH  23  24
ATOM     24  N   UNL A   1      32.532  33.995  27.699  1.00  0.00    -0.352 N 
ATOM     25  C   UNL A   1      33.040  34.913  28.589  1.00  0.00     0.251 C 
ATOM     26  H   UNL A   1      31.775  34.297  27.149  1.00  0.00     0.163 HD
ATOM     27  O   UNL A   1      32.506  36.003  28.752  1.00  0.00    -0.269 OA
BRANCH  25  28
ATOM     28  C   UNL A   1      34.224  34.534  29.381  1.00  0.00     0.039 A 
ATOM     29  C   UNL A   1      34.041  33.950  30.637  1.00  0.00     0.014 A 
ATOM     30  C   UNL A   1      35.503  34.679  28.838  1.00  0.00     0.014 A 
ATOM     31  C   UNL A   1      35.144  33.435  31.321  1.00  0.00     0.010 A 
ATOM     32  C   UNL A   1      36.588  34.112  29.492  1.00  0.00     0.010 A 
ATOM     33  C   UNL A   1      36.418  33.477  30.733  1.00  0.00    -0.014 A 
BRANCH  33  34
ATOM     34  C   UNL A   1      37.603  32.869  31.385  1.00  0.00     0.031 A 
ATOM     35  C   UNL A   1      38.288  31.707  30.730  1.00  0.00     0.074 A 
ATOM     36  C   UNL A   1      37.985  33.286  32.608  1.00  0.00     0.049 A 
ATOM     37  N   UNL A   1      39.206  30.908  31.207  1.00  0.00    -0.248 NA
ATOM     38  C   UNL A   1      37.852  31.378  29.362  1.00  0.00     0.031 C 
ATOM     39  C   UNL A   1      37.377  34.386  33.357  1.00  0.00     0.029 A 
ATOM     40  N   UNL A   1      38.960  32.808  33.448  1.00  0.00    -0.354 N 
ATOM     41  C   UNL A   1      39.435  29.966  30.214  1.00  0.00     0.074 A 
ATOM     42  C   UNL A   1      38.536  30.269  29.123  1.00  0.00     0.031 C 
ATOM     43  C   UNL A   1      37.995  34.502  34.545  1.00  0.00     0.029 A 
ATOM     44  C   UNL A   1      39.008  33.456  34.658  1.00  0.00     0.049 A 
ATOM     45  H   UNL A   1      39.567  32.072  33.206  1.00  0.00     0.167 HD
ATOM     46  C   UNL A   1      40.327  28.947  30.211  1.00  0.00     0.037 A 
ATOM     47  C   UNL A   1      39.769  33.218  35.744  1.00  0.00     0.037 A 
ATOM     48  C   UNL A   1      41.245  28.676  31.285  1.00  0.00     0.049 A 
ATOM     49  C   UNL A   1      40.753  32.078  35.715  1.00  0.00     0.074 A 
ATOM     50  C   UNL A   1      42.229  27.706  31.354  1.00  0.00     0.029 A 
ATOM     51  N   UNL A   1      41.291  29.383  32.477  1.00  0.00    -0.354 N 
ATOM     52  N   UNL A   1      40.995  31.220  34.755  1.00  0.00    -0.248 NA
ATOM     53  C   UNL A   1      41.567  31.874  36.920  1.00  0.00     0.031 C 
ATOM     54  C   UNL A   1      42.851  27.803  32.603  1.00  0.00     0.029 A 
ATOM     55  C   UNL A   1      42.281  28.860  33.295  1.00  0.00     0.049 A 
ATOM     56  H   UNL A   1      40.709  30.142  32.708  1.00  0.00     0.167 HD
ATOM     57  C   UNL A   1      42.008  30.397  35.225  1.00  0.00     0.074 A 
ATOM     58  C   UNL A   1      42.339  30.858  36.556  1.00  0.00     0.031 C 
ATOM     59  C   UNL A   1      42.611  29.352  34.607  1.00  0.00     0.037 A 
BRANCH  46  60
ATOM     60  C   UNL A   1      40.353  28.052  29.009  1.00  0.00     0.064 A 
ATOM     61  C   UNL A   1      39.602  26.868  28.958  1.00  0.00     0.173 A 
ATOM     62  C   UNL A   1      41.113  28.397  27.882  1.00  0.00     0.173 A 
ATOM     63  F   UNL A   1      38.869  26.488  30.015  1.00  0.00    -0.203 F 
ATOM     64  C   UNL A   1      39.634  26.048  27.833  1.00  0.00     0.198 A 
ATOM     65  C   UNL A   1      41.120  27.589  26.749  1.00  0.00     0.198 A 
ATOM     66  F   UNL A   1      41.847  29.520  27.878  1.00  0.00    -0.203 F 
ATOM     67  F   UNL A   1      38.946  24.897  27.826  1.00  0.00    -0.200 F 
ATOM     68  C   UNL A   1      40.387  26.413  26.728  1.00  0.00     0.200 A 
ATOM     69  F   UNL A   1      41.841  27.947  25.676  1.00  0.00    -0.200 F 
ATOM     70  F   UNL A   1      40.413  25.624  25.644  1.00  0.00    -0.200 F 
ENDBRANCH  46  60
BRANCH  47  71
ATOM     71  C   UNL A   1      39.640  34.081  36.945  1.00  0.00     0.064 A 
ATOM     72  C   UNL A   1      38.839  33.688  38.026  1.00  0.00     0.173 A 
ATOM     73  C   UNL A   1      40.308  35.311  37.041  1.00  0.00     0.173 A 
ATOM     74  F   UNL A   1      38.164  32.529  37.971  1.00  0.00    -0.203 F 
ATOM     75  C   UNL A   1      38.696  34.499  39.149  1.00  0.00     0.198 A 
ATOM     76  C   UNL A   1      40.184  36.109  38.176  1.00  0.00     0.198 A 
ATOM     77  F   UNL A   1      41.089  35.731  36.036  1.00  0.00    -0.203 F 
ATOM     78  F   UNL A   1      37.893  34.117  40.152  1.00  0.00    -0.200 F 
ATOM     79  C   UNL A   1      39.373  35.706  39.226  1.00  0.00     0.200 A 
ATOM     80  F   UNL A   1      40.850  37.270  38.252  1.00  0.00    -0.200 F 
ATOM     81  F   UNL A   1      39.239  36.485  40.309  1.00  0.00    -0.200 F 
ENDBRANCH  47  71
BRANCH  59  82
ATOM     82  C   UNL A   1      43.726  28.667  35.336  1.00  0.00     0.064 A 
ATOM     83  C   UNL A   1      45.062  29.057  35.170  1.00  0.00     0.173 A 
ATOM     84  C   UNL A   1      43.445  27.660  36.272  1.00  0.00     0.173 A 
ATOM     85  F   UNL A   1      45.382  30.005  34.275  1.00  0.00    -0.203 F 
ATOM     86  C   UNL A   1      46.078  28.457  35.908  1.00  0.00     0.198 A 
ATOM     87  C   UNL A   1      44.459  27.079  37.026  1.00  0.00     0.198 A 
ATOM     88  F   UNL A   1      42.180  27.257  36.469  1.00  0.00    -0.203 F 
ATOM     89  F   UNL A   1      47.352  28.825  35.715  1.00  0.00    -0.200 F 
ATOM     90  C   UNL A   1      45.774  27.476  36.843  1.00  0.00     0.200 A 
ATOM     91  F   UNL A   1      44.162  26.142  37.936  1.00  0.00    -0.200 F 
ATOM     92  F   UNL A   1      46.752  26.913  37.566  1.00  0.00    -0.200 F 
ENDBRANCH  59  82
ENDBRANCH  33  34
ENDBRANCH  25  28
ENDBRANCH  23  24
ENDBRANCH  22  23
ENDBRANCH  21  22
ENDBRANCH   1  21
TORSDOF 15
ENDMDL
MODEL 2
REMARK VINA RESULT:     -11.8      0.836      2.084
REMARK SMILES CC(C)CN(C)S(=O)(=O)c1ccc(C(=O)NCCCCNC(=O)c2ccc(-c3c4nc(c(-c5c(F)c(F)c(F)c(F)c5F)c5ccc([nH]5)c(-c5c(F)c(F)c(F)c(F)c5F)c5nc(c(-c6c(F)c(F)c(F)c(F)c6F)c6ccc3[nH]6)C=C5)C=C4)cc2)cc1
REMARK SMILES IDX 17 1 16 2 14 3 15 4 13 6 10 7 11 8 88 9 12 10 87 11 7 12
REMARK SMILES IDX 8 13 9 14 5 15 6 16 4 17 2 18 1 19 3 20 18 21 19 22 20 23
REMARK SMILES IDX 21 24 22 25 23 27 24 28 25 29 86 30 26 31 85 32 27 33 28 34
REMARK SMILES IDX 29 35 79 36 30 37 84 38 78 39 80 40 31 41 83 42 77 43 76 44
REMARK SMILES IDX 32 46 64 47 44 48 63 49 45 50 48 51 62 52 81 53 46 54 47 55
REMARK SMILES IDX 61 57 82 58 49 59 33 60 34 61 42 62 35 63 36 64 40 65 43 66
REMARK SMILES IDX 37 67 38 68 41 69 39 70 65 71 66 72 74 73 67 74 68 75 72 76
REMARK SMILES IDX 75 77 69 78 70 79 73 80 71 81 50 82 51 83 59 84 52 85 53 86
REMARK SMILES IDX 57 87 60 88 54 89 55 90 58 91 56 92
REMARK H PARENT 16 5 21 26 80 45 48 56
REMARK Flexibility Score: inf
ROOT
ATOM      1  C   UNL A   1      32.750  29.603  25.559  1.00  0.00     0.116 C 
ENDROOT
BRANCH   1   2
ATOM      2  N   UNL A   1      31.685  28.984  24.796  1.00  0.00    -0.352 N 
ATOM      3  C   UNL A   1      31.465  27.688  24.412  1.00  0.00     0.251 C 
ATOM      4  O   UNL A   1      30.451  27.451  23.756  1.00  0.00    -0.269 OA
ATOM      5  H   UNL A   1      30.988  29.614  24.498  1.00  0.00     0.163 HD
BRANCH   3   6
ATOM      6  C   UNL A   1      32.354  26.557  24.802  1.00  0.00     0.039 A 
ATOM      7  C   UNL A   1      33.926  24.428  25.732  1.00  0.00     0.082 A 
ATOM      8  C   UNL A   1      32.668  24.658  26.294  1.00  0.00     0.022 A 
ATOM      9  C   UNL A   1      34.390  25.225  24.686  1.00  0.00     0.022 A 
ATOM     10  C   UNL A   1      31.894  25.726  25.836  1.00  0.00     0.015 A 
ATOM     11  C   UNL A   1      33.584  26.261  24.200  1.00  0.00     0.015 A 
BRANCH   7  12
ATOM     12  S   UNL A   1      34.907  23.099  26.383  1.00  0.00     0.242 S 
ATOM     13  O   UNL A   1      34.341  22.727  27.664  1.00  0.00    -0.207 OA
ATOM     14  O   UNL A   1      36.281  23.531  26.269  1.00  0.00    -0.207 OA
BRANCH  12  15
ATOM     15  N   UNL A   1      34.643  21.762  25.316  1.00  0.00    -0.201 NA
ATOM     16  C   UNL A   1      35.868  20.934  25.114  1.00  0.00     0.124 C 
BRANCH  15  17
ATOM     17  C   UNL A   1      34.086  22.186  23.981  1.00  0.00     0.105 C 
BRANCH  17  18
ATOM     18  C   UNL A   1      32.678  21.620  23.717  1.00  0.00    -0.002 C 
ATOM     19  C   UNL A   1      32.040  21.002  24.961  1.00  0.00     0.009 C 
ATOM     20  C   UNL A   1      31.772  22.749  23.207  1.00  0.00     0.009 C 
ENDBRANCH  17  18
ENDBRANCH  15  17
ENDBRANCH  12  15
ENDBRANCH   7  12
ENDBRANCH   3   6
ENDBRANCH   1   2
BRANCH   1  21
ATOM     21  C   UNL A   1      32.216  30.121  26.896  1.00  0.00     0.023 C 
BRANCH  21  22
ATOM     22  C   UNL A   1      31.851  31.608  26.889  1.00  0.00     0.023 C 
BRANCH  22  23
ATOM     23  C   UNL A   1      32.939  32.529  27.422  1.00  0.00     0.116 C 
BRANCH  23  24
ATOM     24  N   UNL A   1      32.479  33.892  27.644  1.00  0.00    -0.352 N 
ATOM     25  C   UNL A   1      32.988  34.815  28.528  1.00  0.00     0.251 C 
ATOM     26  H   UNL A   1      31.715  34.188  27.099  1.00  0.00     0.163 HD
ATOM     27  O   UNL A   1      32.448  35.901  28.694  1.00  0.00    -0.269 OA
BRANCH  25  28
ATOM     28  C   UNL A   1      34.181  34.445  29.312  1.00  0.00     0.039 A 
ATOM     29  C   UNL A   1      34.012  33.829  30.554  1.00  0.00     0.014 A 
ATOM     30  C   UNL A   1      35.455  34.631  28.772  1.00  0.00     0.014 A 
ATOM     31  C   UNL A   1      35.126  33.324  31.226  1.00  0.00     0.010 A 
ATOM     32  C   UNL A   1      36.554  34.074  29.413  1.00  0.00     0.010 A 
ATOM     33  C   UNL A   1      36.398  33.408  30.640  1.00  0.00    -0.014 A 
BRANCH  33  34
ATOM     34  C   UNL A   1      37.597  32.812  31.278  1.00  0.00     0.031 A 
ATOM     35  C   UNL A   1      38.295  31.667  30.607  1.00  0.00     0.074 A 
ATOM     36  C   UNL A   1      37.981  33.224  32.502  1.00  0.00     0.049 A 
ATOM     37  N   UNL A   1      39.229  30.877  31.070  1.00  0.00    -0.248 NA
ATOM     38  C   UNL A   1      37.855  31.344  29.240  1.00  0.00     0.031 C 
ATOM     39  C   UNL A   1      37.362  34.307  33.265  1.00  0.00     0.029 A 
ATOM     40  N   UNL A   1      38.969  32.753  33.331  1.00  0.00    -0.354 N 
ATOM     41  C   UNL A   1      39.465  29.948  30.068  1.00  0.00     0.074 A 
ATOM     42  C   UNL A   1      38.554  30.247  28.986  1.00  0.00     0.031 C 
ATOM     43  C   UNL A   1      37.986  34.422  34.450  1.00  0.00     0.029 A 
ATOM     44  C   UNL A   1      39.017  33.391  34.546  1.00  0.00     0.049 A 
ATOM     45  H   UNL A   1      39.586  32.029  33.078  1.00  0.00     0.167 HD
ATOM     46  C   UNL A   1      40.373  28.943  30.049  1.00  0.00     0.037 A 
ATOM     47  C   UNL A   1      39.789  33.155  35.624  1.00  0.00     0.037 A 
ATOM     48  C   UNL A   1      41.302  28.677  31.114  1.00  0.00     0.049 A 
ATOM     49  C   UNL A   1      40.789  32.031  35.578  1.00  0.00     0.074 A 
ATOM     50  C   UNL A   1      42.302  27.722  31.167  1.00  0.00     0.029 A 
ATOM     51  N   UNL A   1      41.346  29.373  32.313  1.00  0.00    -0.354 N 
ATOM     52  N   UNL A   1      41.038  31.185  34.608  1.00  0.00    -0.248 NA
ATOM     53  C   UNL A   1      41.616  31.828  36.776  1.00  0.00     0.031 C 
ATOM     54  C   UNL A   1      42.930  27.817  32.412  1.00  0.00     0.029 A 
ATOM     55  C   UNL A   1      42.349  28.858  33.119  1.00  0.00     0.049 A 
ATOM     56  H   UNL A   1      40.754  30.121  32.555  1.00  0.00     0.167 HD
ATOM     57  C   UNL A   1      42.066  30.374  35.064  1.00  0.00     0.074 A 
ATOM     58  C   UNL A   1      42.400  30.828  36.397  1.00  0.00     0.031 C 
ATOM     59  C   UNL A   1      42.681  29.344  34.433  1.00  0.00     0.037 A 
BRANCH  46  60
ATOM     60  C   UNL A   1      40.403  28.060  28.838  1.00  0.00     0.064 A 
ATOM     61  C   UNL A   1      41.158  28.393  27.704  1.00  0.00     0.173 A 
ATOM     62  C   UNL A   1      39.693  26.850  28.823  1.00  0.00     0.173 A 
ATOM     63  F   UNL A   1      41.843  29.545  27.663  1.00  0.00    -0.203 F 
ATOM     64  C   UNL A   1      41.178  27.560  26.588  1.00  0.00     0.198 A 
ATOM     65  C   UNL A   1      39.738  26.007  27.717  1.00  0.00     0.198 A 
ATOM     66  F   UNL A   1      38.958  26.484  29.885  1.00  0.00    -0.203 F 
ATOM     67  F   UNL A   1      41.867  27.923  25.496  1.00  0.00    -0.200 F 
ATOM     68  C   UNL A   1      40.474  26.366  26.598  1.00  0.00     0.200 A 
ATOM     69  F   UNL A   1      39.066  24.848  27.732  1.00  0.00    -0.200 F 
ATOM     70  F   UNL A   1      40.498  25.563  25.525  1.00  0.00    -0.200 F 
ENDBRANCH  46  60
BRANCH  47  71
ATOM     71  C   UNL A   1      39.655  34.005  36.835  1.00  0.00     0.064 A 
ATOM     72  C   UNL A   1      38.837  33.608  37.902  1.00  0.00     0.173 A 
ATOM     73  C   UNL A   1      40.335  35.226  36.953  1.00  0.00     0.173 A 
ATOM     74  F   UNL A   1      38.150  32.458  37.825  1.00  0.00    -0.203 F 
ATOM     75  C   UNL A   1      38.690  34.407  39.032  1.00  0.00     0.198 A 
ATOM     76  C   UNL A   1      40.206  36.012  38.096  1.00  0.00     0.198 A 
ATOM     77  F   UNL A   1      41.133  35.649  35.962  1.00  0.00    -0.203 F 
ATOM     78  F   UNL A   1      37.870  34.022  40.021  1.00  0.00    -0.200 F 
ATOM     79  C   UNL A   1      39.379  35.606  39.132  1.00  0.00     0.200 A 
ATOM     80  F   UNL A   1      40.884  37.165  38.193  1.00  0.00    -0.200 F 
ATOM     81  F   UNL A   1      39.241  36.373  40.222  1.00  0.00    -0.200 F 
ENDBRANCH  47  71
BRANCH  59  82
ATOM     82  C   UNL A   1      43.812  28.669  35.148  1.00  0.00     0.064 A 
ATOM     83  C   UNL A   1      43.605  27.534  35.945  1.00  0.00     0.173 A 
ATOM     84  C   UNL A   1      45.129  29.117  34.967  1.00  0.00     0.173 A 
ATOM     85  F   UNL A   1      42.362  27.077  36.159  1.00  0.00    -0.203 F 
ATOM     86  C   UNL A   1      44.677  26.879  36.543  1.00  0.00     0.198 A 
ATOM     87  C   UNL A   1      46.201  28.445  35.547  1.00  0.00     0.198 A 
ATOM     88  F   UNL A   1      45.377  30.196  34.208  1.00  0.00    -0.203 F 
ATOM     89  F   UNL A   1      44.456  25.812  37.323  1.00  0.00    -0.200 F 
ATOM     90  C   UNL A   1      45.974  27.328  36.335  1.00  0.00     0.200 A 
ATOM     91  F   UNL A   1      47.452  28.873  35.335  1.00  0.00    -0.200 F 
ATOM     92  F   UNL A   1      47.005  26.684  36.898  1.00  0.00    -0.200 F 
ENDBRANCH  59  82
ENDBRANCH  33  34
ENDBRANCH  25  28
ENDBRANCH  23  24
ENDBRANCH  22  23
ENDBRANCH  21  22
ENDBRANCH   1  21
TORSDOF 15
ENDMDL
MODEL 3
REMARK VINA RESULT:     -11.8      0.708      2.228
REMARK SMILES CC(C)CN(C)S(=O)(=O)c1ccc(C(=O)NCCCCNC(=O)c2ccc(-c3c4nc(c(-c5c(F)c(F)c(F)c(F)c5F)c5ccc([nH]5)c(-c5c(F)c(F)c(F)c(F)c5F)c5nc(c(-c6c(F)c(F)c(F)c(F)c6F)c6ccc3[nH]6)C=C5)C=C4)cc2)cc1
REMARK SMILES IDX 17 1 16 2 14 3 15 4 13 6 10 7 11 8 88 9 12 10 87 11 7 12
REMARK SMILES IDX 8 13 9 14 5 15 6 16 4 17 2 18 1 19 3 20 18 21 19 22 20 23
REMARK SMILES IDX 21 24 22 25 23 27 24 28 25 29 86 30 26 31 85 32 27 33 28 34
REMARK SMILES IDX 29 35 79 36 30 37 84 38 78 39 80 40 31 41 83 42 77 43 76 44
REMARK SMILES IDX 32 46 64 47 44 48 63 49 45 50 48 51 62 52 81 53 46 54 47 55
REMARK SMILES IDX 61 57 82 58 49 59 33 60 34 61 42 62 35 63 36 64 40 65 43 66
REMARK SMILES IDX 37 67 38 68 41 69 39 70 65 71 66 72 74 73 67 74 68 75 72 76
REMARK SMILES IDX 75 77 69 78 70 79 73 80 71 81 50 82 51 83 59 84 52 85 53 86
REMARK SMILES IDX 57 87 60 88 54 89 55 90 58 91 56 92
REMARK H PARENT 16 5 21 26 80 45 48 56
REMARK Flexibility Score: inf
ROOT
ATOM      1  C   UNL A   1      32.526  29.687  25.256  1.00  0.00     0.116 C 
ENDROOT
BRANCH   1   2
ATOM      2  N   UNL A   1      31.322  29.828  24.462  1.00  0.00    -0.352 N 
ATOM      3  C   UNL A   1      30.528  28.909  23.828  1.00  0.00     0.251 C 
ATOM      4  O   UNL A   1      29.546  29.329  23.217  1.00  0.00    -0.269 OA
ATOM      5  H   UNL A   1      31.017  30.759  24.359  1.00  0.00     0.163 HD
BRANCH   3   6
ATOM      6  C   UNL A   1      30.761  27.438  23.900  1.00  0.00     0.039 A 
ATOM      7  C   UNL A   1      31.173  24.686  24.252  1.00  0.00     0.082 A 
ATOM      8  C   UNL A   1      30.437  25.404  25.198  1.00  0.00     0.022 A 
ATOM      9  C   UNL A   1      31.672  25.321  23.115  1.00  0.00     0.022 A 
ATOM     10  C   UNL A   1      30.244  26.775  25.024  1.00  0.00     0.015 A 
ATOM     11  C   UNL A   1      31.429  26.685  22.926  1.00  0.00     0.015 A 
BRANCH   7  12
ATOM     12  S   UNL A   1      31.449  22.956  24.539  1.00  0.00     0.242 S 
ATOM     13  O   UNL A   1      31.406  22.290  23.253  1.00  0.00    -0.207 OA
ATOM     14  O   UNL A   1      30.547  22.584  25.604  1.00  0.00    -0.207 OA
BRANCH  12  15
ATOM     15  N   UNL A   1      33.078  22.834  25.107  1.00  0.00    -0.201 NA
ATOM     16  C   UNL A   1      33.405  21.478  25.639  1.00  0.00     0.124 C 
BRANCH  15  17
ATOM     17  C   UNL A   1      33.413  23.882  26.138  1.00  0.00     0.105 C 
BRANCH  17  18
ATOM     18  C   UNL A   1      34.549  24.819  25.687  1.00  0.00    -0.002 C 
ATOM     19  C   UNL A   1      35.069  24.496  24.286  1.00  0.00     0.009 C 
ATOM     20  C   UNL A   1      34.039  26.266  25.701  1.00  0.00     0.009 C 
ENDBRANCH  17  18
ENDBRANCH  15  17
ENDBRANCH  12  15
ENDBRANCH   7  12
ENDBRANCH   3   6
ENDBRANCH   1   2
BRANCH   1  21
ATOM     21  C   UNL A   1      32.265  30.118  26.701  1.00  0.00     0.023 C 
BRANCH  21  22
ATOM     22  C   UNL A   1      31.851  31.584  26.850  1.00  0.00     0.023 C 
BRANCH  22  23
ATOM     23  C   UNL A   1      32.933  32.491  27.420  1.00  0.00     0.116 C 
BRANCH  23  24
ATOM     24  N   UNL A   1      32.482  33.860  27.626  1.00  0.00    -0.352 N 
ATOM     25  C   UNL A   1      32.997  34.789  28.500  1.00  0.00     0.251 C 
ATOM     26  H   UNL A   1      31.722  34.156  27.076  1.00  0.00     0.163 HD
ATOM     27  O   UNL A   1      32.465  35.881  28.653  1.00  0.00    -0.269 OA
BRANCH  25  28
ATOM     28  C   UNL A   1      34.185  34.419  29.291  1.00  0.00     0.039 A 
ATOM     29  C   UNL A   1      34.010  33.776  30.518  1.00  0.00     0.014 A 
ATOM     30  C   UNL A   1      35.463  34.632  28.770  1.00  0.00     0.014 A 
ATOM     31  C   UNL A   1      35.122  33.272  31.194  1.00  0.00     0.010 A 
ATOM     32  C   UNL A   1      36.562  34.077  29.413  1.00  0.00     0.010 A 
ATOM     33  C   UNL A   1      36.400  33.384  30.624  1.00  0.00    -0.014 A 
BRANCH  33  34
ATOM     34  C   UNL A   1      37.599  32.791  31.264  1.00  0.00     0.031 A 
ATOM     35  C   UNL A   1      38.299  31.645  30.597  1.00  0.00     0.074 A 
ATOM     36  C   UNL A   1      37.982  33.206  32.488  1.00  0.00     0.049 A 
ATOM     37  N   UNL A   1      39.233  30.858  31.063  1.00  0.00    -0.248 NA
ATOM     38  C   UNL A   1      37.861  31.319  29.230  1.00  0.00     0.031 C 
ATOM     39  C   UNL A   1      37.361  34.290  33.248  1.00  0.00     0.029 A 
ATOM     40  N   UNL A   1      38.970  32.738  33.318  1.00  0.00    -0.354 N 
ATOM     41  C   UNL A   1      39.472  29.927  30.062  1.00  0.00     0.074 A 
ATOM     42  C   UNL A   1      38.561  30.222  28.979  1.00  0.00     0.031 C 
ATOM     43  C   UNL A   1      37.984  34.408  34.433  1.00  0.00     0.029 A 
ATOM     44  C   UNL A   1      39.016  33.379  34.533  1.00  0.00     0.049 A 
ATOM     45  H   UNL A   1      39.587  32.014  33.068  1.00  0.00     0.167 HD
ATOM     46  C   UNL A   1      40.381  28.923  30.046  1.00  0.00     0.037 A 
ATOM     47  C   UNL A   1      39.787  33.145  35.612  1.00  0.00     0.037 A 
ATOM     48  C   UNL A   1      41.309  28.660  31.112  1.00  0.00     0.049 A 
ATOM     49  C   UNL A   1      40.789  32.023  35.569  1.00  0.00     0.074 A 
ATOM     50  C   UNL A   1      42.310  27.706  31.169  1.00  0.00     0.029 A 
ATOM     51  N   UNL A   1      41.352  29.358  32.310  1.00  0.00    -0.354 N 
ATOM     52  N   UNL A   1      41.039  31.175  34.601  1.00  0.00    -0.248 NA
ATOM     53  C   UNL A   1      41.614  31.824  36.768  1.00  0.00     0.031 C 
ATOM     54  C   UNL A   1      42.938  27.804  32.414  1.00  0.00     0.029 A 
ATOM     55  C   UNL A   1      42.355  28.847  33.118  1.00  0.00     0.049 A 
ATOM     56  H   UNL A   1      40.758  30.106  32.550  1.00  0.00     0.167 HD
ATOM     57  C   UNL A   1      42.068  30.366  35.060  1.00  0.00     0.074 A 
ATOM     58  C   UNL A   1      42.400  30.823  36.392  1.00  0.00     0.031 C 
ATOM     59  C   UNL A   1      42.685  29.335  34.431  1.00  0.00     0.037 A 
BRANCH  46  60
ATOM     60  C   UNL A   1      40.413  28.036  28.838  1.00  0.00     0.064 A 
ATOM     61  C   UNL A   1      41.164  28.370  27.701  1.00  0.00     0.173 A 
ATOM     62  C   UNL A   1      39.708  26.824  28.826  1.00  0.00     0.173 A 
ATOM     63  F   UNL A   1      41.845  29.526  27.657  1.00  0.00    -0.203 F 
ATOM     64  C   UNL A   1      41.186  27.535  26.587  1.00  0.00     0.198 A 
ATOM     65  C   UNL A   1      39.755  25.979  27.722  1.00  0.00     0.198 A 
ATOM     66  F   UNL A   1      38.976  26.457  29.890  1.00  0.00    -0.203 F 
ATOM     67  F   UNL A   1      41.873  27.898  25.494  1.00  0.00    -0.200 F 
ATOM     68  C   UNL A   1      40.488  26.338  26.601  1.00  0.00     0.200 A 
ATOM     69  F   UNL A   1      39.087  24.816  27.740  1.00  0.00    -0.200 F 
ATOM     70  F   UNL A   1      40.514  25.533  25.529  1.00  0.00    -0.200 F 
ENDBRANCH  46  60
BRANCH  47  71
ATOM     71  C   UNL A   1      39.651  33.998  36.820  1.00  0.00     0.064 A 
ATOM     72  C   UNL A   1      40.335  35.218  36.917  1.00  0.00     0.173 A 
ATOM     73  C   UNL A   1      38.840  33.617  37.899  1.00  0.00     0.173 A 
ATOM     74  F   UNL A   1      41.139  35.614  35.918  1.00  0.00    -0.203 F 
ATOM     75  C   UNL A   1      40.229  36.015  38.054  1.00  0.00     0.198 A 
ATOM     76  C   UNL A   1      38.715  34.428  39.025  1.00  0.00     0.198 A 
ATOM     77  F   UNL A   1      38.161  32.462  37.855  1.00  0.00    -0.203 F 
ATOM     78  F   UNL A   1      40.926  37.157  38.137  1.00  0.00    -0.200 F 
ATOM     79  C   UNL A   1      39.415  35.623  39.105  1.00  0.00     0.200 A 
ATOM     80  F   UNL A   1      37.916  34.052  40.034  1.00  0.00    -0.200 F 
ATOM     81  F   UNL A   1      39.308  36.393  40.197  1.00  0.00    -0.200 F 
ENDBRANCH  47  71
BRANCH  59  82
ATOM     82  C   UNL A   1      43.816  28.663  35.148  1.00  0.00     0.064 A 
ATOM     83  C   UNL A   1      43.598  27.588  36.020  1.00  0.00     0.173 A 
ATOM     84  C   UNL A   1      45.141  29.051  34.897  1.00  0.00     0.173 A 
ATOM     85  F   UNL A   1      42.348  27.191  36.303  1.00  0.00    -0.203 F 
ATOM     86  C   UNL A   1      44.667  26.930  36.622  1.00  0.00     0.198 A 
ATOM     87  C   UNL A   1      46.208  28.375  35.481  1.00  0.00     0.198 A 
ATOM     88  F   UNL A   1      45.399  30.071  34.065  1.00  0.00    -0.203 F 
ATOM     89  F   UNL A   1      44.436  25.921  37.474  1.00  0.00    -0.200 F 
ATOM     90  C   UNL A   1      45.970  27.317  36.344  1.00  0.00     0.200 A 
ATOM     91  F   UNL A   1      47.465  28.743  35.202  1.00  0.00    -0.200 F 
ATOM     92  F   UNL A   1      46.997  26.670  36.911  1.00  0.00    -0.200 F 
ENDBRANCH  59  82
ENDBRANCH  33  34
ENDBRANCH  25  28
ENDBRANCH  23  24
ENDBRANCH  22  23
ENDBRANCH  21  22
ENDBRANCH   1  21
TORSDOF 15
ENDMDL
