MODEL 1
REMARK VINA RESULT:     -12.3      0.000      0.000
REMARK SMILES COc1ccccc1NC(=O)[C@H](C)c1nc(CC(=O)NCCCCNC(=O)c2ccc(-c3c4nc(c(-c5c(F)c(F)c(F)c(F)c5F)c5ccc([nH]5)c(-c5c(F)c(F)c(F)c(F)c5F)c5nc(c(-c6c(F)c(F)c(F)c(F)c6F)c6ccc3[nH]6)C=C5)C=C4)cc2)cs1
REMARK SMILES IDX 21 1 20 2 18 3 19 4 17 6 16 7 14 8 15 9 92 10 91 11 12 12
REMARK SMILES IDX 13 13 10 14 9 15 11 17 8 18 3 19 4 20 5 21 7 22 6 23 2 24
REMARK SMILES IDX 1 25 22 26 23 27 24 28 25 29 26 30 27 32 28 33 29 34 90 35
REMARK SMILES IDX 30 36 89 37 31 38 32 39 33 40 83 41 34 42 88 43 82 44 84 45
REMARK SMILES IDX 35 46 87 47 81 48 80 49 36 51 68 52 48 53 67 54 49 55 52 56
REMARK SMILES IDX 66 57 85 58 50 59 51 60 65 62 86 63 53 64 37 65 38 66 46 67
REMARK SMILES IDX 39 68 40 69 44 70 47 71 41 72 42 73 45 74 43 75 69 76 70 77
REMARK SMILES IDX 78 78 71 79 72 80 76 81 79 82 73 83 74 84 77 85 75 86 54 87
REMARK SMILES IDX 55 88 63 89 56 90 57 91 61 92 64 93 58 94 59 95 62 96 60 97
REMARK H PARENT 20 5 9 16 25 31 84 50 52 61
REMARK Flexibility Score: inf
ROOT
ATOM      1  C   UNL A   1      31.792  29.707  25.240  1.00  0.00     0.116 C 
ENDROOT
BRANCH   1   2
ATOM      2  N   UNL A   1      33.004  29.633  24.444  1.00  0.00    -0.356 N 
ATOM      3  C   UNL A   1      33.247  28.890  23.324  1.00  0.00     0.226 C 
ATOM      4  O   UNL A   1      34.384  28.911  22.845  1.00  0.00    -0.275 OA
ATOM      5  H   UNL A   1      33.752  30.195  24.753  1.00  0.00     0.163 HD
BRANCH   3   6
ATOM      6  C   UNL A   1      32.131  28.109  22.663  1.00  0.00     0.157 C 
BRANCH   6   7
ATOM      7  C   UNL A   1      32.338  26.635  22.741  1.00  0.00     0.061 A 
ATOM      8  C   UNL A   1      32.074  24.674  23.771  1.00  0.00     0.105 A 
ATOM      9  N   UNL A   1      31.788  25.962  23.818  1.00  0.00    -0.245 NA
ATOM     10  S   UNL A   1      32.979  24.197  22.389  1.00  0.00    -0.126 S 
ATOM     11  C   UNL A   1      33.023  25.827  21.856  1.00  0.00     0.091 A 
BRANCH   8  12
ATOM     12  C   UNL A   1      31.555  23.725  24.819  1.00  0.00     0.135 C 
ATOM     13  C   UNL A   1      31.739  22.259  24.449  1.00  0.00     0.026 C 
BRANCH  12  14
ATOM     14  C   UNL A   1      32.099  23.993  26.208  1.00  0.00     0.234 C 
ATOM     15  N   UNL A   1      33.421  23.822  26.513  1.00  0.00    -0.322 N 
ATOM     16  H   UNL A   1      33.620  24.095  27.438  1.00  0.00     0.170 HD
ATOM     17  O   UNL A   1      31.379  24.409  27.122  1.00  0.00    -0.274 OA
BRANCH  15  18
ATOM     18  C   UNL A   1      34.574  23.355  25.845  1.00  0.00     0.083 A 
ATOM     19  C   UNL A   1      34.891  21.995  26.038  1.00  0.00     0.142 A 
ATOM     20  C   UNL A   1      35.974  21.392  25.392  1.00  0.00     0.048 A 
ATOM     21  C   UNL A   1      36.755  22.138  24.517  1.00  0.00     0.004 A 
ATOM     22  C   UNL A   1      35.414  24.099  25.016  1.00  0.00     0.030 A 
ATOM     23  C   UNL A   1      36.481  23.491  24.340  1.00  0.00     0.002 A 
BRANCH  19  24
ATOM     24  O   UNL A   1      34.176  21.253  26.948  1.00  0.00    -0.495 OA
ATOM     25  C   UNL A   1      33.443  20.208  26.307  1.00  0.00     0.278 C 
ENDBRANCH  19  24
ENDBRANCH  15  18
ENDBRANCH  12  14
ENDBRANCH   8  12
ENDBRANCH   6   7
ENDBRANCH   3   6
ENDBRANCH   1   2
BRANCH   1  26
ATOM     26  C   UNL A   1      32.063  30.252  26.644  1.00  0.00     0.023 C 
BRANCH  26  27
ATOM     27  C   UNL A   1      31.749  31.739  26.829  1.00  0.00     0.023 C 
BRANCH  27  28
ATOM     28  C   UNL A   1      32.872  32.574  27.435  1.00  0.00     0.116 C 
BRANCH  28  29
ATOM     29  N   UNL A   1      32.492  33.960  27.663  1.00  0.00    -0.352 N 
ATOM     30  C   UNL A   1      33.024  34.870  28.547  1.00  0.00     0.251 C 
ATOM     31  H   UNL A   1      31.751  34.293  27.107  1.00  0.00     0.163 HD
ATOM     32  O   UNL A   1      32.490  35.959  28.710  1.00  0.00    -0.269 OA
BRANCH  30  33
ATOM     33  C   UNL A   1      34.222  34.505  29.338  1.00  0.00     0.039 A 
ATOM     34  C   UNL A   1      34.046  33.978  30.620  1.00  0.00     0.014 A 
ATOM     35  C   UNL A   1      35.506  34.637  28.802  1.00  0.00     0.014 A 
ATOM     36  C   UNL A   1      35.150  33.493  31.326  1.00  0.00     0.010 A 
ATOM     37  C   UNL A   1      36.596  34.097  29.479  1.00  0.00     0.010 A 
ATOM     38  C   UNL A   1      36.425  33.500  30.738  1.00  0.00    -0.014 A 
BRANCH  38  39
ATOM     39  C   UNL A   1      37.583  32.837  31.390  1.00  0.00     0.031 A 
ATOM     40  C   UNL A   1      38.235  31.645  30.753  1.00  0.00     0.074 A 
ATOM     41  C   UNL A   1      37.981  33.252  32.609  1.00  0.00     0.049 A 
ATOM     42  N   UNL A   1      39.171  30.861  31.227  1.00  0.00    -0.248 NA
ATOM     43  C   UNL A   1      37.757  31.269  29.414  1.00  0.00     0.031 C 
ATOM     44  C   UNL A   1      37.401  34.371  33.353  1.00  0.00     0.029 A 
ATOM     45  N   UNL A   1      38.953  32.765  33.449  1.00  0.00    -0.354 N 
ATOM     46  C   UNL A   1      39.381  29.893  30.256  1.00  0.00     0.074 A 
ATOM     47  C   UNL A   1      38.449  30.164  29.181  1.00  0.00     0.031 C 
ATOM     48  C   UNL A   1      38.030  34.491  34.533  1.00  0.00     0.029 A 
ATOM     49  C   UNL A   1      39.028  33.432  34.649  1.00  0.00     0.049 A 
ATOM     50  H   UNL A   1      39.541  32.011  33.214  1.00  0.00     0.167 HD
ATOM     51  C   UNL A   1      40.282  28.882  30.255  1.00  0.00     0.037 A 
ATOM     52  C   UNL A   1      39.798  33.201  35.729  1.00  0.00     0.037 A 
ATOM     53  C   UNL A   1      41.224  28.631  31.313  1.00  0.00     0.049 A 
ATOM     54  C   UNL A   1      40.769  32.053  35.714  1.00  0.00     0.074 A 
ATOM     55  C   UNL A   1      42.231  27.682  31.365  1.00  0.00     0.029 A 
ATOM     56  N   UNL A   1      41.272  29.329  32.511  1.00  0.00    -0.354 N 
ATOM     57  N   UNL A   1      41.009  31.188  34.759  1.00  0.00    -0.248 NA
ATOM     58  C   UNL A   1      41.572  31.845  36.927  1.00  0.00     0.031 C 
ATOM     59  C   UNL A   1      42.857  27.774  32.613  1.00  0.00     0.029 A 
ATOM     60  C   UNL A   1      42.268  28.809  33.322  1.00  0.00     0.049 A 
ATOM     61  H   UNL A   1      40.684  30.082  32.750  1.00  0.00     0.167 HD
ATOM     62  C   UNL A   1      41.999  30.347  35.247  1.00  0.00     0.074 A 
ATOM     63  C   UNL A   1      42.327  30.814  36.577  1.00  0.00     0.031 C 
ATOM     64  C   UNL A   1      42.582  29.281  34.645  1.00  0.00     0.037 A 
BRANCH  51  65
ATOM     65  C   UNL A   1      40.296  27.965  29.068  1.00  0.00     0.064 A 
ATOM     66  C   UNL A   1      39.544  26.781  29.046  1.00  0.00     0.173 A 
ATOM     67  C   UNL A   1      41.029  28.299  27.919  1.00  0.00     0.173 A 
ATOM     68  F   UNL A   1      38.833  26.413  30.123  1.00  0.00    -0.203 F 
ATOM     69  C   UNL A   1      39.545  25.953  27.927  1.00  0.00     0.198 A 
ATOM     70  C   UNL A   1      41.007  27.481  26.792  1.00  0.00     0.198 A 
ATOM     71  F   UNL A   1      41.759  29.424  27.886  1.00  0.00    -0.203 F 
ATOM     72  F   UNL A   1      38.853  24.805  27.945  1.00  0.00    -0.200 F 
ATOM     73  C   UNL A   1      40.271  26.306  26.800  1.00  0.00     0.200 A 
ATOM     74  F   UNL A   1      41.698  27.830  25.699  1.00  0.00    -0.200 F 
ATOM     75  F   UNL A   1      40.264  25.511  25.721  1.00  0.00    -0.200 F 
ENDBRANCH  51  65
BRANCH  52  76
ATOM     76  C   UNL A   1      39.679  34.078  36.923  1.00  0.00     0.064 A 
ATOM     77  C   UNL A   1      40.367  35.296  36.990  1.00  0.00     0.173 A 
ATOM     78  C   UNL A   1      38.879  33.719  38.017  1.00  0.00     0.173 A 
ATOM     79  F   UNL A   1      41.163  35.671  35.978  1.00  0.00    -0.203 F 
ATOM     80  C   UNL A   1      40.272  36.116  38.113  1.00  0.00     0.198 A 
ATOM     81  C   UNL A   1      38.764  34.551  39.128  1.00  0.00     0.198 A 
ATOM     82  F   UNL A   1      38.199  32.563  38.001  1.00  0.00    -0.203 F 
ATOM     83  F   UNL A   1      40.973  37.257  38.168  1.00  0.00    -0.200 F 
ATOM     84  C   UNL A   1      39.466  35.746  39.178  1.00  0.00     0.200 A 
ATOM     85  F   UNL A   1      37.975  34.195  40.151  1.00  0.00    -0.200 F 
ATOM     86  F   UNL A   1      39.371  36.536  40.256  1.00  0.00    -0.200 F 
ENDBRANCH  52  76
BRANCH  64  87
ATOM     87  C   UNL A   1      43.642  28.552  35.414  1.00  0.00     0.064 A 
ATOM     88  C   UNL A   1      44.997  28.891  35.293  1.00  0.00     0.173 A 
ATOM     89  C   UNL A   1      43.296  27.539  36.322  1.00  0.00     0.173 A 
ATOM     90  F   UNL A   1      45.380  29.840  34.424  1.00  0.00    -0.203 F 
ATOM     91  C   UNL A   1      45.969  28.235  36.043  1.00  0.00     0.198 A 
ATOM     92  C   UNL A   1      44.266  26.903  37.089  1.00  0.00     0.198 A 
ATOM     93  F   UNL A   1      42.012  27.181  36.476  1.00  0.00    -0.203 F 
ATOM     94  F   UNL A   1      47.262  28.552  35.886  1.00  0.00    -0.200 F 
ATOM     95  C   UNL A   1      45.603  27.248  36.947  1.00  0.00     0.200 A 
ATOM     96  F   UNL A   1      43.910  25.957  37.970  1.00  0.00    -0.200 F 
ATOM     97  F   UNL A   1      46.538  26.626  37.677  1.00  0.00    -0.200 F 
ENDBRANCH  64  87
ENDBRANCH  38  39
ENDBRANCH  30  33
ENDBRANCH  28  29
ENDBRANCH  27  28
ENDBRANCH  26  27
ENDBRANCH   1  26
TORSDOF 16
ENDMDL
MODEL 2
REMARK VINA RESULT:     -12.2      1.983      3.074
REMARK SMILES COc1ccccc1NC(=O)[C@H](C)c1nc(CC(=O)NCCCCNC(=O)c2ccc(-c3c4nc(c(-c5c(F)c(F)c(F)c(F)c5F)c5ccc([nH]5)c(-c5c(F)c(F)c(F)c(F)c5F)c5nc(c(-c6c(F)c(F)c(F)c(F)c6F)c6ccc3[nH]6)C=C5)C=C4)cc2)cs1
REMARK SMILES IDX 21 1 20 2 18 3 19 4 17 6 16 7 14 8 15 9 92 10 91 11 12 12
REMARK SMILES IDX 13 13 10 14 9 15 11 17 8 18 3 19 4 20 5 21 7 22 6 23 2 24
REMARK SMILES IDX 1 25 22 26 23 27 24 28 25 29 26 30 27 32 28 33 29 34 90 35
REMARK SMILES IDX 30 36 89 37 31 38 32 39 33 40 83 41 34 42 88 43 82 44 84 45
REMARK SMILES IDX 35 46 87 47 81 48 80 49 36 51 68 52 48 53 67 54 49 55 52 56
REMARK SMILES IDX 66 57 85 58 50 59 51 60 65 62 86 63 53 64 37 65 38 66 46 67
REMARK SMILES IDX 39 68 40 69 44 70 47 71 41 72 42 73 45 74 43 75 69 76 70 77
REMARK SMILES IDX 78 78 71 79 72 80 76 81 79 82 73 83 74 84 77 85 75 86 54 87
REMARK SMILES IDX 55 88 63 89 56 90 57 91 61 92 64 93 58 94 59 95 62 96 60 97
REMARK H PARENT 20 5 9 16 25 31 84 50 52 61
REMARK Flexibility Score: inf
ROOT
ATOM      1  C   UNL A   1      33.251  28.998  22.980  1.00  0.00     0.116 C 
ENDROOT
BRANCH   1   2
ATOM      2  N   UNL A   1      33.647  27.873  22.152  1.00  0.00    -0.356 N 
ATOM      3  C   UNL A   1      32.939  26.744  21.848  1.00  0.00     0.226 C 
ATOM      4  O   UNL A   1      33.498  25.866  21.188  1.00  0.00    -0.275 OA
ATOM      5  H   UNL A   1      34.547  27.931  21.756  1.00  0.00     0.163 HD
BRANCH   3   6
ATOM      6  C   UNL A   1      31.490  26.610  22.268  1.00  0.00     0.157 C 
BRANCH   6   7
ATOM      7  C   UNL A   1      31.336  25.949  23.595  1.00  0.00     0.061 A 
ATOM      8  C   UNL A   1      32.191  24.907  25.372  1.00  0.00     0.105 A 
ATOM      9  N   UNL A   1      32.481  25.491  24.224  1.00  0.00    -0.245 NA
ATOM     10  S   UNL A   1      30.521  24.929  25.779  1.00  0.00    -0.126 S 
ATOM     11  C   UNL A   1      30.171  25.729  24.302  1.00  0.00     0.091 A 
BRANCH   8  12
ATOM     12  C   UNL A   1      33.277  24.357  26.258  1.00  0.00     0.135 C 
ATOM     13  C   UNL A   1      32.853  23.114  27.030  1.00  0.00     0.026 C 
BRANCH  12  14
ATOM     14  C   UNL A   1      34.587  24.112  25.538  1.00  0.00     0.234 C 
ATOM     15  N   UNL A   1      34.762  23.050  24.693  1.00  0.00    -0.322 N 
ATOM     16  H   UNL A   1      35.647  23.068  24.262  1.00  0.00     0.170 HD
ATOM     17  O   UNL A   1      35.551  24.877  25.656  1.00  0.00    -0.274 OA
BRANCH  15  18
ATOM     18  C   UNL A   1      34.000  21.935  24.280  1.00  0.00     0.083 A 
ATOM     19  C   UNL A   1      34.354  20.698  24.855  1.00  0.00     0.142 A 
ATOM     20  C   UNL A   1      33.648  19.525  24.574  1.00  0.00     0.048 A 
ATOM     21  C   UNL A   1      32.551  19.571  23.721  1.00  0.00     0.004 A 
ATOM     22  C   UNL A   1      32.939  21.942  23.374  1.00  0.00     0.030 A 
ATOM     23  C   UNL A   1      32.207  20.775  23.114  1.00  0.00     0.002 A 
BRANCH  19  24
ATOM     24  O   UNL A   1      35.474  20.613  25.648  1.00  0.00    -0.495 OA
ATOM     25  C   UNL A   1      36.637  20.309  24.877  1.00  0.00     0.278 C 
ENDBRANCH  19  24
ENDBRANCH  15  18
ENDBRANCH  12  14
ENDBRANCH   8  12
ENDBRANCH   6   7
ENDBRANCH   3   6
ENDBRANCH   1   2
BRANCH   1  26
ATOM     26  C   UNL A   1      33.548  28.750  24.460  1.00  0.00     0.023 C 
BRANCH  26  27
ATOM     27  C   UNL A   1      32.324  28.796  25.379  1.00  0.00     0.023 C 
BRANCH  27  28
ATOM     28  C   UNL A   1      32.573  29.361  26.773  1.00  0.00     0.116 C 
BRANCH  28  29
ATOM     29  N   UNL A   1      32.422  30.807  26.837  1.00  0.00    -0.352 N 
ATOM     30  C   UNL A   1      33.285  31.748  27.352  1.00  0.00     0.251 C 
ATOM     31  H   UNL A   1      31.585  31.163  26.460  1.00  0.00     0.163 HD
ATOM     32  O   UNL A   1      32.937  32.917  27.453  1.00  0.00    -0.269 OA
BRANCH  30  33
ATOM     33  C   UNL A   1      34.623  31.326  27.828  1.00  0.00     0.039 A 
ATOM     34  C   UNL A   1      35.622  32.293  27.966  1.00  0.00     0.014 A 
ATOM     35  C   UNL A   1      34.876  29.998  28.180  1.00  0.00     0.014 A 
ATOM     36  C   UNL A   1      36.844  31.947  28.548  1.00  0.00     0.010 A 
ATOM     37  C   UNL A   1      36.069  29.667  28.816  1.00  0.00     0.010 A 
ATOM     38  C   UNL A   1      37.056  30.644  29.026  1.00  0.00    -0.014 A 
BRANCH  38  39
ATOM     39  C   UNL A   1      38.272  30.291  29.802  1.00  0.00     0.031 A 
ATOM     40  C   UNL A   1      39.257  29.295  29.263  1.00  0.00     0.074 A 
ATOM     41  C   UNL A   1      38.435  30.797  31.041  1.00  0.00     0.049 A 
ATOM     42  N   UNL A   1      40.306  28.770  29.845  1.00  0.00    -0.248 NA
ATOM     43  C   UNL A   1      39.019  28.807  27.897  1.00  0.00     0.031 C 
ATOM     44  C   UNL A   1      37.527  31.742  31.695  1.00  0.00     0.029 A 
ATOM     45  N   UNL A   1      39.410  30.570  31.981  1.00  0.00    -0.354 N 
ATOM     46  C   UNL A   1      40.842  27.880  28.925  1.00  0.00     0.074 A 
ATOM     47  C   UNL A   1      39.982  27.906  27.760  1.00  0.00     0.031 C 
ATOM     48  C   UNL A   1      37.990  32.018  32.924  1.00  0.00     0.029 A 
ATOM     49  C   UNL A   1      39.201  31.240  33.163  1.00  0.00     0.049 A 
ATOM     50  H   UNL A   1      40.185  29.984  31.824  1.00  0.00     0.167 HD
ATOM     51  C   UNL A   1      41.960  27.123  29.037  1.00  0.00     0.037 A 
ATOM     52  C   UNL A   1      39.894  31.213  34.317  1.00  0.00     0.037 A 
ATOM     53  C   UNL A   1      42.826  27.119  30.186  1.00  0.00     0.049 A 
ATOM     54  C   UNL A   1      41.115  30.341  34.425  1.00  0.00     0.074 A 
ATOM     55  C   UNL A   1      44.026  26.449  30.359  1.00  0.00     0.029 A 
ATOM     56  N   UNL A   1      42.583  27.812  31.363  1.00  0.00    -0.354 N 
ATOM     57  N   UNL A   1      41.653  29.558  33.522  1.00  0.00    -0.248 NA
ATOM     58  C   UNL A   1      41.822  30.344  35.714  1.00  0.00     0.031 C 
ATOM     59  C   UNL A   1      44.485  26.699  31.657  1.00  0.00     0.029 A 
ATOM     60  C   UNL A   1      43.593  27.558  32.278  1.00  0.00     0.049 A 
ATOM     61  H   UNL A   1      41.808  28.396  31.525  1.00  0.00     0.167 HD
ATOM     62  C   UNL A   1      42.767  28.991  34.125  1.00  0.00     0.074 A 
ATOM     63  C   UNL A   1      42.838  29.530  35.466  1.00  0.00     0.031 C 
ATOM     64  C   UNL A   1      43.650  28.100  33.611  1.00  0.00     0.037 A 
BRANCH  51  65
ATOM     65  C   UNL A   1      42.315  26.234  27.883  1.00  0.00     0.064 A 
ATOM     66  C   UNL A   1      41.722  24.972  27.720  1.00  0.00     0.173 A 
ATOM     67  C   UNL A   1      43.219  26.666  26.903  1.00  0.00     0.173 A 
ATOM     68  F   UNL A   1      40.858  24.509  28.635  1.00  0.00    -0.203 F 
ATOM     69  C   UNL A   1      42.041  24.168  26.630  1.00  0.00     0.198 A 
ATOM     70  C   UNL A   1      43.516  25.870  25.800  1.00  0.00     0.198 A 
ATOM     71  F   UNL A   1      43.808  27.867  27.009  1.00  0.00    -0.203 F 
ATOM     72  F   UNL A   1      41.495  22.949  26.516  1.00  0.00    -0.200 F 
ATOM     73  C   UNL A   1      42.932  24.619  25.668  1.00  0.00     0.200 A 
ATOM     74  F   UNL A   1      44.367  26.312  24.865  1.00  0.00    -0.200 F 
ATOM     75  F   UNL A   1      43.232  23.845  24.615  1.00  0.00    -0.200 F 
ENDBRANCH  51  65
BRANCH  52  76
ATOM     76  C   UNL A   1      39.447  32.038  35.469  1.00  0.00     0.064 A 
ATOM     77  C   UNL A   1      39.867  33.367  35.605  1.00  0.00     0.173 A 
ATOM     78  C   UNL A   1      38.595  31.518  36.454  1.00  0.00     0.173 A 
ATOM     79  F   UNL A   1      40.701  33.901  34.701  1.00  0.00    -0.203 F 
ATOM     80  C   UNL A   1      39.464  34.142  36.691  1.00  0.00     0.198 A 
ATOM     81  C   UNL A   1      38.172  32.300  37.526  1.00  0.00     0.198 A 
ATOM     82  F   UNL A   1      38.165  30.250  36.369  1.00  0.00    -0.203 F 
ATOM     83  F   UNL A   1      39.912  35.398  36.818  1.00  0.00    -0.200 F 
ATOM     84  C   UNL A   1      38.612  33.610  37.647  1.00  0.00     0.200 A 
ATOM     85  F   UNL A   1      37.339  31.786  38.441  1.00  0.00    -0.200 F 
ATOM     86  F   UNL A   1      38.221  34.357  38.689  1.00  0.00    -0.200 F 
ENDBRANCH  52  76
BRANCH  64  87
ATOM     87  C   UNL A   1      44.777  27.659  34.496  1.00  0.00     0.064 A 
ATOM     88  C   UNL A   1      44.654  26.543  35.335  1.00  0.00     0.173 A 
ATOM     89  C   UNL A   1      46.011  28.327  34.465  1.00  0.00     0.173 A 
ATOM     90  F   UNL A   1      43.488  25.883  35.413  1.00  0.00    -0.203 F 
ATOM     91  C   UNL A   1      45.721  26.118  36.122  1.00  0.00     0.198 A 
ATOM     92  C   UNL A   1      47.083  27.883  35.232  1.00  0.00     0.198 A 
ATOM     93  F   UNL A   1      46.179  29.398  33.675  1.00  0.00    -0.203 F 
ATOM     94  F   UNL A   1      45.571  25.069  36.942  1.00  0.00    -0.200 F 
ATOM     95  C   UNL A   1      46.938  26.782  36.063  1.00  0.00     0.200 A 
ATOM     96  F   UNL A   1      48.262  28.521  35.167  1.00  0.00    -0.200 F 
ATOM     97  F   UNL A   1      47.967  26.364  36.811  1.00  0.00    -0.200 F 
ENDBRANCH  64  87
ENDBRANCH  38  39
ENDBRANCH  30  33
ENDBRANCH  28  29
ENDBRANCH  27  28
ENDBRANCH  26  27
ENDBRANCH   1  26
TORSDOF 16
ENDMDL
MODEL 3
REMARK VINA RESULT:     -12.2      3.950      8.832
REMARK SMILES COc1ccccc1NC(=O)[C@H](C)c1nc(CC(=O)NCCCCNC(=O)c2ccc(-c3c4nc(c(-c5c(F)c(F)c(F)c(F)c5F)c5ccc([nH]5)c(-c5c(F)c(F)c(F)c(F)c5F)c5nc(c(-c6c(F)c(F)c(F)c(F)c6F)c6ccc3[nH]6)C=C5)C=C4)cc2)cs1
REMARK SMILES IDX 21 1 20 2 18 3 19 4 17 6 16 7 14 8 15 9 92 10 91 11 12 12
REMARK SMILES IDX 13 13 10 14 9 15 11 17 8 18 3 19 4 20 5 21 7 22 6 23 2 24
REMARK SMILES IDX 1 25 22 26 23 27 24 28 25 29 26 30 27 32 28 33 29 34 90 35
REMARK SMILES IDX 30 36 89 37 31 38 32 39 33 40 83 41 34 42 88 43 82 44 84 45
REMARK SMILES IDX 35 46 87 47 81 48 80 49 36 51 68 52 48 53 67 54 49 55 52 56
REMARK SMILES IDX 66 57 85 58 50 59 51 60 65 62 86 63 53 64 37 65 38 66 46 67
REMARK SMILES IDX 39 68 40 69 44 70 47 71 41 72 42 73 45 74 43 75 69 76 70 77
REMARK SMILES IDX 78 78 71 79 72 80 76 81 79 82 73 83 74 84 77 85 75 86 54 87
REMARK SMILES IDX 55 88 63 89 56 90 57 91 61 92 64 93 58 94 59 95 62 96 60 97
REMARK H PARENT 20 5 9 16 25 31 84 50 52 61
REMARK Flexibility Score: inf
ROOT
ATOM      1  C   UNL A   1      33.386  28.687  22.923  1.00  0.00     0.116 C 
ENDROOT
BRANCH   1   2
ATOM      2  N   UNL A   1      33.651  27.596  22.001  1.00  0.00    -0.356 N 
ATOM      3  C   UNL A   1      32.823  26.578  21.622  1.00  0.00     0.226 C 
ATOM      4  O   UNL A   1      33.278  25.700  20.885  1.00  0.00    -0.275 OA
ATOM      5  H   UNL A   1      34.548  27.590  21.595  1.00  0.00     0.163 HD
BRANCH   3   6
ATOM      6  C   UNL A   1      31.372  26.565  22.056  1.00  0.00     0.157 C 
BRANCH   6   7
ATOM      7  C   UNL A   1      31.189  26.021  23.431  1.00  0.00     0.061 A 
ATOM      8  C   UNL A   1      31.983  25.030  25.265  1.00  0.00     0.105 A 
ATOM      9  N   UNL A   1      32.299  25.497  24.071  1.00  0.00    -0.245 NA
ATOM     10  S   UNL A   1      30.336  25.250  25.702  1.00  0.00    -0.126 S 
ATOM     11  C   UNL A   1      30.028  25.972  24.176  1.00  0.00     0.091 A 
BRANCH   8  12
ATOM     12  C   UNL A   1      33.033  24.438  26.168  1.00  0.00     0.135 C 
ATOM     13  C   UNL A   1      32.575  23.168  26.872  1.00  0.00     0.026 C 
BRANCH  12  14
ATOM     14  C   UNL A   1      34.369  24.215  25.488  1.00  0.00     0.234 C 
ATOM     15  N   UNL A   1      34.599  23.136  24.680  1.00  0.00    -0.322 N 
ATOM     16  H   UNL A   1      35.494  23.171  24.271  1.00  0.00     0.170 HD
ATOM     17  O   UNL A   1      35.304  25.015  25.608  1.00  0.00    -0.274 OA
BRANCH  15  18
ATOM     18  C   UNL A   1      33.884  21.986  24.281  1.00  0.00     0.083 A 
ATOM     19  C   UNL A   1      34.271  20.775  24.890  1.00  0.00     0.142 A 
ATOM     20  C   UNL A   1      33.611  19.572  24.626  1.00  0.00     0.048 A 
ATOM     21  C   UNL A   1      32.528  19.560  23.754  1.00  0.00     0.004 A 
ATOM     22  C   UNL A   1      32.839  21.934  23.358  1.00  0.00     0.030 A 
ATOM     23  C   UNL A   1      32.152  20.736  23.114  1.00  0.00     0.002 A 
BRANCH  19  24
ATOM     24  O   UNL A   1      35.379  20.748  25.704  1.00  0.00    -0.495 OA
ATOM     25  C   UNL A   1      36.529  20.275  25.001  1.00  0.00     0.278 C 
ENDBRANCH  19  24
ENDBRANCH  15  18
ENDBRANCH  12  14
ENDBRANCH   8  12
ENDBRANCH   6   7
ENDBRANCH   3   6
ENDBRANCH   1   2
BRANCH   1  26
ATOM     26  C   UNL A   1      33.994  28.429  24.303  1.00  0.00     0.023 C 
BRANCH  26  27
ATOM     27  C   UNL A   1      33.064  28.733  25.482  1.00  0.00     0.023 C 
BRANCH  27  28
ATOM     28  C   UNL A   1      33.741  28.807  26.846  1.00  0.00     0.116 C 
BRANCH  28  29
ATOM     29  N   UNL A   1      33.743  30.149  27.409  1.00  0.00    -0.352 N 
ATOM     30  C   UNL A   1      34.712  30.774  28.160  1.00  0.00     0.251 C 
ATOM     31  H   UNL A   1      32.937  30.686  27.227  1.00  0.00     0.163 HD
ATOM     32  O   UNL A   1      34.490  31.862  28.675  1.00  0.00    -0.269 OA
BRANCH  30  33
ATOM     33  C   UNL A   1      36.011  30.097  28.382  1.00  0.00     0.039 A 
ATOM     34  C   UNL A   1      36.986  30.171  27.383  1.00  0.00     0.014 A 
ATOM     35  C   UNL A   1      36.282  29.436  29.583  1.00  0.00     0.014 A 
ATOM     36  C   UNL A   1      38.265  29.666  27.627  1.00  0.00     0.010 A 
ATOM     37  C   UNL A   1      37.574  28.989  29.848  1.00  0.00     0.010 A 
ATOM     38  C   UNL A   1      38.583  29.120  28.881  1.00  0.00    -0.014 A 
BRANCH  38  39
ATOM     39  C   UNL A   1      39.975  28.736  29.229  1.00  0.00     0.031 A 
ATOM     40  C   UNL A   1      40.872  29.696  29.954  1.00  0.00     0.074 A 
ATOM     41  C   UNL A   1      40.460  27.554  28.799  1.00  0.00     0.049 A 
ATOM     42  N   UNL A   1      42.147  29.589  30.232  1.00  0.00    -0.248 NA
ATOM     43  C   UNL A   1      40.261  30.954  30.407  1.00  0.00     0.031 C 
ATOM     44  C   UNL A   1      39.703  26.551  28.048  1.00  0.00     0.029 A 
ATOM     45  N   UNL A   1      41.714  27.005  28.912  1.00  0.00    -0.354 N 
ATOM     46  C   UNL A   1      42.494  30.768  30.875  1.00  0.00     0.074 A 
ATOM     47  C   UNL A   1      41.305  31.595  30.914  1.00  0.00     0.031 C 
ATOM     48  C   UNL A   1      40.502  25.508  27.774  1.00  0.00     0.029 A 
ATOM     49  C   UNL A   1      41.839  25.785  28.290  1.00  0.00     0.049 A 
ATOM     50  H   UNL A   1      42.454  27.442  29.392  1.00  0.00     0.167 HD
ATOM     51  C   UNL A   1      43.691  31.121  31.402  1.00  0.00     0.037 A 
ATOM     52  C   UNL A   1      42.915  24.991  28.133  1.00  0.00     0.037 A 
ATOM     53  C   UNL A   1      44.863  30.287  31.385  1.00  0.00     0.049 A 
ATOM     54  C   UNL A   1      44.240  25.420  28.701  1.00  0.00     0.074 A 
ATOM     55  C   UNL A   1      46.099  30.523  31.966  1.00  0.00     0.029 A 
ATOM     56  N   UNL A   1      44.951  29.058  30.748  1.00  0.00    -0.354 N 
ATOM     57  N   UNL A   1      44.538  26.506  29.372  1.00  0.00    -0.248 NA
ATOM     58  C   UNL A   1      45.379  24.517  28.486  1.00  0.00     0.031 C 
ATOM     59  C   UNL A   1      46.947  29.460  31.640  1.00  0.00     0.029 A 
ATOM     60  C   UNL A   1      46.228  28.540  30.893  1.00  0.00     0.049 A 
ATOM     61  H   UNL A   1      44.214  28.619  30.264  1.00  0.00     0.167 HD
ATOM     62  C   UNL A   1      45.889  26.409  29.672  1.00  0.00     0.074 A 
ATOM     63  C   UNL A   1      46.351  25.151  29.126  1.00  0.00     0.031 C 
ATOM     64  C   UNL A   1      46.675  27.288  30.341  1.00  0.00     0.037 A 
BRANCH  51  65
ATOM     65  C   UNL A   1      43.796  32.472  32.045  1.00  0.00     0.064 A 
ATOM     66  C   UNL A   1      43.536  32.656  33.412  1.00  0.00     0.173 A 
ATOM     67  C   UNL A   1      44.208  33.585  31.299  1.00  0.00     0.173 A 
ATOM     68  F   UNL A   1      43.129  31.625  34.167  1.00  0.00    -0.203 F 
ATOM     69  C   UNL A   1      43.662  33.911  34.001  1.00  0.00     0.198 A 
ATOM     70  C   UNL A   1      44.360  34.833  31.897  1.00  0.00     0.198 A 
ATOM     71  F   UNL A   1      44.476  33.461  29.990  1.00  0.00    -0.203 F 
ATOM     72  F   UNL A   1      43.369  34.072  35.299  1.00  0.00    -0.200 F 
ATOM     73  C   UNL A   1      44.080  34.996  33.246  1.00  0.00     0.200 A 
ATOM     74  F   UNL A   1      44.775  35.878  31.170  1.00  0.00    -0.200 F 
ATOM     75  F   UNL A   1      44.209  36.202  33.818  1.00  0.00    -0.200 F 
ENDBRANCH  51  65
BRANCH  52  76
ATOM     76  C   UNL A   1      42.785  23.704  27.400  1.00  0.00     0.064 A 
ATOM     77  C   UNL A   1      42.266  22.568  28.034  1.00  0.00     0.173 A 
ATOM     78  C   UNL A   1      43.173  23.585  26.059  1.00  0.00     0.173 A 
ATOM     79  F   UNL A   1      41.903  22.628  29.324  1.00  0.00    -0.203 F 
ATOM     80  C   UNL A   1      42.156  21.355  27.358  1.00  0.00     0.198 A 
ATOM     81  C   UNL A   1      43.039  22.378  25.376  1.00  0.00     0.198 A 
ATOM     82  F   UNL A   1      43.675  24.645  25.408  1.00  0.00    -0.203 F 
ATOM     83  F   UNL A   1      41.694  20.272  27.999  1.00  0.00    -0.200 F 
ATOM     84  C   UNL A   1      42.535  21.262  26.028  1.00  0.00     0.200 A 
ATOM     85  F   UNL A   1      43.396  22.296  24.087  1.00  0.00    -0.200 F 
ATOM     86  F   UNL A   1      42.425  20.097  25.376  1.00  0.00    -0.200 F 
ENDBRANCH  52  76
BRANCH  64  87
ATOM     87  C   UNL A   1      48.115  26.916  30.530  1.00  0.00     0.064 A 
ATOM     88  C   UNL A   1      48.522  26.077  31.577  1.00  0.00     0.173 A 
ATOM     89  C   UNL A   1      49.091  27.360  29.624  1.00  0.00     0.173 A 
ATOM     90  F   UNL A   1      47.629  25.642  32.479  1.00  0.00    -0.203 F 
ATOM     91  C   UNL A   1      49.856  25.705  31.718  1.00  0.00     0.198 A 
ATOM     92  C   UNL A   1      50.419  26.964  29.753  1.00  0.00     0.198 A 
ATOM     93  F   UNL A   1      48.751  28.161  28.604  1.00  0.00    -0.203 F 
ATOM     94  F   UNL A   1      50.229  24.929  32.746  1.00  0.00    -0.200 F 
ATOM     95  C   UNL A   1      50.802  26.141  30.801  1.00  0.00     0.200 A 
ATOM     96  F   UNL A   1      51.330  27.378  28.860  1.00  0.00    -0.200 F 
ATOM     97  F   UNL A   1      52.083  25.771  30.931  1.00  0.00    -0.200 F 
ENDBRANCH  64  87
ENDBRANCH  38  39
ENDBRANCH  30  33
ENDBRANCH  28  29
ENDBRANCH  27  28
ENDBRANCH  26  27
ENDBRANCH   1  26
TORSDOF 16
ENDMDL
