MODEL 1
REMARK VINA RESULT:     -12.5      0.000      0.000
REMARK SMILES Cc1cc(C(=O)N[C@@H](C)C(=O)NCCCCNC(=O)c2ccc(-c3c4nc(c(-c5c(F)c(F)c(F)c(F)c5F)c5ccc([nH]5)c(-c5c(F)c(F)c(F)c(F)c5F)c5nc(c(-c6c(F)c(F)c(F)c(F)c6F)c6ccc3[nH]6)C=C5)C=C4)cc2)cc(C)c1OC(F)F
REMARK SMILES IDX 13 1 12 2 10 3 11 4 8 6 9 7 7 8 5 9 6 10 4 12 1 13 2 14 3 15
REMARK SMILES IDX 86 16 84 17 83 18 85 19 87 20 88 21 89 22 90 23 14 24 15 25
REMARK SMILES IDX 16 26 17 27 18 28 19 30 20 31 21 32 82 33 22 34 81 35 23 36
REMARK SMILES IDX 24 37 25 38 75 39 26 40 80 41 74 42 76 43 27 44 79 45 73 46
REMARK SMILES IDX 72 47 28 49 60 50 40 51 59 52 41 53 44 54 58 55 77 56 42 57
REMARK SMILES IDX 43 58 57 60 78 61 45 62 29 63 30 64 38 65 31 66 32 67 36 68
REMARK SMILES IDX 39 69 33 70 34 71 37 72 35 73 61 74 62 75 70 76 63 77 64 78
REMARK SMILES IDX 68 79 71 80 65 81 66 82 69 83 67 84 46 85 47 86 55 87 48 88
REMARK SMILES IDX 49 89 53 90 56 91 50 92 51 93 54 94 52 95
REMARK H PARENT 12 5 7 11 17 29 76 48 44 59
REMARK Flexibility Score: inf
ROOT
ATOM      1  C   UNL A   1      35.684  20.470  25.365  1.00  0.00     0.116 C 
ENDROOT
BRANCH   1   2
ATOM      2  N   UNL A   1      35.624  19.106  24.875  1.00  0.00    -0.354 N 
ATOM      3  C   UNL A   1      34.550  18.321  24.558  1.00  0.00     0.242 C 
ATOM      4  O   UNL A   1      34.776  17.231  24.026  1.00  0.00    -0.273 OA
ATOM      5  H   UNL A   1      36.501  18.674  24.752  1.00  0.00     0.163 HD
BRANCH   3   6
ATOM      6  C   UNL A   1      33.102  18.772  24.841  1.00  0.00     0.168 C 
ATOM      7  C   UNL A   1      32.200  17.636  25.308  1.00  0.00     0.041 C 
BRANCH   6   8
ATOM      8  N   UNL A   1      32.606  19.483  23.663  1.00  0.00    -0.341 N 
ATOM      9  C   UNL A   1      32.361  20.812  23.415  1.00  0.00     0.251 C 
ATOM     10  O   UNL A   1      32.151  21.132  22.245  1.00  0.00    -0.269 OA
ATOM     11  H   UNL A   1      32.410  18.895  22.898  1.00  0.00     0.164 HD
BRANCH   9  12
ATOM     12  C   UNL A   1      32.214  21.837  24.484  1.00  0.00     0.040 A 
ATOM     13  C   UNL A   1      34.032  25.094  25.096  1.00  0.00     0.048 C 
ATOM     14  C   UNL A   1      32.987  24.036  25.312  1.00  0.00    -0.008 A 
ATOM     15  C   UNL A   1      33.105  22.917  24.452  1.00  0.00     0.021 A 
ATOM     16  C   UNL A   1      31.880  24.089  26.175  1.00  0.00     0.131 A 
ATOM     17  C   UNL A   1      31.035  22.955  26.280  1.00  0.00    -0.008 A 
ATOM     18  C   UNL A   1      31.251  21.820  25.478  1.00  0.00     0.021 A 
ATOM     19  C   UNL A   1      29.812  22.942  27.167  1.00  0.00     0.048 C 
BRANCH  16  20
ATOM     20  O   UNL A   1      31.408  25.162  26.874  1.00  0.00    -0.434 OA
BRANCH  20  21
ATOM     21  C   UNL A   1      30.735  26.238  26.253  1.00  0.00     0.542 C 
ATOM     22  F   UNL A   1      31.587  26.989  25.519  1.00  0.00    -0.167 F 
ATOM     23  F   UNL A   1      29.754  25.756  25.455  1.00  0.00    -0.167 F 
ENDBRANCH  20  21
ENDBRANCH  16  20
ENDBRANCH   9  12
ENDBRANCH   6   8
ENDBRANCH   3   6
ENDBRANCH   1   2
BRANCH   1  24
ATOM     24  C   UNL A   1      37.010  21.161  25.064  1.00  0.00     0.023 C 
BRANCH  24  25
ATOM     25  C   UNL A   1      38.195  20.230  24.821  1.00  0.00     0.023 C 
BRANCH  25  26
ATOM     26  C   UNL A   1      39.335  20.335  25.829  1.00  0.00     0.116 C 
BRANCH  26  27
ATOM     27  N   UNL A   1      40.242  19.197  25.806  1.00  0.00    -0.352 N 
ATOM     28  C   UNL A   1      41.599  19.170  26.034  1.00  0.00     0.251 C 
ATOM     29  H   UNL A   1      39.828  18.328  25.600  1.00  0.00     0.163 HD
ATOM     30  O   UNL A   1      42.235  18.132  25.900  1.00  0.00    -0.269 OA
BRANCH  28  31
ATOM     31  C   UNL A   1      42.290  20.421  26.404  1.00  0.00     0.039 A 
ATOM     32  C   UNL A   1      43.003  21.114  25.423  1.00  0.00     0.014 A 
ATOM     33  C   UNL A   1      42.182  20.933  27.699  1.00  0.00     0.014 A 
ATOM     34  C   UNL A   1      43.538  22.370  25.717  1.00  0.00     0.010 A 
ATOM     35  C   UNL A   1      42.657  22.210  27.971  1.00  0.00     0.010 A 
ATOM     36  C   UNL A   1      43.329  22.945  26.980  1.00  0.00    -0.014 A 
BRANCH  36  37
ATOM     37  C   UNL A   1      43.788  24.318  27.300  1.00  0.00     0.031 A 
ATOM     38  C   UNL A   1      42.802  25.336  27.793  1.00  0.00     0.074 A 
ATOM     39  C   UNL A   1      45.057  24.680  27.029  1.00  0.00     0.049 A 
ATOM     40  N   UNL A   1      42.952  26.625  27.960  1.00  0.00    -0.248 NA
ATOM     41  C   UNL A   1      41.451  24.841  28.100  1.00  0.00     0.031 C 
ATOM     42  C   UNL A   1      46.094  23.795  26.499  1.00  0.00     0.029 A 
ATOM     43  N   UNL A   1      45.679  25.899  27.130  1.00  0.00    -0.354 N 
ATOM     44  C   UNL A   1      41.709  27.099  28.353  1.00  0.00     0.074 A 
ATOM     45  C   UNL A   1      40.807  25.968  28.368  1.00  0.00     0.031 C 
ATOM     46  C   UNL A   1      47.222  24.500  26.318  1.00  0.00     0.029 A 
ATOM     47  C   UNL A   1      46.977  25.893  26.682  1.00  0.00     0.049 A 
ATOM     48  H   UNL A   1      45.238  26.702  27.491  1.00  0.00     0.167 HD
ATOM     49  C   UNL A   1      41.357  28.364  28.683  1.00  0.00     0.037 A 
ATOM     50  C   UNL A   1      47.863  26.899  26.557  1.00  0.00     0.037 A 
ATOM     51  C   UNL A   1      42.271  29.475  28.714  1.00  0.00     0.049 A 
ATOM     52  C   UNL A   1      47.461  28.290  26.964  1.00  0.00     0.074 A 
ATOM     53  C   UNL A   1      42.036  30.773  29.130  1.00  0.00     0.029 A 
ATOM     54  N   UNL A   1      43.597  29.416  28.311  1.00  0.00    -0.354 N 
ATOM     55  N   UNL A   1      46.302  28.717  27.404  1.00  0.00    -0.248 NA
ATOM     56  C   UNL A   1      48.486  29.338  26.860  1.00  0.00     0.031 C 
ATOM     57  C   UNL A   1      43.210  31.510  28.943  1.00  0.00     0.029 A 
ATOM     58  C   UNL A   1      44.186  30.661  28.448  1.00  0.00     0.049 A 
ATOM     59  H   UNL A   1      44.050  28.609  27.976  1.00  0.00     0.167 HD
ATOM     60  C   UNL A   1      46.463  30.073  27.653  1.00  0.00     0.074 A 
ATOM     61  C   UNL A   1      47.835  30.398  27.318  1.00  0.00     0.031 C 
ATOM     62  C   UNL A   1      45.557  30.965  28.120  1.00  0.00     0.037 A 
BRANCH  49  63
ATOM     63  C   UNL A   1      39.919  28.614  29.031  1.00  0.00     0.064 A 
ATOM     64  C   UNL A   1      38.997  29.073  28.079  1.00  0.00     0.173 A 
ATOM     65  C   UNL A   1      39.455  28.375  30.333  1.00  0.00     0.173 A 
ATOM     66  F   UNL A   1      39.395  29.328  26.823  1.00  0.00    -0.203 F 
ATOM     67  C   UNL A   1      37.671  29.317  28.426  1.00  0.00     0.198 A 
ATOM     68  C   UNL A   1      38.122  28.592  30.669  1.00  0.00     0.198 A 
ATOM     69  F   UNL A   1      40.295  27.931  31.281  1.00  0.00    -0.203 F 
ATOM     70  F   UNL A   1      36.821  29.808  27.513  1.00  0.00    -0.200 F 
ATOM     71  C   UNL A   1      37.234  29.071  29.719  1.00  0.00     0.200 A 
ATOM     72  F   UNL A   1      37.698  28.345  31.916  1.00  0.00    -0.200 F 
ATOM     73  F   UNL A   1      35.957  29.307  30.050  1.00  0.00    -0.200 F 
ENDBRANCH  49  63
BRANCH  50  74
ATOM     74  C   UNL A   1      49.223  26.617  26.032  1.00  0.00     0.064 A 
ATOM     75  C   UNL A   1      49.537  26.853  24.687  1.00  0.00     0.173 A 
ATOM     76  C   UNL A   1      50.241  26.137  26.867  1.00  0.00     0.173 A 
ATOM     77  F   UNL A   1      48.589  27.294  23.847  1.00  0.00    -0.203 F 
ATOM     78  C   UNL A   1      50.818  26.613  24.196  1.00  0.00     0.198 A 
ATOM     79  C   UNL A   1      51.528  25.918  26.380  1.00  0.00     0.198 A 
ATOM     80  F   UNL A   1      49.991  25.901  28.164  1.00  0.00    -0.203 F 
ATOM     81  F   UNL A   1      51.085  26.821  22.899  1.00  0.00    -0.200 F 
ATOM     82  C   UNL A   1      51.814  26.153  25.043  1.00  0.00     0.200 A 
ATOM     83  F   UNL A   1      52.491  25.488  27.205  1.00  0.00    -0.200 F 
ATOM     84  F   UNL A   1      53.049  25.934  24.572  1.00  0.00    -0.200 F 
ENDBRANCH  50  74
BRANCH  62  85
ATOM     85  C   UNL A   1      46.018  32.375  28.331  1.00  0.00     0.064 A 
ATOM     86  C   UNL A   1      46.618  32.777  29.532  1.00  0.00     0.173 A 
ATOM     87  C   UNL A   1      45.928  33.311  27.291  1.00  0.00     0.173 A 
ATOM     88  F   UNL A   1      46.713  31.920  30.559  1.00  0.00    -0.203 F 
ATOM     89  C   UNL A   1      47.108  34.072  29.686  1.00  0.00     0.198 A 
ATOM     90  C   UNL A   1      46.440  34.598  27.440  1.00  0.00     0.198 A 
ATOM     91  F   UNL A   1      45.367  32.971  26.121  1.00  0.00    -0.203 F 
ATOM     92  F   UNL A   1      47.657  34.444  30.851  1.00  0.00    -0.200 F 
ATOM     93  C   UNL A   1      47.028  34.977  28.637  1.00  0.00     0.200 A 
ATOM     94  F   UNL A   1      46.372  35.467  26.422  1.00  0.00    -0.200 F 
ATOM     95  F   UNL A   1      47.515  36.217  28.782  1.00  0.00    -0.200 F 
ENDBRANCH  62  85
ENDBRANCH  36  37
ENDBRANCH  28  31
ENDBRANCH  26  27
ENDBRANCH  25  26
ENDBRANCH  24  25
ENDBRANCH   1  24
TORSDOF 15
ENDMDL
MODEL 2
REMARK VINA RESULT:     -12.5      1.530      2.515
REMARK SMILES Cc1cc(C(=O)N[C@@H](C)C(=O)NCCCCNC(=O)c2ccc(-c3c4nc(c(-c5c(F)c(F)c(F)c(F)c5F)c5ccc([nH]5)c(-c5c(F)c(F)c(F)c(F)c5F)c5nc(c(-c6c(F)c(F)c(F)c(F)c6F)c6ccc3[nH]6)C=C5)C=C4)cc2)cc(C)c1OC(F)F
REMARK SMILES IDX 13 1 12 2 10 3 11 4 8 6 9 7 7 8 5 9 6 10 4 12 1 13 2 14 3 15
REMARK SMILES IDX 86 16 84 17 83 18 85 19 87 20 88 21 89 22 90 23 14 24 15 25
REMARK SMILES IDX 16 26 17 27 18 28 19 30 20 31 21 32 82 33 22 34 81 35 23 36
REMARK SMILES IDX 24 37 25 38 75 39 26 40 80 41 74 42 76 43 27 44 79 45 73 46
REMARK SMILES IDX 72 47 28 49 60 50 40 51 59 52 41 53 44 54 58 55 77 56 42 57
REMARK SMILES IDX 43 58 57 60 78 61 45 62 29 63 30 64 38 65 31 66 32 67 36 68
REMARK SMILES IDX 39 69 33 70 34 71 37 72 35 73 61 74 62 75 70 76 63 77 64 78
REMARK SMILES IDX 68 79 71 80 65 81 66 82 69 83 67 84 46 85 47 86 55 87 48 88
REMARK SMILES IDX 49 89 53 90 56 91 50 92 51 93 54 94 52 95
REMARK H PARENT 12 5 7 11 17 29 76 48 44 59
REMARK Flexibility Score: inf
ROOT
ATOM      1  C   UNL A   1      35.600  21.264  24.669  1.00  0.00     0.116 C 
ENDROOT
BRANCH   1   2
ATOM      2  N   UNL A   1      35.054  21.050  25.996  1.00  0.00    -0.354 N 
ATOM      3  C   UNL A   1      34.060  21.708  26.665  1.00  0.00     0.242 C 
ATOM      4  O   UNL A   1      33.686  21.236  27.743  1.00  0.00    -0.273 OA
ATOM      5  H   UNL A   1      35.468  20.310  26.497  1.00  0.00     0.163 HD
BRANCH   3   6
ATOM      6  C   UNL A   1      33.411  22.990  26.103  1.00  0.00     0.168 C 
ATOM      7  C   UNL A   1      34.342  24.195  26.126  1.00  0.00     0.041 C 
BRANCH   6   8
ATOM      8  N   UNL A   1      32.141  23.202  26.798  1.00  0.00    -0.341 N 
ATOM      9  C   UNL A   1      31.073  24.029  26.550  1.00  0.00     0.251 C 
ATOM     10  O   UNL A   1      30.046  23.824  27.198  1.00  0.00    -0.269 OA
ATOM     11  H   UNL A   1      32.030  22.643  27.601  1.00  0.00     0.164 HD
BRANCH   9  12
ATOM     12  C   UNL A   1      31.137  25.212  25.650  1.00  0.00     0.040 A 
ATOM     13  C   UNL A   1      31.779  28.869  26.363  1.00  0.00     0.048 C 
ATOM     14  C   UNL A   1      31.565  27.645  25.517  1.00  0.00    -0.008 A 
ATOM     15  C   UNL A   1      31.336  26.459  26.256  1.00  0.00     0.021 A 
ATOM     16  C   UNL A   1      31.673  27.540  24.120  1.00  0.00     0.131 A 
ATOM     17  C   UNL A   1      31.373  26.301  23.498  1.00  0.00    -0.008 A 
ATOM     18  C   UNL A   1      31.048  25.170  24.269  1.00  0.00     0.021 A 
ATOM     19  C   UNL A   1      31.488  26.100  22.006  1.00  0.00     0.048 C 
BRANCH  16  20
ATOM     20  O   UNL A   1      32.157  28.464  23.241  1.00  0.00    -0.434 OA
BRANCH  20  21
ATOM     21  C   UNL A   1      33.540  28.706  23.077  1.00  0.00     0.542 C 
ATOM     22  F   UNL A   1      34.215  28.487  24.227  1.00  0.00    -0.167 F 
ATOM     23  F   UNL A   1      34.027  27.898  22.106  1.00  0.00    -0.167 F 
ENDBRANCH  20  21
ENDBRANCH  16  20
ENDBRANCH   9  12
ENDBRANCH   6   8
ENDBRANCH   3   6
ENDBRANCH   1   2
BRANCH   1  24
ATOM     24  C   UNL A   1      37.109  21.482  24.666  1.00  0.00     0.023 C 
BRANCH  24  25
ATOM     25  C   UNL A   1      37.952  20.246  24.970  1.00  0.00     0.023 C 
BRANCH  25  26
ATOM     26  C   UNL A   1      39.230  20.496  25.763  1.00  0.00     0.116 C 
BRANCH  26  27
ATOM     27  N   UNL A   1      40.106  19.336  25.841  1.00  0.00    -0.352 N 
ATOM     28  C   UNL A   1      41.454  19.288  26.115  1.00  0.00     0.251 C 
ATOM     29  H   UNL A   1      39.675  18.466  25.675  1.00  0.00     0.163 HD
ATOM     30  O   UNL A   1      42.065  18.229  26.067  1.00  0.00    -0.269 OA
BRANCH  28  31
ATOM     31  C   UNL A   1      42.166  20.542  26.430  1.00  0.00     0.039 A 
ATOM     32  C   UNL A   1      42.627  21.339  25.379  1.00  0.00     0.014 A 
ATOM     33  C   UNL A   1      42.324  20.953  27.755  1.00  0.00     0.014 A 
ATOM     34  C   UNL A   1      43.171  22.596  25.654  1.00  0.00     0.010 A 
ATOM     35  C   UNL A   1      42.804  22.230  28.023  1.00  0.00     0.010 A 
ATOM     36  C   UNL A   1      43.221  23.067  26.974  1.00  0.00    -0.014 A 
BRANCH  36  37
ATOM     37  C   UNL A   1      43.693  24.435  27.300  1.00  0.00     0.031 A 
ATOM     38  C   UNL A   1      42.715  25.461  27.793  1.00  0.00     0.074 A 
ATOM     39  C   UNL A   1      44.966  24.785  27.033  1.00  0.00     0.049 A 
ATOM     40  N   UNL A   1      42.878  26.747  27.965  1.00  0.00    -0.248 NA
ATOM     41  C   UNL A   1      41.358  24.978  28.095  1.00  0.00     0.031 C 
ATOM     42  C   UNL A   1      45.996  23.892  26.504  1.00  0.00     0.029 A 
ATOM     43  N   UNL A   1      45.600  25.998  27.140  1.00  0.00    -0.354 N 
ATOM     44  C   UNL A   1      41.637  27.233  28.356  1.00  0.00     0.074 A 
ATOM     45  C   UNL A   1      40.725  26.110  28.365  1.00  0.00     0.031 C 
ATOM     46  C   UNL A   1      47.131  24.586  26.328  1.00  0.00     0.029 A 
ATOM     47  C   UNL A   1      46.899  25.980  26.696  1.00  0.00     0.049 A 
ATOM     48  H   UNL A   1      45.165  26.804  27.502  1.00  0.00     0.167 HD
ATOM     49  C   UNL A   1      41.297  28.500  28.688  1.00  0.00     0.037 A 
ATOM     50  C   UNL A   1      47.795  26.979  26.576  1.00  0.00     0.037 A 
ATOM     51  C   UNL A   1      42.222  29.601  28.725  1.00  0.00     0.049 A 
ATOM     52  C   UNL A   1      47.405  28.372  26.986  1.00  0.00     0.074 A 
ATOM     53  C   UNL A   1      41.998  30.901  29.145  1.00  0.00     0.029 A 
ATOM     54  N   UNL A   1      43.548  29.531  28.326  1.00  0.00    -0.354 N 
ATOM     55  N   UNL A   1      46.249  28.809  27.425  1.00  0.00    -0.248 NA
ATOM     56  C   UNL A   1      48.441  29.410  26.888  1.00  0.00     0.031 C 
ATOM     57  C   UNL A   1      43.180  31.627  28.963  1.00  0.00     0.029 A 
ATOM     58  C   UNL A   1      44.149  30.770  28.468  1.00  0.00     0.049 A 
ATOM     59  H   UNL A   1      43.995  28.720  27.989  1.00  0.00     0.167 HD
ATOM     60  C   UNL A   1      46.423  30.162  27.678  1.00  0.00     0.074 A 
ATOM     61  C   UNL A   1      47.798  30.475  27.348  1.00  0.00     0.031 C 
ATOM     62  C   UNL A   1      45.524  31.061  28.145  1.00  0.00     0.037 A 
BRANCH  49  63
ATOM     63  C   UNL A   1      39.861  28.763  29.033  1.00  0.00     0.064 A 
ATOM     64  C   UNL A   1      38.929  29.159  28.063  1.00  0.00     0.173 A 
ATOM     65  C   UNL A   1      39.409  28.600  30.351  1.00  0.00     0.173 A 
ATOM     66  F   UNL A   1      39.314  29.341  26.791  1.00  0.00    -0.203 F 
ATOM     67  C   UNL A   1      37.603  29.417  28.406  1.00  0.00     0.198 A 
ATOM     68  C   UNL A   1      38.078  28.830  30.685  1.00  0.00     0.198 A 
ATOM     69  F   UNL A   1      40.260  28.218  31.317  1.00  0.00    -0.203 F 
ATOM     70  F   UNL A   1      36.744  29.848  27.473  1.00  0.00    -0.200 F 
ATOM     71  C   UNL A   1      37.179  29.247  29.715  1.00  0.00     0.200 A 
ATOM     72  F   UNL A   1      37.666  28.655  31.949  1.00  0.00    -0.200 F 
ATOM     73  F   UNL A   1      35.903  29.496  30.043  1.00  0.00    -0.200 F 
ENDBRANCH  49  63
BRANCH  50  74
ATOM     74  C   UNL A   1      49.153  26.684  26.054  1.00  0.00     0.064 A 
ATOM     75  C   UNL A   1      49.482  26.949  24.718  1.00  0.00     0.173 A 
ATOM     76  C   UNL A   1      50.156  26.164  26.884  1.00  0.00     0.173 A 
ATOM     77  F   UNL A   1      48.549  27.429  23.882  1.00  0.00    -0.203 F 
ATOM     78  C   UNL A   1      50.762  26.698  24.230  1.00  0.00     0.198 A 
ATOM     79  C   UNL A   1      51.442  25.934  26.401  1.00  0.00     0.198 A 
ATOM     80  F   UNL A   1      49.891  25.900  28.172  1.00  0.00    -0.203 F 
ATOM     81  F   UNL A   1      51.043  26.935  22.941  1.00  0.00    -0.200 F 
ATOM     82  C   UNL A   1      51.743  26.198  25.072  1.00  0.00     0.200 A 
ATOM     83  F   UNL A   1      52.391  25.465  27.222  1.00  0.00    -0.200 F 
ATOM     84  F   UNL A   1      52.978  25.968  24.605  1.00  0.00    -0.200 F 
ENDBRANCH  50  74
BRANCH  62  85
ATOM     85  C   UNL A   1      45.998  32.467  28.362  1.00  0.00     0.064 A 
ATOM     86  C   UNL A   1      45.875  33.443  27.364  1.00  0.00     0.173 A 
ATOM     87  C   UNL A   1      46.506  32.856  29.610  1.00  0.00     0.173 A 
ATOM     88  F   UNL A   1      45.408  33.114  26.151  1.00  0.00    -0.203 F 
ATOM     89  C   UNL A   1      46.251  34.762  27.607  1.00  0.00     0.198 A 
ATOM     90  C   UNL A   1      46.859  34.180  29.857  1.00  0.00     0.198 A 
ATOM     91  F   UNL A   1      46.636  31.958  30.598  1.00  0.00    -0.203 F 
ATOM     92  F   UNL A   1      46.148  35.676  26.632  1.00  0.00    -0.200 F 
ATOM     93  C   UNL A   1      46.733  35.131  28.855  1.00  0.00     0.200 A 
ATOM     94  F   UNL A   1      47.313  34.537  31.066  1.00  0.00    -0.200 F 
ATOM     95  F   UNL A   1      47.078  36.404  29.092  1.00  0.00    -0.200 F 
ENDBRANCH  62  85
ENDBRANCH  36  37
ENDBRANCH  28  31
ENDBRANCH  26  27
ENDBRANCH  25  26
ENDBRANCH  24  25
ENDBRANCH   1  24
TORSDOF 15
ENDMDL
MODEL 3
REMARK VINA RESULT:     -12.5      2.085      3.147
REMARK SMILES Cc1cc(C(=O)N[C@@H](C)C(=O)NCCCCNC(=O)c2ccc(-c3c4nc(c(-c5c(F)c(F)c(F)c(F)c5F)c5ccc([nH]5)c(-c5c(F)c(F)c(F)c(F)c5F)c5nc(c(-c6c(F)c(F)c(F)c(F)c6F)c6ccc3[nH]6)C=C5)C=C4)cc2)cc(C)c1OC(F)F
REMARK SMILES IDX 13 1 12 2 10 3 11 4 8 6 9 7 7 8 5 9 6 10 4 12 1 13 2 14 3 15
REMARK SMILES IDX 86 16 84 17 83 18 85 19 87 20 88 21 89 22 90 23 14 24 15 25
REMARK SMILES IDX 16 26 17 27 18 28 19 30 20 31 21 32 82 33 22 34 81 35 23 36
REMARK SMILES IDX 24 37 25 38 75 39 26 40 80 41 74 42 76 43 27 44 79 45 73 46
REMARK SMILES IDX 72 47 28 49 60 50 40 51 59 52 41 53 44 54 58 55 77 56 42 57
REMARK SMILES IDX 43 58 57 60 78 61 45 62 29 63 30 64 38 65 31 66 32 67 36 68
REMARK SMILES IDX 39 69 33 70 34 71 37 72 35 73 61 74 62 75 70 76 63 77 64 78
REMARK SMILES IDX 68 79 71 80 65 81 66 82 69 83 67 84 46 85 47 86 55 87 48 88
REMARK SMILES IDX 49 89 53 90 56 91 50 92 51 93 54 94 52 95
REMARK H PARENT 12 5 7 11 17 29 76 48 44 59
REMARK Flexibility Score: inf
ROOT
ATOM      1  C   UNL A   1      33.401  23.136  23.456  1.00  0.00     0.116 C 
ENDROOT
BRANCH   1   2
ATOM      2  N   UNL A   1      32.932  21.841  23.910  1.00  0.00    -0.354 N 
ATOM      3  C   UNL A   1      32.636  21.393  25.167  1.00  0.00     0.242 C 
ATOM      4  O   UNL A   1      32.118  20.277  25.269  1.00  0.00    -0.273 OA
ATOM      5  H   UNL A   1      32.809  21.174  23.195  1.00  0.00     0.163 HD
BRANCH   3   6
ATOM      6  C   UNL A   1      32.923  22.243  26.422  1.00  0.00     0.168 C 
ATOM      7  C   UNL A   1      33.828  21.543  27.427  1.00  0.00     0.041 C 
BRANCH   6   8
ATOM      8  N   UNL A   1      31.644  22.686  26.976  1.00  0.00    -0.341 N 
ATOM      9  C   UNL A   1      30.840  23.767  26.709  1.00  0.00     0.251 C 
ATOM     10  O   UNL A   1      29.707  23.754  27.192  1.00  0.00    -0.269 OA
ATOM     11  H   UNL A   1      31.289  22.093  27.679  1.00  0.00     0.164 HD
BRANCH   9  12
ATOM     12  C   UNL A   1      31.306  24.983  25.988  1.00  0.00     0.040 A 
ATOM     13  C   UNL A   1      29.545  27.281  23.557  1.00  0.00     0.048 C 
ATOM     14  C   UNL A   1      30.655  26.813  24.456  1.00  0.00    -0.008 A 
ATOM     15  C   UNL A   1      30.403  25.574  25.095  1.00  0.00     0.021 A 
ATOM     16  C   UNL A   1      31.827  27.506  24.801  1.00  0.00     0.131 A 
ATOM     17  C   UNL A   1      32.787  26.865  25.625  1.00  0.00    -0.008 A 
ATOM     18  C   UNL A   1      32.541  25.586  26.156  1.00  0.00     0.021 A 
ATOM     19  C   UNL A   1      34.061  27.550  26.059  1.00  0.00     0.048 C 
BRANCH  16  20
ATOM     20  O   UNL A   1      32.143  28.808  24.543  1.00  0.00    -0.434 OA
BRANCH  20  21
ATOM     21  C   UNL A   1      31.558  29.886  25.246  1.00  0.00     0.542 C 
ATOM     22  F   UNL A   1      30.393  30.266  24.676  1.00  0.00    -0.167 F 
ATOM     23  F   UNL A   1      31.335  29.519  26.529  1.00  0.00    -0.167 F 
ENDBRANCH  20  21
ENDBRANCH  16  20
ENDBRANCH   9  12
ENDBRANCH   6   8
ENDBRANCH   3   6
ENDBRANCH   1   2
BRANCH   1  24
ATOM     24  C   UNL A   1      34.758  23.523  24.033  1.00  0.00     0.023 C 
BRANCH  24  25
ATOM     25  C   UNL A   1      35.775  22.388  24.138  1.00  0.00     0.023 C 
BRANCH  25  26
ATOM     26  C   UNL A   1      36.692  22.434  25.355  1.00  0.00     0.116 C 
BRANCH  26  27
ATOM     27  N   UNL A   1      37.613  21.310  25.435  1.00  0.00    -0.352 N 
ATOM     28  C   UNL A   1      38.893  21.276  25.938  1.00  0.00     0.251 C 
ATOM     29  H   UNL A   1      37.274  20.456  25.080  1.00  0.00     0.163 HD
ATOM     30  O   UNL A   1      39.570  20.260  25.861  1.00  0.00    -0.269 OA
BRANCH  28  31
ATOM     31  C   UNL A   1      39.459  22.500  26.541  1.00  0.00     0.039 A 
ATOM     32  C   UNL A   1      40.471  22.375  27.496  1.00  0.00     0.014 A 
ATOM     33  C   UNL A   1      39.031  23.761  26.120  1.00  0.00     0.014 A 
ATOM     34  C   UNL A   1      41.119  23.520  27.967  1.00  0.00     0.010 A 
ATOM     35  C   UNL A   1      39.720  24.892  26.539  1.00  0.00     0.010 A 
ATOM     36  C   UNL A   1      40.777  24.781  27.457  1.00  0.00    -0.014 A 
BRANCH  36  37
ATOM     37  C   UNL A   1      41.510  26.009  27.851  1.00  0.00     0.031 A 
ATOM     38  C   UNL A   1      40.785  27.111  28.566  1.00  0.00     0.074 A 
ATOM     39  C   UNL A   1      42.786  26.183  27.456  1.00  0.00     0.049 A 
ATOM     40  N   UNL A   1      41.184  28.326  28.841  1.00  0.00    -0.248 NA
ATOM     41  C   UNL A   1      39.408  26.816  28.995  1.00  0.00     0.031 C 
ATOM     42  C   UNL A   1      43.581  25.207  26.711  1.00  0.00     0.029 A 
ATOM     43  N   UNL A   1      43.626  27.259  27.598  1.00  0.00    -0.354 N 
ATOM     44  C   UNL A   1      40.098  28.952  29.437  1.00  0.00     0.074 A 
ATOM     45  C   UNL A   1      39.013  27.994  29.455  1.00  0.00     0.031 C 
ATOM     46  C   UNL A   1      44.791  25.729  26.457  1.00  0.00     0.029 A 
ATOM     47  C   UNL A   1      44.845  27.088  26.987  1.00  0.00     0.049 A 
ATOM     48  H   UNL A   1      43.380  28.075  28.091  1.00  0.00     0.167 HD
ATOM     49  C   UNL A   1      40.019  30.209  29.934  1.00  0.00     0.037 A 
ATOM     50  C   UNL A   1      45.879  27.940  26.850  1.00  0.00     0.037 A 
ATOM     51  C   UNL A   1      41.118  31.137  29.958  1.00  0.00     0.049 A 
ATOM     52  C   UNL A   1      45.783  29.319  27.442  1.00  0.00     0.074 A 
ATOM     53  C   UNL A   1      41.170  32.397  30.529  1.00  0.00     0.029 A 
ATOM     54  N   UNL A   1      42.359  30.906  29.383  1.00  0.00    -0.354 N 
ATOM     55  N   UNL A   1      44.777  29.878  28.070  1.00  0.00    -0.248 NA
ATOM     56  C   UNL A   1      46.964  30.184  27.312  1.00  0.00     0.031 C 
ATOM     57  C   UNL A   1      42.430  32.943  30.266  1.00  0.00     0.029 A 
ATOM     58  C   UNL A   1      43.176  32.008  29.567  1.00  0.00     0.049 A 
ATOM     59  H   UNL A   1      42.619  30.081  28.913  1.00  0.00     0.167 HD
ATOM     60  C   UNL A   1      45.207  31.146  28.430  1.00  0.00     0.074 A 
ATOM     61  C   UNL A   1      46.570  31.275  27.955  1.00  0.00     0.031 C 
ATOM     62  C   UNL A   1      44.535  32.115  29.096  1.00  0.00     0.037 A 
BRANCH  49  63
ATOM     63  C   UNL A   1      38.698  30.652  30.488  1.00  0.00     0.064 A 
ATOM     64  C   UNL A   1      37.671  31.127  29.660  1.00  0.00     0.173 A 
ATOM     65  C   UNL A   1      38.451  30.585  31.868  1.00  0.00     0.173 A 
ATOM     66  F   UNL A   1      37.862  31.222  28.335  1.00  0.00    -0.203 F 
ATOM     67  C   UNL A   1      36.458  31.553  30.194  1.00  0.00     0.198 A 
ATOM     68  C   UNL A   1      37.227  30.983  32.396  1.00  0.00     0.198 A 
ATOM     69  F   UNL A   1      39.399  30.133  32.704  1.00  0.00    -0.203 F 
ATOM     70  F   UNL A   1      35.512  32.055  29.388  1.00  0.00    -0.200 F 
ATOM     71  C   UNL A   1      36.235  31.475  31.561  1.00  0.00     0.200 A 
ATOM     72  F   UNL A   1      37.009  30.899  33.716  1.00  0.00    -0.200 F 
ATOM     73  F   UNL A   1      35.067  31.886  32.074  1.00  0.00    -0.200 F 
ENDBRANCH  49  63
BRANCH  50  74
ATOM     74  C   UNL A   1      47.100  27.498  26.128  1.00  0.00     0.064 A 
ATOM     75  C   UNL A   1      47.203  27.643  24.739  1.00  0.00     0.173 A 
ATOM     76  C   UNL A   1      48.195  26.954  26.813  1.00  0.00     0.173 A 
ATOM     77  F   UNL A   1      46.174  28.141  24.039  1.00  0.00    -0.203 F 
ATOM     78  C   UNL A   1      48.356  27.254  24.060  1.00  0.00     0.198 A 
ATOM     79  C   UNL A   1      49.355  26.585  26.137  1.00  0.00     0.198 A 
ATOM     80  F   UNL A   1      48.145  26.801  28.145  1.00  0.00    -0.203 F 
ATOM     81  F   UNL A   1      48.420  27.378  22.727  1.00  0.00    -0.200 F 
ATOM     82  C   UNL A   1      49.434  26.732  24.759  1.00  0.00     0.200 A 
ATOM     83  F   UNL A   1      50.399  26.095  26.818  1.00  0.00    -0.200 F 
ATOM     84  F   UNL A   1      50.546  26.369  24.107  1.00  0.00    -0.200 F 
ENDBRANCH  50  74
BRANCH  62  85
ATOM     85  C   UNL A   1      45.264  33.392  29.387  1.00  0.00     0.064 A 
ATOM     86  C   UNL A   1      46.046  33.542  30.540  1.00  0.00     0.173 A 
ATOM     87  C   UNL A   1      45.242  34.444  28.460  1.00  0.00     0.173 A 
ATOM     88  F   UNL A   1      46.086  32.568  31.460  1.00  0.00    -0.203 F 
ATOM     89  C   UNL A   1      46.777  34.708  30.759  1.00  0.00     0.198 A 
ATOM     90  C   UNL A   1      45.993  35.598  28.671  1.00  0.00     0.198 A 
ATOM     91  F   UNL A   1      44.513  34.343  27.339  1.00  0.00    -0.203 F 
ATOM     92  F   UNL A   1      47.500  34.842  31.880  1.00  0.00    -0.200 F 
ATOM     93  C   UNL A   1      46.758  35.729  29.820  1.00  0.00     0.200 A 
ATOM     94  F   UNL A   1      45.982  36.579  27.758  1.00  0.00    -0.200 F 
ATOM     95  F   UNL A   1      47.475  36.842  30.024  1.00  0.00    -0.200 F 
ENDBRANCH  62  85
ENDBRANCH  36  37
ENDBRANCH  28  31
ENDBRANCH  26  27
ENDBRANCH  25  26
ENDBRANCH  24  25
ENDBRANCH   1  24
TORSDOF 15
ENDMDL
