MODEL 1
REMARK VINA RESULT:     -12.8      0.000      0.000
REMARK SMILES CC(C)(C)OC(=O)N1C[C@@H](COCc2ccccc2)O[C@@H](C(=O)NCCCCNC(=O)c2ccc(-c3c4nc(c(-c5c(F)c(F)c(F)c(F)c5F)c5ccc([nH]5)c(-c5c(F)c(F)c(F)c(F)c5F)c5nc(c(-c6c(F)c(F)c(F)c(F)c6F)c6ccc3[nH]6)C=C5)C=C4)cc2)C1
REMARK SMILES IDX 25 1 24 2 22 3 23 4 21 6 8 7 9 8 95 9 10 10 20 11 6 12 7 13
REMARK SMILES IDX 5 14 2 15 1 16 3 17 4 18 11 19 12 20 13 21 14 22 15 23 19 24
REMARK SMILES IDX 16 25 18 26 17 27 26 28 27 29 28 30 29 31 30 32 31 34 32 35
REMARK SMILES IDX 33 36 94 37 34 38 93 39 35 40 36 41 37 42 87 43 38 44 92 45
REMARK SMILES IDX 86 46 88 47 39 48 91 49 85 50 84 51 40 53 72 54 52 55 71 56
REMARK SMILES IDX 53 57 56 58 70 59 89 60 54 61 55 62 69 64 90 65 57 66 41 67
REMARK SMILES IDX 42 68 50 69 43 70 44 71 48 72 51 73 45 74 46 75 49 76 47 77
REMARK SMILES IDX 73 78 74 79 82 80 75 81 76 82 80 83 83 84 77 85 78 86 81 87
REMARK SMILES IDX 79 88 58 89 59 90 67 91 60 92 61 93 65 94 68 95 62 96 63 97
REMARK SMILES IDX 66 98 64 99
REMARK H PARENT 24 5 29 33 88 52 56 63
REMARK Flexibility Score: inf
ROOT
ATOM      1  C   UNL A   1      33.770  28.058  23.541  1.00  0.00     0.116 C 
ENDROOT
BRANCH   1   2
ATOM      2  N   UNL A   1      33.758  27.291  22.310  1.00  0.00    -0.354 N 
ATOM      3  C   UNL A   1      33.037  26.181  21.985  1.00  0.00     0.251 C 
ATOM      4  O   UNL A   1      33.228  25.673  20.877  1.00  0.00    -0.272 OA
ATOM      5  H   UNL A   1      34.361  27.621  21.604  1.00  0.00     0.163 HD
BRANCH   3   6
ATOM      6  C   UNL A   1      32.033  25.571  22.969  1.00  0.00     0.227 C 
ATOM      7  N   UNL A   1      31.664  24.849  25.293  1.00  0.00    -0.302 N 
ATOM      8  C   UNL A   1      30.328  25.445  25.245  1.00  0.00     0.157 C 
ATOM      9  C   UNL A   1      32.648  25.387  24.356  1.00  0.00     0.165 C 
ATOM     10  C   UNL A   1      29.819  25.667  23.806  1.00  0.00     0.164 C 
ATOM     11  O   UNL A   1      30.834  26.352  23.050  1.00  0.00    -0.359 OA
BRANCH   7  12
ATOM     12  C   UNL A   1      32.101  24.079  26.352  1.00  0.00     0.410 C 
ATOM     13  O   UNL A   1      31.446  23.903  27.369  1.00  0.00    -0.224 OA
BRANCH  12  14
ATOM     14  O   UNL A   1      33.341  23.584  26.128  1.00  0.00    -0.444 OA
BRANCH  14  15
ATOM     15  C   UNL A   1      33.581  22.157  26.050  1.00  0.00     0.106 C 
ATOM     16  C   UNL A   1      34.792  22.027  25.113  1.00  0.00     0.056 C 
ATOM     17  C   UNL A   1      32.373  21.465  25.415  1.00  0.00     0.056 C 
ATOM     18  C   UNL A   1      33.953  21.535  27.403  1.00  0.00     0.056 C 
ENDBRANCH  14  15
ENDBRANCH  12  14
ENDBRANCH   7  12
BRANCH  10  19
ATOM     19  C   UNL A   1      28.549  26.532  23.860  1.00  0.00     0.194 C 
BRANCH  19  20
ATOM     20  O   UNL A   1      28.673  27.937  23.648  1.00  0.00    -0.374 OA
BRANCH  20  21
ATOM     21  C   UNL A   1      27.620  28.646  22.999  1.00  0.00     0.195 C 
BRANCH  21  22
ATOM     22  C   UNL A   1      27.886  30.060  22.513  1.00  0.00    -0.022 A 
ATOM     23  C   UNL A   1      27.976  30.435  21.167  1.00  0.00     0.006 A 
ATOM     24  C   UNL A   1      28.015  31.075  23.481  1.00  0.00     0.006 A 
ATOM     25  C   UNL A   1      28.175  31.769  20.797  1.00  0.00     0.000 A 
ATOM     26  C   UNL A   1      28.233  32.406  23.115  1.00  0.00     0.000 A 
ATOM     27  C   UNL A   1      28.308  32.755  21.771  1.00  0.00     0.000 A 
ENDBRANCH  21  22
ENDBRANCH  20  21
ENDBRANCH  19  20
ENDBRANCH  10  19
ENDBRANCH   3   6
ENDBRANCH   1   2
BRANCH   1  28
ATOM     28  C   UNL A   1      32.675  29.124  23.537  1.00  0.00     0.023 C 
BRANCH  28  29
ATOM     29  C   UNL A   1      31.926  29.269  24.863  1.00  0.00     0.023 C 
BRANCH  29  30
ATOM     30  C   UNL A   1      32.781  29.720  26.041  1.00  0.00     0.116 C 
BRANCH  30  31
ATOM     31  N   UNL A   1      32.499  31.085  26.460  1.00  0.00    -0.352 N 
ATOM     32  C   UNL A   1      33.237  31.913  27.271  1.00  0.00     0.251 C 
ATOM     33  H   UNL A   1      31.662  31.469  26.111  1.00  0.00     0.163 HD
ATOM     34  O   UNL A   1      32.789  32.999  27.623  1.00  0.00    -0.269 OA
BRANCH  32  35
ATOM     35  C   UNL A   1      34.560  31.469  27.750  1.00  0.00     0.039 A 
ATOM     36  C   UNL A   1      35.577  32.416  27.897  1.00  0.00     0.014 A 
ATOM     37  C   UNL A   1      34.779  30.134  28.099  1.00  0.00     0.014 A 
ATOM     38  C   UNL A   1      36.785  32.042  28.485  1.00  0.00     0.010 A 
ATOM     39  C   UNL A   1      35.960  29.777  28.744  1.00  0.00     0.010 A 
ATOM     40  C   UNL A   1      36.965  30.733  28.962  1.00  0.00    -0.014 A 
BRANCH  40  41
ATOM     41  C   UNL A   1      38.168  30.355  29.745  1.00  0.00     0.031 A 
ATOM     42  C   UNL A   1      39.150  29.361  29.198  1.00  0.00     0.074 A 
ATOM     43  C   UNL A   1      38.321  30.842  30.991  1.00  0.00     0.049 A 
ATOM     44  N   UNL A   1      40.200  28.833  29.776  1.00  0.00    -0.248 NA
ATOM     45  C   UNL A   1      38.909  28.879  27.830  1.00  0.00     0.031 C 
ATOM     46  C   UNL A   1      37.409  31.779  31.650  1.00  0.00     0.029 A 
ATOM     47  N   UNL A   1      39.289  30.604  31.935  1.00  0.00    -0.354 N 
ATOM     48  C   UNL A   1      40.736  27.952  28.848  1.00  0.00     0.074 A 
ATOM     49  C   UNL A   1      39.873  27.980  27.687  1.00  0.00     0.031 C 
ATOM     50  C   UNL A   1      37.866  32.046  32.883  1.00  0.00     0.029 A 
ATOM     51  C   UNL A   1      39.078  31.268  33.119  1.00  0.00     0.049 A 
ATOM     52  H   UNL A   1      40.061  30.013  31.778  1.00  0.00     0.167 HD
ATOM     53  C   UNL A   1      41.859  27.200  28.952  1.00  0.00     0.037 A 
ATOM     54  C   UNL A   1      39.774  31.240  34.272  1.00  0.00     0.037 A 
ATOM     55  C   UNL A   1      42.725  27.189  30.101  1.00  0.00     0.049 A 
ATOM     56  C   UNL A   1      41.000  30.375  34.368  1.00  0.00     0.074 A 
ATOM     57  C   UNL A   1      43.924  26.518  30.272  1.00  0.00     0.029 A 
ATOM     58  N   UNL A   1      42.480  27.874  31.282  1.00  0.00    -0.354 N 
ATOM     59  N   UNL A   1      41.539  29.600  33.459  1.00  0.00    -0.248 NA
ATOM     60  C   UNL A   1      41.713  30.377  35.654  1.00  0.00     0.031 C 
ATOM     61  C   UNL A   1      44.379  26.760  31.572  1.00  0.00     0.029 A 
ATOM     62  C   UNL A   1      43.488  27.616  32.197  1.00  0.00     0.049 A 
ATOM     63  H   UNL A   1      41.704  28.457  31.446  1.00  0.00     0.167 HD
ATOM     64  C   UNL A   1      42.661  29.039  34.052  1.00  0.00     0.074 A 
ATOM     65  C   UNL A   1      42.736  29.575  35.395  1.00  0.00     0.031 C 
ATOM     66  C   UNL A   1      43.547  28.154  33.533  1.00  0.00     0.037 A 
BRANCH  53  67
ATOM     67  C   UNL A   1      42.221  26.329  27.785  1.00  0.00     0.064 A 
ATOM     68  C   UNL A   1      43.166  26.734  26.831  1.00  0.00     0.173 A 
ATOM     69  C   UNL A   1      41.649  25.056  27.644  1.00  0.00     0.173 A 
ATOM     70  F   UNL A   1      43.734  27.946  26.917  1.00  0.00    -0.203 F 
ATOM     71  C   UNL A   1      43.508  25.906  25.765  1.00  0.00     0.198 A 
ATOM     72  C   UNL A   1      42.013  24.220  26.591  1.00  0.00     0.198 A 
ATOM     73  F   UNL A   1      40.743  24.618  28.531  1.00  0.00    -0.203 F 
ATOM     74  F   UNL A   1      44.382  26.332  24.842  1.00  0.00    -0.200 F 
ATOM     75  C   UNL A   1      42.936  24.647  25.650  1.00  0.00     0.200 A 
ATOM     76  F   UNL A   1      41.469  22.999  26.488  1.00  0.00    -0.200 F 
ATOM     77  F   UNL A   1      43.273  23.849  24.627  1.00  0.00    -0.200 F 
ENDBRANCH  53  67
BRANCH  54  78
ATOM     78  C   UNL A   1      39.330  32.063  35.425  1.00  0.00     0.064 A 
ATOM     79  C   UNL A   1      38.517  31.516  36.426  1.00  0.00     0.173 A 
ATOM     80  C   UNL A   1      39.709  33.407  35.552  1.00  0.00     0.173 A 
ATOM     81  F   UNL A   1      38.111  30.241  36.337  1.00  0.00    -0.203 F 
ATOM     82  C   UNL A   1      38.084  32.287  37.503  1.00  0.00     0.198 A 
ATOM     83  C   UNL A   1      39.297  34.171  36.642  1.00  0.00     0.198 A 
ATOM     84  F   UNL A   1      40.489  33.977  34.621  1.00  0.00    -0.203 F 
ATOM     85  F   UNL A   1      37.272  31.751  38.424  1.00  0.00    -0.200 F 
ATOM     86  C   UNL A   1      38.479  33.612  37.613  1.00  0.00     0.200 A 
ATOM     87  F   UNL A   1      39.692  35.446  36.752  1.00  0.00    -0.200 F 
ATOM     88  F   UNL A   1      38.066  34.352  38.651  1.00  0.00    -0.200 F 
ENDBRANCH  54  78
BRANCH  66  89
ATOM     89  C   UNL A   1      44.681  27.721  34.413  1.00  0.00     0.064 A 
ATOM     90  C   UNL A   1      45.879  28.448  34.471  1.00  0.00     0.173 A 
ATOM     91  C   UNL A   1      44.555  26.593  35.237  1.00  0.00     0.173 A 
ATOM     92  F   UNL A   1      46.055  29.523  33.689  1.00  0.00    -0.203 F 
ATOM     93  C   UNL A   1      46.916  28.050  35.310  1.00  0.00     0.198 A 
ATOM     94  C   UNL A   1      45.584  26.215  36.095  1.00  0.00     0.198 A 
ATOM     95  F   UNL A   1      43.427  25.867  35.221  1.00  0.00    -0.203 F 
ATOM     96  F   UNL A   1      48.068  28.735  35.319  1.00  0.00    -0.200 F 
ATOM     97  C   UNL A   1      46.765  26.938  36.126  1.00  0.00     0.200 A 
ATOM     98  F   UNL A   1      45.431  25.147  36.891  1.00  0.00    -0.200 F 
ATOM     99  F   UNL A   1      47.762  26.562  36.939  1.00  0.00    -0.200 F 
ENDBRANCH  66  89
ENDBRANCH  40  41
ENDBRANCH  32  35
ENDBRANCH  30  31
ENDBRANCH  29  30
ENDBRANCH  28  29
ENDBRANCH   1  28
TORSDOF 18
ENDMDL
MODEL 2
REMARK VINA RESULT:     -12.7      1.648      7.302
REMARK SMILES CC(C)(C)OC(=O)N1C[C@@H](COCc2ccccc2)O[C@@H](C(=O)NCCCCNC(=O)c2ccc(-c3c4nc(c(-c5c(F)c(F)c(F)c(F)c5F)c5ccc([nH]5)c(-c5c(F)c(F)c(F)c(F)c5F)c5nc(c(-c6c(F)c(F)c(F)c(F)c6F)c6ccc3[nH]6)C=C5)C=C4)cc2)C1
REMARK SMILES IDX 25 1 24 2 22 3 23 4 21 6 8 7 9 8 95 9 10 10 20 11 6 12 7 13
REMARK SMILES IDX 5 14 2 15 1 16 3 17 4 18 11 19 12 20 13 21 14 22 15 23 19 24
REMARK SMILES IDX 16 25 18 26 17 27 26 28 27 29 28 30 29 31 30 32 31 34 32 35
REMARK SMILES IDX 33 36 94 37 34 38 93 39 35 40 36 41 37 42 87 43 38 44 92 45
REMARK SMILES IDX 86 46 88 47 39 48 91 49 85 50 84 51 40 53 72 54 52 55 71 56
REMARK SMILES IDX 53 57 56 58 70 59 89 60 54 61 55 62 69 64 90 65 57 66 41 67
REMARK SMILES IDX 42 68 50 69 43 70 44 71 48 72 51 73 45 74 46 75 49 76 47 77
REMARK SMILES IDX 73 78 74 79 82 80 75 81 76 82 80 83 83 84 77 85 78 86 81 87
REMARK SMILES IDX 79 88 58 89 59 90 67 91 60 92 61 93 65 94 68 95 62 96 63 97
REMARK SMILES IDX 66 98 64 99
REMARK H PARENT 24 5 29 33 88 52 56 63
REMARK Flexibility Score: inf
ROOT
ATOM      1  C   UNL A   1      32.112  29.841  25.845  1.00  0.00     0.116 C 
ENDROOT
BRANCH   1   2
ATOM      2  N   UNL A   1      32.984  29.657  24.700  1.00  0.00    -0.354 N 
ATOM      3  C   UNL A   1      33.146  28.566  23.898  1.00  0.00     0.251 C 
ATOM      4  O   UNL A   1      33.989  28.632  22.999  1.00  0.00    -0.272 OA
ATOM      5  H   UNL A   1      33.543  30.434  24.469  1.00  0.00     0.163 HD
BRANCH   3   6
ATOM      6  C   UNL A   1      32.323  27.293  24.115  1.00  0.00     0.227 C 
ATOM      7  N   UNL A   1      31.733  25.513  25.711  1.00  0.00    -0.302 N 
ATOM      8  C   UNL A   1      30.340  25.609  25.274  1.00  0.00     0.157 C 
ATOM      9  C   UNL A   1      32.561  26.699  25.504  1.00  0.00     0.165 C 
ATOM     10  C   UNL A   1      30.186  26.292  23.899  1.00  0.00     0.164 C 
ATOM     11  O   UNL A   1      30.925  27.527  23.903  1.00  0.00    -0.359 OA
BRANCH   7  12
ATOM     12  C   UNL A   1      32.182  24.526  26.565  1.00  0.00     0.410 C 
ATOM     13  O   UNL A   1      31.443  23.890  27.303  1.00  0.00    -0.224 OA
BRANCH  12  14
ATOM     14  O   UNL A   1      33.527  24.386  26.501  1.00  0.00    -0.444 OA
BRANCH  14  15
ATOM     15  C   UNL A   1      34.140  23.100  26.236  1.00  0.00     0.106 C 
ATOM     16  C   UNL A   1      35.628  23.422  26.036  1.00  0.00     0.056 C 
ATOM     17  C   UNL A   1      33.570  22.514  24.942  1.00  0.00     0.056 C 
ATOM     18  C   UNL A   1      34.015  22.121  27.411  1.00  0.00     0.056 C 
ENDBRANCH  14  15
ENDBRANCH  12  14
ENDBRANCH   7  12
BRANCH  10  19
ATOM     19  C   UNL A   1      28.696  26.586  23.658  1.00  0.00     0.194 C 
BRANCH  19  20
ATOM     20  O   UNL A   1      28.215  27.906  23.903  1.00  0.00    -0.374 OA
BRANCH  20  21
ATOM     21  C   UNL A   1      27.491  28.591  22.884  1.00  0.00     0.195 C 
BRANCH  21  22
ATOM     22  C   UNL A   1      27.821  30.048  22.610  1.00  0.00    -0.022 A 
ATOM     23  C   UNL A   1      28.027  31.017  23.598  1.00  0.00     0.006 A 
ATOM     24  C   UNL A   1      27.966  30.448  21.267  1.00  0.00     0.006 A 
ATOM     25  C   UNL A   1      28.374  32.331  23.266  1.00  0.00     0.000 A 
ATOM     26  C   UNL A   1      28.294  31.765  20.931  1.00  0.00     0.000 A 
ATOM     27  C   UNL A   1      28.505  32.706  21.933  1.00  0.00     0.000 A 
ENDBRANCH  21  22
ENDBRANCH  20  21
ENDBRANCH  19  20
ENDBRANCH  10  19
ENDBRANCH   3   6
ENDBRANCH   1   2
BRANCH   1  28
ATOM     28  C   UNL A   1      31.400  31.191  25.783  1.00  0.00     0.023 C 
BRANCH  28  29
ATOM     29  C   UNL A   1      31.441  31.991  27.087  1.00  0.00     0.023 C 
BRANCH  29  30
ATOM     30  C   UNL A   1      32.706  32.815  27.298  1.00  0.00     0.116 C 
BRANCH  30  31
ATOM     31  N   UNL A   1      32.430  34.211  27.600  1.00  0.00    -0.352 N 
ATOM     32  C   UNL A   1      33.012  35.026  28.541  1.00  0.00     0.251 C 
ATOM     33  H   UNL A   1      31.729  34.632  27.052  1.00  0.00     0.163 HD
ATOM     34  O   UNL A   1      32.573  36.152  28.747  1.00  0.00    -0.269 OA
BRANCH  32  35
ATOM     35  C   UNL A   1      34.151  34.521  29.333  1.00  0.00     0.039 A 
ATOM     36  C   UNL A   1      33.898  33.906  30.562  1.00  0.00     0.014 A 
ATOM     37  C   UNL A   1      35.456  34.610  28.841  1.00  0.00     0.014 A 
ATOM     38  C   UNL A   1      34.943  33.294  31.253  1.00  0.00     0.010 A 
ATOM     39  C   UNL A   1      36.485  33.943  29.498  1.00  0.00     0.010 A 
ATOM     40  C   UNL A   1      36.234  33.262  30.699  1.00  0.00    -0.014 A 
BRANCH  40  41
ATOM     41  C   UNL A   1      37.322  32.470  31.326  1.00  0.00     0.031 A 
ATOM     42  C   UNL A   1      37.841  32.834  32.687  1.00  0.00     0.074 A 
ATOM     43  C   UNL A   1      37.904  31.480  30.623  1.00  0.00     0.049 A 
ATOM     44  N   UNL A   1      38.850  32.327  33.349  1.00  0.00    -0.248 NA
ATOM     45  C   UNL A   1      37.148  33.928  33.385  1.00  0.00     0.031 C 
ATOM     46  C   UNL A   1      37.520  31.063  29.273  1.00  0.00     0.029 A 
ATOM     47  N   UNL A   1      38.955  30.654  30.937  1.00  0.00    -0.354 N 
ATOM     48  C   UNL A   1      38.920  33.045  34.535  1.00  0.00     0.074 A 
ATOM     49  C   UNL A   1      37.882  34.052  34.483  1.00  0.00     0.031 C 
ATOM     50  C   UNL A   1      38.312  30.054  28.880  1.00  0.00     0.029 A 
ATOM     51  C   UNL A   1      39.289  29.781  29.931  1.00  0.00     0.049 A 
ATOM     52  H   UNL A   1      39.426  30.686  31.801  1.00  0.00     0.167 HD
ATOM     53  C   UNL A   1      39.764  32.865  35.579  1.00  0.00     0.037 A 
ATOM     54  C   UNL A   1      40.280  28.873  29.855  1.00  0.00     0.037 A 
ATOM     55  C   UNL A   1      40.783  31.850  35.634  1.00  0.00     0.049 A 
ATOM     56  C   UNL A   1      41.221  28.715  31.018  1.00  0.00     0.074 A 
ATOM     57  C   UNL A   1      41.638  31.541  36.678  1.00  0.00     0.029 A 
ATOM     58  N   UNL A   1      41.092  30.983  34.596  1.00  0.00    -0.354 N 
ATOM     59  N   UNL A   1      41.233  29.350  32.164  1.00  0.00    -0.248 NA
ATOM     60  C   UNL A   1      42.289  27.716  30.874  1.00  0.00     0.031 C 
ATOM     61  C   UNL A   1      42.495  30.521  36.255  1.00  0.00     0.029 A 
ATOM     62  C   UNL A   1      42.145  30.162  34.963  1.00  0.00     0.049 A 
ATOM     63  H   UNL A   1      40.630  30.956  33.727  1.00  0.00     0.167 HD
ATOM     64  C   UNL A   1      42.292  28.818  32.884  1.00  0.00     0.074 A 
ATOM     65  C   UNL A   1      42.890  27.794  32.053  1.00  0.00     0.031 C 
ATOM     66  C   UNL A   1      42.734  29.150  34.122  1.00  0.00     0.037 A 
BRANCH  53  67
ATOM     67  C   UNL A   1      39.619  33.786  36.755  1.00  0.00     0.064 A 
ATOM     68  C   UNL A   1      40.241  35.043  36.784  1.00  0.00     0.173 A 
ATOM     69  C   UNL A   1      38.812  33.427  37.845  1.00  0.00     0.173 A 
ATOM     70  F   UNL A   1      41.030  35.429  35.771  1.00  0.00    -0.203 F 
ATOM     71  C   UNL A   1      40.081  35.896  37.873  1.00  0.00     0.198 A 
ATOM     72  C   UNL A   1      38.632  34.294  38.919  1.00  0.00     0.198 A 
ATOM     73  F   UNL A   1      38.191  32.237  37.864  1.00  0.00    -0.203 F 
ATOM     74  F   UNL A   1      40.719  37.075  37.898  1.00  0.00    -0.200 F 
ATOM     75  C   UNL A   1      39.271  35.524  38.936  1.00  0.00     0.200 A 
ATOM     76  F   UNL A   1      37.840  33.938  39.940  1.00  0.00    -0.200 F 
ATOM     77  F   UNL A   1      39.111  36.350  39.979  1.00  0.00    -0.200 F 
ENDBRANCH  53  67
BRANCH  54  78
ATOM     78  C   UNL A   1      40.430  28.039  28.636  1.00  0.00     0.064 A 
ATOM     79  C   UNL A   1      39.796  26.794  28.536  1.00  0.00     0.173 A 
ATOM     80  C   UNL A   1      41.206  28.466  27.549  1.00  0.00     0.173 A 
ATOM     81  F   UNL A   1      39.061  26.333  29.559  1.00  0.00    -0.203 F 
ATOM     82  C   UNL A   1      39.946  25.998  27.403  1.00  0.00     0.198 A 
ATOM     83  C   UNL A   1      41.334  27.682  26.404  1.00  0.00     0.198 A 
ATOM     84  F   UNL A   1      41.832  29.652  27.594  1.00  0.00    -0.203 F 
ATOM     85  F   UNL A   1      39.362  24.793  27.350  1.00  0.00    -0.200 F 
ATOM     86  C   UNL A   1      40.710  26.446  26.335  1.00  0.00     0.200 A 
ATOM     87  F   UNL A   1      42.062  28.124  25.369  1.00  0.00    -0.200 F 
ATOM     88  F   UNL A   1      40.849  25.682  25.242  1.00  0.00    -0.200 F 
ENDBRANCH  54  78
BRANCH  66  89
ATOM     89  C   UNL A   1      43.911  28.391  34.658  1.00  0.00     0.064 A 
ATOM     90  C   UNL A   1      45.220  28.872  34.507  1.00  0.00     0.173 A 
ATOM     91  C   UNL A   1      43.726  27.193  35.365  1.00  0.00     0.173 A 
ATOM     92  F   UNL A   1      45.449  30.002  33.824  1.00  0.00    -0.203 F 
ATOM     93  C   UNL A   1      46.303  28.169  35.030  1.00  0.00     0.198 A 
ATOM     94  C   UNL A   1      44.809  26.510  35.909  1.00  0.00     0.198 A 
ATOM     95  F   UNL A   1      42.493  26.695  35.539  1.00  0.00    -0.203 F 
ATOM     96  F   UNL A   1      47.549  28.625  34.839  1.00  0.00    -0.200 F 
ATOM     97  C   UNL A   1      46.096  26.994  35.737  1.00  0.00     0.200 A 
ATOM     98  F   UNL A   1      44.606  25.380  36.602  1.00  0.00    -0.200 F 
ATOM     99  F   UNL A   1      47.139  26.325  36.246  1.00  0.00    -0.200 F 
ENDBRANCH  66  89
ENDBRANCH  40  41
ENDBRANCH  32  35
ENDBRANCH  30  31
ENDBRANCH  29  30
ENDBRANCH  28  29
ENDBRANCH   1  28
TORSDOF 18
ENDMDL
MODEL 3
REMARK VINA RESULT:     -12.5      1.926      2.953
REMARK SMILES CC(C)(C)OC(=O)N1C[C@@H](COCc2ccccc2)O[C@@H](C(=O)NCCCCNC(=O)c2ccc(-c3c4nc(c(-c5c(F)c(F)c(F)c(F)c5F)c5ccc([nH]5)c(-c5c(F)c(F)c(F)c(F)c5F)c5nc(c(-c6c(F)c(F)c(F)c(F)c6F)c6ccc3[nH]6)C=C5)C=C4)cc2)C1
REMARK SMILES IDX 25 1 24 2 22 3 23 4 21 6 8 7 9 8 95 9 10 10 20 11 6 12 7 13
REMARK SMILES IDX 5 14 2 15 1 16 3 17 4 18 11 19 12 20 13 21 14 22 15 23 19 24
REMARK SMILES IDX 16 25 18 26 17 27 26 28 27 29 28 30 29 31 30 32 31 34 32 35
REMARK SMILES IDX 33 36 94 37 34 38 93 39 35 40 36 41 37 42 87 43 38 44 92 45
REMARK SMILES IDX 86 46 88 47 39 48 91 49 85 50 84 51 40 53 72 54 52 55 71 56
REMARK SMILES IDX 53 57 56 58 70 59 89 60 54 61 55 62 69 64 90 65 57 66 41 67
REMARK SMILES IDX 42 68 50 69 43 70 44 71 48 72 51 73 45 74 46 75 49 76 47 77
REMARK SMILES IDX 73 78 74 79 82 80 75 81 76 82 80 83 83 84 77 85 78 86 81 87
REMARK SMILES IDX 79 88 58 89 59 90 67 91 60 92 61 93 65 94 68 95 62 96 63 97
REMARK SMILES IDX 66 98 64 99
REMARK H PARENT 24 5 29 33 88 52 56 63
REMARK Flexibility Score: inf
ROOT
ATOM      1  C   UNL A   1      32.877  29.432  27.227  1.00  0.00     0.116 C 
ENDROOT
BRANCH   1   2
ATOM      2  N   UNL A   1      32.107  28.226  27.464  1.00  0.00    -0.354 N 
ATOM      3  C   UNL A   1      32.128  27.037  26.796  1.00  0.00     0.251 C 
ATOM      4  O   UNL A   1      31.342  26.158  27.159  1.00  0.00    -0.272 OA
ATOM      5  H   UNL A   1      31.475  28.272  28.217  1.00  0.00     0.163 HD
BRANCH   3   6
ATOM      6  C   UNL A   1      33.083  26.804  25.621  1.00  0.00     0.227 C 
ATOM      7  N   UNL A   1      34.097  25.115  24.144  1.00  0.00    -0.302 N 
ATOM      8  C   UNL A   1      33.891  26.013  23.007  1.00  0.00     0.157 C 
ATOM      9  C   UNL A   1      33.222  25.317  25.297  1.00  0.00     0.165 C 
ATOM     10  C   UNL A   1      33.680  27.482  23.431  1.00  0.00     0.164 C 
ATOM     11  O   UNL A   1      32.673  27.534  24.457  1.00  0.00    -0.359 OA
BRANCH   7  12
ATOM     12  C   UNL A   1      34.815  23.941  24.047  1.00  0.00     0.410 C 
ATOM     13  O   UNL A   1      35.212  23.482  22.986  1.00  0.00    -0.224 OA
BRANCH  12  14
ATOM     14  O   UNL A   1      34.986  23.360  25.259  1.00  0.00    -0.444 OA
BRANCH  14  15
ATOM     15  C   UNL A   1      34.612  21.980  25.494  1.00  0.00     0.106 C 
ATOM     16  C   UNL A   1      34.298  21.922  26.996  1.00  0.00     0.056 C 
ATOM     17  C   UNL A   1      35.800  21.065  25.189  1.00  0.00     0.056 C 
ATOM     18  C   UNL A   1      33.353  21.560  24.723  1.00  0.00     0.056 C 
ENDBRANCH  14  15
ENDBRANCH  12  14
ENDBRANCH   7  12
BRANCH  10  19
ATOM     19  C   UNL A   1      33.208  28.285  22.207  1.00  0.00     0.194 C 
BRANCH  19  20
ATOM     20  O   UNL A   1      32.059  29.119  22.343  1.00  0.00    -0.374 OA
BRANCH  20  21
ATOM     21  C   UNL A   1      30.765  28.526  22.421  1.00  0.00     0.195 C 
BRANCH  21  22
ATOM     22  C   UNL A   1      29.586  29.397  22.817  1.00  0.00    -0.022 A 
ATOM     23  C   UNL A   1      28.243  29.030  22.679  1.00  0.00     0.006 A 
ATOM     24  C   UNL A   1      29.861  30.649  23.400  1.00  0.00     0.006 A 
ATOM     25  C   UNL A   1      27.212  29.870  23.113  1.00  0.00     0.000 A 
ATOM     26  C   UNL A   1      28.833  31.500  23.817  1.00  0.00     0.000 A 
ATOM     27  C   UNL A   1      27.506  31.106  23.679  1.00  0.00     0.000 A 
ENDBRANCH  21  22
ENDBRANCH  20  21
ENDBRANCH  19  20
ENDBRANCH  10  19
ENDBRANCH   3   6
ENDBRANCH   1   2
BRANCH   1  28
ATOM     28  C   UNL A   1      32.150  30.368  26.261  1.00  0.00     0.023 C 
BRANCH  28  29
ATOM     29  C   UNL A   1      31.729  31.707  26.871  1.00  0.00     0.023 C 
BRANCH  29  30
ATOM     30  C   UNL A   1      32.876  32.574  27.377  1.00  0.00     0.116 C 
BRANCH  30  31
ATOM     31  N   UNL A   1      32.477  33.949  27.637  1.00  0.00    -0.352 N 
ATOM     32  C   UNL A   1      32.995  34.846  28.540  1.00  0.00     0.251 C 
ATOM     33  H   UNL A   1      31.731  34.283  27.088  1.00  0.00     0.163 HD
ATOM     34  O   UNL A   1      32.455  35.933  28.716  1.00  0.00    -0.269 OA
BRANCH  32  35
ATOM     35  C   UNL A   1      34.187  34.476  29.328  1.00  0.00     0.039 A 
ATOM     36  C   UNL A   1      34.010  33.934  30.604  1.00  0.00     0.014 A 
ATOM     37  C   UNL A   1      35.468  34.616  28.788  1.00  0.00     0.014 A 
ATOM     38  C   UNL A   1      35.115  33.444  31.301  1.00  0.00     0.010 A 
ATOM     39  C   UNL A   1      36.559  34.068  29.457  1.00  0.00     0.010 A 
ATOM     40  C   UNL A   1      36.389  33.459  30.710  1.00  0.00    -0.014 A 
BRANCH  40  41
ATOM     41  C   UNL A   1      37.545  32.788  31.355  1.00  0.00     0.031 A 
ATOM     42  C   UNL A   1      38.199  31.605  30.703  1.00  0.00     0.074 A 
ATOM     43  C   UNL A   1      37.943  33.194  32.575  1.00  0.00     0.049 A 
ATOM     44  N   UNL A   1      39.149  30.829  31.161  1.00  0.00    -0.248 NA
ATOM     45  C   UNL A   1      37.703  31.229  29.370  1.00  0.00     0.031 C 
ATOM     46  C   UNL A   1      37.357  34.302  33.332  1.00  0.00     0.029 A 
ATOM     47  N   UNL A   1      38.924  32.710  33.406  1.00  0.00    -0.354 N 
ATOM     48  C   UNL A   1      39.357  29.870  30.180  1.00  0.00     0.074 A 
ATOM     49  C   UNL A   1      38.405  30.132  29.122  1.00  0.00     0.031 C 
ATOM     50  C   UNL A   1      37.995  34.422  34.506  1.00  0.00     0.029 A 
ATOM     51  C   UNL A   1      39.006  33.374  34.606  1.00  0.00     0.049 A 
ATOM     52  H   UNL A   1      39.512  31.957  33.165  1.00  0.00     0.167 HD
ATOM     53  C   UNL A   1      40.274  28.873  30.158  1.00  0.00     0.037 A 
ATOM     54  C   UNL A   1      39.796  33.153  35.674  1.00  0.00     0.037 A 
ATOM     55  C   UNL A   1      41.232  28.628  31.204  1.00  0.00     0.049 A 
ATOM     56  C   UNL A   1      40.785  32.021  35.634  1.00  0.00     0.074 A 
ATOM     57  C   UNL A   1      42.249  27.690  31.241  1.00  0.00     0.029 A 
ATOM     58  N   UNL A   1      41.286  29.321  32.404  1.00  0.00    -0.354 N 
ATOM     59  N   UNL A   1      41.023  31.164  34.671  1.00  0.00    -0.248 NA
ATOM     60  C   UNL A   1      41.613  31.822  36.832  1.00  0.00     0.031 C 
ATOM     61  C   UNL A   1      42.886  27.783  32.482  1.00  0.00     0.029 A 
ATOM     62  C   UNL A   1      42.297  28.809  33.202  1.00  0.00     0.049 A 
ATOM     63  H   UNL A   1      40.692  30.067  32.653  1.00  0.00     0.167 HD
ATOM     64  C   UNL A   1      42.037  30.339  35.136  1.00  0.00     0.074 A 
ATOM     65  C   UNL A   1      42.382  30.808  36.462  1.00  0.00     0.031 C 
ATOM     66  C   UNL A   1      42.626  29.284  34.522  1.00  0.00     0.037 A 
BRANCH  53  67
ATOM     67  C   UNL A   1      40.290  27.971  28.959  1.00  0.00     0.064 A 
ATOM     68  C   UNL A   1      41.035  28.286  27.814  1.00  0.00     0.173 A 
ATOM     69  C   UNL A   1      39.588  26.757  28.973  1.00  0.00     0.173 A 
ATOM     70  F   UNL A   1      41.715  29.440  27.747  1.00  0.00    -0.203 F 
ATOM     71  C   UNL A   1      41.058  27.429  26.716  1.00  0.00     0.198 A 
ATOM     72  C   UNL A   1      39.635  25.890  27.885  1.00  0.00     0.198 A 
ATOM     73  F   UNL A   1      38.864  26.405  30.047  1.00  0.00    -0.203 F 
ATOM     74  F   UNL A   1      41.742  27.772  25.615  1.00  0.00    -0.200 F 
ATOM     75  C   UNL A   1      40.364  26.229  26.755  1.00  0.00     0.200 A 
ATOM     76  F   UNL A   1      38.974  24.725  27.928  1.00  0.00    -0.200 F 
ATOM     77  F   UNL A   1      40.393  25.402  25.701  1.00  0.00    -0.200 F 
ENDBRANCH  53  67
BRANCH  54  78
ATOM     78  C   UNL A   1      39.688  34.027  36.869  1.00  0.00     0.064 A 
ATOM     79  C   UNL A   1      38.879  33.664  37.954  1.00  0.00     0.173 A 
ATOM     80  C   UNL A   1      40.388  35.239  36.953  1.00  0.00     0.173 A 
ATOM     81  F   UNL A   1      38.173  32.525  37.910  1.00  0.00    -0.203 F 
ATOM     82  C   UNL A   1      38.760  34.488  39.071  1.00  0.00     0.198 A 
ATOM     83  C   UNL A   1      40.290  36.050  38.082  1.00  0.00     0.198 A 
ATOM     84  F   UNL A   1      41.179  35.631  35.942  1.00  0.00    -0.203 F 
ATOM     85  F   UNL A   1      37.947  34.137  40.076  1.00  0.00    -0.200 F 
ATOM     86  C   UNL A   1      39.471  35.677  39.137  1.00  0.00     0.200 A 
ATOM     87  F   UNL A   1      40.989  37.192  38.148  1.00  0.00    -0.200 F 
ATOM     88  F   UNL A   1      39.360  36.466  40.214  1.00  0.00    -0.200 F 
ENDBRANCH  54  78
BRANCH  66  89
ATOM     89  C   UNL A   1      43.713  28.574  35.271  1.00  0.00     0.064 A 
ATOM     90  C   UNL A   1      45.058  28.948  35.135  1.00  0.00     0.173 A 
ATOM     91  C   UNL A   1      43.406  27.536  36.164  1.00  0.00     0.173 A 
ATOM     92  F   UNL A   1      45.405  29.921  34.280  1.00  0.00    -0.203 F 
ATOM     93  C   UNL A   1      46.057  28.296  35.854  1.00  0.00     0.198 A 
ATOM     94  C   UNL A   1      44.404  26.907  36.901  1.00  0.00     0.198 A 
ATOM     95  F   UNL A   1      42.133  27.145  36.333  1.00  0.00    -0.203 F 
ATOM     96  F   UNL A   1      47.341  28.641  35.677  1.00  0.00    -0.200 F 
ATOM     97  C   UNL A   1      45.729  27.282  36.741  1.00  0.00     0.200 A 
ATOM     98  F   UNL A   1      44.083  25.935  37.767  1.00  0.00    -0.200 F 
ATOM     99  F   UNL A   1      46.691  26.662  37.438  1.00  0.00    -0.200 F 
ENDBRANCH  66  89
ENDBRANCH  40  41
ENDBRANCH  32  35
ENDBRANCH  30  31
ENDBRANCH  29  30
ENDBRANCH  28  29
ENDBRANCH   1  28
TORSDOF 18
ENDMDL
