MODEL 1
REMARK VINA RESULT:     -14.6      0.000      0.000
REMARK SMILES Cc1cc(C(=O)NCCCCNC(=O)c2ccc(-c3c4nc(c(-c5c(F)c(F)c(F)c(F)c5F)c5ccc([nH]5)c(-c5c(F)c(F)c(F)c(F)c5F)c5nc(c(-c6c(F)c(F)c(F)c(F)c6F)c6ccc3[nH]6)C=C5)C=C4)cc2)ccc1NC(=O)N1C[C@@H](C)[C@H](C)C1
REMARK SMILES IDX 10 1 9 2 8 3 7 4 5 5 6 6 4 8 1 9 2 10 3 11 80 12 79 13 78 14
REMARK SMILES IDX 81 15 82 16 83 18 84 19 85 20 90 21 86 22 88 23 87 24 89 25
REMARK SMILES IDX 11 26 12 27 13 28 14 30 15 31 16 32 77 33 17 34 76 35 18 36
REMARK SMILES IDX 19 37 20 38 70 39 21 40 75 41 69 42 71 43 22 44 74 45 68 46
REMARK SMILES IDX 67 47 23 49 55 50 35 51 54 52 36 53 39 54 53 55 72 56 37 57
REMARK SMILES IDX 38 58 52 60 73 61 40 62 24 63 25 64 33 65 26 66 27 67 31 68
REMARK SMILES IDX 34 69 28 70 29 71 32 72 30 73 56 74 57 75 65 76 58 77 59 78
REMARK SMILES IDX 63 79 66 80 60 81 61 82 64 83 62 84 41 85 42 86 50 87 43 88
REMARK SMILES IDX 44 89 48 90 51 91 45 92 46 93 49 94 47 95
REMARK H PARENT 7 7 81 17 12 29 71 48 39 59
REMARK Flexibility Score: inf
ROOT
ATOM      1  C   UNL A   1      38.245  21.462  25.373  1.00  0.00     0.023 C 
ENDROOT
BRANCH   1   2
ATOM      2  C   UNL A   1      36.872  21.566  24.714  1.00  0.00     0.023 C 
BRANCH   2   3
ATOM      3  C   UNL A   1      35.676  21.375  25.664  1.00  0.00     0.116 C 
BRANCH   3   4
ATOM      4  N   UNL A   1      34.803  20.262  25.298  1.00  0.00    -0.352 N 
ATOM      5  C   UNL A   1      33.566  20.224  24.691  1.00  0.00     0.251 C 
ATOM      6  O   UNL A   1      33.130  19.142  24.305  1.00  0.00    -0.269 OA
ATOM      7  H   UNL A   1      35.164  19.375  25.530  1.00  0.00     0.163 HD
BRANCH   5   8
ATOM      8  C   UNL A   1      32.773  21.456  24.451  1.00  0.00     0.040 A 
ATOM      9  C   UNL A   1      30.513  23.765  26.448  1.00  0.00     0.046 C 
ATOM     10  C   UNL A   1      31.163  23.125  25.252  1.00  0.00    -0.027 A 
ATOM     11  C   UNL A   1      32.012  22.017  25.485  1.00  0.00     0.019 A 
ATOM     12  C   UNL A   1      31.032  23.606  23.938  1.00  0.00     0.045 A 
ATOM     13  C   UNL A   1      31.938  23.162  22.974  1.00  0.00     0.027 A 
ATOM     14  C   UNL A   1      32.815  22.121  23.238  1.00  0.00     0.016 A 
BRANCH  12  15
ATOM     15  N   UNL A   1      30.047  24.549  23.584  1.00  0.00    -0.308 N 
ATOM     16  C   UNL A   1      29.981  25.873  23.931  1.00  0.00     0.321 C 
ATOM     17  H   UNL A   1      29.316  24.216  23.016  1.00  0.00     0.171 HD
ATOM     18  O   UNL A   1      28.878  26.393  24.098  1.00  0.00    -0.248 OA
ATOM     19  N   UNL A   1      31.153  26.582  24.060  1.00  0.00    -0.324 N 
ATOM     20  C   UNL A   1      31.232  27.757  24.907  1.00  0.00     0.125 C 
ATOM     21  C   UNL A   1      32.262  26.535  23.111  1.00  0.00     0.125 C 
ATOM     22  C   UNL A   1      32.344  28.617  24.310  1.00  0.00     0.010 C 
ATOM     23  C   UNL A   1      33.254  27.592  23.608  1.00  0.00     0.010 C 
ATOM     24  C   UNL A   1      33.079  29.434  25.367  1.00  0.00     0.010 C 
ATOM     25  C   UNL A   1      34.099  28.203  22.493  1.00  0.00     0.010 C 
ENDBRANCH  12  15
ENDBRANCH   5   8
ENDBRANCH   3   4
ENDBRANCH   2   3
ENDBRANCH   1   2
BRANCH   1  26
ATOM     26  C   UNL A   1      38.655  22.725  26.107  1.00  0.00     0.116 C 
BRANCH  26  27
ATOM     27  N   UNL A   1      40.073  22.790  26.445  1.00  0.00    -0.352 N 
ATOM     28  C   UNL A   1      40.846  23.880  26.828  1.00  0.00     0.251 C 
ATOM     29  H   UNL A   1      40.554  21.934  26.394  1.00  0.00     0.163 HD
ATOM     30  O   UNL A   1      42.040  23.751  27.006  1.00  0.00    -0.269 OA
BRANCH  28  31
ATOM     31  C   UNL A   1      40.172  25.160  27.173  1.00  0.00     0.039 A 
ATOM     32  C   UNL A   1      40.458  26.275  26.375  1.00  0.00     0.014 A 
ATOM     33  C   UNL A   1      39.514  25.322  28.385  1.00  0.00     0.014 A 
ATOM     34  C   UNL A   1      40.359  27.548  26.928  1.00  0.00     0.010 A 
ATOM     35  C   UNL A   1      39.538  26.565  28.982  1.00  0.00     0.010 A 
ATOM     36  C   UNL A   1      40.043  27.663  28.279  1.00  0.00    -0.014 A 
BRANCH  36  37
ATOM     37  C   UNL A   1      40.389  28.831  29.083  1.00  0.00     0.031 A 
ATOM     38  C   UNL A   1      39.391  29.880  29.368  1.00  0.00     0.074 A 
ATOM     39  C   UNL A   1      41.594  28.851  29.699  1.00  0.00     0.049 A 
ATOM     40  N   UNL A   1      39.676  31.062  29.801  1.00  0.00    -0.248 NA
ATOM     41  C   UNL A   1      37.968  29.690  29.131  1.00  0.00     0.031 C 
ATOM     42  C   UNL A   1      42.008  29.704  30.810  1.00  0.00     0.029 A 
ATOM     43  N   UNL A   1      42.775  28.197  29.304  1.00  0.00    -0.354 N 
ATOM     44  C   UNL A   1      38.498  31.673  30.175  1.00  0.00     0.074 A 
ATOM     45  C   UNL A   1      37.466  30.814  29.647  1.00  0.00     0.031 C 
ATOM     46  C   UNL A   1      43.349  29.761  30.836  1.00  0.00     0.029 A 
ATOM     47  C   UNL A   1      43.828  29.077  29.647  1.00  0.00     0.049 A 
ATOM     48  H   UNL A   1      42.853  27.313  28.878  1.00  0.00     0.167 HD
ATOM     49  C   UNL A   1      38.556  32.755  31.009  1.00  0.00     0.037 A 
ATOM     50  C   UNL A   1      44.618  29.647  28.692  1.00  0.00     0.037 A 
ATOM     51  C   UNL A   1      39.944  33.191  31.196  1.00  0.00     0.049 A 
ATOM     52  C   UNL A   1      44.584  31.156  28.680  1.00  0.00     0.074 A 
ATOM     53  C   UNL A   1      40.856  33.015  32.224  1.00  0.00     0.029 A 
ATOM     54  N   UNL A   1      40.668  33.666  30.106  1.00  0.00    -0.354 N 
ATOM     55  N   UNL A   1      43.645  31.864  29.242  1.00  0.00    -0.248 NA
ATOM     56  C   UNL A   1      45.577  31.985  28.000  1.00  0.00     0.031 C 
ATOM     57  C   UNL A   1      42.147  33.329  31.726  1.00  0.00     0.029 A 
ATOM     58  C   UNL A   1      42.017  33.716  30.404  1.00  0.00     0.049 A 
ATOM     59  H   UNL A   1      40.275  33.929  29.244  1.00  0.00     0.167 HD
ATOM     60  C   UNL A   1      43.860  33.193  28.990  1.00  0.00     0.074 A 
ATOM     61  C   UNL A   1      45.095  33.219  28.229  1.00  0.00     0.031 C 
ATOM     62  C   UNL A   1      42.987  34.154  29.412  1.00  0.00     0.037 A 
BRANCH  49  63
ATOM     63  C   UNL A   1      37.412  33.233  31.898  1.00  0.00     0.064 A 
ATOM     64  C   UNL A   1      36.300  33.904  31.336  1.00  0.00     0.173 A 
ATOM     65  C   UNL A   1      37.378  33.154  33.303  1.00  0.00     0.173 A 
ATOM     66  F   UNL A   1      36.105  33.955  30.013  1.00  0.00    -0.203 F 
ATOM     67  C   UNL A   1      35.331  34.552  32.113  1.00  0.00     0.198 A 
ATOM     68  C   UNL A   1      36.435  33.834  34.083  1.00  0.00     0.198 A 
ATOM     69  F   UNL A   1      38.208  32.364  33.986  1.00  0.00    -0.203 F 
ATOM     70  F   UNL A   1      34.318  35.193  31.515  1.00  0.00    -0.200 F 
ATOM     71  C   UNL A   1      35.421  34.549  33.489  1.00  0.00     0.200 A 
ATOM     72  F   UNL A   1      36.520  33.780  35.420  1.00  0.00    -0.200 F 
ATOM     73  F   UNL A   1      34.520  35.201  34.234  1.00  0.00    -0.200 F 
ENDBRANCH  49  63
BRANCH  50  74
ATOM     74  C   UNL A   1      44.800  28.793  27.490  1.00  0.00     0.064 A 
ATOM     75  C   UNL A   1      45.685  27.702  27.575  1.00  0.00     0.173 A 
ATOM     76  C   UNL A   1      43.878  28.797  26.439  1.00  0.00     0.173 A 
ATOM     77  F   UNL A   1      46.590  27.652  28.566  1.00  0.00    -0.203 F 
ATOM     78  C   UNL A   1      45.574  26.608  26.719  1.00  0.00     0.198 A 
ATOM     79  C   UNL A   1      43.777  27.704  25.574  1.00  0.00     0.198 A 
ATOM     80  F   UNL A   1      42.991  29.795  26.319  1.00  0.00    -0.203 F 
ATOM     81  F   UNL A   1      46.359  25.536  26.902  1.00  0.00    -0.200 F 
ATOM     82  C   UNL A   1      44.600  26.599  25.737  1.00  0.00     0.200 A 
ATOM     83  F   UNL A   1      42.811  27.678  24.644  1.00  0.00    -0.200 F 
ATOM     84  F   UNL A   1      44.425  25.510  24.974  1.00  0.00    -0.200 F 
ENDBRANCH  50  74
BRANCH  62  85
ATOM     85  C   UNL A   1      43.007  35.605  29.001  1.00  0.00     0.064 A 
ATOM     86  C   UNL A   1      42.274  36.122  27.920  1.00  0.00     0.173 A 
ATOM     87  C   UNL A   1      43.665  36.564  29.808  1.00  0.00     0.173 A 
ATOM     88  F   UNL A   1      41.517  35.330  27.150  1.00  0.00    -0.203 F 
ATOM     89  C   UNL A   1      42.248  37.490  27.632  1.00  0.00     0.198 A 
ATOM     90  C   UNL A   1      43.592  37.932  29.551  1.00  0.00     0.198 A 
ATOM     91  F   UNL A   1      44.379  36.201  30.884  1.00  0.00    -0.203 F 
ATOM     92  F   UNL A   1      41.565  37.931  26.567  1.00  0.00    -0.200 F 
ATOM     93  C   UNL A   1      42.895  38.394  28.454  1.00  0.00     0.200 A 
ATOM     94  F   UNL A   1      44.181  38.799  30.386  1.00  0.00    -0.200 F 
ATOM     95  F   UNL A   1      42.828  39.709  28.202  1.00  0.00    -0.200 F 
ENDBRANCH  62  85
ENDBRANCH  36  37
ENDBRANCH  28  31
ENDBRANCH  26  27
ENDBRANCH   1  26
TORSDOF 12
ENDMDL
MODEL 2
REMARK VINA RESULT:     -14.5      0.696      1.341
REMARK SMILES Cc1cc(C(=O)NCCCCNC(=O)c2ccc(-c3c4nc(c(-c5c(F)c(F)c(F)c(F)c5F)c5ccc([nH]5)c(-c5c(F)c(F)c(F)c(F)c5F)c5nc(c(-c6c(F)c(F)c(F)c(F)c6F)c6ccc3[nH]6)C=C5)C=C4)cc2)ccc1NC(=O)N1C[C@@H](C)[C@H](C)C1
REMARK SMILES IDX 10 1 9 2 8 3 7 4 5 5 6 6 4 8 1 9 2 10 3 11 80 12 79 13 78 14
REMARK SMILES IDX 81 15 82 16 83 18 84 19 85 20 90 21 86 22 88 23 87 24 89 25
REMARK SMILES IDX 11 26 12 27 13 28 14 30 15 31 16 32 77 33 17 34 76 35 18 36
REMARK SMILES IDX 19 37 20 38 70 39 21 40 75 41 69 42 71 43 22 44 74 45 68 46
REMARK SMILES IDX 67 47 23 49 55 50 35 51 54 52 36 53 39 54 53 55 72 56 37 57
REMARK SMILES IDX 38 58 52 60 73 61 40 62 24 63 25 64 33 65 26 66 27 67 31 68
REMARK SMILES IDX 34 69 28 70 29 71 32 72 30 73 56 74 57 75 65 76 58 77 59 78
REMARK SMILES IDX 63 79 66 80 60 81 61 82 64 83 62 84 41 85 42 86 50 87 43 88
REMARK SMILES IDX 44 89 48 90 51 91 45 92 46 93 49 94 47 95
REMARK H PARENT 7 7 81 17 12 29 71 48 39 59
REMARK Flexibility Score: inf
ROOT
ATOM      1  C   UNL A   1      38.460  21.291  25.415  1.00  0.00     0.023 C 
ENDROOT
BRANCH   1   2
ATOM      2  C   UNL A   1      37.161  21.364  24.617  1.00  0.00     0.023 C 
BRANCH   2   3
ATOM      3  C   UNL A   1      35.881  21.490  25.464  1.00  0.00     0.116 C 
BRANCH   3   4
ATOM      4  N   UNL A   1      34.975  20.351  25.340  1.00  0.00    -0.352 N 
ATOM      5  C   UNL A   1      33.674  20.255  24.893  1.00  0.00     0.251 C 
ATOM      6  O   UNL A   1      33.200  19.139  24.692  1.00  0.00    -0.269 OA
ATOM      7  H   UNL A   1      35.365  19.494  25.629  1.00  0.00     0.163 HD
BRANCH   5   8
ATOM      8  C   UNL A   1      32.853  21.458  24.606  1.00  0.00     0.040 A 
ATOM      9  C   UNL A   1      30.503  23.762  26.500  1.00  0.00     0.046 C 
ATOM     10  C   UNL A   1      31.189  23.106  25.333  1.00  0.00    -0.027 A 
ATOM     11  C   UNL A   1      32.062  22.028  25.611  1.00  0.00     0.019 A 
ATOM     12  C   UNL A   1      31.066  23.546  24.004  1.00  0.00     0.045 A 
ATOM     13  C   UNL A   1      31.998  23.099  23.067  1.00  0.00     0.027 A 
ATOM     14  C   UNL A   1      32.898  22.090  23.375  1.00  0.00     0.016 A 
BRANCH  12  15
ATOM     15  N   UNL A   1      30.063  24.453  23.608  1.00  0.00    -0.308 N 
ATOM     16  C   UNL A   1      29.949  25.780  23.927  1.00  0.00     0.321 C 
ATOM     17  H   UNL A   1      29.355  24.087  23.031  1.00  0.00     0.171 HD
ATOM     18  O   UNL A   1      28.828  26.271  24.058  1.00  0.00    -0.248 OA
ATOM     19  N   UNL A   1      31.098  26.526  24.068  1.00  0.00    -0.324 N 
ATOM     20  C   UNL A   1      31.122  27.719  24.893  1.00  0.00     0.125 C 
ATOM     21  C   UNL A   1      32.229  26.493  23.147  1.00  0.00     0.125 C 
ATOM     22  C   UNL A   1      32.223  28.600  24.304  1.00  0.00     0.010 C 
ATOM     23  C   UNL A   1      33.178  27.589  23.644  1.00  0.00     0.010 C 
ATOM     24  C   UNL A   1      32.908  29.459  25.360  1.00  0.00     0.010 C 
ATOM     25  C   UNL A   1      34.032  28.203  22.537  1.00  0.00     0.010 C 
ENDBRANCH  12  15
ENDBRANCH   5   8
ENDBRANCH   3   4
ENDBRANCH   2   3
ENDBRANCH   1   2
BRANCH   1  26
ATOM     26  C   UNL A   1      38.798  22.587  26.130  1.00  0.00     0.116 C 
BRANCH  26  27
ATOM     27  N   UNL A   1      40.220  22.772  26.397  1.00  0.00    -0.352 N 
ATOM     28  C   UNL A   1      40.938  23.941  26.620  1.00  0.00     0.251 C 
ATOM     29  H   UNL A   1      40.752  21.944  26.423  1.00  0.00     0.163 HD
ATOM     30  O   UNL A   1      42.143  23.903  26.760  1.00  0.00    -0.269 OA
BRANCH  28  31
ATOM     31  C   UNL A   1      40.199  25.213  26.844  1.00  0.00     0.039 A 
ATOM     32  C   UNL A   1      40.624  26.341  26.132  1.00  0.00     0.014 A 
ATOM     33  C   UNL A   1      39.317  25.352  27.908  1.00  0.00     0.014 A 
ATOM     34  C   UNL A   1      40.408  27.605  26.672  1.00  0.00     0.010 A 
ATOM     35  C   UNL A   1      39.213  26.586  28.515  1.00  0.00     0.010 A 
ATOM     36  C   UNL A   1      39.836  27.697  27.938  1.00  0.00    -0.014 A 
BRANCH  36  37
ATOM     37  C   UNL A   1      40.010  28.856  28.810  1.00  0.00     0.031 A 
ATOM     38  C   UNL A   1      38.965  29.893  28.912  1.00  0.00     0.074 A 
ATOM     39  C   UNL A   1      41.073  28.875  29.646  1.00  0.00     0.049 A 
ATOM     40  N   UNL A   1      39.150  31.070  29.407  1.00  0.00    -0.248 NA
ATOM     41  C   UNL A   1      37.616  29.696  28.403  1.00  0.00     0.031 C 
ATOM     42  C   UNL A   1      41.257  29.713  30.827  1.00  0.00     0.029 A 
ATOM     43  N   UNL A   1      42.314  28.235  29.477  1.00  0.00    -0.354 N 
ATOM     44  C   UNL A   1      37.916  31.667  29.556  1.00  0.00     0.074 A 
ATOM     45  C   UNL A   1      37.012  30.808  28.828  1.00  0.00     0.031 C 
ATOM     46  C   UNL A   1      42.568  29.779  31.112  1.00  0.00     0.029 A 
ATOM     47  C   UNL A   1      43.272  29.117  30.028  1.00  0.00     0.049 A 
ATOM     48  H   UNL A   1      42.482  27.358  29.062  1.00  0.00     0.167 HD
ATOM     49  C   UNL A   1      37.801  32.736  30.401  1.00  0.00     0.037 A 
ATOM     50  C   UNL A   1      44.227  29.707  29.250  1.00  0.00     0.037 A 
ATOM     51  C   UNL A   1      39.123  33.179  30.857  1.00  0.00     0.049 A 
ATOM     52  C   UNL A   1      44.180  31.216  29.253  1.00  0.00     0.074 A 
ATOM     53  C   UNL A   1      39.823  32.994  32.039  1.00  0.00     0.029 A 
ATOM     54  N   UNL A   1      40.038  33.676  29.934  1.00  0.00    -0.354 N 
ATOM     55  N   UNL A   1      43.143  31.909  29.634  1.00  0.00    -0.248 NA
ATOM     56  C   UNL A   1      45.277  32.062  28.789  1.00  0.00     0.031 C 
ATOM     57  C   UNL A   1      41.181  33.325  31.803  1.00  0.00     0.029 A 
ATOM     58  C   UNL A   1      41.304  33.731  30.486  1.00  0.00     0.049 A 
ATOM     59  H   UNL A   1      39.815  33.949  29.015  1.00  0.00     0.167 HD
ATOM     60  C   UNL A   1      43.390  33.243  29.446  1.00  0.00     0.074 A 
ATOM     61  C   UNL A   1      44.748  33.290  28.937  1.00  0.00     0.031 C 
ATOM     62  C   UNL A   1      42.443  34.191  29.706  1.00  0.00     0.037 A 
BRANCH  49  63
ATOM     63  C   UNL A   1      36.503  33.193  31.059  1.00  0.00     0.064 A 
ATOM     64  C   UNL A   1      35.557  33.952  30.331  1.00  0.00     0.173 A 
ATOM     65  C   UNL A   1      36.161  33.007  32.412  1.00  0.00     0.173 A 
ATOM     66  F   UNL A   1      35.657  34.113  29.005  1.00  0.00    -0.203 F 
ATOM     67  C   UNL A   1      34.459  34.579  30.932  1.00  0.00     0.198 A 
ATOM     68  C   UNL A   1      35.088  33.664  33.026  1.00  0.00     0.198 A 
ATOM     69  F   UNL A   1      36.803  32.132  33.189  1.00  0.00    -0.203 F 
ATOM     70  F   UNL A   1      33.616  35.306  30.186  1.00  0.00    -0.200 F 
ATOM     71  C   UNL A   1      34.246  34.466  32.289  1.00  0.00     0.200 A 
ATOM     72  F   UNL A   1      34.878  33.504  34.340  1.00  0.00    -0.200 F 
ATOM     73  F   UNL A   1      33.220  35.096  32.876  1.00  0.00    -0.200 F 
ENDBRANCH  49  63
BRANCH  50  74
ATOM     74  C   UNL A   1      44.644  28.873  28.094  1.00  0.00     0.064 A 
ATOM     75  C   UNL A   1      45.506  27.786  28.333  1.00  0.00     0.173 A 
ATOM     76  C   UNL A   1      43.942  28.887  26.885  1.00  0.00     0.173 A 
ATOM     77  F   UNL A   1      46.203  27.727  29.479  1.00  0.00    -0.203 F 
ATOM     78  C   UNL A   1      45.572  26.705  27.457  1.00  0.00     0.198 A 
ATOM     79  C   UNL A   1      44.020  27.808  26.002  1.00  0.00     0.198 A 
ATOM     80  F   UNL A   1      43.086  29.882  26.610  1.00  0.00    -0.203 F 
ATOM     81  F   UNL A   1      46.317  25.636  27.772  1.00  0.00    -0.200 F 
ATOM     82  C   UNL A   1      44.806  26.706  26.305  1.00  0.00     0.200 A 
ATOM     83  F   UNL A   1      43.252  27.791  24.903  1.00  0.00    -0.200 F 
ATOM     84  F   UNL A   1      44.791  25.628  25.508  1.00  0.00    -0.200 F 
ENDBRANCH  50  74
BRANCH  62  85
ATOM     85  C   UNL A   1      42.526  35.649  29.326  1.00  0.00     0.064 A 
ATOM     86  C   UNL A   1      43.315  36.591  30.006  1.00  0.00     0.173 A 
ATOM     87  C   UNL A   1      41.912  36.109  28.137  1.00  0.00     0.173 A 
ATOM     88  F   UNL A   1      44.037  36.248  31.081  1.00  0.00    -0.203 F 
ATOM     89  C   UNL A   1      43.435  37.911  29.562  1.00  0.00     0.198 A 
ATOM     90  C   UNL A   1      42.079  37.411  27.667  1.00  0.00     0.198 A 
ATOM     91  F   UNL A   1      41.151  35.301  27.384  1.00  0.00    -0.203 F 
ATOM     92  F   UNL A   1      44.170  38.783  30.267  1.00  0.00    -0.200 F 
ATOM     93  C   UNL A   1      42.829  38.317  28.388  1.00  0.00     0.200 A 
ATOM     94  F   UNL A   1      41.527  37.775  26.501  1.00  0.00    -0.200 F 
ATOM     95  F   UNL A   1      42.986  39.570  27.942  1.00  0.00    -0.200 F 
ENDBRANCH  62  85
ENDBRANCH  36  37
ENDBRANCH  28  31
ENDBRANCH  26  27
ENDBRANCH   1  26
TORSDOF 12
ENDMDL
MODEL 3
REMARK VINA RESULT:     -14.5      3.890     10.242
REMARK SMILES Cc1cc(C(=O)NCCCCNC(=O)c2ccc(-c3c4nc(c(-c5c(F)c(F)c(F)c(F)c5F)c5ccc([nH]5)c(-c5c(F)c(F)c(F)c(F)c5F)c5nc(c(-c6c(F)c(F)c(F)c(F)c6F)c6ccc3[nH]6)C=C5)C=C4)cc2)ccc1NC(=O)N1C[C@@H](C)[C@H](C)C1
REMARK SMILES IDX 10 1 9 2 8 3 7 4 5 5 6 6 4 8 1 9 2 10 3 11 80 12 79 13 78 14
REMARK SMILES IDX 81 15 82 16 83 18 84 19 85 20 90 21 86 22 88 23 87 24 89 25
REMARK SMILES IDX 11 26 12 27 13 28 14 30 15 31 16 32 77 33 17 34 76 35 18 36
REMARK SMILES IDX 19 37 20 38 70 39 21 40 75 41 69 42 71 43 22 44 74 45 68 46
REMARK SMILES IDX 67 47 23 49 55 50 35 51 54 52 36 53 39 54 53 55 72 56 37 57
REMARK SMILES IDX 38 58 52 60 73 61 40 62 24 63 25 64 33 65 26 66 27 67 31 68
REMARK SMILES IDX 34 69 28 70 29 71 32 72 30 73 56 74 57 75 65 76 58 77 59 78
REMARK SMILES IDX 63 79 66 80 60 81 61 82 64 83 62 84 41 85 42 86 50 87 43 88
REMARK SMILES IDX 44 89 48 90 51 91 45 92 46 93 49 94 47 95
REMARK H PARENT 7 7 81 17 12 29 71 48 39 59
REMARK Flexibility Score: inf
ROOT
ATOM      1  C   UNL A   1      32.860  31.073  27.216  1.00  0.00     0.023 C 
ENDROOT
BRANCH   1   2
ATOM      2  C   UNL A   1      31.905  30.030  26.642  1.00  0.00     0.023 C 
BRANCH   2   3
ATOM      3  C   UNL A   1      32.192  29.613  25.188  1.00  0.00     0.116 C 
BRANCH   3   4
ATOM      4  N   UNL A   1      31.066  29.819  24.281  1.00  0.00    -0.352 N 
ATOM      5  C   UNL A   1      30.277  28.933  23.578  1.00  0.00     0.251 C 
ATOM      6  O   UNL A   1      29.254  29.352  23.041  1.00  0.00    -0.269 OA
ATOM      7  H   UNL A   1      30.827  30.765  24.145  1.00  0.00     0.163 HD
BRANCH   5   8
ATOM      8  C   UNL A   1      30.604  27.488  23.494  1.00  0.00     0.040 A 
ATOM      9  C   UNL A   1      32.825  25.237  21.390  1.00  0.00     0.046 C 
ATOM     10  C   UNL A   1      31.736  25.638  22.347  1.00  0.00    -0.027 A 
ATOM     11  C   UNL A   1      31.493  27.022  22.518  1.00  0.00     0.019 A 
ATOM     12  C   UNL A   1      31.003  24.727  23.126  1.00  0.00     0.045 A 
ATOM     13  C   UNL A   1      30.278  25.214  24.215  1.00  0.00     0.027 A 
ATOM     14  C   UNL A   1      30.107  26.577  24.411  1.00  0.00     0.016 A 
BRANCH  12  15
ATOM     15  N   UNL A   1      31.017  23.342  22.866  1.00  0.00    -0.308 N 
ATOM     16  C   UNL A   1      32.065  22.469  22.996  1.00  0.00     0.321 C 
ATOM     17  H   UNL A   1      30.170  22.954  22.551  1.00  0.00     0.171 HD
ATOM     18  O   UNL A   1      32.153  21.520  22.217  1.00  0.00    -0.248 OA
ATOM     19  N   UNL A   1      32.971  22.671  24.012  1.00  0.00    -0.324 N 
ATOM     20  C   UNL A   1      34.331  22.176  23.914  1.00  0.00     0.125 C 
ATOM     21  C   UNL A   1      32.618  22.985  25.392  1.00  0.00     0.125 C 
ATOM     22  C   UNL A   1      34.792  21.962  25.355  1.00  0.00     0.010 C 
ATOM     23  C   UNL A   1      33.946  22.968  26.156  1.00  0.00     0.010 C 
ATOM     24  C   UNL A   1      36.291  22.182  25.525  1.00  0.00     0.010 C 
ATOM     25  C   UNL A   1      33.796  22.590  27.628  1.00  0.00     0.010 C 
ENDBRANCH  12  15
ENDBRANCH   5   8
ENDBRANCH   3   4
ENDBRANCH   2   3
ENDBRANCH   1   2
BRANCH   1  26
ATOM     26  C   UNL A   1      34.116  30.470  27.818  1.00  0.00     0.116 C 
BRANCH  26  27
ATOM     27  N   UNL A   1      34.884  31.389  28.651  1.00  0.00    -0.352 N 
ATOM     28  C   UNL A   1      36.113  31.208  29.274  1.00  0.00     0.251 C 
ATOM     29  H   UNL A   1      34.470  32.271  28.792  1.00  0.00     0.163 HD
ATOM     30  O   UNL A   1      36.570  32.075  29.991  1.00  0.00    -0.269 OA
BRANCH  28  31
ATOM     31  C   UNL A   1      36.932  30.016  28.928  1.00  0.00     0.039 A 
ATOM     32  C   UNL A   1      37.029  28.999  29.886  1.00  0.00     0.014 A 
ATOM     33  C   UNL A   1      37.786  30.025  27.833  1.00  0.00     0.014 A 
ATOM     34  C   UNL A   1      38.160  28.187  29.901  1.00  0.00     0.010 A 
ATOM     35  C   UNL A   1      38.966  29.317  27.918  1.00  0.00     0.010 A 
ATOM     36  C   UNL A   1      39.187  28.462  29.003  1.00  0.00    -0.014 A 
BRANCH  36  37
ATOM     37  C   UNL A   1      40.572  28.058  29.225  1.00  0.00     0.031 A 
ATOM     38  C   UNL A   1      41.090  26.789  28.677  1.00  0.00     0.074 A 
ATOM     39  C   UNL A   1      41.414  28.945  29.802  1.00  0.00     0.049 A 
ATOM     40  N   UNL A   1      42.180  26.217  29.064  1.00  0.00    -0.248 NA
ATOM     41  C   UNL A   1      40.375  26.025  27.666  1.00  0.00     0.031 C 
ATOM     42  C   UNL A   1      42.874  28.915  29.796  1.00  0.00     0.029 A 
ATOM     43  N   UNL A   1      41.092  29.990  30.687  1.00  0.00    -0.354 N 
ATOM     44  C   UNL A   1      42.463  25.199  28.178  1.00  0.00     0.074 A 
ATOM     45  C   UNL A   1      41.261  25.065  27.390  1.00  0.00     0.031 C 
ATOM     46  C   UNL A   1      43.327  29.662  30.816  1.00  0.00     0.029 A 
ATOM     47  C   UNL A   1      42.170  30.060  31.599  1.00  0.00     0.049 A 
ATOM     48  H   UNL A   1      40.285  30.555  30.675  1.00  0.00     0.167 HD
ATOM     49  C   UNL A   1      43.735  24.700  28.135  1.00  0.00     0.037 A 
ATOM     50  C   UNL A   1      42.000  29.783  32.925  1.00  0.00     0.037 A 
ATOM     51  C   UNL A   1      44.541  25.244  29.233  1.00  0.00     0.049 A 
ATOM     52  C   UNL A   1      42.841  28.636  33.430  1.00  0.00     0.074 A 
ATOM     53  C   UNL A   1      45.500  26.243  29.293  1.00  0.00     0.029 A 
ATOM     54  N   UNL A   1      44.194  24.956  30.550  1.00  0.00    -0.354 N 
ATOM     55  N   UNL A   1      43.395  27.746  32.654  1.00  0.00    -0.248 NA
ATOM     56  C   UNL A   1      43.090  28.374  34.845  1.00  0.00     0.031 C 
ATOM     57  C   UNL A   1      45.684  26.597  30.654  1.00  0.00     0.029 A 
ATOM     58  C   UNL A   1      44.853  25.800  31.422  1.00  0.00     0.049 A 
ATOM     59  H   UNL A   1      43.566  24.248  30.822  1.00  0.00     0.167 HD
ATOM     60  C   UNL A   1      44.023  26.799  33.418  1.00  0.00     0.074 A 
ATOM     61  C   UNL A   1      43.825  27.249  34.783  1.00  0.00     0.031 C 
ATOM     62  C   UNL A   1      44.634  25.715  32.858  1.00  0.00     0.037 A 
BRANCH  49  63
ATOM     63  C   UNL A   1      44.346  23.969  26.944  1.00  0.00     0.064 A 
ATOM     64  C   UNL A   1      44.017  22.617  26.685  1.00  0.00     0.173 A 
ATOM     65  C   UNL A   1      45.322  24.492  26.075  1.00  0.00     0.173 A 
ATOM     66  F   UNL A   1      43.017  22.003  27.329  1.00  0.00    -0.203 F 
ATOM     67  C   UNL A   1      44.701  21.834  25.747  1.00  0.00     0.198 A 
ATOM     68  C   UNL A   1      46.036  23.703  25.165  1.00  0.00     0.198 A 
ATOM     69  F   UNL A   1      45.586  25.799  26.014  1.00  0.00    -0.203 F 
ATOM     70  F   UNL A   1      44.354  20.552  25.572  1.00  0.00    -0.200 F 
ATOM     71  C   UNL A   1      45.738  22.368  25.013  1.00  0.00     0.200 A 
ATOM     72  F   UNL A   1      47.012  24.257  24.432  1.00  0.00    -0.200 F 
ATOM     73  F   UNL A   1      46.421  21.613  24.144  1.00  0.00    -0.200 F 
ENDBRANCH  49  63
BRANCH  50  74
ATOM     74  C   UNL A   1      40.648  30.131  33.431  1.00  0.00     0.064 A 
ATOM     75  C   UNL A   1      40.379  31.477  33.744  1.00  0.00     0.173 A 
ATOM     76  C   UNL A   1      39.554  29.278  33.254  1.00  0.00     0.173 A 
ATOM     77  F   UNL A   1      41.395  32.336  33.924  1.00  0.00    -0.203 F 
ATOM     78  C   UNL A   1      39.077  31.973  33.762  1.00  0.00     0.198 A 
ATOM     79  C   UNL A   1      38.249  29.775  33.285  1.00  0.00     0.198 A 
ATOM     80  F   UNL A   1      39.744  27.991  32.929  1.00  0.00    -0.203 F 
ATOM     81  F   UNL A   1      38.865  33.283  33.951  1.00  0.00    -0.200 F 
ATOM     82  C   UNL A   1      38.014  31.125  33.504  1.00  0.00     0.200 A 
ATOM     83  F   UNL A   1      37.220  28.963  33.001  1.00  0.00    -0.200 F 
ATOM     84  F   UNL A   1      36.769  31.614  33.424  1.00  0.00    -0.200 F 
ENDBRANCH  50  74
BRANCH  62  85
ATOM     85  C   UNL A   1      45.152  24.511  33.605  1.00  0.00     0.064 A 
ATOM     86  C   UNL A   1      44.385  23.365  33.872  1.00  0.00     0.173 A 
ATOM     87  C   UNL A   1      46.523  24.422  33.945  1.00  0.00     0.173 A 
ATOM     88  F   UNL A   1      43.102  23.284  33.495  1.00  0.00    -0.203 F 
ATOM     89  C   UNL A   1      44.934  22.236  34.485  1.00  0.00     0.198 A 
ATOM     90  C   UNL A   1      47.080  23.272  34.505  1.00  0.00     0.198 A 
ATOM     91  F   UNL A   1      47.368  25.439  33.720  1.00  0.00    -0.203 F 
ATOM     92  F   UNL A   1      44.151  21.181  34.754  1.00  0.00    -0.200 F 
ATOM     93  C   UNL A   1      46.281  22.184  34.789  1.00  0.00     0.200 A 
ATOM     94  F   UNL A   1      48.397  23.219  34.746  1.00  0.00    -0.200 F 
ATOM     95  F   UNL A   1      46.813  21.081  35.333  1.00  0.00    -0.200 F 
ENDBRANCH  62  85
ENDBRANCH  36  37
ENDBRANCH  28  31
ENDBRANCH  26  27
ENDBRANCH   1  26
TORSDOF 12
ENDMDL
