MODEL 1
REMARK VINA RESULT:     -13.2      0.000      0.000
REMARK SMILES C[C@@H](C(=O)NCCCCNC(=O)c1ccc(-c2c3nc(c(-c4c(F)c(F)c(F)c(F)c4F)c4ccc([nH]4)c(-c4c(F)c(F)c(F)c(F)c4F)c4nc(c(-c5c(F)c(F)c(F)c(F)c5F)c5ccc2[nH]5)C=C4)C=C3)cc1)c1ccc(-c2ccn(C(F)F)c(=O)c2)cc1
REMARK SMILES IDX 7 1 6 2 5 3 3 4 4 5 2 7 1 8 76 9 77 10 91 11 78 12 90 13
REMARK SMILES IDX 79 14 80 15 81 16 89 17 82 18 87 19 83 20 88 21 84 22 85 23
REMARK SMILES IDX 86 24 8 25 9 26 10 27 11 28 12 30 13 31 14 32 75 33 15 34
REMARK SMILES IDX 74 35 16 36 17 37 18 38 68 39 19 40 73 41 67 42 69 43 20 44
REMARK SMILES IDX 72 45 66 46 65 47 21 49 53 50 33 51 52 52 34 53 37 54 51 55
REMARK SMILES IDX 70 56 35 57 36 58 50 60 71 61 38 62 22 63 23 64 31 65 24 66
REMARK SMILES IDX 25 67 29 68 32 69 26 70 27 71 30 72 28 73 54 74 55 75 63 76
REMARK SMILES IDX 56 77 57 78 61 79 64 80 58 81 59 82 62 83 60 84 39 85 40 86
REMARK SMILES IDX 48 87 41 88 42 89 46 90 49 91 43 92 44 93 47 94 45 95
REMARK H PARENT 5 6 10 29 69 48 37 59
REMARK Flexibility Score: inf
ROOT
ATOM      1  C   UNL A   1      31.843  30.329  27.003  1.00  0.00     0.023 C 
ENDROOT
BRANCH   1   2
ATOM      2  C   UNL A   1      32.652  29.550  25.961  1.00  0.00     0.116 C 
BRANCH   2   3
ATOM      3  N   UNL A   1      31.781  28.911  24.997  1.00  0.00    -0.356 N 
ATOM      4  C   UNL A   1      32.088  28.147  23.905  1.00  0.00     0.227 C 
ATOM      5  O   UNL A   1      31.147  27.826  23.177  1.00  0.00    -0.274 OA
ATOM      6  H   UNL A   1      30.819  29.046  25.151  1.00  0.00     0.163 HD
BRANCH   4   7
ATOM      7  C   UNL A   1      33.540  27.699  23.655  1.00  0.00     0.105 C 
ATOM      8  C   UNL A   1      34.028  28.133  22.266  1.00  0.00     0.023 C 
BRANCH   7   9
ATOM      9  C   UNL A   1      33.719  26.197  23.894  1.00  0.00    -0.036 A 
ATOM     10  C   UNL A   1      34.010  25.727  25.187  1.00  0.00     0.005 A 
ATOM     11  C   UNL A   1      33.578  25.256  22.864  1.00  0.00     0.005 A 
ATOM     12  C   UNL A   1      34.171  24.359  25.437  1.00  0.00     0.009 A 
ATOM     13  C   UNL A   1      33.753  23.895  23.109  1.00  0.00     0.009 A 
ATOM     14  C   UNL A   1      34.051  23.436  24.395  1.00  0.00    -0.018 A 
BRANCH  14  15
ATOM     15  C   UNL A   1      34.204  21.986  24.599  1.00  0.00    -0.011 A 
ATOM     16  C   UNL A   1      35.505  21.345  24.638  1.00  0.00     0.027 A 
ATOM     17  C   UNL A   1      33.096  21.227  24.628  1.00  0.00     0.080 A 
ATOM     18  C   UNL A   1      35.604  20.011  24.635  1.00  0.00     0.095 A 
ATOM     19  C   UNL A   1      33.191  19.741  24.658  1.00  0.00     0.255 A 
ATOM     20  N   UNL A   1      34.474  19.216  24.626  1.00  0.00    -0.258 N 
ATOM     21  O   UNL A   1      32.153  19.087  24.680  1.00  0.00    -0.269 OA
BRANCH  20  22
ATOM     22  C   UNL A   1      34.591  17.783  24.554  1.00  0.00     0.451 C 
ATOM     23  F   UNL A   1      34.434  17.338  23.284  1.00  0.00    -0.185 F 
ATOM     24  F   UNL A   1      35.805  17.373  24.998  1.00  0.00    -0.185 F 
ENDBRANCH  20  22
ENDBRANCH  14  15
ENDBRANCH   7   9
ENDBRANCH   4   7
ENDBRANCH   2   3
ENDBRANCH   1   2
BRANCH   1  25
ATOM     25  C   UNL A   1      31.756  31.835  26.749  1.00  0.00     0.023 C 
BRANCH  25  26
ATOM     26  C   UNL A   1      32.886  32.659  27.351  1.00  0.00     0.116 C 
BRANCH  26  27
ATOM     27  N   UNL A   1      32.504  34.034  27.631  1.00  0.00    -0.352 N 
ATOM     28  C   UNL A   1      33.039  34.900  28.554  1.00  0.00     0.251 C 
ATOM     29  H   UNL A   1      31.763  34.391  27.089  1.00  0.00     0.163 HD
ATOM     30  O   UNL A   1      32.529  35.998  28.751  1.00  0.00    -0.269 OA
BRANCH  28  31
ATOM     31  C   UNL A   1      34.218  34.478  29.338  1.00  0.00     0.039 A 
ATOM     32  C   UNL A   1      34.023  33.890  30.590  1.00  0.00     0.014 A 
ATOM     33  C   UNL A   1      35.504  34.621  28.813  1.00  0.00     0.014 A 
ATOM     34  C   UNL A   1      35.116  33.371  31.286  1.00  0.00     0.010 A 
ATOM     35  C   UNL A   1      36.582  34.045  29.475  1.00  0.00     0.010 A 
ATOM     36  C   UNL A   1      36.397  33.410  30.714  1.00  0.00    -0.014 A 
BRANCH  36  37
ATOM     37  C   UNL A   1      37.566  32.784  31.378  1.00  0.00     0.031 A 
ATOM     38  C   UNL A   1      38.262  31.623  30.727  1.00  0.00     0.074 A 
ATOM     39  C   UNL A   1      37.928  33.185  32.612  1.00  0.00     0.049 A 
ATOM     40  N   UNL A   1      39.201  30.846  31.203  1.00  0.00    -0.248 NA
ATOM     41  C   UNL A   1      37.815  31.268  29.372  1.00  0.00     0.031 C 
ATOM     42  C   UNL A   1      37.294  34.265  33.369  1.00  0.00     0.029 A 
ATOM     43  N   UNL A   1      38.898  32.710  33.458  1.00  0.00    -0.354 N 
ATOM     44  C   UNL A   1      39.433  29.895  30.220  1.00  0.00     0.074 A 
ATOM     45  C   UNL A   1      38.511  30.166  29.139  1.00  0.00     0.031 C 
ATOM     46  C   UNL A   1      37.889  34.369  34.568  1.00  0.00     0.029 A 
ATOM     47  C   UNL A   1      38.920  33.339  34.679  1.00  0.00     0.049 A 
ATOM     48  H   UNL A   1      39.519  31.986  33.214  1.00  0.00     0.167 HD
ATOM     49  C   UNL A   1      40.347  28.895  30.215  1.00  0.00     0.037 A 
ATOM     50  C   UNL A   1      39.670  33.100  35.771  1.00  0.00     0.037 A 
ATOM     51  C   UNL A   1      41.287  28.654  31.277  1.00  0.00     0.049 A 
ATOM     52  C   UNL A   1      40.692  31.997  35.735  1.00  0.00     0.074 A 
ATOM     53  C   UNL A   1      42.312  27.727  31.329  1.00  0.00     0.029 A 
ATOM     54  N   UNL A   1      41.312  29.347  32.479  1.00  0.00    -0.354 N 
ATOM     55  N   UNL A   1      40.960  31.153  34.769  1.00  0.00    -0.248 NA
ATOM     56  C   UNL A   1      41.518  31.816  36.937  1.00  0.00     0.031 C 
ATOM     57  C   UNL A   1      42.929  27.827  32.579  1.00  0.00     0.029 A 
ATOM     58  C   UNL A   1      42.320  28.849  33.290  1.00  0.00     0.049 A 
ATOM     59  H   UNL A   1      40.703  30.083  32.721  1.00  0.00     0.167 HD
ATOM     60  C   UNL A   1      41.998  30.357  35.234  1.00  0.00     0.074 A 
ATOM     61  C   UNL A   1      42.318  30.825  36.567  1.00  0.00     0.031 C 
ATOM     62  C   UNL A   1      42.629  29.333  34.611  1.00  0.00     0.037 A 
BRANCH  49  63
ATOM     63  C   UNL A   1      40.370  27.985  29.022  1.00  0.00     0.064 A 
ATOM     64  C   UNL A   1      41.125  28.283  27.879  1.00  0.00     0.173 A 
ATOM     65  C   UNL A   1      39.639  26.787  29.031  1.00  0.00     0.173 A 
ATOM     66  F   UNL A   1      41.832  29.422  27.815  1.00  0.00    -0.203 F 
ATOM     67  C   UNL A   1      41.121  27.435  26.776  1.00  0.00     0.198 A 
ATOM     68  C   UNL A   1      39.662  25.926  27.937  1.00  0.00     0.198 A 
ATOM     69  F   UNL A   1      38.903  26.450  30.102  1.00  0.00    -0.203 F 
ATOM     70  F   UNL A   1      41.806  27.770  25.673  1.00  0.00    -0.200 F 
ATOM     71  C   UNL A   1      40.394  26.255  26.807  1.00  0.00     0.200 A 
ATOM     72  F   UNL A   1      38.968  24.779  27.974  1.00  0.00    -0.200 F 
ATOM     73  F   UNL A   1      40.391  25.439  25.744  1.00  0.00    -0.200 F 
ENDBRANCH  49  63
BRANCH  50  74
ATOM     74  C   UNL A   1      39.484  33.935  36.985  1.00  0.00     0.064 A 
ATOM     75  C   UNL A   1      38.694  33.488  38.052  1.00  0.00     0.173 A 
ATOM     76  C   UNL A   1      40.111  35.183  37.113  1.00  0.00     0.173 A 
ATOM     77  F   UNL A   1      38.059  32.311  37.967  1.00  0.00    -0.203 F 
ATOM     78  C   UNL A   1      38.528  34.263  39.198  1.00  0.00     0.198 A 
ATOM     79  C   UNL A   1      39.966  35.946  38.270  1.00  0.00     0.198 A 
ATOM     80  F   UNL A   1      40.885  35.651  36.122  1.00  0.00    -0.203 F 
ATOM     81  F   UNL A   1      37.741  33.827  40.190  1.00  0.00    -0.200 F 
ATOM     82  C   UNL A   1      39.169  35.488  39.309  1.00  0.00     0.200 A 
ATOM     83  F   UNL A   1      40.599  37.121  38.380  1.00  0.00    -0.200 F 
ATOM     84  F   UNL A   1      39.019  36.228  40.416  1.00  0.00    -0.200 F 
ENDBRANCH  50  74
BRANCH  62  85
ATOM     85  C   UNL A   1      43.751  28.662  35.346  1.00  0.00     0.064 A 
ATOM     86  C   UNL A   1      43.528  27.548  36.167  1.00  0.00     0.173 A 
ATOM     87  C   UNL A   1      45.074  29.098  35.170  1.00  0.00     0.173 A 
ATOM     88  F   UNL A   1      42.281  27.104  36.379  1.00  0.00    -0.203 F 
ATOM     89  C   UNL A   1      44.589  26.900  36.795  1.00  0.00     0.198 A 
ATOM     90  C   UNL A   1      46.133  28.432  35.779  1.00  0.00     0.198 A 
ATOM     91  F   UNL A   1      45.338  30.156  34.389  1.00  0.00    -0.203 F 
ATOM     92  F   UNL A   1      44.352  25.856  37.601  1.00  0.00    -0.200 F 
ATOM     93  C   UNL A   1      45.891  27.337  36.593  1.00  0.00     0.200 A 
ATOM     94  F   UNL A   1      47.391  28.848  35.572  1.00  0.00    -0.200 F 
ATOM     95  F   UNL A   1      46.912  26.703  37.186  1.00  0.00    -0.200 F 
ENDBRANCH  62  85
ENDBRANCH  36  37
ENDBRANCH  28  31
ENDBRANCH  26  27
ENDBRANCH  25  26
ENDBRANCH   1  25
TORSDOF 14
ENDMDL
MODEL 2
REMARK VINA RESULT:     -13.2      0.833      1.815
REMARK SMILES C[C@@H](C(=O)NCCCCNC(=O)c1ccc(-c2c3nc(c(-c4c(F)c(F)c(F)c(F)c4F)c4ccc([nH]4)c(-c4c(F)c(F)c(F)c(F)c4F)c4nc(c(-c5c(F)c(F)c(F)c(F)c5F)c5ccc2[nH]5)C=C4)C=C3)cc1)c1ccc(-c2ccn(C(F)F)c(=O)c2)cc1
REMARK SMILES IDX 7 1 6 2 5 3 3 4 4 5 2 7 1 8 76 9 77 10 91 11 78 12 90 13
REMARK SMILES IDX 79 14 80 15 81 16 89 17 82 18 87 19 83 20 88 21 84 22 85 23
REMARK SMILES IDX 86 24 8 25 9 26 10 27 11 28 12 30 13 31 14 32 75 33 15 34
REMARK SMILES IDX 74 35 16 36 17 37 18 38 68 39 19 40 73 41 67 42 69 43 20 44
REMARK SMILES IDX 72 45 66 46 65 47 21 49 53 50 33 51 52 52 34 53 37 54 51 55
REMARK SMILES IDX 70 56 35 57 36 58 50 60 71 61 38 62 22 63 23 64 31 65 24 66
REMARK SMILES IDX 25 67 29 68 32 69 26 70 27 71 30 72 28 73 54 74 55 75 63 76
REMARK SMILES IDX 56 77 57 78 61 79 64 80 58 81 59 82 62 83 60 84 39 85 40 86
REMARK SMILES IDX 48 87 41 88 42 89 46 90 49 91 43 92 44 93 47 94 45 95
REMARK H PARENT 5 6 10 29 69 48 37 59
REMARK Flexibility Score: inf
ROOT
ATOM      1  C   UNL A   1      32.094  30.530  26.120  1.00  0.00     0.023 C 
ENDROOT
BRANCH   1   2
ATOM      2  C   UNL A   1      32.710  29.477  27.046  1.00  0.00     0.116 C 
BRANCH   2   3
ATOM      3  N   UNL A   1      31.777  28.400  27.305  1.00  0.00    -0.356 N 
ATOM      4  C   UNL A   1      31.480  27.295  26.557  1.00  0.00     0.227 C 
ATOM      5  O   UNL A   1      30.548  26.595  26.958  1.00  0.00    -0.274 OA
ATOM      6  H   UNL A   1      31.280  28.475  28.151  1.00  0.00     0.163 HD
BRANCH   4   7
ATOM      7  C   UNL A   1      32.317  26.955  25.309  1.00  0.00     0.105 C 
ATOM      8  C   UNL A   1      31.627  27.437  24.026  1.00  0.00     0.023 C 
BRANCH   7   9
ATOM      9  C   UNL A   1      32.675  25.467  25.256  1.00  0.00    -0.036 A 
ATOM     10  C   UNL A   1      33.966  25.049  25.623  1.00  0.00     0.005 A 
ATOM     11  C   UNL A   1      31.746  24.489  24.872  1.00  0.00     0.005 A 
ATOM     12  C   UNL A   1      34.321  23.694  25.591  1.00  0.00     0.009 A 
ATOM     13  C   UNL A   1      32.102  23.142  24.826  1.00  0.00     0.009 A 
ATOM     14  C   UNL A   1      33.390  22.735  25.184  1.00  0.00    -0.018 A 
BRANCH  14  15
ATOM     15  C   UNL A   1      33.704  21.297  25.135  1.00  0.00    -0.011 A 
ATOM     16  C   UNL A   1      35.056  20.807  24.944  1.00  0.00     0.027 A 
ATOM     17  C   UNL A   1      32.684  20.422  25.151  1.00  0.00     0.080 A 
ATOM     18  C   UNL A   1      35.281  19.509  24.716  1.00  0.00     0.095 A 
ATOM     19  C   UNL A   1      32.924  18.968  24.932  1.00  0.00     0.255 A 
ATOM     20  N   UNL A   1      34.239  18.601  24.690  1.00  0.00    -0.258 N 
ATOM     21  O   UNL A   1      31.962  18.206  24.949  1.00  0.00    -0.269 OA
BRANCH  20  22
ATOM     22  C   UNL A   1      34.484  17.218  24.377  1.00  0.00     0.451 C 
ATOM     23  F   UNL A   1      34.592  17.025  23.040  1.00  0.00    -0.185 F 
ATOM     24  F   UNL A   1      35.629  16.784  24.960  1.00  0.00    -0.185 F 
ENDBRANCH  20  22
ENDBRANCH  14  15
ENDBRANCH   7   9
ENDBRANCH   4   7
ENDBRANCH   2   3
ENDBRANCH   1   2
BRANCH   1  25
ATOM     25  C   UNL A   1      31.676  31.827  26.816  1.00  0.00     0.023 C 
BRANCH  25  26
ATOM     26  C   UNL A   1      32.821  32.652  27.386  1.00  0.00     0.116 C 
BRANCH  26  27
ATOM     27  N   UNL A   1      32.453  34.035  27.648  1.00  0.00    -0.352 N 
ATOM     28  C   UNL A   1      33.004  34.911  28.551  1.00  0.00     0.251 C 
ATOM     29  H   UNL A   1      31.711  34.390  27.107  1.00  0.00     0.163 HD
ATOM     30  O   UNL A   1      32.505  36.017  28.735  1.00  0.00    -0.269 OA
BRANCH  28  31
ATOM     31  C   UNL A   1      34.187  34.492  29.331  1.00  0.00     0.039 A 
ATOM     32  C   UNL A   1      33.997  33.901  30.582  1.00  0.00     0.014 A 
ATOM     33  C   UNL A   1      35.471  34.640  28.802  1.00  0.00     0.014 A 
ATOM     34  C   UNL A   1      35.094  33.385  31.274  1.00  0.00     0.010 A 
ATOM     35  C   UNL A   1      36.553  34.066  29.460  1.00  0.00     0.010 A 
ATOM     36  C   UNL A   1      36.374  33.429  30.698  1.00  0.00    -0.014 A 
BRANCH  36  37
ATOM     37  C   UNL A   1      37.547  32.806  31.358  1.00  0.00     0.031 A 
ATOM     38  C   UNL A   1      38.224  31.628  30.720  1.00  0.00     0.074 A 
ATOM     39  C   UNL A   1      37.929  33.226  32.579  1.00  0.00     0.049 A 
ATOM     40  N   UNL A   1      39.163  30.852  31.197  1.00  0.00    -0.248 NA
ATOM     41  C   UNL A   1      37.755  31.251  29.377  1.00  0.00     0.031 C 
ATOM     42  C   UNL A   1      37.314  34.326  33.325  1.00  0.00     0.029 A 
ATOM     43  N   UNL A   1      38.906  32.759  33.421  1.00  0.00    -0.354 N 
ATOM     44  C   UNL A   1      39.375  29.881  30.229  1.00  0.00     0.074 A 
ATOM     45  C   UNL A   1      38.440  30.139  29.156  1.00  0.00     0.031 C 
ATOM     46  C   UNL A   1      37.926  34.446  34.513  1.00  0.00     0.029 A 
ATOM     47  C   UNL A   1      38.950  33.411  34.629  1.00  0.00     0.049 A 
ATOM     48  H   UNL A   1      39.518  32.026  33.182  1.00  0.00     0.167 HD
ATOM     49  C   UNL A   1      40.280  28.873  30.230  1.00  0.00     0.037 A 
ATOM     50  C   UNL A   1      39.713  33.185  35.715  1.00  0.00     0.037 A 
ATOM     51  C   UNL A   1      41.233  28.645  31.284  1.00  0.00     0.049 A 
ATOM     52  C   UNL A   1      40.725  32.074  35.686  1.00  0.00     0.074 A 
ATOM     53  C   UNL A   1      42.250  27.710  31.338  1.00  0.00     0.029 A 
ATOM     54  N   UNL A   1      41.280  29.359  32.472  1.00  0.00    -0.354 N 
ATOM     55  N   UNL A   1      40.974  31.210  34.733  1.00  0.00    -0.248 NA
ATOM     56  C   UNL A   1      41.566  31.908  36.880  1.00  0.00     0.031 C 
ATOM     57  C   UNL A   1      42.886  27.828  32.579  1.00  0.00     0.029 A 
ATOM     58  C   UNL A   1      42.294  28.867  33.278  1.00  0.00     0.049 A 
ATOM     59  H   UNL A   1      40.680  30.104  32.708  1.00  0.00     0.167 HD
ATOM     60  C   UNL A   1      42.012  30.414  35.198  1.00  0.00     0.074 A 
ATOM     61  C   UNL A   1      42.354  30.904  36.518  1.00  0.00     0.031 C 
ATOM     62  C   UNL A   1      42.626  29.373  34.586  1.00  0.00     0.037 A 
BRANCH  49  63
ATOM     63  C   UNL A   1      40.279  27.941  29.054  1.00  0.00     0.064 A 
ATOM     64  C   UNL A   1      39.551  26.742  29.062  1.00  0.00     0.173 A 
ATOM     65  C   UNL A   1      41.003  28.261  27.896  1.00  0.00     0.173 A 
ATOM     66  F   UNL A   1      38.852  26.384  30.150  1.00  0.00    -0.203 F 
ATOM     67  C   UNL A   1      39.576  25.882  27.968  1.00  0.00     0.198 A 
ATOM     68  C   UNL A   1      41.000  27.413  26.792  1.00  0.00     0.198 A 
ATOM     69  F   UNL A   1      41.713  29.398  27.833  1.00  0.00    -0.203 F 
ATOM     70  F   UNL A   1      38.918  24.715  28.021  1.00  0.00    -0.200 F 
ATOM     71  C   UNL A   1      40.295  26.220  26.832  1.00  0.00     0.200 A 
ATOM     72  F   UNL A   1      41.687  27.747  25.690  1.00  0.00    -0.200 F 
ATOM     73  F   UNL A   1      40.318  25.390  25.779  1.00  0.00    -0.200 F 
ENDBRANCH  49  63
BRANCH  50  74
ATOM     74  C   UNL A   1      39.551  34.044  36.916  1.00  0.00     0.064 A 
ATOM     75  C   UNL A   1      38.744  33.639  37.988  1.00  0.00     0.173 A 
ATOM     76  C   UNL A   1      40.216  35.274  37.028  1.00  0.00     0.173 A 
ATOM     77  F   UNL A   1      38.073  32.480  37.919  1.00  0.00    -0.203 F 
ATOM     78  C   UNL A   1      38.600  34.436  39.121  1.00  0.00     0.198 A 
ATOM     79  C   UNL A   1      40.092  36.059  38.172  1.00  0.00     0.198 A 
ATOM     80  F   UNL A   1      41.006  35.702  36.031  1.00  0.00    -0.203 F 
ATOM     81  F   UNL A   1      37.797  34.040  40.118  1.00  0.00    -0.200 F 
ATOM     82  C   UNL A   1      39.279  35.641  39.215  1.00  0.00     0.200 A 
ATOM     83  F   UNL A   1      40.761  37.215  38.266  1.00  0.00    -0.200 F 
ATOM     84  F   UNL A   1      39.149  36.402  40.311  1.00  0.00    -0.200 F 
ENDBRANCH  50  74
BRANCH  62  85
ATOM     85  C   UNL A   1      43.752  28.707  35.318  1.00  0.00     0.064 A 
ATOM     86  C   UNL A   1      45.078  29.144  35.180  1.00  0.00     0.173 A 
ATOM     87  C   UNL A   1      43.491  27.664  36.220  1.00  0.00     0.173 A 
ATOM     88  F   UNL A   1      45.379  30.126  34.319  1.00  0.00    -0.203 F 
ATOM     89  C   UNL A   1      46.104  28.552  35.913  1.00  0.00     0.198 A 
ATOM     90  C   UNL A   1      44.517  27.093  36.969  1.00  0.00     0.198 A 
ATOM     91  F   UNL A   1      42.240  27.216  36.390  1.00  0.00    -0.203 F 
ATOM     92  F   UNL A   1      47.368  28.964  35.744  1.00  0.00    -0.200 F 
ATOM     93  C   UNL A   1      45.821  27.534  36.813  1.00  0.00     0.200 A 
ATOM     94  F   UNL A   1      44.239  26.119  37.848  1.00  0.00    -0.200 F 
ATOM     95  F   UNL A   1      46.808  26.978  37.529  1.00  0.00    -0.200 F 
ENDBRANCH  62  85
ENDBRANCH  36  37
ENDBRANCH  28  31
ENDBRANCH  26  27
ENDBRANCH  25  26
ENDBRANCH   1  25
TORSDOF 14
ENDMDL
MODEL 3
REMARK VINA RESULT:     -13.0      5.936     11.631
REMARK SMILES C[C@@H](C(=O)NCCCCNC(=O)c1ccc(-c2c3nc(c(-c4c(F)c(F)c(F)c(F)c4F)c4ccc([nH]4)c(-c4c(F)c(F)c(F)c(F)c4F)c4nc(c(-c5c(F)c(F)c(F)c(F)c5F)c5ccc2[nH]5)C=C4)C=C3)cc1)c1ccc(-c2ccn(C(F)F)c(=O)c2)cc1
REMARK SMILES IDX 7 1 6 2 5 3 3 4 4 5 2 7 1 8 76 9 77 10 91 11 78 12 90 13
REMARK SMILES IDX 79 14 80 15 81 16 89 17 82 18 87 19 83 20 88 21 84 22 85 23
REMARK SMILES IDX 86 24 8 25 9 26 10 27 11 28 12 30 13 31 14 32 75 33 15 34
REMARK SMILES IDX 74 35 16 36 17 37 18 38 68 39 19 40 73 41 67 42 69 43 20 44
REMARK SMILES IDX 72 45 66 46 65 47 21 49 53 50 33 51 52 52 34 53 37 54 51 55
REMARK SMILES IDX 70 56 35 57 36 58 50 60 71 61 38 62 22 63 23 64 31 65 24 66
REMARK SMILES IDX 25 67 29 68 32 69 26 70 27 71 30 72 28 73 54 74 55 75 63 76
REMARK SMILES IDX 56 77 57 78 61 79 64 80 58 81 59 82 62 83 60 84 39 85 40 86
REMARK SMILES IDX 48 87 41 88 42 89 46 90 49 91 43 92 44 93 47 94 45 95
REMARK H PARENT 5 6 10 29 69 48 37 59
REMARK Flexibility Score: inf
ROOT
ATOM      1  C   UNL A   1      37.306  21.662  24.616  1.00  0.00     0.023 C 
ENDROOT
BRANCH   1   2
ATOM      2  C   UNL A   1      36.009  21.993  25.361  1.00  0.00     0.116 C 
BRANCH   2   3
ATOM      3  N   UNL A   1      34.853  21.772  24.517  1.00  0.00    -0.356 N 
ATOM      4  C   UNL A   1      33.589  22.284  24.606  1.00  0.00     0.227 C 
ATOM      5  O   UNL A   1      32.755  21.828  23.820  1.00  0.00    -0.274 OA
ATOM      6  H   UNL A   1      35.000  21.157  23.763  1.00  0.00     0.163 HD
BRANCH   4   7
ATOM      7  C   UNL A   1      33.273  23.400  25.619  1.00  0.00     0.105 C 
ATOM      8  C   UNL A   1      32.665  22.829  26.908  1.00  0.00     0.023 C 
BRANCH   7   9
ATOM      9  C   UNL A   1      32.403  24.497  25.001  1.00  0.00    -0.036 A 
ATOM     10  C   UNL A   1      31.103  24.715  25.492  1.00  0.00     0.005 A 
ATOM     11  C   UNL A   1      32.865  25.323  23.966  1.00  0.00     0.005 A 
ATOM     12  C   UNL A   1      30.287  25.716  24.952  1.00  0.00     0.009 A 
ATOM     13  C   UNL A   1      32.049  26.309  23.416  1.00  0.00     0.009 A 
ATOM     14  C   UNL A   1      30.755  26.514  23.904  1.00  0.00    -0.018 A 
BRANCH  14  15
ATOM     15  C   UNL A   1      29.945  27.585  23.300  1.00  0.00    -0.011 A 
ATOM     16  C   UNL A   1      30.544  28.710  22.609  1.00  0.00     0.027 A 
ATOM     17  C   UNL A   1      28.617  27.571  23.506  1.00  0.00     0.080 A 
ATOM     18  C   UNL A   1      29.796  29.755  22.238  1.00  0.00     0.095 A 
ATOM     19  C   UNL A   1      27.766  28.713  23.069  1.00  0.00     0.255 A 
ATOM     20  N   UNL A   1      28.435  29.774  22.477  1.00  0.00    -0.258 N 
ATOM     21  O   UNL A   1      26.559  28.660  23.281  1.00  0.00    -0.269 OA
BRANCH  20  22
ATOM     22  C   UNL A   1      27.650  30.932  22.137  1.00  0.00     0.451 C 
ATOM     23  F   UNL A   1      27.651  31.841  23.141  1.00  0.00    -0.185 F 
ATOM     24  F   UNL A   1      28.133  31.534  21.022  1.00  0.00    -0.185 F 
ENDBRANCH  20  22
ENDBRANCH  14  15
ENDBRANCH   7   9
ENDBRANCH   4   7
ENDBRANCH   2   3
ENDBRANCH   1   2
BRANCH   1  25
ATOM     25  C   UNL A   1      37.954  20.336  25.020  1.00  0.00     0.023 C 
BRANCH  25  26
ATOM     26  C   UNL A   1      39.101  20.454  26.014  1.00  0.00     0.116 C 
BRANCH  26  27
ATOM     27  N   UNL A   1      40.022  19.330  25.960  1.00  0.00    -0.352 N 
ATOM     28  C   UNL A   1      41.391  19.339  26.076  1.00  0.00     0.251 C 
ATOM     29  H   UNL A   1      39.611  18.446  25.820  1.00  0.00     0.163 HD
ATOM     30  O   UNL A   1      42.041  18.314  25.893  1.00  0.00    -0.269 OA
BRANCH  28  31
ATOM     31  C   UNL A   1      42.079  20.608  26.386  1.00  0.00     0.039 A 
ATOM     32  C   UNL A   1      42.474  21.438  25.335  1.00  0.00     0.014 A 
ATOM     33  C   UNL A   1      42.287  20.994  27.712  1.00  0.00     0.014 A 
ATOM     34  C   UNL A   1      43.010  22.697  25.614  1.00  0.00     0.010 A 
ATOM     35  C   UNL A   1      42.757  22.273  27.989  1.00  0.00     0.010 A 
ATOM     36  C   UNL A   1      43.117  23.137  26.942  1.00  0.00    -0.014 A 
BRANCH  36  37
ATOM     37  C   UNL A   1      43.590  24.503  27.274  1.00  0.00     0.031 A 
ATOM     38  C   UNL A   1      42.615  25.528  27.779  1.00  0.00     0.074 A 
ATOM     39  C   UNL A   1      44.865  24.851  27.015  1.00  0.00     0.049 A 
ATOM     40  N   UNL A   1      42.791  26.808  27.987  1.00  0.00    -0.248 NA
ATOM     41  C   UNL A   1      41.250  25.055  28.054  1.00  0.00     0.031 C 
ATOM     42  C   UNL A   1      45.890  23.958  26.473  1.00  0.00     0.029 A 
ATOM     43  N   UNL A   1      45.507  26.057  27.145  1.00  0.00    -0.354 N 
ATOM     44  C   UNL A   1      41.555  27.296  28.385  1.00  0.00     0.074 A 
ATOM     45  C   UNL A   1      40.628  26.186  28.352  1.00  0.00     0.031 C 
ATOM     46  C   UNL A   1      47.031  24.647  26.314  1.00  0.00     0.029 A 
ATOM     47  C   UNL A   1      46.809  26.036  26.707  1.00  0.00     0.049 A 
ATOM     48  H   UNL A   1      45.076  26.860  27.516  1.00  0.00     0.167 HD
ATOM     49  C   UNL A   1      41.227  28.556  28.760  1.00  0.00     0.037 A 
ATOM     50  C   UNL A   1      47.713  27.029  26.611  1.00  0.00     0.037 A 
ATOM     51  C   UNL A   1      42.163  29.647  28.828  1.00  0.00     0.049 A 
ATOM     52  C   UNL A   1      47.333  28.416  27.053  1.00  0.00     0.074 A 
ATOM     53  C   UNL A   1      41.952  30.937  29.282  1.00  0.00     0.029 A 
ATOM     54  N   UNL A   1      43.488  29.576  28.423  1.00  0.00    -0.354 N 
ATOM     55  N   UNL A   1      46.183  28.851  27.505  1.00  0.00    -0.248 NA
ATOM     56  C   UNL A   1      48.376  29.448  26.976  1.00  0.00     0.031 C 
ATOM     57  C   UNL A   1      43.138  31.659  29.110  1.00  0.00     0.029 A 
ATOM     58  C   UNL A   1      44.100  30.807  28.593  1.00  0.00     0.049 A 
ATOM     59  H   UNL A   1      43.927  28.770  28.066  1.00  0.00     0.167 HD
ATOM     60  C   UNL A   1      46.367  30.198  27.788  1.00  0.00     0.074 A 
ATOM     61  C   UNL A   1      47.745  30.507  27.465  1.00  0.00     0.031 C 
ATOM     62  C   UNL A   1      45.475  31.094  28.274  1.00  0.00     0.037 A 
BRANCH  49  63
ATOM     63  C   UNL A   1      39.796  28.819  29.125  1.00  0.00     0.064 A 
ATOM     64  C   UNL A   1      39.327  28.666  30.438  1.00  0.00     0.173 A 
ATOM     65  C   UNL A   1      38.884  29.249  28.149  1.00  0.00     0.173 A 
ATOM     66  F   UNL A   1      40.156  28.245  31.405  1.00  0.00    -0.203 F 
ATOM     67  C   UNL A   1      37.992  28.899  30.753  1.00  0.00     0.198 A 
ATOM     68  C   UNL A   1      37.556  29.511  28.475  1.00  0.00     0.198 A 
ATOM     69  F   UNL A   1      39.281  29.417  26.878  1.00  0.00    -0.203 F 
ATOM     70  F   UNL A   1      37.555  28.691  32.004  1.00  0.00    -0.200 F 
ATOM     71  C   UNL A   1      37.109  29.327  29.774  1.00  0.00     0.200 A 
ATOM     72  F   UNL A   1      36.706  29.936  27.529  1.00  0.00    -0.200 F 
ATOM     73  F   UNL A   1      35.823  29.551  30.080  1.00  0.00    -0.200 F 
ENDBRANCH  49  63
BRANCH  50  74
ATOM     74  C   UNL A   1      49.070  26.737  26.085  1.00  0.00     0.064 A 
ATOM     75  C   UNL A   1      49.386  26.966  24.739  1.00  0.00     0.173 A 
ATOM     76  C   UNL A   1      50.085  26.245  26.920  1.00  0.00     0.173 A 
ATOM     77  F   UNL A   1      48.443  27.416  23.899  1.00  0.00    -0.203 F 
ATOM     78  C   UNL A   1      50.662  26.704  24.245  1.00  0.00     0.198 A 
ATOM     79  C   UNL A   1      51.368  26.008  26.431  1.00  0.00     0.198 A 
ATOM     80  F   UNL A   1      49.834  26.017  28.218  1.00  0.00    -0.203 F 
ATOM     81  F   UNL A   1      50.928  26.901  22.947  1.00  0.00    -0.200 F 
ATOM     82  C   UNL A   1      51.653  26.233  25.092  1.00  0.00     0.200 A 
ATOM     83  F   UNL A   1      52.327  25.567  27.255  1.00  0.00    -0.200 F 
ATOM     84  F   UNL A   1      52.884  25.992  24.619  1.00  0.00    -0.200 F 
ENDBRANCH  50  74
BRANCH  62  85
ATOM     85  C   UNL A   1      45.962  32.492  28.516  1.00  0.00     0.064 A 
ATOM     86  C   UNL A   1      45.852  33.489  27.536  1.00  0.00     0.173 A 
ATOM     87  C   UNL A   1      46.482  32.853  29.769  1.00  0.00     0.173 A 
ATOM     88  F   UNL A   1      45.376  33.188  26.319  1.00  0.00    -0.203 F 
ATOM     89  C   UNL A   1      46.254  34.796  27.799  1.00  0.00     0.198 A 
ATOM     90  C   UNL A   1      46.859  34.167  30.035  1.00  0.00     0.198 A 
ATOM     91  F   UNL A   1      46.602  31.937  30.740  1.00  0.00    -0.203 F 
ATOM     92  F   UNL A   1      46.169  35.726  26.838  1.00  0.00    -0.200 F 
ATOM     93  C   UNL A   1      46.749  35.135  29.050  1.00  0.00     0.200 A 
ATOM     94  F   UNL A   1      47.324  34.495  31.249  1.00  0.00    -0.200 F 
ATOM     95  F   UNL A   1      47.120  36.397  29.305  1.00  0.00    -0.200 F 
ENDBRANCH  62  85
ENDBRANCH  36  37
ENDBRANCH  28  31
ENDBRANCH  26  27
ENDBRANCH  25  26
ENDBRANCH   1  25
TORSDOF 14
ENDMDL
