MODEL 1
REMARK VINA RESULT:     -10.9      0.000      0.000
REMARK SMILES O=C(COCCNC(=O)C1CCCC1)NCCCCNC(=O)c1ccc(-c2c3nc(c(-c4c(F)c(F)c(F)c(F)c4F)c4ccc([nH]4)c(-c4c(F)c(F)c(F)c(F)c4F)c4nc(c(-c5c(F)c(F)c(F)c(F)c5F)c5ccc2[nH]5)C=C4)C=C3)cc1
REMARK SMILES IDX 16 1 15 2 1 3 2 4 3 6 4 7 5 8 6 9 7 10 8 11 9 13 10 14 11 15
REMARK SMILES IDX 14 16 12 17 13 18 17 19 18 20 19 21 20 22 21 23 22 25 23 26
REMARK SMILES IDX 24 27 85 28 25 29 84 30 26 31 27 32 28 33 78 34 29 35 83 36
REMARK SMILES IDX 77 37 79 38 30 39 82 40 76 41 75 42 31 44 63 45 43 46 62 47
REMARK SMILES IDX 44 48 47 49 61 50 80 51 45 52 46 53 60 55 81 56 48 57 32 58
REMARK SMILES IDX 33 59 41 60 34 61 35 62 39 63 42 64 36 65 37 66 40 67 38 68
REMARK SMILES IDX 64 69 65 70 73 71 66 72 67 73 71 74 74 75 68 76 69 77 72 78
REMARK SMILES IDX 70 79 49 80 50 81 58 82 51 83 52 84 56 85 59 86 53 87 54 88
REMARK SMILES IDX 57 89 55 90
REMARK H PARENT 15 5 7 12 20 24 79 43 47 54
REMARK Flexibility Score: inf
ROOT
ATOM      1  C   UNL A   1      37.067  22.100  25.150  1.00  0.00     0.116 C 
ENDROOT
BRANCH   1   2
ATOM      2  N   UNL A   1      35.927  22.917  24.794  1.00  0.00    -0.354 N 
ATOM      3  O   UNL A   1      36.366  22.957  22.538  1.00  0.00    -0.272 OA
ATOM      4  C   UNL A   1      35.661  23.277  23.489  1.00  0.00     0.245 C 
ATOM      5  H   UNL A   1      35.321  23.226  25.506  1.00  0.00     0.163 HD
BRANCH   4   6
ATOM      6  C   UNL A   1      34.409  24.147  23.338  1.00  0.00     0.260 C 
BRANCH   6   7
ATOM      7  O   UNL A   1      33.193  23.616  23.842  1.00  0.00    -0.370 OA
BRANCH   7   8
ATOM      8  C   UNL A   1      32.477  22.752  22.950  1.00  0.00     0.182 C 
BRANCH   8   9
ATOM      9  C   UNL A   1      32.545  21.257  23.298  1.00  0.00     0.144 C 
BRANCH   9  10
ATOM     10  N   UNL A   1      32.828  21.006  24.702  1.00  0.00    -0.354 N 
ATOM     11  C   UNL A   1      33.033  19.842  25.376  1.00  0.00     0.223 C 
ATOM     12  H   UNL A   1      32.879  21.815  25.259  1.00  0.00     0.163 HD
ATOM     13  O   UNL A   1      33.309  19.919  26.573  1.00  0.00    -0.275 OA
BRANCH  11  14
ATOM     14  C   UNL A   1      33.016  18.515  24.634  1.00  0.00     0.078 C 
ATOM     15  C   UNL A   1      34.430  18.071  24.250  1.00  0.00     0.013 C 
ATOM     16  C   UNL A   1      32.529  17.318  25.443  1.00  0.00     0.013 C 
ATOM     17  C   UNL A   1      34.267  16.608  23.873  1.00  0.00     0.001 C 
ATOM     18  C   UNL A   1      33.107  16.097  24.724  1.00  0.00     0.001 C 
ENDBRANCH  11  14
ENDBRANCH   9  10
ENDBRANCH   8   9
ENDBRANCH   7   8
ENDBRANCH   6   7
ENDBRANCH   4   6
ENDBRANCH   1   2
BRANCH   1  19
ATOM     19  C   UNL A   1      36.758  20.606  25.088  1.00  0.00     0.023 C 
BRANCH  19  20
ATOM     20  C   UNL A   1      37.985  19.699  24.963  1.00  0.00     0.023 C 
BRANCH  20  21
ATOM     21  C   UNL A   1      39.214  20.147  25.747  1.00  0.00     0.116 C 
BRANCH  21  22
ATOM     22  N   UNL A   1      40.215  19.101  25.883  1.00  0.00    -0.352 N 
ATOM     23  C   UNL A   1      41.564  19.209  26.124  1.00  0.00     0.251 C 
ATOM     24  H   UNL A   1      39.876  18.181  25.790  1.00  0.00     0.163 HD
ATOM     25  O   UNL A   1      42.281  18.217  26.071  1.00  0.00    -0.269 OA
BRANCH  23  26
ATOM     26  C   UNL A   1      42.164  20.532  26.415  1.00  0.00     0.039 A 
ATOM     27  C   UNL A   1      42.615  21.314  25.349  1.00  0.00     0.014 A 
ATOM     28  C   UNL A   1      42.283  21.001  27.726  1.00  0.00     0.014 A 
ATOM     29  C   UNL A   1      43.119  22.594  25.591  1.00  0.00     0.010 A 
ATOM     30  C   UNL A   1      42.714  22.306  27.960  1.00  0.00     0.010 A 
ATOM     31  C   UNL A   1      43.135  23.118  26.895  1.00  0.00    -0.014 A 
BRANCH  31  32
ATOM     32  C   UNL A   1      43.575  24.513  27.160  1.00  0.00     0.031 A 
ATOM     33  C   UNL A   1      42.602  25.531  27.688  1.00  0.00     0.074 A 
ATOM     34  C   UNL A   1      44.838  24.881  26.866  1.00  0.00     0.049 A 
ATOM     35  N   UNL A   1      42.781  26.808  27.921  1.00  0.00    -0.248 NA
ATOM     36  C   UNL A   1      41.238  25.058  27.969  1.00  0.00     0.031 C 
ATOM     37  C   UNL A   1      45.867  24.001  26.310  1.00  0.00     0.029 A 
ATOM     38  N   UNL A   1      45.470  26.095  26.983  1.00  0.00    -0.354 N 
ATOM     39  C   UNL A   1      41.555  27.290  28.358  1.00  0.00     0.074 A 
ATOM     40  C   UNL A   1      40.625  26.182  28.308  1.00  0.00     0.031 C 
ATOM     41  C   UNL A   1      47.006  24.696  26.160  1.00  0.00     0.029 A 
ATOM     42  C   UNL A   1      46.779  26.079  26.567  1.00  0.00     0.049 A 
ATOM     43  H   UNL A   1      45.026  26.901  27.335  1.00  0.00     0.167 HD
ATOM     44  C   UNL A   1      41.239  28.536  28.784  1.00  0.00     0.037 A 
ATOM     45  C   UNL A   1      47.690  27.068  26.508  1.00  0.00     0.037 A 
ATOM     46  C   UNL A   1      42.173  29.631  28.853  1.00  0.00     0.049 A 
ATOM     47  C   UNL A   1      47.305  28.450  26.966  1.00  0.00     0.074 A 
ATOM     48  C   UNL A   1      41.964  30.913  29.332  1.00  0.00     0.029 A 
ATOM     49  N   UNL A   1      43.492  29.574  28.425  1.00  0.00    -0.354 N 
ATOM     50  N   UNL A   1      46.163  28.875  27.449  1.00  0.00    -0.248 NA
ATOM     51  C   UNL A   1      48.341  29.489  26.878  1.00  0.00     0.031 C 
ATOM     52  C   UNL A   1      43.138  31.649  29.137  1.00  0.00     0.029 A 
ATOM     53  C   UNL A   1      44.099  30.808  28.598  1.00  0.00     0.049 A 
ATOM     54  H   UNL A   1      43.931  28.775  28.053  1.00  0.00     0.167 HD
ATOM     55  C   UNL A   1      46.352  30.218  27.752  1.00  0.00     0.074 A 
ATOM     56  C   UNL A   1      47.724  30.532  27.412  1.00  0.00     0.031 C 
ATOM     57  C   UNL A   1      45.468  31.108  28.265  1.00  0.00     0.037 A 
BRANCH  44  58
ATOM     58  C   UNL A   1      39.820  28.790  29.206  1.00  0.00     0.064 A 
ATOM     59  C   UNL A   1      39.404  28.633  30.538  1.00  0.00     0.173 A 
ATOM     60  C   UNL A   1      38.869  29.237  28.274  1.00  0.00     0.173 A 
ATOM     61  F   UNL A   1      40.268  28.200  31.468  1.00  0.00    -0.203 F 
ATOM     62  C   UNL A   1      38.086  28.883  30.913  1.00  0.00     0.198 A 
ATOM     63  C   UNL A   1      37.562  29.519  28.659  1.00  0.00     0.198 A 
ATOM     64  F   UNL A   1      39.213  29.411  26.989  1.00  0.00    -0.203 F 
ATOM     65  F   UNL A   1      37.701  28.674  32.179  1.00  0.00    -0.200 F 
ATOM     66  C   UNL A   1      37.169  29.333  29.976  1.00  0.00     0.200 A 
ATOM     67  F   UNL A   1      36.681  29.968  27.755  1.00  0.00    -0.200 F 
ATOM     68  F   UNL A   1      35.903  29.580  30.340  1.00  0.00    -0.200 F 
ENDBRANCH  44  58
BRANCH  45  69
ATOM     69  C   UNL A   1      49.065  26.788  26.015  1.00  0.00     0.064 A 
ATOM     70  C   UNL A   1      49.404  27.001  24.672  1.00  0.00     0.173 A 
ATOM     71  C   UNL A   1      50.061  26.289  26.867  1.00  0.00     0.173 A 
ATOM     72  F   UNL A   1      48.481  27.457  23.812  1.00  0.00    -0.203 F 
ATOM     73  C   UNL A   1      50.679  26.703  24.193  1.00  0.00     0.198 A 
ATOM     74  C   UNL A   1      51.345  26.022  26.394  1.00  0.00     0.198 A 
ATOM     75  F   UNL A   1      49.791  26.070  28.162  1.00  0.00    -0.203 F 
ATOM     76  F   UNL A   1      50.958  26.866  22.893  1.00  0.00    -0.200 F 
ATOM     77  C   UNL A   1      51.649  26.219  25.057  1.00  0.00     0.200 A 
ATOM     78  F   UNL A   1      52.284  25.568  27.236  1.00  0.00    -0.200 F 
ATOM     79  F   UNL A   1      52.875  25.934  24.597  1.00  0.00    -0.200 F 
ENDBRANCH  45  69
BRANCH  57  80
ATOM     80  C   UNL A   1      45.966  32.500  28.535  1.00  0.00     0.064 A 
ATOM     81  C   UNL A   1      45.859  33.523  27.581  1.00  0.00     0.173 A 
ATOM     82  C   UNL A   1      46.525  32.823  29.781  1.00  0.00     0.173 A 
ATOM     83  F   UNL A   1      45.347  33.264  26.368  1.00  0.00    -0.203 F 
ATOM     84  C   UNL A   1      46.318  34.808  27.855  1.00  0.00     0.198 A 
ATOM     85  C   UNL A   1      46.950  34.117  30.065  1.00  0.00     0.198 A 
ATOM     86  F   UNL A   1      46.644  31.884  30.733  1.00  0.00    -0.203 F 
ATOM     87  F   UNL A   1      46.254  35.756  26.910  1.00  0.00    -0.200 F 
ATOM     88  C   UNL A   1      46.856  35.107  29.099  1.00  0.00     0.200 A 
ATOM     89  F   UNL A   1      47.454  34.407  31.272  1.00  0.00    -0.200 F 
ATOM     90  F   UNL A   1      47.289  36.347  29.363  1.00  0.00    -0.200 F 
ENDBRANCH  57  80
ENDBRANCH  31  32
ENDBRANCH  23  26
ENDBRANCH  21  22
ENDBRANCH  20  21
ENDBRANCH  19  20
ENDBRANCH   1  19
TORSDOF 16
ENDMDL
MODEL 2
REMARK VINA RESULT:     -10.7      5.966     11.370
REMARK SMILES O=C(COCCNC(=O)C1CCCC1)NCCCCNC(=O)c1ccc(-c2c3nc(c(-c4c(F)c(F)c(F)c(F)c4F)c4ccc([nH]4)c(-c4c(F)c(F)c(F)c(F)c4F)c4nc(c(-c5c(F)c(F)c(F)c(F)c5F)c5ccc2[nH]5)C=C4)C=C3)cc1
REMARK SMILES IDX 16 1 15 2 1 3 2 4 3 6 4 7 5 8 6 9 7 10 8 11 9 13 10 14 11 15
REMARK SMILES IDX 14 16 12 17 13 18 17 19 18 20 19 21 20 22 21 23 22 25 23 26
REMARK SMILES IDX 24 27 85 28 25 29 84 30 26 31 27 32 28 33 78 34 29 35 83 36
REMARK SMILES IDX 77 37 79 38 30 39 82 40 76 41 75 42 31 44 63 45 43 46 62 47
REMARK SMILES IDX 44 48 47 49 61 50 80 51 45 52 46 53 60 55 81 56 48 57 32 58
REMARK SMILES IDX 33 59 41 60 34 61 35 62 39 63 42 64 36 65 37 66 40 67 38 68
REMARK SMILES IDX 64 69 65 70 73 71 66 72 67 73 71 74 74 75 68 76 69 77 72 78
REMARK SMILES IDX 70 79 49 80 50 81 58 82 51 83 52 84 56 85 59 86 53 87 54 88
REMARK SMILES IDX 57 89 55 90
REMARK H PARENT 15 5 7 12 20 24 79 43 47 54
REMARK Flexibility Score: inf
ROOT
ATOM      1  C   UNL A   1      32.375  29.814  25.936  1.00  0.00     0.116 C 
ENDROOT
BRANCH   1   2
ATOM      2  N   UNL A   1      31.752  28.536  25.665  1.00  0.00    -0.354 N 
ATOM      3  O   UNL A   1      31.605  27.880  27.863  1.00  0.00    -0.272 OA
ATOM      4  C   UNL A   1      31.404  27.663  26.674  1.00  0.00     0.245 C 
ATOM      5  H   UNL A   1      31.572  28.283  24.731  1.00  0.00     0.163 HD
BRANCH   4   6
ATOM      6  C   UNL A   1      30.763  26.367  26.165  1.00  0.00     0.260 C 
BRANCH   6   7
ATOM      7  O   UNL A   1      31.643  25.305  25.826  1.00  0.00    -0.370 OA
BRANCH   7   8
ATOM      8  C   UNL A   1      31.022  24.032  25.606  1.00  0.00     0.182 C 
BRANCH   8   9
ATOM      9  C   UNL A   1      31.779  23.096  24.650  1.00  0.00     0.144 C 
BRANCH   9  10
ATOM     10  N   UNL A   1      32.434  23.798  23.558  1.00  0.00    -0.354 N 
ATOM     11  C   UNL A   1      33.754  23.989  23.286  1.00  0.00     0.223 C 
ATOM     12  H   UNL A   1      31.819  24.203  22.906  1.00  0.00     0.163 HD
ATOM     13  O   UNL A   1      34.039  24.587  22.249  1.00  0.00    -0.275 OA
BRANCH  11  14
ATOM     14  C   UNL A   1      34.816  23.388  24.192  1.00  0.00     0.078 C 
ATOM     15  C   UNL A   1      36.087  23.043  23.411  1.00  0.00     0.013 C 
ATOM     16  C   UNL A   1      35.363  24.321  25.267  1.00  0.00     0.013 C 
ATOM     17  C   UNL A   1      37.133  22.820  24.491  1.00  0.00     0.001 C 
ATOM     18  C   UNL A   1      36.722  23.727  25.647  1.00  0.00     0.001 C 
ENDBRANCH  11  14
ENDBRANCH   9  10
ENDBRANCH   8   9
ENDBRANCH   7   8
ENDBRANCH   6   7
ENDBRANCH   4   6
ENDBRANCH   1   2
BRANCH   1  19
ATOM     19  C   UNL A   1      31.410  30.985  25.759  1.00  0.00     0.023 C 
BRANCH  19  20
ATOM     20  C   UNL A   1      31.348  31.952  26.943  1.00  0.00     0.023 C 
BRANCH  20  21
ATOM     21  C   UNL A   1      32.615  32.761  27.197  1.00  0.00     0.116 C 
BRANCH  21  22
ATOM     22  N   UNL A   1      32.346  34.143  27.557  1.00  0.00    -0.352 N 
ATOM     23  C   UNL A   1      32.945  34.930  28.514  1.00  0.00     0.251 C 
ATOM     24  H   UNL A   1      31.630  34.581  27.041  1.00  0.00     0.163 HD
ATOM     25  O   UNL A   1      32.491  36.038  28.772  1.00  0.00    -0.269 OA
BRANCH  23  26
ATOM     26  C   UNL A   1      34.120  34.427  29.261  1.00  0.00     0.039 A 
ATOM     27  C   UNL A   1      33.914  33.784  30.484  1.00  0.00     0.014 A 
ATOM     28  C   UNL A   1      35.416  34.584  28.763  1.00  0.00     0.014 A 
ATOM     29  C   UNL A   1      35.000  33.238  31.174  1.00  0.00     0.010 A 
ATOM     30  C   UNL A   1      36.488  33.973  29.412  1.00  0.00     0.010 A 
ATOM     31  C   UNL A   1      36.292  33.291  30.623  1.00  0.00    -0.014 A 
BRANCH  31  32
ATOM     32  C   UNL A   1      37.443  32.630  31.294  1.00  0.00     0.031 A 
ATOM     33  C   UNL A   1      38.145  31.475  30.636  1.00  0.00     0.074 A 
ATOM     34  C   UNL A   1      37.817  33.030  32.525  1.00  0.00     0.049 A 
ATOM     35  N   UNL A   1      39.124  30.732  31.090  1.00  0.00    -0.248 NA
ATOM     36  C   UNL A   1      37.669  31.085  29.300  1.00  0.00     0.031 C 
ATOM     37  C   UNL A   1      37.191  34.110  33.289  1.00  0.00     0.029 A 
ATOM     38  N   UNL A   1      38.808  32.569  33.357  1.00  0.00    -0.354 N 
ATOM     39  C   UNL A   1      39.368  29.783  30.106  1.00  0.00     0.074 A 
ATOM     40  C   UNL A   1      38.401  30.009  29.054  1.00  0.00     0.031 C 
ATOM     41  C   UNL A   1      37.828  34.246  34.463  1.00  0.00     0.029 A 
ATOM     42  C   UNL A   1      38.878  33.236  34.555  1.00  0.00     0.049 A 
ATOM     43  H   UNL A   1      39.412  31.830  33.115  1.00  0.00     0.167 HD
ATOM     44  C   UNL A   1      40.325  28.825  30.073  1.00  0.00     0.037 A 
ATOM     45  C   UNL A   1      39.689  33.049  35.614  1.00  0.00     0.037 A 
ATOM     46  C   UNL A   1      41.300  28.617  31.112  1.00  0.00     0.049 A 
ATOM     47  C   UNL A   1      40.730  31.962  35.560  1.00  0.00     0.074 A 
ATOM     48  C   UNL A   1      42.350  27.716  31.142  1.00  0.00     0.029 A 
ATOM     49  N   UNL A   1      41.341  29.315  32.311  1.00  0.00    -0.354 N 
ATOM     50  N   UNL A   1      40.999  31.120  34.592  1.00  0.00    -0.248 NA
ATOM     51  C   UNL A   1      41.584  31.805  36.745  1.00  0.00     0.031 C 
ATOM     52  C   UNL A   1      42.989  27.827  32.382  1.00  0.00     0.029 A 
ATOM     53  C   UNL A   1      42.378  28.842  33.100  1.00  0.00     0.049 A 
ATOM     54  H   UNL A   1      40.724  30.040  32.563  1.00  0.00     0.167 HD
ATOM     55  C   UNL A   1      42.072  30.358  35.037  1.00  0.00     0.074 A 
ATOM     56  C   UNL A   1      42.413  30.848  36.356  1.00  0.00     0.031 C 
ATOM     57  C   UNL A   1      42.716  29.344  34.407  1.00  0.00     0.037 A 
BRANCH  44  58
ATOM     58  C   UNL A   1      40.365  27.920  28.875  1.00  0.00     0.064 A 
ATOM     59  C   UNL A   1      41.111  28.241  27.729  1.00  0.00     0.173 A 
ATOM     60  C   UNL A   1      39.682  26.693  28.886  1.00  0.00     0.173 A 
ATOM     61  F   UNL A   1      41.775  29.404  27.661  1.00  0.00    -0.203 F 
ATOM     62  C   UNL A   1      41.145  27.385  26.631  1.00  0.00     0.198 A 
ATOM     63  C   UNL A   1      39.746  25.825  27.801  1.00  0.00     0.198 A 
ATOM     64  F   UNL A   1      38.959  26.332  29.957  1.00  0.00    -0.203 F 
ATOM     65  F   UNL A   1      41.820  27.739  25.529  1.00  0.00    -0.200 F 
ATOM     66  C   UNL A   1      40.469  26.175  26.670  1.00  0.00     0.200 A 
ATOM     67  F   UNL A   1      39.106  24.649  27.846  1.00  0.00    -0.200 F 
ATOM     68  F   UNL A   1      40.510  25.349  25.616  1.00  0.00    -0.200 F 
ENDBRANCH  44  58
BRANCH  45  69
ATOM     69  C   UNL A   1      39.566  33.923  36.811  1.00  0.00     0.064 A 
ATOM     70  C   UNL A   1      40.207  35.169  36.861  1.00  0.00     0.173 A 
ATOM     71  C   UNL A   1      38.822  33.528  37.933  1.00  0.00     0.173 A 
ATOM     72  F   UNL A   1      40.948  35.582  35.822  1.00  0.00    -0.203 F 
ATOM     73  C   UNL A   1      40.130  35.976  37.995  1.00  0.00     0.198 A 
ATOM     74  C   UNL A   1      38.719  34.350  39.054  1.00  0.00     0.198 A 
ATOM     75  F   UNL A   1      38.187  32.348  37.936  1.00  0.00    -0.203 F 
ATOM     76  F   UNL A   1      40.797  37.137  38.034  1.00  0.00    -0.200 F 
ATOM     77  C   UNL A   1      39.381  35.567  39.088  1.00  0.00     0.200 A 
ATOM     78  F   UNL A   1      37.982  33.958  40.103  1.00  0.00    -0.200 F 
ATOM     79  F   UNL A   1      39.305  36.344  40.177  1.00  0.00    -0.200 F 
ENDBRANCH  45  69
BRANCH  57  80
ATOM     80  C   UNL A   1      43.885  28.722  35.117  1.00  0.00     0.064 A 
ATOM     81  C   UNL A   1      43.734  27.617  35.968  1.00  0.00     0.173 A 
ATOM     82  C   UNL A   1      45.182  29.217  34.910  1.00  0.00     0.173 A 
ATOM     83  F   UNL A   1      42.513  27.115  36.211  1.00  0.00    -0.203 F 
ATOM     84  C   UNL A   1      44.833  27.051  36.607  1.00  0.00     0.198 A 
ATOM     85  C   UNL A   1      46.283  28.625  35.523  1.00  0.00     0.198 A 
ATOM     86  F   UNL A   1      45.386  30.267  34.100  1.00  0.00    -0.203 F 
ATOM     87  F   UNL A   1      44.657  26.030  37.457  1.00  0.00    -0.200 F 
ATOM     88  C   UNL A   1      46.107  27.549  36.379  1.00  0.00     0.200 A 
ATOM     89  F   UNL A   1      47.514  29.098  35.288  1.00  0.00    -0.200 F 
ATOM     90  F   UNL A   1      47.164  26.995  36.989  1.00  0.00    -0.200 F 
ENDBRANCH  57  80
ENDBRANCH  31  32
ENDBRANCH  23  26
ENDBRANCH  21  22
ENDBRANCH  20  21
ENDBRANCH  19  20
ENDBRANCH   1  19
TORSDOF 16
ENDMDL
MODEL 3
REMARK VINA RESULT:     -10.6      6.373     11.765
REMARK SMILES O=C(COCCNC(=O)C1CCCC1)NCCCCNC(=O)c1ccc(-c2c3nc(c(-c4c(F)c(F)c(F)c(F)c4F)c4ccc([nH]4)c(-c4c(F)c(F)c(F)c(F)c4F)c4nc(c(-c5c(F)c(F)c(F)c(F)c5F)c5ccc2[nH]5)C=C4)C=C3)cc1
REMARK SMILES IDX 16 1 15 2 1 3 2 4 3 6 4 7 5 8 6 9 7 10 8 11 9 13 10 14 11 15
REMARK SMILES IDX 14 16 12 17 13 18 17 19 18 20 19 21 20 22 21 23 22 25 23 26
REMARK SMILES IDX 24 27 85 28 25 29 84 30 26 31 27 32 28 33 78 34 29 35 83 36
REMARK SMILES IDX 77 37 79 38 30 39 82 40 76 41 75 42 31 44 63 45 43 46 62 47
REMARK SMILES IDX 44 48 47 49 61 50 80 51 45 52 46 53 60 55 81 56 48 57 32 58
REMARK SMILES IDX 33 59 41 60 34 61 35 62 39 63 42 64 36 65 37 66 40 67 38 68
REMARK SMILES IDX 64 69 65 70 73 71 66 72 67 73 71 74 74 75 68 76 69 77 72 78
REMARK SMILES IDX 70 79 49 80 50 81 58 82 51 83 52 84 56 85 59 86 53 87 54 88
REMARK SMILES IDX 57 89 55 90
REMARK H PARENT 15 5 7 12 20 24 79 43 47 54
REMARK Flexibility Score: inf
ROOT
ATOM      1  C   UNL A   1      32.722  30.143  25.784  1.00  0.00     0.116 C 
ENDROOT
BRANCH   1   2
ATOM      2  N   UNL A   1      32.532  28.780  25.336  1.00  0.00    -0.354 N 
ATOM      3  O   UNL A   1      33.682  29.024  23.360  1.00  0.00    -0.272 OA
ATOM      4  C   UNL A   1      33.047  28.323  24.141  1.00  0.00     0.245 C 
ATOM      5  H   UNL A   1      32.019  28.160  25.902  1.00  0.00     0.163 HD
BRANCH   4   6
ATOM      6  C   UNL A   1      32.725  26.852  23.859  1.00  0.00     0.260 C 
BRANCH   6   7
ATOM      7  O   UNL A   1      31.592  26.306  24.518  1.00  0.00    -0.370 OA
BRANCH   7   8
ATOM      8  C   UNL A   1      30.425  26.134  23.704  1.00  0.00     0.182 C 
BRANCH   8   9
ATOM      9  C   UNL A   1      29.911  27.414  23.025  1.00  0.00     0.144 C 
BRANCH   9  10
ATOM     10  N   UNL A   1      28.489  27.639  23.224  1.00  0.00    -0.354 N 
ATOM     11  C   UNL A   1      27.743  28.773  23.126  1.00  0.00     0.223 C 
ATOM     12  H   UNL A   1      27.979  26.835  23.472  1.00  0.00     0.163 HD
ATOM     13  O   UNL A   1      26.528  28.671  23.299  1.00  0.00    -0.275 OA
BRANCH  11  14
ATOM     14  C   UNL A   1      28.395  30.084  22.718  1.00  0.00     0.078 C 
ATOM     15  C   UNL A   1      28.026  30.469  21.283  1.00  0.00     0.013 C 
ATOM     16  C   UNL A   1      27.934  31.314  23.492  1.00  0.00     0.013 C 
ATOM     17  C   UNL A   1      28.433  31.930  21.177  1.00  0.00     0.001 C 
ATOM     18  C   UNL A   1      28.271  32.499  22.584  1.00  0.00     0.001 C 
ENDBRANCH  11  14
ENDBRANCH   9  10
ENDBRANCH   8   9
ENDBRANCH   7   8
ENDBRANCH   6   7
ENDBRANCH   4   6
ENDBRANCH   1   2
BRANCH   1  19
ATOM     19  C   UNL A   1      31.711  30.553  26.853  1.00  0.00     0.023 C 
BRANCH  19  20
ATOM     20  C   UNL A   1      31.403  32.051  26.908  1.00  0.00     0.023 C 
BRANCH  20  21
ATOM     21  C   UNL A   1      32.617  32.972  26.872  1.00  0.00     0.116 C 
BRANCH  21  22
ATOM     22  N   UNL A   1      32.420  34.204  27.618  1.00  0.00    -0.352 N 
ATOM     23  C   UNL A   1      33.073  34.661  28.739  1.00  0.00     0.251 C 
ATOM     24  H   UNL A   1      31.716  34.798  27.270  1.00  0.00     0.163 HD
ATOM     25  O   UNL A   1      32.677  35.667  29.316  1.00  0.00    -0.269 OA
BRANCH  23  26
ATOM     26  C   UNL A   1      34.239  33.921  29.275  1.00  0.00     0.039 A 
ATOM     27  C   UNL A   1      35.523  34.385  28.979  1.00  0.00     0.014 A 
ATOM     28  C   UNL A   1      34.072  32.779  30.062  1.00  0.00     0.014 A 
ATOM     29  C   UNL A   1      36.637  33.746  29.530  1.00  0.00     0.010 A 
ATOM     30  C   UNL A   1      35.177  32.189  30.673  1.00  0.00     0.010 A 
ATOM     31  C   UNL A   1      36.472  32.668  30.416  1.00  0.00    -0.014 A 
BRANCH  31  32
ATOM     32  C   UNL A   1      37.639  32.038  31.089  1.00  0.00     0.031 A 
ATOM     33  C   UNL A   1      38.438  30.975  30.389  1.00  0.00     0.074 A 
ATOM     34  C   UNL A   1      37.942  32.380  32.357  1.00  0.00     0.049 A 
ATOM     35  N   UNL A   1      39.447  30.267  30.833  1.00  0.00    -0.248 NA
ATOM     36  C   UNL A   1      38.037  30.644  29.013  1.00  0.00     0.031 C 
ATOM     37  C   UNL A   1      37.220  33.366  33.162  1.00  0.00     0.029 A 
ATOM     38  N   UNL A   1      38.931  31.928  33.197  1.00  0.00    -0.354 N 
ATOM     39  C   UNL A   1      39.787  29.401  29.803  1.00  0.00     0.074 A 
ATOM     40  C   UNL A   1      38.845  29.634  28.730  1.00  0.00     0.031 C 
ATOM     41  C   UNL A   1      37.804  33.465  34.367  1.00  0.00     0.029 A 
ATOM     42  C   UNL A   1      38.914  32.519  34.437  1.00  0.00     0.049 A 
ATOM     43  H   UNL A   1      39.590  31.246  32.933  1.00  0.00     0.167 HD
ATOM     44  C   UNL A   1      40.806  28.510  29.748  1.00  0.00     0.037 A 
ATOM     45  C   UNL A   1      39.697  32.315  35.513  1.00  0.00     0.037 A 
ATOM     46  C   UNL A   1      41.755  28.296  30.810  1.00  0.00     0.049 A 
ATOM     47  C   UNL A   1      40.808  31.301  35.433  1.00  0.00     0.074 A 
ATOM     48  C   UNL A   1      42.859  27.462  30.824  1.00  0.00     0.029 A 
ATOM     49  N   UNL A   1      41.707  28.916  32.051  1.00  0.00    -0.354 N 
ATOM     50  N   UNL A   1      41.166  30.543  34.425  1.00  0.00    -0.248 NA
ATOM     51  C   UNL A   1      41.628  31.121  36.639  1.00  0.00     0.031 C 
ATOM     52  C   UNL A   1      43.444  27.532  32.093  1.00  0.00     0.029 A 
ATOM     53  C   UNL A   1      42.744  28.459  32.849  1.00  0.00     0.049 A 
ATOM     54  H   UNL A   1      41.035  29.583  32.323  1.00  0.00     0.167 HD
ATOM     55  C   UNL A   1      42.270  29.823  34.864  1.00  0.00     0.074 A 
ATOM     56  C   UNL A   1      42.531  30.246  36.223  1.00  0.00     0.031 C 
ATOM     57  C   UNL A   1      43.001  28.894  34.198  1.00  0.00     0.037 A 
BRANCH  44  58
ATOM     58  C   UNL A   1      40.947  27.689  28.497  1.00  0.00     0.064 A 
ATOM     59  C   UNL A   1      40.279  26.466  28.334  1.00  0.00     0.173 A 
ATOM     60  C   UNL A   1      41.730  28.153  27.427  1.00  0.00     0.173 A 
ATOM     61  F   UNL A   1      39.525  25.972  29.328  1.00  0.00    -0.203 F 
ATOM     62  C   UNL A   1      40.413  25.724  27.163  1.00  0.00     0.198 A 
ATOM     63  C   UNL A   1      41.834  27.425  26.245  1.00  0.00     0.198 A 
ATOM     64  F   UNL A   1      42.386  29.319  27.525  1.00  0.00    -0.203 F 
ATOM     65  F   UNL A   1      39.808  24.534  27.054  1.00  0.00    -0.200 F 
ATOM     66  C   UNL A   1      41.184  26.207  26.118  1.00  0.00     0.200 A 
ATOM     67  F   UNL A   1      42.567  27.901  25.230  1.00  0.00    -0.200 F 
ATOM     68  F   UNL A   1      41.306  25.496  24.989  1.00  0.00    -0.200 F 
ENDBRANCH  44  58
BRANCH  45  69
ATOM     69  C   UNL A   1      39.475  33.100  36.758  1.00  0.00     0.064 A 
ATOM     70  C   UNL A   1      38.534  32.686  37.710  1.00  0.00     0.173 A 
ATOM     71  C   UNL A   1      40.183  34.283  37.013  1.00  0.00     0.173 A 
ATOM     72  F   UNL A   1      37.815  31.573  37.501  1.00  0.00    -0.203 F 
ATOM     73  C   UNL A   1      38.291  33.437  38.859  1.00  0.00     0.198 A 
ATOM     74  C   UNL A   1      39.963  35.016  38.178  1.00  0.00     0.198 A 
ATOM     75  F   UNL A   1      41.098  34.722  36.136  1.00  0.00    -0.203 F 
ATOM     76  F   UNL A   1      37.348  33.044  39.725  1.00  0.00    -0.200 F 
ATOM     77  C   UNL A   1      39.010  34.598  39.094  1.00  0.00     0.200 A 
ATOM     78  F   UNL A   1      40.671  36.131  38.409  1.00  0.00    -0.200 F 
ATOM     79  F   UNL A   1      38.779  35.319  40.199  1.00  0.00    -0.200 F 
ENDBRANCH  45  69
BRANCH  57  80
ATOM     80  C   UNL A   1      44.182  28.302  34.913  1.00  0.00     0.064 A 
ATOM     81  C   UNL A   1      45.447  28.908  34.883  1.00  0.00     0.173 A 
ATOM     82  C   UNL A   1      44.035  27.130  35.671  1.00  0.00     0.173 A 
ATOM     83  F   UNL A   1      45.645  30.021  34.161  1.00  0.00    -0.203 F 
ATOM     84  C   UNL A   1      46.526  28.347  35.561  1.00  0.00     0.198 A 
ATOM     85  C   UNL A   1      45.108  26.592  36.377  1.00  0.00     0.198 A 
ATOM     86  F   UNL A   1      42.846  26.513  35.741  1.00  0.00    -0.203 F 
ATOM     87  F   UNL A   1      47.737  28.914  35.474  1.00  0.00    -0.200 F 
ATOM     88  C   UNL A   1      46.354  27.195  36.314  1.00  0.00     0.200 A 
ATOM     89  F   UNL A   1      44.935  25.488  37.116  1.00  0.00    -0.200 F 
ATOM     90  F   UNL A   1      47.392  26.662  36.973  1.00  0.00    -0.200 F 
ENDBRANCH  57  80
ENDBRANCH  31  32
ENDBRANCH  23  26
ENDBRANCH  21  22
ENDBRANCH  20  21
ENDBRANCH  19  20
ENDBRANCH   1  19
TORSDOF 16
ENDMDL
