MODEL 1
REMARK VINA RESULT:     -13.0      0.000      0.000
REMARK SMILES O=C(NCCCCNC(=O)[C@@H](Cc1ccncc1)c1ccc(Cl)cc1)c1ccc(-c2c3nc(c(-c4c(F)c(F)c(F)c(F)c4F)c4ccc([nH]4)c(-c4c(F)c(F)c(F)c(F)c4F)c4nc(c(-c5c(F)c(F)c(F)c(F)c5F)c5ccc2[nH]5)C=C4)C=C3)cc1
REMARK SMILES IDX 5 1 4 2 3 3 1 4 2 5 26 7 27 8 88 9 28 10 87 11 29 12 30 13
REMARK SMILES IDX 31 14 81 15 32 16 86 17 80 18 82 19 33 20 85 21 79 22 78 23
REMARK SMILES IDX 34 25 66 26 46 27 65 28 47 29 50 30 64 31 83 32 48 33 49 34
REMARK SMILES IDX 63 36 84 37 51 38 35 39 36 40 44 41 37 42 38 43 42 44 45 45
REMARK SMILES IDX 39 46 40 47 43 48 41 49 67 50 68 51 76 52 69 53 70 54 74 55
REMARK SMILES IDX 77 56 71 57 72 58 75 59 73 60 52 61 53 62 61 63 54 64 55 65
REMARK SMILES IDX 59 66 62 67 56 68 57 69 60 70 58 71 6 72 7 73 8 74 9 75
REMARK SMILES IDX 10 77 11 78 12 79 13 80 14 81 18 82 15 83 17 84 16 85 19 86
REMARK SMILES IDX 20 87 25 88 21 89 24 90 22 91 23 92
REMARK H PARENT 3 6 82 24 50 35 8 76
REMARK Flexibility Score: inf
ROOT
ATOM      1  C   UNL A   1      31.789  31.783  26.662  1.00  0.00     0.023 C 
ENDROOT
BRANCH   1   2
ATOM      2  C   UNL A   1      32.803  32.637  27.416  1.00  0.00     0.116 C 
BRANCH   2   3
ATOM      3  N   UNL A   1      32.372  34.011  27.661  1.00  0.00    -0.352 N 
ATOM      4  O   UNL A   1      32.396  36.066  28.618  1.00  0.00    -0.269 OA
ATOM      5  C   UNL A   1      32.910  34.960  28.501  1.00  0.00     0.251 C 
ATOM      6  H   UNL A   1      31.581  34.300  27.152  1.00  0.00     0.163 HD
BRANCH   5   7
ATOM      7  C   UNL A   1      34.089  34.601  29.309  1.00  0.00     0.039 A 
ATOM      8  C   UNL A   1      35.358  34.612  28.731  1.00  0.00     0.014 A 
ATOM      9  C   UNL A   1      33.899  34.141  30.613  1.00  0.00     0.014 A 
ATOM     10  C   UNL A   1      36.395  33.953  29.374  1.00  0.00     0.010 A 
ATOM     11  C   UNL A   1      34.975  33.585  31.304  1.00  0.00     0.010 A 
ATOM     12  C   UNL A   1      36.216  33.431  30.666  1.00  0.00    -0.014 A 
BRANCH  12  13
ATOM     13  C   UNL A   1      37.342  32.732  31.333  1.00  0.00     0.031 A 
ATOM     14  C   UNL A   1      38.088  31.629  30.636  1.00  0.00     0.074 A 
ATOM     15  C   UNL A   1      37.704  33.123  32.568  1.00  0.00     0.049 A 
ATOM     16  N   UNL A   1      39.041  30.858  31.098  1.00  0.00    -0.248 NA
ATOM     17  C   UNL A   1      37.712  31.344  29.242  1.00  0.00     0.031 C 
ATOM     18  C   UNL A   1      37.061  34.192  33.335  1.00  0.00     0.029 A 
ATOM     19  N   UNL A   1      38.706  32.680  33.391  1.00  0.00    -0.354 N 
ATOM     20  C   UNL A   1      39.342  29.969  30.074  1.00  0.00     0.074 A 
ATOM     21  C   UNL A   1      38.473  30.294  28.963  1.00  0.00     0.031 C 
ATOM     22  C   UNL A   1      37.712  34.354  34.494  1.00  0.00     0.029 A 
ATOM     23  C   UNL A   1      38.761  33.347  34.588  1.00  0.00     0.049 A 
ATOM     24  H   UNL A   1      39.325  31.955  33.148  1.00  0.00     0.167 HD
ATOM     25  C   UNL A   1      40.260  28.972  30.069  1.00  0.00     0.037 A 
ATOM     26  C   UNL A   1      39.544  33.148  35.663  1.00  0.00     0.037 A 
ATOM     27  C   UNL A   1      41.150  28.687  31.166  1.00  0.00     0.049 A 
ATOM     28  C   UNL A   1      40.553  32.041  35.631  1.00  0.00     0.074 A 
ATOM     29  C   UNL A   1      42.137  27.721  31.250  1.00  0.00     0.029 A 
ATOM     30  N   UNL A   1      41.164  29.377  32.369  1.00  0.00    -0.354 N 
ATOM     31  N   UNL A   1      40.814  31.194  34.667  1.00  0.00    -0.248 NA
ATOM     32  C   UNL A   1      41.364  31.853  36.840  1.00  0.00     0.031 C 
ATOM     33  C   UNL A   1      42.726  27.805  32.516  1.00  0.00     0.029 A 
ATOM     34  C   UNL A   1      42.133  28.849  33.208  1.00  0.00     0.049 A 
ATOM     35  H   UNL A   1      40.572  30.132  32.595  1.00  0.00     0.167 HD
ATOM     36  C   UNL A   1      41.823  30.374  35.145  1.00  0.00     0.074 A 
ATOM     37  C   UNL A   1      42.138  30.837  36.483  1.00  0.00     0.031 C 
ATOM     38  C   UNL A   1      42.428  29.327  34.533  1.00  0.00     0.037 A 
BRANCH  25  39
ATOM     39  C   UNL A   1      40.329  28.093  28.855  1.00  0.00     0.064 A 
ATOM     40  C   UNL A   1      41.095  28.437  27.731  1.00  0.00     0.173 A 
ATOM     41  C   UNL A   1      39.645  26.867  28.831  1.00  0.00     0.173 A 
ATOM     42  F   UNL A   1      41.758  29.603  27.697  1.00  0.00    -0.203 F 
ATOM     43  C   UNL A   1      41.156  27.597  26.622  1.00  0.00     0.198 A 
ATOM     44  C   UNL A   1      39.728  26.019  27.730  1.00  0.00     0.198 A 
ATOM     45  F   UNL A   1      38.903  26.488  29.882  1.00  0.00    -0.203 F 
ATOM     46  F   UNL A   1      41.862  27.964  25.543  1.00  0.00    -0.200 F 
ATOM     47  C   UNL A   1      40.477  26.387  26.624  1.00  0.00     0.200 A 
ATOM     48  F   UNL A   1      39.079  24.846  27.740  1.00  0.00    -0.200 F 
ATOM     49  F   UNL A   1      40.541  25.578  25.557  1.00  0.00    -0.200 F 
ENDBRANCH  25  39
BRANCH  26  50
ATOM     50  C   UNL A   1      39.368  34.018  36.851  1.00  0.00     0.064 A 
ATOM     51  C   UNL A   1      38.625  33.586  37.955  1.00  0.00     0.173 A 
ATOM     52  C   UNL A   1      40.008  35.265  36.936  1.00  0.00     0.173 A 
ATOM     53  F   UNL A   1      37.985  32.408  37.912  1.00  0.00    -0.203 F 
ATOM     54  C   UNL A   1      38.532  34.366  39.105  1.00  0.00     0.198 A 
ATOM     55  C   UNL A   1      39.936  36.031  38.096  1.00  0.00     0.198 A 
ATOM     56  F   UNL A   1      40.743  35.713  35.907  1.00  0.00    -0.203 F 
ATOM     57  F   UNL A   1      37.803  33.939  40.145  1.00  0.00    -0.200 F 
ATOM     58  C   UNL A   1      39.197  35.582  39.178  1.00  0.00     0.200 A 
ATOM     59  F   UNL A   1      40.600  37.193  38.170  1.00  0.00    -0.200 F 
ATOM     60  F   UNL A   1      39.129  36.319  40.296  1.00  0.00    -0.200 F 
ENDBRANCH  26  50
BRANCH  38  61
ATOM     61  C   UNL A   1      43.509  28.630  35.299  1.00  0.00     0.064 A 
ATOM     62  C   UNL A   1      44.857  28.984  35.148  1.00  0.00     0.173 A 
ATOM     63  C   UNL A   1      43.188  27.620  36.219  1.00  0.00     0.173 A 
ATOM     64  F   UNL A   1      45.210  29.931  34.266  1.00  0.00    -0.203 F 
ATOM     65  C   UNL A   1      45.850  28.340  35.882  1.00  0.00     0.198 A 
ATOM     66  C   UNL A   1      44.181  26.994  36.965  1.00  0.00     0.198 A 
ATOM     67  F   UNL A   1      41.912  27.250  36.397  1.00  0.00    -0.203 F 
ATOM     68  F   UNL A   1      47.136  28.669  35.698  1.00  0.00    -0.200 F 
ATOM     69  C   UNL A   1      45.511  27.351  36.793  1.00  0.00     0.200 A 
ATOM     70  F   UNL A   1      43.852  26.043  37.851  1.00  0.00    -0.200 F 
ATOM     71  F   UNL A   1      46.467  26.736  37.501  1.00  0.00    -0.200 F 
ENDBRANCH  38  61
ENDBRANCH  12  13
ENDBRANCH   5   7
ENDBRANCH   2   3
ENDBRANCH   1   2
BRANCH   1  72
ATOM     72  C   UNL A   1      31.931  30.284  26.881  1.00  0.00     0.023 C 
BRANCH  72  73
ATOM     73  C   UNL A   1      33.325  29.738  26.612  1.00  0.00     0.116 C 
BRANCH  73  74
ATOM     74  N   UNL A   1      33.649  29.698  25.210  1.00  0.00    -0.356 N 
ATOM     75  C   UNL A   1      33.060  29.030  24.188  1.00  0.00     0.227 C 
ATOM     76  H   UNL A   1      34.427  30.244  24.952  1.00  0.00     0.163 HD
ATOM     77  O   UNL A   1      33.463  29.328  23.055  1.00  0.00    -0.274 OA
BRANCH  75  78
ATOM     78  C   UNL A   1      31.982  27.947  24.350  1.00  0.00     0.113 C 
BRANCH  78  79
ATOM     79  C   UNL A   1      30.901  27.850  23.243  1.00  0.00     0.054 C 
BRANCH  79  80
ATOM     80  C   UNL A   1      29.651  28.692  23.272  1.00  0.00    -0.044 A 
ATOM     81  C   UNL A   1      29.737  30.073  23.496  1.00  0.00     0.024 A 
ATOM     82  C   UNL A   1      28.379  28.133  23.124  1.00  0.00     0.024 A 
ATOM     83  C   UNL A   1      28.572  30.828  23.499  1.00  0.00     0.111 A 
ATOM     84  C   UNL A   1      27.273  28.973  23.126  1.00  0.00     0.111 A 
ATOM     85  N   UNL A   1      27.346  30.310  23.293  1.00  0.00    -0.265 NA
ENDBRANCH  79  80
ENDBRANCH  78  79
BRANCH  78  86
ATOM     86  C   UNL A   1      32.402  26.662  25.069  1.00  0.00    -0.035 A 
ATOM     87  C   UNL A   1      33.691  26.115  25.024  1.00  0.00     0.006 A 
ATOM     88  C   UNL A   1      31.435  25.969  25.827  1.00  0.00     0.006 A 
ATOM     89  C   UNL A   1      34.001  24.920  25.688  1.00  0.00     0.021 A 
ATOM     90  C   UNL A   1      31.743  24.784  26.501  1.00  0.00     0.021 A 
ATOM     91  C   UNL A   1      33.026  24.260  26.424  1.00  0.00     0.041 A 
ATOM     92  Cl  UNL A   1      33.409  22.794  27.236  1.00  0.00    -0.084 Cl
ENDBRANCH  78  86
ENDBRANCH  75  78
ENDBRANCH  73  74
ENDBRANCH  72  73
ENDBRANCH   1  72
TORSDOF 14
ENDMDL
MODEL 2
REMARK VINA RESULT:     -12.9      0.507      7.372
REMARK SMILES O=C(NCCCCNC(=O)[C@@H](Cc1ccncc1)c1ccc(Cl)cc1)c1ccc(-c2c3nc(c(-c4c(F)c(F)c(F)c(F)c4F)c4ccc([nH]4)c(-c4c(F)c(F)c(F)c(F)c4F)c4nc(c(-c5c(F)c(F)c(F)c(F)c5F)c5ccc2[nH]5)C=C4)C=C3)cc1
REMARK SMILES IDX 5 1 4 2 3 3 1 4 2 5 26 7 27 8 88 9 28 10 87 11 29 12 30 13
REMARK SMILES IDX 31 14 81 15 32 16 86 17 80 18 82 19 33 20 85 21 79 22 78 23
REMARK SMILES IDX 34 25 66 26 46 27 65 28 47 29 50 30 64 31 83 32 48 33 49 34
REMARK SMILES IDX 63 36 84 37 51 38 35 39 36 40 44 41 37 42 38 43 42 44 45 45
REMARK SMILES IDX 39 46 40 47 43 48 41 49 67 50 68 51 76 52 69 53 70 54 74 55
REMARK SMILES IDX 77 56 71 57 72 58 75 59 73 60 52 61 53 62 61 63 54 64 55 65
REMARK SMILES IDX 59 66 62 67 56 68 57 69 60 70 58 71 6 72 7 73 8 74 9 75
REMARK SMILES IDX 10 77 11 78 12 79 13 80 14 81 18 82 15 83 17 84 16 85 19 86
REMARK SMILES IDX 20 87 25 88 21 89 24 90 22 91 23 92
REMARK H PARENT 3 6 82 24 50 35 8 76
REMARK Flexibility Score: inf
ROOT
ATOM      1  C   UNL A   1      31.782  31.878  26.630  1.00  0.00     0.023 C 
ENDROOT
BRANCH   1   2
ATOM      2  C   UNL A   1      32.847  32.691  27.358  1.00  0.00     0.116 C 
BRANCH   2   3
ATOM      3  N   UNL A   1      32.453  34.063  27.670  1.00  0.00    -0.352 N 
ATOM      4  O   UNL A   1      32.528  36.065  28.729  1.00  0.00    -0.269 OA
ATOM      5  C   UNL A   1      33.011  34.952  28.559  1.00  0.00     0.251 C 
ATOM      6  H   UNL A   1      31.674  34.399  27.171  1.00  0.00     0.163 HD
BRANCH   5   7
ATOM      7  C   UNL A   1      34.174  34.520  29.355  1.00  0.00     0.039 A 
ATOM      8  C   UNL A   1      35.455  34.582  28.806  1.00  0.00     0.014 A 
ATOM      9  C   UNL A   1      33.959  33.944  30.608  1.00  0.00     0.014 A 
ATOM     10  C   UNL A   1      36.480  33.866  29.407  1.00  0.00     0.010 A 
ATOM     11  C   UNL A   1      35.021  33.325  31.266  1.00  0.00     0.010 A 
ATOM     12  C   UNL A   1      36.275  33.229  30.642  1.00  0.00    -0.014 A 
BRANCH  12  13
ATOM     13  C   UNL A   1      37.387  32.471  31.265  1.00  0.00     0.031 A 
ATOM     14  C   UNL A   1      37.840  32.775  32.666  1.00  0.00     0.074 A 
ATOM     15  C   UNL A   1      37.970  31.483  30.562  1.00  0.00     0.049 A 
ATOM     16  N   UNL A   1      38.845  32.269  33.336  1.00  0.00    -0.248 NA
ATOM     17  C   UNL A   1      37.073  33.784  33.412  1.00  0.00     0.031 C 
ATOM     18  C   UNL A   1      37.603  31.090  29.200  1.00  0.00     0.029 A 
ATOM     19  N   UNL A   1      38.980  30.620  30.896  1.00  0.00    -0.354 N 
ATOM     20  C   UNL A   1      38.862  32.931  34.557  1.00  0.00     0.074 A 
ATOM     21  C   UNL A   1      37.765  33.876  34.540  1.00  0.00     0.031 C 
ATOM     22  C   UNL A   1      38.343  30.036  28.832  1.00  0.00     0.029 A 
ATOM     23  C   UNL A   1      39.291  29.734  29.896  1.00  0.00     0.049 A 
ATOM     24  H   UNL A   1      39.438  30.634  31.767  1.00  0.00     0.167 HD
ATOM     25  C   UNL A   1      39.719  32.763  35.593  1.00  0.00     0.037 A 
ATOM     26  C   UNL A   1      40.259  28.804  29.824  1.00  0.00     0.037 A 
ATOM     27  C   UNL A   1      40.780  31.788  35.615  1.00  0.00     0.049 A 
ATOM     28  C   UNL A   1      41.193  28.636  30.984  1.00  0.00     0.074 A 
ATOM     29  C   UNL A   1      41.683  31.516  36.627  1.00  0.00     0.029 A 
ATOM     30  N   UNL A   1      41.072  30.919  34.574  1.00  0.00    -0.354 N 
ATOM     31  N   UNL A   1      41.212  29.281  32.124  1.00  0.00    -0.248 NA
ATOM     32  C   UNL A   1      42.246  27.623  30.843  1.00  0.00     0.031 C 
ATOM     33  C   UNL A   1      42.543  30.504  36.187  1.00  0.00     0.029 A 
ATOM     34  C   UNL A   1      42.152  30.119  34.914  1.00  0.00     0.049 A 
ATOM     35  H   UNL A   1      40.585  30.877  33.719  1.00  0.00     0.167 HD
ATOM     36  C   UNL A   1      42.273  28.753  32.842  1.00  0.00     0.074 A 
ATOM     37  C   UNL A   1      42.863  27.720  32.013  1.00  0.00     0.031 C 
ATOM     38  C   UNL A   1      42.720  29.097  34.073  1.00  0.00     0.037 A 
BRANCH  25  39
ATOM     39  C   UNL A   1      39.569  33.673  36.777  1.00  0.00     0.064 A 
ATOM     40  C   UNL A   1      40.194  34.928  36.833  1.00  0.00     0.173 A 
ATOM     41  C   UNL A   1      38.756  33.297  37.858  1.00  0.00     0.173 A 
ATOM     42  F   UNL A   1      40.991  35.330  35.832  1.00  0.00    -0.203 F 
ATOM     43  C   UNL A   1      40.027  35.761  37.937  1.00  0.00     0.198 A 
ATOM     44  C   UNL A   1      38.573  34.143  38.949  1.00  0.00     0.198 A 
ATOM     45  F   UNL A   1      38.132  32.109  37.852  1.00  0.00    -0.203 F 
ATOM     46  F   UNL A   1      40.665  36.939  37.987  1.00  0.00    -0.200 F 
ATOM     47  C   UNL A   1      39.213  35.371  38.990  1.00  0.00     0.200 A 
ATOM     48  F   UNL A   1      37.778  33.767  39.960  1.00  0.00    -0.200 F 
ATOM     49  F   UNL A   1      39.051  36.177  40.049  1.00  0.00    -0.200 F 
ENDBRANCH  25  39
BRANCH  26  50
ATOM     50  C   UNL A   1      40.383  27.990  28.591  1.00  0.00     0.064 A 
ATOM     51  C   UNL A   1      41.166  28.427  27.516  1.00  0.00     0.173 A 
ATOM     52  C   UNL A   1      39.787  26.722  28.498  1.00  0.00     0.173 A 
ATOM     53  F   UNL A   1      41.742  29.637  27.556  1.00  0.00    -0.203 F 
ATOM     54  C   UNL A   1      41.353  27.624  26.394  1.00  0.00     0.198 A 
ATOM     55  C   UNL A   1      39.997  25.910  27.388  1.00  0.00     0.198 A 
ATOM     56  F   UNL A   1      39.040  26.256  29.510  1.00  0.00    -0.203 F 
ATOM     57  F   UNL A   1      42.094  28.069  25.370  1.00  0.00    -0.200 F 
ATOM     58  C   UNL A   1      40.778  26.362  26.336  1.00  0.00     0.200 A 
ATOM     59  F   UNL A   1      39.459  24.683  27.347  1.00  0.00    -0.200 F 
ATOM     60  F   UNL A   1      40.981  25.579  25.267  1.00  0.00    -0.200 F 
ENDBRANCH  26  50
BRANCH  38  61
ATOM     61  C   UNL A   1      43.891  28.331  34.606  1.00  0.00     0.064 A 
ATOM     62  C   UNL A   1      45.204  28.792  34.436  1.00  0.00     0.173 A 
ATOM     63  C   UNL A   1      43.694  27.142  35.324  1.00  0.00     0.173 A 
ATOM     64  F   UNL A   1      45.440  29.914  33.740  1.00  0.00    -0.203 F 
ATOM     65  C   UNL A   1      46.282  28.080  34.954  1.00  0.00     0.198 A 
ATOM     66  C   UNL A   1      44.772  26.445  35.859  1.00  0.00     0.198 A 
ATOM     67  F   UNL A   1      42.455  26.666  35.513  1.00  0.00    -0.203 F 
ATOM     68  F   UNL A   1      47.532  28.518  34.751  1.00  0.00    -0.200 F 
ATOM     69  C   UNL A   1      46.065  26.912  35.669  1.00  0.00     0.200 A 
ATOM     70  F   UNL A   1      44.561  25.320  36.556  1.00  0.00    -0.200 F 
ATOM     71  F   UNL A   1      47.103  26.230  36.171  1.00  0.00    -0.200 F 
ENDBRANCH  38  61
ENDBRANCH  12  13
ENDBRANCH   5   7
ENDBRANCH   2   3
ENDBRANCH   1   2
BRANCH   1  72
ATOM     72  C   UNL A   1      31.845  30.379  26.876  1.00  0.00     0.023 C 
BRANCH  72  73
ATOM     73  C   UNL A   1      33.222  29.765  26.673  1.00  0.00     0.116 C 
BRANCH  73  74
ATOM     74  N   UNL A   1      33.609  29.703  25.288  1.00  0.00    -0.356 N 
ATOM     75  C   UNL A   1      33.062  29.023  24.250  1.00  0.00     0.227 C 
ATOM     76  H   UNL A   1      34.400  30.241  25.057  1.00  0.00     0.163 HD
ATOM     77  O   UNL A   1      33.516  29.303  23.132  1.00  0.00    -0.274 OA
BRANCH  75  78
ATOM     78  C   UNL A   1      31.972  27.948  24.379  1.00  0.00     0.113 C 
BRANCH  78  79
ATOM     79  C   UNL A   1      30.913  27.871  23.248  1.00  0.00     0.054 C 
BRANCH  79  80
ATOM     80  C   UNL A   1      29.654  28.699  23.275  1.00  0.00    -0.044 A 
ATOM     81  C   UNL A   1      29.724  30.081  23.500  1.00  0.00     0.024 A 
ATOM     82  C   UNL A   1      28.388  28.125  23.125  1.00  0.00     0.024 A 
ATOM     83  C   UNL A   1      28.551  30.823  23.501  1.00  0.00     0.111 A 
ATOM     84  C   UNL A   1      27.274  28.953  23.126  1.00  0.00     0.111 A 
ATOM     85  N   UNL A   1      27.331  30.291  23.293  1.00  0.00    -0.265 NA
ENDBRANCH  79  80
ENDBRANCH  78  79
BRANCH  78  86
ATOM     86  C   UNL A   1      32.365  26.653  25.094  1.00  0.00    -0.035 A 
ATOM     87  C   UNL A   1      33.649  26.092  25.066  1.00  0.00     0.006 A 
ATOM     88  C   UNL A   1      31.378  25.966  25.831  1.00  0.00     0.006 A 
ATOM     89  C   UNL A   1      33.934  24.888  25.726  1.00  0.00     0.021 A 
ATOM     90  C   UNL A   1      31.661  24.772  26.501  1.00  0.00     0.021 A 
ATOM     91  C   UNL A   1      32.939  24.234  26.441  1.00  0.00     0.041 A 
ATOM     92  Cl  UNL A   1      33.292  22.758  27.247  1.00  0.00    -0.084 Cl
ENDBRANCH  78  86
ENDBRANCH  75  78
ENDBRANCH  73  74
ENDBRANCH  72  73
ENDBRANCH   1  72
TORSDOF 14
ENDMDL
MODEL 3
REMARK VINA RESULT:     -12.9      0.242      1.619
REMARK SMILES O=C(NCCCCNC(=O)[C@@H](Cc1ccncc1)c1ccc(Cl)cc1)c1ccc(-c2c3nc(c(-c4c(F)c(F)c(F)c(F)c4F)c4ccc([nH]4)c(-c4c(F)c(F)c(F)c(F)c4F)c4nc(c(-c5c(F)c(F)c(F)c(F)c5F)c5ccc2[nH]5)C=C4)C=C3)cc1
REMARK SMILES IDX 5 1 4 2 3 3 1 4 2 5 26 7 27 8 88 9 28 10 87 11 29 12 30 13
REMARK SMILES IDX 31 14 81 15 32 16 86 17 80 18 82 19 33 20 85 21 79 22 78 23
REMARK SMILES IDX 34 25 66 26 46 27 65 28 47 29 50 30 64 31 83 32 48 33 49 34
REMARK SMILES IDX 63 36 84 37 51 38 35 39 36 40 44 41 37 42 38 43 42 44 45 45
REMARK SMILES IDX 39 46 40 47 43 48 41 49 67 50 68 51 76 52 69 53 70 54 74 55
REMARK SMILES IDX 77 56 71 57 72 58 75 59 73 60 52 61 53 62 61 63 54 64 55 65
REMARK SMILES IDX 59 66 62 67 56 68 57 69 60 70 58 71 6 72 7 73 8 74 9 75
REMARK SMILES IDX 10 77 11 78 12 79 13 80 14 81 18 82 15 83 17 84 16 85 19 86
REMARK SMILES IDX 20 87 25 88 21 89 24 90 22 91 23 92
REMARK H PARENT 3 6 82 24 50 35 8 76
REMARK Flexibility Score: inf
ROOT
ATOM      1  C   UNL A   1      31.985  31.703  26.650  1.00  0.00     0.023 C 
ENDROOT
BRANCH   1   2
ATOM      2  C   UNL A   1      32.987  32.563  27.413  1.00  0.00     0.116 C 
BRANCH   2   3
ATOM      3  N   UNL A   1      32.526  33.919  27.699  1.00  0.00    -0.352 N 
ATOM      4  O   UNL A   1      32.493  35.938  28.730  1.00  0.00    -0.269 OA
ATOM      5  C   UNL A   1      33.030  34.846  28.583  1.00  0.00     0.251 C 
ATOM      6  H   UNL A   1      31.739  34.212  27.186  1.00  0.00     0.163 HD
BRANCH   5   7
ATOM      7  C   UNL A   1      34.201  34.480  29.399  1.00  0.00     0.039 A 
ATOM      8  C   UNL A   1      35.487  34.633  28.882  1.00  0.00     0.014 A 
ATOM      9  C   UNL A   1      33.996  33.873  30.640  1.00  0.00     0.014 A 
ATOM     10  C   UNL A   1      36.542  33.977  29.497  1.00  0.00     0.010 A 
ATOM     11  C   UNL A   1      35.082  33.316  31.315  1.00  0.00     0.010 A 
ATOM     12  C   UNL A   1      36.352  33.311  30.718  1.00  0.00    -0.014 A 
BRANCH  12  13
ATOM     13  C   UNL A   1      37.498  32.618  31.358  1.00  0.00     0.031 A 
ATOM     14  C   UNL A   1      38.241  31.527  30.638  1.00  0.00     0.074 A 
ATOM     15  C   UNL A   1      37.882  33.004  32.588  1.00  0.00     0.049 A 
ATOM     16  N   UNL A   1      39.210  30.763  31.074  1.00  0.00    -0.248 NA
ATOM     17  C   UNL A   1      37.840  31.249  29.249  1.00  0.00     0.031 C 
ATOM     18  C   UNL A   1      37.244  34.061  33.375  1.00  0.00     0.029 A 
ATOM     19  N   UNL A   1      38.904  32.565  33.387  1.00  0.00    -0.354 N 
ATOM     20  C   UNL A   1      39.500  29.884  30.038  1.00  0.00     0.074 A 
ATOM     21  C   UNL A   1      38.605  30.209  28.947  1.00  0.00     0.031 C 
ATOM     22  C   UNL A   1      37.917  34.221  34.522  1.00  0.00     0.029 A 
ATOM     23  C   UNL A   1      38.977  33.224  34.588  1.00  0.00     0.049 A 
ATOM     24  H   UNL A   1      39.526  31.847  33.126  1.00  0.00     0.167 HD
ATOM     25  C   UNL A   1      40.427  28.897  30.007  1.00  0.00     0.037 A 
ATOM     26  C   UNL A   1      39.784  33.025  35.645  1.00  0.00     0.037 A 
ATOM     27  C   UNL A   1      41.342  28.612  31.084  1.00  0.00     0.049 A 
ATOM     28  C   UNL A   1      40.803  31.928  35.585  1.00  0.00     0.074 A 
ATOM     29  C   UNL A   1      42.340  27.655  31.140  1.00  0.00     0.029 A 
ATOM     30  N   UNL A   1      41.373  29.294  32.292  1.00  0.00    -0.354 N 
ATOM     31  N   UNL A   1      41.052  31.091  34.609  1.00  0.00    -0.248 NA
ATOM     32  C   UNL A   1      41.640  31.739  36.775  1.00  0.00     0.031 C 
ATOM     33  C   UNL A   1      42.953  27.736  32.395  1.00  0.00     0.029 A 
ATOM     34  C   UNL A   1      42.364  28.769  33.106  1.00  0.00     0.049 A 
ATOM     35  H   UNL A   1      40.779  30.041  32.535  1.00  0.00     0.167 HD
ATOM     36  C   UNL A   1      42.078  30.277  35.060  1.00  0.00     0.074 A 
ATOM     37  C   UNL A   1      42.417  30.734  36.395  1.00  0.00     0.031 C 
ATOM     38  C   UNL A   1      42.682  29.241  34.429  1.00  0.00     0.037 A 
BRANCH  25  39
ATOM     39  C   UNL A   1      40.480  28.027  28.785  1.00  0.00     0.064 A 
ATOM     40  C   UNL A   1      39.751  26.832  28.691  1.00  0.00     0.173 A 
ATOM     41  C   UNL A   1      41.245  28.416  27.674  1.00  0.00     0.173 A 
ATOM     42  F   UNL A   1      39.014  26.408  29.729  1.00  0.00    -0.203 F 
ATOM     43  C   UNL A   1      39.805  26.049  27.541  1.00  0.00     0.198 A 
ATOM     44  C   UNL A   1      41.277  27.643  26.517  1.00  0.00     0.198 A 
ATOM     45  F   UNL A   1      41.957  29.553  27.710  1.00  0.00    -0.203 F 
ATOM     46  F   UNL A   1      39.132  24.891  27.488  1.00  0.00    -0.200 F 
ATOM     47  C   UNL A   1      40.562  26.458  26.453  1.00  0.00     0.200 A 
ATOM     48  F   UNL A   1      42.002  28.046  25.463  1.00  0.00    -0.200 F 
ATOM     49  F   UNL A   1      40.609  25.705  25.344  1.00  0.00    -0.200 F 
ENDBRANCH  25  39
BRANCH  26  50
ATOM     50  C   UNL A   1      39.624  33.885  36.842  1.00  0.00     0.064 A 
ATOM     51  C   UNL A   1      40.199  35.159  36.896  1.00  0.00     0.173 A 
ATOM     52  C   UNL A   1      38.824  33.479  37.922  1.00  0.00     0.173 A 
ATOM     53  F   UNL A   1      40.983  35.583  35.892  1.00  0.00    -0.203 F 
ATOM     54  C   UNL A   1      39.976  36.001  37.983  1.00  0.00     0.198 A 
ATOM     55  C   UNL A   1      38.580  34.331  38.995  1.00  0.00     0.198 A 
ATOM     56  F   UNL A   1      38.240  32.271  37.908  1.00  0.00    -0.203 F 
ATOM     57  F   UNL A   1      40.549  37.211  38.019  1.00  0.00    -0.200 F 
ATOM     58  C   UNL A   1      39.158  35.591  39.026  1.00  0.00     0.200 A 
ATOM     59  F   UNL A   1      37.770  33.939  39.988  1.00  0.00    -0.200 F 
ATOM     60  F   UNL A   1      38.922  36.412  40.058  1.00  0.00    -0.200 F 
ENDBRANCH  26  50
BRANCH  38  61
ATOM     61  C   UNL A   1      43.785  28.549  35.167  1.00  0.00     0.064 A 
ATOM     62  C   UNL A   1      45.116  28.974  35.059  1.00  0.00     0.173 A 
ATOM     63  C   UNL A   1      43.501  27.471  36.020  1.00  0.00     0.173 A 
ATOM     64  F   UNL A   1      45.435  29.988  34.241  1.00  0.00    -0.203 F 
ATOM     65  C   UNL A   1      46.129  28.333  35.767  1.00  0.00     0.198 A 
ATOM     66  C   UNL A   1      44.512  26.847  36.742  1.00  0.00     0.198 A 
ATOM     67  F   UNL A   1      42.241  27.032  36.156  1.00  0.00    -0.203 F 
ATOM     68  F   UNL A   1      47.400  28.732  35.623  1.00  0.00    -0.200 F 
ATOM     69  C   UNL A   1      45.826  27.276  36.612  1.00  0.00     0.200 A 
ATOM     70  F   UNL A   1      44.217  25.830  37.563  1.00  0.00    -0.200 F 
ATOM     71  F   UNL A   1      46.801  26.663  37.296  1.00  0.00    -0.200 F 
ENDBRANCH  38  61
ENDBRANCH  12  13
ENDBRANCH   5   7
ENDBRANCH   2   3
ENDBRANCH   1   2
BRANCH   1  72
ATOM     72  C   UNL A   1      32.011  30.225  27.008  1.00  0.00     0.023 C 
BRANCH  72  73
ATOM     73  C   UNL A   1      33.325  29.525  26.695  1.00  0.00     0.116 C 
BRANCH  73  74
ATOM     74  N   UNL A   1      33.661  29.566  25.297  1.00  0.00    -0.356 N 
ATOM     75  C   UNL A   1      33.079  28.961  24.231  1.00  0.00     0.227 C 
ATOM     76  H   UNL A   1      34.442  30.125  25.077  1.00  0.00     0.163 HD
ATOM     77  O   UNL A   1      33.492  29.324  23.122  1.00  0.00    -0.274 OA
BRANCH  75  78
ATOM     78  C   UNL A   1      31.998  27.873  24.321  1.00  0.00     0.113 C 
BRANCH  78  79
ATOM     79  C   UNL A   1      30.976  27.791  23.158  1.00  0.00     0.054 C 
BRANCH  79  80
ATOM     80  C   UNL A   1      29.675  28.552  23.182  1.00  0.00    -0.044 A 
ATOM     81  C   UNL A   1      29.679  29.952  23.234  1.00  0.00     0.024 A 
ATOM     82  C   UNL A   1      28.438  27.901  23.201  1.00  0.00     0.024 A 
ATOM     83  C   UNL A   1      28.467  30.629  23.237  1.00  0.00     0.111 A 
ATOM     84  C   UNL A   1      27.279  28.666  23.189  1.00  0.00     0.111 A 
ATOM     85  N   UNL A   1      27.269  30.015  23.189  1.00  0.00    -0.265 NA
ENDBRANCH  79  80
ENDBRANCH  78  79
BRANCH  78  86
ATOM     86  C   UNL A   1      32.384  26.578  25.041  1.00  0.00    -0.035 A 
ATOM     87  C   UNL A   1      33.640  25.964  24.947  1.00  0.00     0.006 A 
ATOM     88  C   UNL A   1      31.418  25.948  25.853  1.00  0.00     0.006 A 
ATOM     89  C   UNL A   1      33.918  24.764  25.615  1.00  0.00     0.021 A 
ATOM     90  C   UNL A   1      31.695  24.757  26.531  1.00  0.00     0.021 A 
ATOM     91  C   UNL A   1      32.945  24.166  26.405  1.00  0.00     0.041 A 
ATOM     92  Cl  UNL A   1      33.289  22.694  27.222  1.00  0.00    -0.084 Cl
ENDBRANCH  78  86
ENDBRANCH  75  78
ENDBRANCH  73  74
ENDBRANCH  72  73
ENDBRANCH   1  72
TORSDOF 14
ENDMDL
