MODEL 1
REMARK VINA RESULT:     -11.4      0.000      0.000
REMARK SMILES C=C(C)CN(CC)c1ccc(F)cc1C(=O)NCCCCNC(=O)c1ccc(-c2c3nc(c(-c4c(F)c(F)c(F)c(F)c4F)c4ccc([nH]4)c(-c4c(F)c(F)c(F)c(F)c4F)c4nc(c(-c5c(F)c(F)c(F)c(F)c5F)c5ccc2[nH]5)C=C4)C=C3)cc1
REMARK SMILES IDX 19 1 18 2 17 3 15 4 16 5 14 7 8 8 9 9 10 10 13 11 11 12
REMARK SMILES IDX 12 13 5 14 4 15 2 16 1 17 3 18 6 19 7 20 20 21 21 22 22 23
REMARK SMILES IDX 23 24 24 26 25 27 26 28 87 29 27 30 86 31 28 32 29 33 30 34
REMARK SMILES IDX 80 35 31 36 85 37 79 38 81 39 32 40 84 41 78 42 77 43 33 45
REMARK SMILES IDX 65 46 45 47 64 48 46 49 49 50 63 51 82 52 47 53 48 54 62 56
REMARK SMILES IDX 83 57 50 58 34 59 35 60 43 61 36 62 37 63 41 64 44 65 38 66
REMARK SMILES IDX 39 67 42 68 40 69 66 70 67 71 75 72 68 73 69 74 73 75 76 76
REMARK SMILES IDX 70 77 71 78 74 79 72 80 51 81 52 82 60 83 53 84 54 85 58 86
REMARK SMILES IDX 61 87 55 88 56 89 59 90 57 91
REMARK H PARENT 17 6 22 25 81 44 49 55
REMARK Flexibility Score: inf
ROOT
ATOM      1  C   UNL A   1      37.040  21.568  24.412  1.00  0.00     0.023 C 
ENDROOT
BRANCH   1   2
ATOM      2  C   UNL A   1      36.565  22.578  25.448  1.00  0.00     0.116 C 
BRANCH   2   3
ATOM      3  N   UNL A   1      35.715  22.092  26.495  1.00  0.00    -0.352 N 
ATOM      4  C   UNL A   1      34.407  21.672  26.399  1.00  0.00     0.253 C 
ATOM      5  O   UNL A   1      33.894  21.223  27.429  1.00  0.00    -0.269 OA
ATOM      6  H   UNL A   1      36.115  22.056  27.394  1.00  0.00     0.163 HD
BRANCH   4   7
ATOM      7  C   UNL A   1      33.544  21.796  25.173  1.00  0.00     0.066 A 
ATOM      8  C   UNL A   1      33.097  22.974  24.514  1.00  0.00     0.050 A 
ATOM      9  C   UNL A   1      32.406  22.815  23.287  1.00  0.00     0.030 A 
ATOM     10  C   UNL A   1      32.136  21.567  22.732  1.00  0.00     0.041 A 
ATOM     11  C   UNL A   1      33.276  20.538  24.581  1.00  0.00     0.055 A 
ATOM     12  C   UNL A   1      32.578  20.436  23.386  1.00  0.00     0.124 A 
ATOM     13  F   UNL A   1      32.350  19.232  22.847  1.00  0.00    -0.207 F 
BRANCH   8  14
ATOM     14  N   UNL A   1      33.350  24.277  24.938  1.00  0.00    -0.367 N 
BRANCH  14  15
ATOM     15  C   UNL A   1      32.619  24.809  26.104  1.00  0.00     0.146 C 
BRANCH  15  16
ATOM     16  C   UNL A   1      31.124  24.638  26.089  1.00  0.00    -0.061 C 
ATOM     17  C   UNL A   1      30.281  25.547  25.572  1.00  0.00     0.009 C 
ATOM     18  C   UNL A   1      30.617  23.424  26.823  1.00  0.00     0.041 C 
ENDBRANCH  15  16
ENDBRANCH  14  15
BRANCH  14  19
ATOM     19  C   UNL A   1      33.926  25.227  23.976  1.00  0.00     0.113 C 
ATOM     20  C   UNL A   1      33.672  26.686  24.334  1.00  0.00     0.027 C 
ENDBRANCH  14  19
ENDBRANCH   8  14
ENDBRANCH   4   7
ENDBRANCH   2   3
ENDBRANCH   1   2
BRANCH   1  21
ATOM     21  C   UNL A   1      37.756  20.329  24.960  1.00  0.00     0.023 C 
BRANCH  21  22
ATOM     22  C   UNL A   1      39.021  20.552  25.789  1.00  0.00     0.116 C 
BRANCH  22  23
ATOM     23  N   UNL A   1      39.968  19.446  25.772  1.00  0.00    -0.352 N 
ATOM     24  C   UNL A   1      41.305  19.391  26.099  1.00  0.00     0.251 C 
ATOM     25  H   UNL A   1      39.587  18.588  25.477  1.00  0.00     0.163 HD
ATOM     26  O   UNL A   1      41.917  18.333  25.971  1.00  0.00    -0.269 OA
BRANCH  24  27
ATOM     27  C   UNL A   1      42.035  20.600  26.544  1.00  0.00     0.039 A 
ATOM     28  C   UNL A   1      42.576  21.447  25.570  1.00  0.00     0.014 A 
ATOM     29  C   UNL A   1      42.188  20.918  27.894  1.00  0.00     0.014 A 
ATOM     30  C   UNL A   1      43.147  22.667  25.944  1.00  0.00     0.010 A 
ATOM     31  C   UNL A   1      42.678  22.172  28.261  1.00  0.00     0.010 A 
ATOM     32  C   UNL A   1      43.136  23.072  27.288  1.00  0.00    -0.014 A 
BRANCH  32  33
ATOM     33  C   UNL A   1      43.528  24.454  27.681  1.00  0.00     0.031 A 
ATOM     34  C   UNL A   1      42.489  25.488  28.015  1.00  0.00     0.074 A 
ATOM     35  C   UNL A   1      44.830  24.802  27.657  1.00  0.00     0.049 A 
ATOM     36  N   UNL A   1      42.649  26.758  28.293  1.00  0.00    -0.248 NA
ATOM     37  C   UNL A   1      41.087  25.047  28.014  1.00  0.00     0.031 C 
ATOM     38  C   UNL A   1      45.936  23.910  27.299  1.00  0.00     0.029 A 
ATOM     39  N   UNL A   1      45.448  26.000  27.924  1.00  0.00    -0.354 N 
ATOM     40  C   UNL A   1      41.373  27.268  28.485  1.00  0.00     0.074 A 
ATOM     41  C   UNL A   1      40.445  26.183  28.249  1.00  0.00     0.031 C 
ATOM     42  C   UNL A   1      47.093  24.581  27.397  1.00  0.00     0.029 A 
ATOM     43  C   UNL A   1      46.814  25.962  27.779  1.00  0.00     0.049 A 
ATOM     44  H   UNL A   1      44.957  26.810  28.196  1.00  0.00     0.167 HD
ATOM     45  C   UNL A   1      41.009  28.522  28.847  1.00  0.00     0.037 A 
ATOM     46  C   UNL A   1      47.741  26.929  27.925  1.00  0.00     0.037 A 
ATOM     47  C   UNL A   1      41.933  29.594  29.112  1.00  0.00     0.049 A 
ATOM     48  C   UNL A   1      47.311  28.314  28.320  1.00  0.00     0.074 A 
ATOM     49  C   UNL A   1      41.656  30.876  29.555  1.00  0.00     0.029 A 
ATOM     50  N   UNL A   1      43.309  29.514  28.958  1.00  0.00    -0.354 N 
ATOM     51  N   UNL A   1      46.104  28.765  28.559  1.00  0.00    -0.248 NA
ATOM     52  C   UNL A   1      48.369  29.324  28.464  1.00  0.00     0.031 C 
ATOM     53  C   UNL A   1      42.859  31.586  29.622  1.00  0.00     0.029 A 
ATOM     54  C   UNL A   1      43.891  30.731  29.272  1.00  0.00     0.049 A 
ATOM     55  H   UNL A   1      43.799  28.711  28.668  1.00  0.00     0.167 HD
ATOM     56  C   UNL A   1      46.258  30.102  28.899  1.00  0.00     0.074 A 
ATOM     57  C   UNL A   1      47.676  30.388  28.851  1.00  0.00     0.031 C 
ATOM     58  C   UNL A   1      45.304  31.008  29.222  1.00  0.00     0.037 A 
BRANCH  45  59
ATOM     59  C   UNL A   1      39.544  28.812  28.997  1.00  0.00     0.064 A 
ATOM     60  C   UNL A   1      38.794  29.273  27.904  1.00  0.00     0.173 A 
ATOM     61  C   UNL A   1      38.902  28.715  30.240  1.00  0.00     0.173 A 
ATOM     62  F   UNL A   1      39.362  29.393  26.695  1.00  0.00    -0.203 F 
ATOM     63  C   UNL A   1      37.458  29.634  28.055  1.00  0.00     0.198 A 
ATOM     64  C   UNL A   1      37.558  29.050  30.380  1.00  0.00     0.198 A 
ATOM     65  F   UNL A   1      39.574  28.272  31.313  1.00  0.00    -0.203 F 
ATOM     66  F   UNL A   1      36.769  30.103  27.004  1.00  0.00    -0.200 F 
ATOM     67  C   UNL A   1      36.841  29.519  29.291  1.00  0.00     0.200 A 
ATOM     68  F   UNL A   1      36.957  28.918  31.571  1.00  0.00    -0.200 F 
ATOM     69  F   UNL A   1      35.552  29.861  29.433  1.00  0.00    -0.200 F 
ENDBRANCH  45  59
BRANCH  46  70
ATOM     70  C   UNL A   1      49.176  26.603  27.720  1.00  0.00     0.064 A 
ATOM     71  C   UNL A   1      49.726  26.487  26.434  1.00  0.00     0.173 A 
ATOM     72  C   UNL A   1      50.020  26.365  28.814  1.00  0.00     0.173 A 
ATOM     73  F   UNL A   1      48.958  26.700  25.355  1.00  0.00    -0.203 F 
ATOM     74  C   UNL A   1      51.058  26.126  26.252  1.00  0.00     0.198 A 
ATOM     75  C   UNL A   1      51.359  26.030  28.631  1.00  0.00     0.198 A 
ATOM     76  F   UNL A   1      49.546  26.485  30.063  1.00  0.00    -0.203 F 
ATOM     77  F   UNL A   1      51.549  25.986  25.013  1.00  0.00    -0.200 F 
ATOM     78  C   UNL A   1      51.875  25.900  27.349  1.00  0.00     0.200 A 
ATOM     79  F   UNL A   1      52.151  25.835  29.694  1.00  0.00    -0.200 F 
ATOM     80  F   UNL A   1      53.159  25.561  27.174  1.00  0.00    -0.200 F 
ENDBRANCH  46  70
BRANCH  58  81
ATOM     81  C   UNL A   1      45.749  32.400  29.563  1.00  0.00     0.064 A 
ATOM     82  C   UNL A   1      46.011  32.755  30.896  1.00  0.00     0.173 A 
ATOM     83  C   UNL A   1      45.834  33.402  28.587  1.00  0.00     0.173 A 
ATOM     84  F   UNL A   1      45.937  31.834  31.869  1.00  0.00    -0.203 F 
ATOM     85  C   UNL A   1      46.323  34.068  31.239  1.00  0.00     0.198 A 
ATOM     86  C   UNL A   1      46.172  34.709  28.930  1.00  0.00     0.198 A 
ATOM     87  F   UNL A   1      45.606  33.109  27.298  1.00  0.00    -0.203 F 
ATOM     88  F   UNL A   1      46.534  34.392  32.522  1.00  0.00    -0.200 F 
ATOM     89  C   UNL A   1      46.405  35.042  30.256  1.00  0.00     0.200 A 
ATOM     90  F   UNL A   1      46.274  35.645  27.977  1.00  0.00    -0.200 F 
ATOM     91  F   UNL A   1      46.711  36.305  30.587  1.00  0.00    -0.200 F 
ENDBRANCH  58  81
ENDBRANCH  32  33
ENDBRANCH  24  27
ENDBRANCH  22  23
ENDBRANCH  21  22
ENDBRANCH   1  21
TORSDOF 15
ENDMDL
MODEL 2
REMARK VINA RESULT:     -11.3      5.998     10.966
REMARK SMILES C=C(C)CN(CC)c1ccc(F)cc1C(=O)NCCCCNC(=O)c1ccc(-c2c3nc(c(-c4c(F)c(F)c(F)c(F)c4F)c4ccc([nH]4)c(-c4c(F)c(F)c(F)c(F)c4F)c4nc(c(-c5c(F)c(F)c(F)c(F)c5F)c5ccc2[nH]5)C=C4)C=C3)cc1
REMARK SMILES IDX 19 1 18 2 17 3 15 4 16 5 14 7 8 8 9 9 10 10 13 11 11 12
REMARK SMILES IDX 12 13 5 14 4 15 2 16 1 17 3 18 6 19 7 20 20 21 21 22 22 23
REMARK SMILES IDX 23 24 24 26 25 27 26 28 87 29 27 30 86 31 28 32 29 33 30 34
REMARK SMILES IDX 80 35 31 36 85 37 79 38 81 39 32 40 84 41 78 42 77 43 33 45
REMARK SMILES IDX 65 46 45 47 64 48 46 49 49 50 63 51 82 52 47 53 48 54 62 56
REMARK SMILES IDX 83 57 50 58 34 59 35 60 43 61 36 62 37 63 41 64 44 65 38 66
REMARK SMILES IDX 39 67 42 68 40 69 66 70 67 71 75 72 68 73 69 74 73 75 76 76
REMARK SMILES IDX 70 77 71 78 74 79 72 80 51 81 52 82 60 83 53 84 54 85 58 86
REMARK SMILES IDX 61 87 55 88 56 89 59 90 57 91
REMARK H PARENT 17 6 22 25 81 44 49 55
REMARK Flexibility Score: inf
ROOT
ATOM      1  C   UNL A   1      31.613  30.837  25.763  1.00  0.00     0.023 C 
ENDROOT
BRANCH   1   2
ATOM      2  C   UNL A   1      32.517  29.617  25.646  1.00  0.00     0.116 C 
BRANCH   2   3
ATOM      3  N   UNL A   1      33.096  29.352  24.362  1.00  0.00    -0.352 N 
ATOM      4  C   UNL A   1      32.452  28.985  23.201  1.00  0.00     0.253 C 
ATOM      5  O   UNL A   1      33.154  28.880  22.191  1.00  0.00    -0.269 OA
ATOM      6  H   UNL A   1      34.075  29.440  24.303  1.00  0.00     0.163 HD
BRANCH   4   7
ATOM      7  C   UNL A   1      30.994  28.627  23.094  1.00  0.00     0.066 A 
ATOM      8  C   UNL A   1      30.330  27.457  23.551  1.00  0.00     0.050 A 
ATOM      9  C   UNL A   1      28.916  27.426  23.452  1.00  0.00     0.030 A 
ATOM     10  C   UNL A   1      28.178  28.475  22.910  1.00  0.00     0.041 A 
ATOM     11  C   UNL A   1      30.223  29.690  22.565  1.00  0.00     0.055 A 
ATOM     12  C   UNL A   1      28.841  29.603  22.473  1.00  0.00     0.124 A 
ATOM     13  F   UNL A   1      28.140  30.630  21.977  1.00  0.00    -0.207 F 
BRANCH   8  14
ATOM     14  N   UNL A   1      30.948  26.366  24.160  1.00  0.00    -0.367 N 
BRANCH  14  15
ATOM     15  C   UNL A   1      31.358  25.216  23.330  1.00  0.00     0.146 C 
BRANCH  15  16
ATOM     16  C   UNL A   1      32.664  25.356  22.595  1.00  0.00    -0.061 C 
ATOM     17  C   UNL A   1      33.857  25.404  23.211  1.00  0.00     0.009 C 
ATOM     18  C   UNL A   1      32.536  25.578  21.110  1.00  0.00     0.041 C 
ENDBRANCH  15  16
ENDBRANCH  14  15
BRANCH  14  19
ATOM     19  C   UNL A   1      30.739  26.155  25.599  1.00  0.00     0.113 C 
ATOM     20  C   UNL A   1      32.034  26.028  26.391  1.00  0.00     0.027 C 
ENDBRANCH  14  19
ENDBRANCH   8  14
ENDBRANCH   4   7
ENDBRANCH   2   3
ENDBRANCH   1   2
BRANCH   1  21
ATOM     21  C   UNL A   1      31.690  31.608  27.084  1.00  0.00     0.023 C 
BRANCH  21  22
ATOM     22  C   UNL A   1      32.847  32.592  27.263  1.00  0.00     0.116 C 
BRANCH  22  23
ATOM     23  N   UNL A   1      32.449  33.947  27.619  1.00  0.00    -0.352 N 
ATOM     24  C   UNL A   1      33.002  34.855  28.495  1.00  0.00     0.251 C 
ATOM     25  H   UNL A   1      31.646  34.272  27.151  1.00  0.00     0.163 HD
ATOM     26  O   UNL A   1      32.461  35.946  28.658  1.00  0.00    -0.269 OA
BRANCH  24  27
ATOM     27  C   UNL A   1      34.203  34.516  29.293  1.00  0.00     0.039 A 
ATOM     28  C   UNL A   1      34.025  34.073  30.608  1.00  0.00     0.014 A 
ATOM     29  C   UNL A   1      35.492  34.616  28.769  1.00  0.00     0.014 A 
ATOM     30  C   UNL A   1      35.120  33.608  31.343  1.00  0.00     0.010 A 
ATOM     31  C   UNL A   1      36.571  34.073  29.469  1.00  0.00     0.010 A 
ATOM     32  C   UNL A   1      36.391  33.537  30.752  1.00  0.00    -0.014 A 
BRANCH  32  33
ATOM     33  C   UNL A   1      37.520  32.841  31.430  1.00  0.00     0.031 A 
ATOM     34  C   UNL A   1      38.201  31.664  30.789  1.00  0.00     0.074 A 
ATOM     35  C   UNL A   1      37.878  33.222  32.672  1.00  0.00     0.049 A 
ATOM     36  N   UNL A   1      39.139  30.889  31.273  1.00  0.00    -0.248 NA
ATOM     37  C   UNL A   1      37.756  31.294  29.437  1.00  0.00     0.031 C 
ATOM     38  C   UNL A   1      37.264  34.314  33.431  1.00  0.00     0.029 A 
ATOM     39  N   UNL A   1      38.837  32.729  33.525  1.00  0.00    -0.354 N 
ATOM     40  C   UNL A   1      39.385  29.935  30.296  1.00  0.00     0.074 A 
ATOM     41  C   UNL A   1      38.468  30.199  29.208  1.00  0.00     0.031 C 
ATOM     42  C   UNL A   1      37.877  34.425  34.619  1.00  0.00     0.029 A 
ATOM     43  C   UNL A   1      38.897  33.387  34.729  1.00  0.00     0.049 A 
ATOM     44  H   UNL A   1      39.426  31.974  33.293  1.00  0.00     0.167 HD
ATOM     45  C   UNL A   1      40.308  28.943  30.297  1.00  0.00     0.037 A 
ATOM     46  C   UNL A   1      39.676  33.177  35.809  1.00  0.00     0.037 A 
ATOM     47  C   UNL A   1      41.241  28.699  31.365  1.00  0.00     0.049 A 
ATOM     48  C   UNL A   1      40.686  32.065  35.788  1.00  0.00     0.074 A 
ATOM     49  C   UNL A   1      42.259  27.762  31.419  1.00  0.00     0.029 A 
ATOM     50  N   UNL A   1      41.273  29.391  32.566  1.00  0.00    -0.354 N 
ATOM     51  N   UNL A   1      40.950  31.209  34.831  1.00  0.00    -0.248 NA
ATOM     52  C   UNL A   1      41.506  31.886  36.995  1.00  0.00     0.031 C 
ATOM     53  C   UNL A   1      42.875  27.854  32.671  1.00  0.00     0.029 A 
ATOM     54  C   UNL A   1      42.275  28.884  33.377  1.00  0.00     0.049 A 
ATOM     55  H   UNL A   1      40.672  30.133  32.807  1.00  0.00     0.167 HD
ATOM     56  C   UNL A   1      41.975  30.406  35.310  1.00  0.00     0.074 A 
ATOM     57  C   UNL A   1      42.298  30.883  36.638  1.00  0.00     0.031 C 
ATOM     58  C   UNL A   1      42.591  29.364  34.698  1.00  0.00     0.037 A 
BRANCH  45  59
ATOM     59  C   UNL A   1      40.374  28.044  29.096  1.00  0.00     0.064 A 
ATOM     60  C   UNL A   1      41.129  28.414  27.972  1.00  0.00     0.173 A 
ATOM     61  C   UNL A   1      39.624  26.861  29.025  1.00  0.00     0.173 A 
ATOM     62  F   UNL A   1      41.855  29.541  27.984  1.00  0.00    -0.203 F 
ATOM     63  C   UNL A   1      41.121  27.635  26.818  1.00  0.00     0.198 A 
ATOM     64  C   UNL A   1      39.643  26.070  27.880  1.00  0.00     0.198 A 
ATOM     65  F   UNL A   1      38.893  26.461  30.076  1.00  0.00    -0.203 F 
ATOM     66  F   UNL A   1      41.823  28.023  25.744  1.00  0.00    -0.200 F 
ATOM     67  C   UNL A   1      40.382  26.463  26.774  1.00  0.00     0.200 A 
ATOM     68  F   UNL A   1      38.944  24.927  27.846  1.00  0.00    -0.200 F 
ATOM     69  F   UNL A   1      40.381  25.710  25.665  1.00  0.00    -0.200 F 
ENDBRANCH  45  59
BRANCH  46  70
ATOM     70  C   UNL A   1      39.541  34.065  36.992  1.00  0.00     0.064 A 
ATOM     71  C   UNL A   1      40.200  35.303  37.059  1.00  0.00     0.173 A 
ATOM     72  C   UNL A   1      38.776  33.673  38.099  1.00  0.00     0.173 A 
ATOM     73  F   UNL A   1      40.949  35.720  36.028  1.00  0.00    -0.203 F 
ATOM     74  C   UNL A   1      40.113  36.102  38.196  1.00  0.00     0.198 A 
ATOM     75  C   UNL A   1      38.669  34.487  39.224  1.00  0.00     0.198 A 
ATOM     76  F   UNL A   1      38.110  32.509  38.074  1.00  0.00    -0.203 F 
ATOM     77  F   UNL A   1      40.782  37.263  38.248  1.00  0.00    -0.200 F 
ATOM     78  C   UNL A   1      39.346  35.696  39.276  1.00  0.00     0.200 A 
ATOM     79  F   UNL A   1      37.907  34.102  40.258  1.00  0.00    -0.200 F 
ATOM     80  F   UNL A   1      39.256  36.470  40.366  1.00  0.00    -0.200 F 
ENDBRANCH  46  70
BRANCH  58  81
ATOM     81  C   UNL A   1      43.690  28.667  35.445  1.00  0.00     0.064 A 
ATOM     82  C   UNL A   1      43.392  27.636  36.350  1.00  0.00     0.173 A 
ATOM     83  C   UNL A   1      45.026  29.074  35.328  1.00  0.00     0.173 A 
ATOM     84  F   UNL A   1      42.127  27.215  36.503  1.00  0.00    -0.203 F 
ATOM     85  C   UNL A   1      44.391  27.053  37.125  1.00  0.00     0.198 A 
ATOM     86  C   UNL A   1      46.027  28.469  36.086  1.00  0.00     0.198 A 
ATOM     87  F   UNL A   1      45.363  30.045  34.466  1.00  0.00    -0.203 F 
ATOM     88  F   UNL A   1      44.077  26.096  38.010  1.00  0.00    -0.200 F 
ATOM     89  C   UNL A   1      45.706  27.468  36.991  1.00  0.00     0.200 A 
ATOM     90  F   UNL A   1      47.301  28.856  35.939  1.00  0.00    -0.200 F 
ATOM     91  F   UNL A   1      46.667  26.902  37.734  1.00  0.00    -0.200 F 
ENDBRANCH  58  81
ENDBRANCH  32  33
ENDBRANCH  24  27
ENDBRANCH  22  23
ENDBRANCH  21  22
ENDBRANCH   1  21
TORSDOF 15
ENDMDL
MODEL 3
REMARK VINA RESULT:     -11.3      4.949      9.855
REMARK SMILES C=C(C)CN(CC)c1ccc(F)cc1C(=O)NCCCCNC(=O)c1ccc(-c2c3nc(c(-c4c(F)c(F)c(F)c(F)c4F)c4ccc([nH]4)c(-c4c(F)c(F)c(F)c(F)c4F)c4nc(c(-c5c(F)c(F)c(F)c(F)c5F)c5ccc2[nH]5)C=C4)C=C3)cc1
REMARK SMILES IDX 19 1 18 2 17 3 15 4 16 5 14 7 8 8 9 9 10 10 13 11 11 12
REMARK SMILES IDX 12 13 5 14 4 15 2 16 1 17 3 18 6 19 7 20 20 21 21 22 22 23
REMARK SMILES IDX 23 24 24 26 25 27 26 28 87 29 27 30 86 31 28 32 29 33 30 34
REMARK SMILES IDX 80 35 31 36 85 37 79 38 81 39 32 40 84 41 78 42 77 43 33 45
REMARK SMILES IDX 65 46 45 47 64 48 46 49 49 50 63 51 82 52 47 53 48 54 62 56
REMARK SMILES IDX 83 57 50 58 34 59 35 60 43 61 36 62 37 63 41 64 44 65 38 66
REMARK SMILES IDX 39 67 42 68 40 69 66 70 67 71 75 72 68 73 69 74 73 75 76 76
REMARK SMILES IDX 70 77 71 78 74 79 72 80 51 81 52 82 60 83 53 84 54 85 58 86
REMARK SMILES IDX 61 87 55 88 56 89 59 90 57 91
REMARK H PARENT 17 6 22 25 81 44 49 55
REMARK Flexibility Score: inf
ROOT
ATOM      1  C   UNL A   1      33.552  28.676  24.516  1.00  0.00     0.023 C 
ENDROOT
BRANCH   1   2
ATOM      2  C   UNL A   1      33.715  28.915  23.021  1.00  0.00     0.116 C 
BRANCH   2   3
ATOM      3  N   UNL A   1      33.864  27.760  22.186  1.00  0.00    -0.352 N 
ATOM      4  C   UNL A   1      32.951  26.754  21.959  1.00  0.00     0.253 C 
ATOM      5  O   UNL A   1      33.274  25.891  21.137  1.00  0.00    -0.269 OA
ATOM      6  H   UNL A   1      34.726  27.674  21.717  1.00  0.00     0.163 HD
BRANCH   4   7
ATOM      7  C   UNL A   1      31.646  26.586  22.690  1.00  0.00     0.066 A 
ATOM      8  C   UNL A   1      31.317  25.666  23.722  1.00  0.00     0.050 A 
ATOM      9  C   UNL A   1      30.052  25.808  24.346  1.00  0.00     0.030 A 
ATOM     10  C   UNL A   1      29.134  26.785  23.971  1.00  0.00     0.041 A 
ATOM     11  C   UNL A   1      30.707  27.585  22.338  1.00  0.00     0.055 A 
ATOM     12  C   UNL A   1      29.473  27.669  22.968  1.00  0.00     0.124 A 
ATOM     13  F   UNL A   1      28.611  28.631  22.617  1.00  0.00    -0.207 F 
BRANCH   8  14
ATOM     14  N   UNL A   1      32.167  24.681  24.223  1.00  0.00    -0.367 N 
BRANCH  14  15
ATOM     15  C   UNL A   1      31.704  23.279  24.254  1.00  0.00     0.146 C 
BRANCH  15  16
ATOM     16  C   UNL A   1      32.455  22.310  23.383  1.00  0.00    -0.061 C 
ATOM     17  C   UNL A   1      32.876  22.605  22.142  1.00  0.00     0.009 C 
ATOM     18  C   UNL A   1      32.590  20.920  23.949  1.00  0.00     0.041 C 
ENDBRANCH  15  16
ENDBRANCH  14  15
BRANCH  14  19
ATOM     19  C   UNL A   1      33.247  25.085  25.134  1.00  0.00     0.113 C 
ATOM     20  C   UNL A   1      33.415  24.157  26.330  1.00  0.00     0.027 C 
ENDBRANCH  14  19
ENDBRANCH   8  14
ENDBRANCH   4   7
ENDBRANCH   2   3
ENDBRANCH   1   2
BRANCH   1  21
ATOM     21  C   UNL A   1      32.298  29.274  25.161  1.00  0.00     0.023 C 
BRANCH  21  22
ATOM     22  C   UNL A   1      32.385  29.684  26.632  1.00  0.00     0.116 C 
BRANCH  22  23
ATOM     23  N   UNL A   1      32.338  31.120  26.872  1.00  0.00    -0.352 N 
ATOM     24  C   UNL A   1      33.273  31.983  27.396  1.00  0.00     0.251 C 
ATOM     25  H   UNL A   1      31.490  31.548  26.613  1.00  0.00     0.163 HD
ATOM     26  O   UNL A   1      32.990  33.171  27.537  1.00  0.00    -0.269 OA
BRANCH  24  27
ATOM     27  C   UNL A   1      34.595  31.495  27.854  1.00  0.00     0.039 A 
ATOM     28  C   UNL A   1      35.628  32.424  28.017  1.00  0.00     0.014 A 
ATOM     29  C   UNL A   1      34.831  30.148  28.132  1.00  0.00     0.014 A 
ATOM     30  C   UNL A   1      36.843  32.027  28.582  1.00  0.00     0.010 A 
ATOM     31  C   UNL A   1      36.010  29.768  28.775  1.00  0.00     0.010 A 
ATOM     32  C   UNL A   1      37.017  30.709  29.033  1.00  0.00    -0.014 A 
BRANCH  32  33
ATOM     33  C   UNL A   1      38.208  30.319  29.837  1.00  0.00     0.031 A 
ATOM     34  C   UNL A   1      39.223  29.351  29.299  1.00  0.00     0.074 A 
ATOM     35  C   UNL A   1      38.331  30.780  31.099  1.00  0.00     0.049 A 
ATOM     36  N   UNL A   1      40.270  28.836  29.895  1.00  0.00    -0.248 NA
ATOM     37  C   UNL A   1      39.026  28.878  27.921  1.00  0.00     0.031 C 
ATOM     38  C   UNL A   1      37.389  31.683  31.763  1.00  0.00     0.029 A 
ATOM     39  N   UNL A   1      39.289  30.544  32.055  1.00  0.00    -0.354 N 
ATOM     40  C   UNL A   1      40.846  27.973  28.972  1.00  0.00     0.074 A 
ATOM     41  C   UNL A   1      40.009  27.997  27.793  1.00  0.00     0.031 C 
ATOM     42  C   UNL A   1      37.830  31.947  33.002  1.00  0.00     0.029 A 
ATOM     43  C   UNL A   1      39.060  31.198  33.241  1.00  0.00     0.049 A 
ATOM     44  H   UNL A   1      40.069  29.961  31.904  1.00  0.00     0.167 HD
ATOM     45  C   UNL A   1      41.981  27.244  29.092  1.00  0.00     0.037 A 
ATOM     46  C   UNL A   1      39.751  31.190  34.398  1.00  0.00     0.037 A 
ATOM     47  C   UNL A   1      42.831  27.243  30.254  1.00  0.00     0.049 A 
ATOM     48  C   UNL A   1      41.003  30.367  34.507  1.00  0.00     0.074 A 
ATOM     49  C   UNL A   1      44.040  26.591  30.433  1.00  0.00     0.029 A 
ATOM     50  N   UNL A   1      42.566  27.923  31.433  1.00  0.00    -0.354 N 
ATOM     51  N   UNL A   1      41.569  29.604  33.605  1.00  0.00    -0.248 NA
ATOM     52  C   UNL A   1      41.713  30.401  35.794  1.00  0.00     0.031 C 
ATOM     53  C   UNL A   1      44.481  26.836  31.737  1.00  0.00     0.029 A 
ATOM     54  C   UNL A   1      43.574  27.683  32.353  1.00  0.00     0.049 A 
ATOM     55  H   UNL A   1      41.778  28.490  31.593  1.00  0.00     0.167 HD
ATOM     56  C   UNL A   1      42.707  29.084  34.204  1.00  0.00     0.074 A 
ATOM     57  C   UNL A   1      42.763  29.628  35.544  1.00  0.00     0.031 C 
ATOM     58  C   UNL A   1      43.622  28.230  33.685  1.00  0.00     0.037 A 
BRANCH  45  59
ATOM     59  C   UNL A   1      42.392  26.389  27.928  1.00  0.00     0.064 A 
ATOM     60  C   UNL A   1      43.287  26.881  26.965  1.00  0.00     0.173 A 
ATOM     61  C   UNL A   1      41.837  25.118  27.721  1.00  0.00     0.173 A 
ATOM     62  F   UNL A   1      43.839  28.094  27.111  1.00  0.00    -0.203 F 
ATOM     63  C   UNL A   1      43.601  26.133  25.833  1.00  0.00     0.198 A 
ATOM     64  C   UNL A   1      42.176  24.362  26.603  1.00  0.00     0.198 A 
ATOM     65  F   UNL A   1      40.983  24.601  28.617  1.00  0.00    -0.203 F 
ATOM     66  F   UNL A   1      44.433  26.636  24.910  1.00  0.00    -0.200 F 
ATOM     67  C   UNL A   1      43.049  24.874  25.655  1.00  0.00     0.200 A 
ATOM     68  F   UNL A   1      41.658  23.136  26.442  1.00  0.00    -0.200 F 
ATOM     69  F   UNL A   1      43.358  24.153  24.568  1.00  0.00    -0.200 F 
ENDBRANCH  45  59
BRANCH  46  70
ATOM     70  C   UNL A   1      39.278  32.018  35.538  1.00  0.00     0.064 A 
ATOM     71  C   UNL A   1      39.670  33.358  35.683  1.00  0.00     0.173 A 
ATOM     72  C   UNL A   1      38.450  31.470  36.527  1.00  0.00     0.173 A 
ATOM     73  F   UNL A   1      40.467  33.928  34.767  1.00  0.00    -0.203 F 
ATOM     74  C   UNL A   1      39.268  34.109  36.785  1.00  0.00     0.198 A 
ATOM     75  C   UNL A   1      38.027  32.230  37.614  1.00  0.00     0.198 A 
ATOM     76  F   UNL A   1      38.031  30.200  36.420  1.00  0.00    -0.203 F 
ATOM     77  F   UNL A   1      39.687  35.375  36.919  1.00  0.00    -0.200 F 
ATOM     78  C   UNL A   1      38.445  33.546  37.748  1.00  0.00     0.200 A 
ATOM     79  F   UNL A   1      37.212  31.690  38.531  1.00  0.00    -0.200 F 
ATOM     80  F   UNL A   1      38.051  34.272  38.804  1.00  0.00    -0.200 F 
ENDBRANCH  46  70
BRANCH  58  81
ATOM     81  C   UNL A   1      44.778  27.831  34.555  1.00  0.00     0.064 A 
ATOM     82  C   UNL A   1      45.973  28.568  34.533  1.00  0.00     0.173 A 
ATOM     83  C   UNL A   1      44.734  26.674  35.346  1.00  0.00     0.173 A 
ATOM     84  F   UNL A   1      46.068  29.679  33.787  1.00  0.00    -0.203 F 
ATOM     85  C   UNL A   1      47.087  28.148  35.255  1.00  0.00     0.198 A 
ATOM     86  C   UNL A   1      45.842  26.272  36.088  1.00  0.00     0.198 A 
ATOM     87  F   UNL A   1      43.610  25.944  35.412  1.00  0.00    -0.203 F 
ATOM     88  F   UNL A   1      48.228  28.847  35.189  1.00  0.00    -0.200 F 
ATOM     89  C   UNL A   1      47.019  27.003  36.033  1.00  0.00     0.200 A 
ATOM     90  F   UNL A   1      45.769  25.178  36.858  1.00  0.00    -0.200 F 
ATOM     91  F   UNL A   1      48.091  26.603  36.732  1.00  0.00    -0.200 F 
ENDBRANCH  58  81
ENDBRANCH  32  33
ENDBRANCH  24  27
ENDBRANCH  22  23
ENDBRANCH  21  22
ENDBRANCH   1  21
TORSDOF 15
ENDMDL
