MODEL 1
REMARK VINA RESULT:     -13.5      0.000      0.000
REMARK SMILES CCc1ccc2c(CC(=O)NCCCCNC(=O)c3ccc(-c4c5nc(c(-c6c(F)c(F)c(F)c(F)c6F)c6ccc([nH]6)c(-c6c(F)c(F)c(F)c(F)c6F)c6nc(c(-c7c(F)c(F)c(F)c(F)c7F)c7ccc4[nH]7)C=C6)C=C5)cc3)c(C(=O)c3cc(C)ccn3)[nH]c2c1
REMARK SMILES IDX 13 1 12 2 11 3 9 4 10 5 8 7 7 8 3 9 4 10 94 11 5 12 93 13
REMARK SMILES IDX 6 14 92 15 82 16 2 18 1 19 83 20 84 21 85 22 86 23 91 24
REMARK SMILES IDX 87 25 90 26 88 27 89 28 14 29 15 30 16 31 17 32 18 34 19 35
REMARK SMILES IDX 20 36 81 37 21 38 80 39 22 40 23 41 24 42 74 43 25 44 79 45
REMARK SMILES IDX 73 46 75 47 26 48 78 49 72 50 71 51 27 53 59 54 39 55 58 56
REMARK SMILES IDX 40 57 43 58 57 59 76 60 41 61 42 62 56 64 77 65 44 66 28 67
REMARK SMILES IDX 29 68 37 69 30 70 31 71 35 72 38 73 32 74 33 75 36 76 34 77
REMARK SMILES IDX 60 78 61 79 69 80 62 81 63 82 67 83 70 84 64 85 65 86 68 87
REMARK SMILES IDX 66 88 45 89 46 90 54 91 47 92 48 93 52 94 55 95 49 96 50 97
REMARK SMILES IDX 53 98 51 99
REMARK H PARENT 11 6 92 17 16 33 75 52 43 63
REMARK Flexibility Score: inf
ROOT
ATOM      1  C   UNL A   1      31.740  30.707  26.014  1.00  0.00     0.023 C 
ENDROOT
BRANCH   1   2
ATOM      2  C   UNL A   1      32.399  29.709  26.963  1.00  0.00     0.116 C 
BRANCH   2   3
ATOM      3  N   UNL A   1      31.762  28.412  26.933  1.00  0.00    -0.356 N 
ATOM      4  C   UNL A   1      32.261  27.207  26.523  1.00  0.00     0.224 C 
ATOM      5  O   UNL A   1      31.592  26.208  26.803  1.00  0.00    -0.275 OA
ATOM      6  H   UNL A   1      30.832  28.393  27.256  1.00  0.00     0.163 HD
BRANCH   4   7
ATOM      7  C   UNL A   1      33.643  27.087  25.886  1.00  0.00     0.138 C 
BRANCH   7   8
ATOM      8  C   UNL A   1      33.791  25.986  24.867  1.00  0.00    -0.002 A 
ATOM      9  C   UNL A   1      34.954  21.915  25.064  1.00  0.00    -0.046 A 
ATOM     10  C   UNL A   1      34.778  22.565  26.290  1.00  0.00     0.004 A 
ATOM     11  C   UNL A   1      34.694  22.618  23.872  1.00  0.00     0.030 A 
ATOM     12  C   UNL A   1      34.360  23.901  26.352  1.00  0.00     0.011 A 
ATOM     13  C   UNL A   1      34.284  23.957  23.954  1.00  0.00     0.046 A 
ATOM     14  C   UNL A   1      34.124  24.620  25.163  1.00  0.00     0.004 A 
ATOM     15  N   UNL A   1      33.990  24.857  22.961  1.00  0.00    -0.352 N 
ATOM     16  C   UNL A   1      33.622  26.080  23.485  1.00  0.00     0.093 A 
ATOM     17  H   UNL A   1      34.036  24.657  21.999  1.00  0.00     0.167 HD
BRANCH   9  18
ATOM     18  C   UNL A   1      35.428  20.482  24.951  1.00  0.00     0.032 C 
ATOM     19  C   UNL A   1      36.936  20.252  24.935  1.00  0.00     0.009 C 
ENDBRANCH   9  18
BRANCH  16  20
ATOM     20  C   UNL A   1      33.191  27.236  22.702  1.00  0.00     0.227 C 
ATOM     21  O   UNL A   1      33.938  27.864  21.956  1.00  0.00    -0.285 OA
BRANCH  20  22
ATOM     22  C   UNL A   1      31.792  27.721  22.845  1.00  0.00     0.113 A 
ATOM     23  C   UNL A   1      30.812  26.862  23.336  1.00  0.00     0.036 A 
ATOM     24  N   UNL A   1      31.557  29.004  22.473  1.00  0.00    -0.253 NA
ATOM     25  C   UNL A   1      29.507  27.342  23.449  1.00  0.00    -0.047 A 
ATOM     26  C   UNL A   1      30.297  29.453  22.627  1.00  0.00     0.112 A 
ATOM     27  C   UNL A   1      28.398  26.466  23.946  1.00  0.00     0.044 C 
ATOM     28  C   UNL A   1      29.252  28.671  23.096  1.00  0.00     0.023 A 
ENDBRANCH  20  22
ENDBRANCH  16  20
ENDBRANCH   7   8
ENDBRANCH   4   7
ENDBRANCH   2   3
ENDBRANCH   1   2
BRANCH   1  29
ATOM     29  C   UNL A   1      31.422  32.066  26.640  1.00  0.00     0.023 C 
BRANCH  29  30
ATOM     30  C   UNL A   1      32.601  32.766  27.303  1.00  0.00     0.116 C 
BRANCH  30  31
ATOM     31  N   UNL A   1      32.334  34.161  27.622  1.00  0.00    -0.352 N 
ATOM     32  C   UNL A   1      32.952  34.965  28.548  1.00  0.00     0.251 C 
ATOM     33  H   UNL A   1      31.614  34.585  27.104  1.00  0.00     0.163 HD
ATOM     34  O   UNL A   1      32.521  36.090  28.779  1.00  0.00    -0.269 OA
BRANCH  32  35
ATOM     35  C   UNL A   1      34.120  34.455  29.298  1.00  0.00     0.039 A 
ATOM     36  C   UNL A   1      33.911  33.854  30.542  1.00  0.00     0.014 A 
ATOM     37  C   UNL A   1      35.411  34.549  28.770  1.00  0.00     0.014 A 
ATOM     38  C   UNL A   1      34.990  33.295  31.229  1.00  0.00     0.010 A 
ATOM     39  C   UNL A   1      36.470  33.920  29.416  1.00  0.00     0.010 A 
ATOM     40  C   UNL A   1      36.272  33.293  30.656  1.00  0.00    -0.014 A 
BRANCH  40  41
ATOM     41  C   UNL A   1      37.417  32.641  31.342  1.00  0.00     0.031 A 
ATOM     42  C   UNL A   1      38.119  31.476  30.703  1.00  0.00     0.074 A 
ATOM     43  C   UNL A   1      37.780  33.054  32.571  1.00  0.00     0.049 A 
ATOM     44  N   UNL A   1      39.106  30.749  31.164  1.00  0.00    -0.248 NA
ATOM     45  C   UNL A   1      37.624  31.050  29.386  1.00  0.00     0.031 C 
ATOM     46  C   UNL A   1      37.131  34.127  33.326  1.00  0.00     0.029 A 
ATOM     47  N   UNL A   1      38.772  32.609  33.409  1.00  0.00    -0.354 N 
ATOM     48  C   UNL A   1      39.336  29.773  30.203  1.00  0.00     0.074 A 
ATOM     49  C   UNL A   1      38.346  29.962  29.166  1.00  0.00     0.031 C 
ATOM     50  C   UNL A   1      37.751  34.267  34.507  1.00  0.00     0.029 A 
ATOM     51  C   UNL A   1      38.815  33.273  34.609  1.00  0.00     0.049 A 
ATOM     52  H   UNL A   1      39.392  31.883  33.171  1.00  0.00     0.167 HD
ATOM     53  C   UNL A   1      40.301  28.822  30.177  1.00  0.00     0.037 A 
ATOM     54  C   UNL A   1      39.616  33.095  35.677  1.00  0.00     0.037 A 
ATOM     55  C   UNL A   1      41.291  28.649  31.208  1.00  0.00     0.049 A 
ATOM     56  C   UNL A   1      40.690  32.044  35.623  1.00  0.00     0.074 A 
ATOM     57  C   UNL A   1      42.359  27.769  31.239  1.00  0.00     0.029 A 
ATOM     58  N   UNL A   1      41.327  29.364  32.396  1.00  0.00    -0.354 N 
ATOM     59  N   UNL A   1      40.963  31.189  34.667  1.00  0.00    -0.248 NA
ATOM     60  C   UNL A   1      41.577  31.944  36.789  1.00  0.00     0.031 C 
ATOM     61  C   UNL A   1      43.004  27.909  32.474  1.00  0.00     0.029 A 
ATOM     62  C   UNL A   1      42.379  28.923  33.184  1.00  0.00     0.049 A 
ATOM     63  H   UNL A   1      40.699  30.080  32.645  1.00  0.00     0.167 HD
ATOM     64  C   UNL A   1      42.062  30.463  35.105  1.00  0.00     0.074 A 
ATOM     65  C   UNL A   1      42.418  30.992  36.405  1.00  0.00     0.031 C 
ATOM     66  C   UNL A   1      42.718  29.451  34.483  1.00  0.00     0.037 A 
BRANCH  53  67
ATOM     67  C   UNL A   1      40.314  27.888  28.998  1.00  0.00     0.064 A 
ATOM     68  C   UNL A   1      41.048  28.173  27.835  1.00  0.00     0.173 A 
ATOM     69  C   UNL A   1      39.584  26.691  29.032  1.00  0.00     0.173 A 
ATOM     70  F   UNL A   1      41.758  29.308  27.745  1.00  0.00    -0.203 F 
ATOM     71  C   UNL A   1      41.007  27.322  26.733  1.00  0.00     0.198 A 
ATOM     72  C   UNL A   1      39.577  25.822  27.942  1.00  0.00     0.198 A 
ATOM     73  F   UNL A   1      38.873  26.360  30.120  1.00  0.00    -0.203 F 
ATOM     74  F   UNL A   1      41.656  27.654  25.609  1.00  0.00    -0.200 F 
ATOM     75  C   UNL A   1      40.276  26.146  26.789  1.00  0.00     0.200 A 
ATOM     76  F   UNL A   1      38.882  24.679  28.004  1.00  0.00    -0.200 F 
ATOM     77  F   UNL A   1      40.235  25.329  25.728  1.00  0.00    -0.200 F 
ENDBRANCH  53  67
BRANCH  54  78
ATOM     78  C   UNL A   1      39.435  33.955  36.876  1.00  0.00     0.064 A 
ATOM     79  C   UNL A   1      38.707  33.506  37.985  1.00  0.00     0.173 A 
ATOM     80  C   UNL A   1      40.017  35.230  36.948  1.00  0.00     0.173 A 
ATOM     81  F   UNL A   1      38.116  32.303  37.956  1.00  0.00    -0.203 F 
ATOM     82  C   UNL A   1      38.559  34.302  39.119  1.00  0.00     0.198 A 
ATOM     83  C   UNL A   1      39.894  36.013  38.093  1.00  0.00     0.198 A 
ATOM     84  F   UNL A   1      40.731  35.701  35.915  1.00  0.00    -0.203 F 
ATOM     85  F   UNL A   1      37.831  33.863  40.154  1.00  0.00    -0.200 F 
ATOM     86  C   UNL A   1      39.161  35.551  39.176  1.00  0.00     0.200 A 
ATOM     87  F   UNL A   1      40.492  37.211  38.151  1.00  0.00    -0.200 F 
ATOM     88  F   UNL A   1      39.033  36.310  40.273  1.00  0.00    -0.200 F 
ENDBRANCH  54  78
BRANCH  66  89
ATOM     89  C   UNL A   1      43.906  28.862  35.192  1.00  0.00     0.064 A 
ATOM     90  C   UNL A   1      43.773  27.807  36.107  1.00  0.00     0.173 A 
ATOM     91  C   UNL A   1      45.199  29.336  34.922  1.00  0.00     0.173 A 
ATOM     92  F   UNL A   1      42.558  27.327  36.412  1.00  0.00    -0.203 F 
ATOM     93  C   UNL A   1      44.886  27.270  36.748  1.00  0.00     0.198 A 
ATOM     94  C   UNL A   1      46.314  28.773  35.538  1.00  0.00     0.198 A 
ATOM     95  F   UNL A   1      45.385  30.338  34.050  1.00  0.00    -0.203 F 
ATOM     96  F   UNL A   1      44.729  26.299  37.659  1.00  0.00    -0.200 F 
ATOM     97  C   UNL A   1      46.155  27.748  36.457  1.00  0.00     0.200 A 
ATOM     98  F   UNL A   1      47.540  29.226  35.244  1.00  0.00    -0.200 F 
ATOM     99  F   UNL A   1      47.227  27.224  37.069  1.00  0.00    -0.200 F 
ENDBRANCH  66  89
ENDBRANCH  40  41
ENDBRANCH  32  35
ENDBRANCH  30  31
ENDBRANCH  29  30
ENDBRANCH   1  29
TORSDOF 15
ENDMDL
MODEL 2
REMARK VINA RESULT:     -13.5      0.131      1.902
REMARK SMILES CCc1ccc2c(CC(=O)NCCCCNC(=O)c3ccc(-c4c5nc(c(-c6c(F)c(F)c(F)c(F)c6F)c6ccc([nH]6)c(-c6c(F)c(F)c(F)c(F)c6F)c6nc(c(-c7c(F)c(F)c(F)c(F)c7F)c7ccc4[nH]7)C=C6)C=C5)cc3)c(C(=O)c3cc(C)ccn3)[nH]c2c1
REMARK SMILES IDX 13 1 12 2 11 3 9 4 10 5 8 7 7 8 3 9 4 10 94 11 5 12 93 13
REMARK SMILES IDX 6 14 92 15 82 16 2 18 1 19 83 20 84 21 85 22 86 23 91 24
REMARK SMILES IDX 87 25 90 26 88 27 89 28 14 29 15 30 16 31 17 32 18 34 19 35
REMARK SMILES IDX 20 36 81 37 21 38 80 39 22 40 23 41 24 42 74 43 25 44 79 45
REMARK SMILES IDX 73 46 75 47 26 48 78 49 72 50 71 51 27 53 59 54 39 55 58 56
REMARK SMILES IDX 40 57 43 58 57 59 76 60 41 61 42 62 56 64 77 65 44 66 28 67
REMARK SMILES IDX 29 68 37 69 30 70 31 71 35 72 38 73 32 74 33 75 36 76 34 77
REMARK SMILES IDX 60 78 61 79 69 80 62 81 63 82 67 83 70 84 64 85 65 86 68 87
REMARK SMILES IDX 66 88 45 89 46 90 54 91 47 92 48 93 52 94 55 95 49 96 50 97
REMARK SMILES IDX 53 98 51 99
REMARK H PARENT 11 6 92 17 16 33 75 52 43 63
REMARK Flexibility Score: inf
ROOT
ATOM      1  C   UNL A   1      31.723  30.710  26.116  1.00  0.00     0.023 C 
ENDROOT
BRANCH   1   2
ATOM      2  C   UNL A   1      32.292  29.726  27.136  1.00  0.00     0.116 C 
BRANCH   2   3
ATOM      3  N   UNL A   1      31.661  28.427  27.065  1.00  0.00    -0.356 N 
ATOM      4  C   UNL A   1      32.174  27.234  26.640  1.00  0.00     0.224 C 
ATOM      5  O   UNL A   1      31.504  26.226  26.883  1.00  0.00    -0.275 OA
ATOM      6  H   UNL A   1      30.724  28.397  27.366  1.00  0.00     0.163 HD
BRANCH   4   7
ATOM      7  C   UNL A   1      33.570  27.133  26.032  1.00  0.00     0.138 C 
BRANCH   7   8
ATOM      8  C   UNL A   1      33.741  26.065  24.981  1.00  0.00    -0.002 A 
ATOM      9  C   UNL A   1      34.913  21.993  25.070  1.00  0.00    -0.046 A 
ATOM     10  C   UNL A   1      34.711  22.603  26.312  1.00  0.00     0.004 A 
ATOM     11  C   UNL A   1      34.674  22.733  23.896  1.00  0.00     0.030 A 
ATOM     12  C   UNL A   1      34.288  23.935  26.409  1.00  0.00     0.011 A 
ATOM     13  C   UNL A   1      34.258  24.068  24.013  1.00  0.00     0.046 A 
ATOM     14  C   UNL A   1      34.073  24.691  25.239  1.00  0.00     0.004 A 
ATOM     15  N   UNL A   1      33.982  24.999  23.044  1.00  0.00    -0.352 N 
ATOM     16  C   UNL A   1      33.599  26.204  23.599  1.00  0.00     0.093 A 
ATOM     17  H   UNL A   1      34.047  24.830  22.076  1.00  0.00     0.167 HD
BRANCH   9  18
ATOM     18  C   UNL A   1      35.394  20.565  24.921  1.00  0.00     0.032 C 
ATOM     19  C   UNL A   1      36.902  20.343  24.902  1.00  0.00     0.009 C 
ENDBRANCH   9  18
BRANCH  16  20
ATOM     20  C   UNL A   1      33.180  27.382  22.846  1.00  0.00     0.227 C 
ATOM     21  O   UNL A   1      33.952  28.068  22.179  1.00  0.00    -0.285 OA
BRANCH  20  22
ATOM     22  C   UNL A   1      31.760  27.818  22.922  1.00  0.00     0.113 A 
ATOM     23  C   UNL A   1      30.794  26.937  23.401  1.00  0.00     0.036 A 
ATOM     24  N   UNL A   1      31.493  29.080  22.503  1.00  0.00    -0.253 NA
ATOM     25  C   UNL A   1      29.469  27.371  23.451  1.00  0.00    -0.047 A 
ATOM     26  C   UNL A   1      30.212  29.486  22.597  1.00  0.00     0.112 A 
ATOM     27  C   UNL A   1      28.375  26.468  23.931  1.00  0.00     0.044 C 
ATOM     28  C   UNL A   1      29.179  28.678  23.049  1.00  0.00     0.023 A 
ENDBRANCH  20  22
ENDBRANCH  16  20
ENDBRANCH   7   8
ENDBRANCH   4   7
ENDBRANCH   2   3
ENDBRANCH   1   2
BRANCH   1  29
ATOM     29  C   UNL A   1      31.436  32.106  26.671  1.00  0.00     0.023 C 
BRANCH  29  30
ATOM     30  C   UNL A   1      32.631  32.815  27.294  1.00  0.00     0.116 C 
BRANCH  30  31
ATOM     31  N   UNL A   1      32.357  34.200  27.646  1.00  0.00    -0.352 N 
ATOM     32  C   UNL A   1      32.973  34.986  28.588  1.00  0.00     0.251 C 
ATOM     33  H   UNL A   1      31.631  34.632  27.141  1.00  0.00     0.163 HD
ATOM     34  O   UNL A   1      32.536  36.104  28.846  1.00  0.00    -0.269 OA
BRANCH  32  35
ATOM     35  C   UNL A   1      34.148  34.467  29.321  1.00  0.00     0.039 A 
ATOM     36  C   UNL A   1      33.949  33.839  30.552  1.00  0.00     0.014 A 
ATOM     37  C   UNL A   1      35.436  34.581  28.789  1.00  0.00     0.014 A 
ATOM     38  C   UNL A   1      35.034  33.271  31.222  1.00  0.00     0.010 A 
ATOM     39  C   UNL A   1      36.501  33.944  29.416  1.00  0.00     0.010 A 
ATOM     40  C   UNL A   1      36.314  33.289  30.643  1.00  0.00    -0.014 A 
BRANCH  40  41
ATOM     41  C   UNL A   1      37.465  32.629  31.309  1.00  0.00     0.031 A 
ATOM     42  C   UNL A   1      38.156  31.467  30.652  1.00  0.00     0.074 A 
ATOM     43  C   UNL A   1      37.845  33.031  32.536  1.00  0.00     0.049 A 
ATOM     44  N   UNL A   1      39.147  30.734  31.094  1.00  0.00    -0.248 NA
ATOM     45  C   UNL A   1      37.643  31.053  29.338  1.00  0.00     0.031 C 
ATOM     46  C   UNL A   1      37.208  34.099  33.308  1.00  0.00     0.029 A 
ATOM     47  N   UNL A   1      38.846  32.577  33.358  1.00  0.00    -0.354 N 
ATOM     48  C   UNL A   1      39.363  29.766  30.123  1.00  0.00     0.074 A 
ATOM     49  C   UNL A   1      38.360  29.965  29.100  1.00  0.00     0.031 C 
ATOM     50  C   UNL A   1      37.843  34.229  34.483  1.00  0.00     0.029 A 
ATOM     51  C   UNL A   1      38.907  33.231  34.563  1.00  0.00     0.049 A 
ATOM     52  H   UNL A   1      39.462  31.852  33.106  1.00  0.00     0.167 HD
ATOM     53  C   UNL A   1      40.325  28.812  30.077  1.00  0.00     0.037 A 
ATOM     54  C   UNL A   1      39.721  33.043  35.619  1.00  0.00     0.037 A 
ATOM     55  C   UNL A   1      41.328  28.629  31.093  1.00  0.00     0.049 A 
ATOM     56  C   UNL A   1      40.791  31.990  35.543  1.00  0.00     0.074 A 
ATOM     57  C   UNL A   1      42.394  27.746  31.104  1.00  0.00     0.029 A 
ATOM     58  N   UNL A   1      41.381  29.335  32.287  1.00  0.00    -0.354 N 
ATOM     59  N   UNL A   1      41.050  31.142  34.577  1.00  0.00    -0.248 NA
ATOM     60  C   UNL A   1      41.693  31.878  36.697  1.00  0.00     0.031 C 
ATOM     61  C   UNL A   1      43.055  27.874  32.332  1.00  0.00     0.029 A 
ATOM     62  C   UNL A   1      42.442  28.884  33.058  1.00  0.00     0.049 A 
ATOM     63  H   UNL A   1      40.758  30.050  32.549  1.00  0.00     0.167 HD
ATOM     64  C   UNL A   1      42.153  30.410  34.995  1.00  0.00     0.074 A 
ATOM     65  C   UNL A   1      42.526  30.928  36.295  1.00  0.00     0.031 C 
ATOM     66  C   UNL A   1      42.799  29.401  34.357  1.00  0.00     0.037 A 
BRANCH  53  67
ATOM     67  C   UNL A   1      40.321  27.888  28.890  1.00  0.00     0.064 A 
ATOM     68  C   UNL A   1      39.622  26.671  28.901  1.00  0.00     0.173 A 
ATOM     69  C   UNL A   1      41.027  28.225  27.726  1.00  0.00     0.173 A 
ATOM     70  F   UNL A   1      38.936  26.295  29.991  1.00  0.00    -0.203 F 
ATOM     71  C   UNL A   1      39.672  25.803  27.813  1.00  0.00     0.198 A 
ATOM     72  C   UNL A   1      41.044  27.372  26.624  1.00  0.00     0.198 A 
ATOM     73  F   UNL A   1      41.706  29.380  27.653  1.00  0.00    -0.203 F 
ATOM     74  F   UNL A   1      39.057  24.615  27.877  1.00  0.00    -0.200 F 
ATOM     75  C   UNL A   1      40.379  26.156  26.674  1.00  0.00     0.200 A 
ATOM     76  F   UNL A   1      41.714  27.722  25.518  1.00  0.00    -0.200 F 
ATOM     77  F   UNL A   1      40.429  25.320  25.628  1.00  0.00    -0.200 F 
ENDBRANCH  53  67
BRANCH  54  78
ATOM     78  C   UNL A   1      39.557  33.893  36.827  1.00  0.00     0.064 A 
ATOM     79  C   UNL A   1      40.129  35.170  36.897  1.00  0.00     0.173 A 
ATOM     80  C   UNL A   1      38.794  33.457  37.921  1.00  0.00     0.173 A 
ATOM     81  F   UNL A   1      40.882  35.623  35.885  1.00  0.00    -0.203 F 
ATOM     82  C   UNL A   1      39.953  35.976  38.020  1.00  0.00     0.198 A 
ATOM     83  C   UNL A   1      38.593  34.276  39.031  1.00  0.00     0.198 A 
ATOM     84  F   UNL A   1      38.218  32.247  37.898  1.00  0.00    -0.203 F 
ATOM     85  F   UNL A   1      40.537  37.180  38.076  1.00  0.00    -0.200 F 
ATOM     86  C   UNL A   1      39.177  35.533  39.081  1.00  0.00     0.200 A 
ATOM     87  F   UNL A   1      37.829  33.851  40.045  1.00  0.00    -0.200 F 
ATOM     88  F   UNL A   1      38.994  36.315  40.154  1.00  0.00    -0.200 F 
ENDBRANCH  54  78
BRANCH  66  89
ATOM     89  C   UNL A   1      43.994  28.804  35.046  1.00  0.00     0.064 A 
ATOM     90  C   UNL A   1      45.285  29.322  34.866  1.00  0.00     0.173 A 
ATOM     91  C   UNL A   1      43.837  27.724  35.928  1.00  0.00     0.173 A 
ATOM     92  F   UNL A   1      45.492  30.345  34.023  1.00  0.00    -0.203 F 
ATOM     93  C   UNL A   1      46.379  28.760  35.519  1.00  0.00     0.198 A 
ATOM     94  C   UNL A   1      44.928  27.187  36.607  1.00  0.00     0.198 A 
ATOM     95  F   UNL A   1      42.624  27.195  36.142  1.00  0.00    -0.203 F 
ATOM     96  F   UNL A   1      47.611  29.237  35.291  1.00  0.00    -0.200 F 
ATOM     97  C   UNL A   1      46.199  27.699  36.395  1.00  0.00     0.200 A 
ATOM     98  F   UNL A   1      44.749  26.173  37.463  1.00  0.00    -0.200 F 
ATOM     99  F   UNL A   1      47.251  27.165  37.029  1.00  0.00    -0.200 F 
ENDBRANCH  66  89
ENDBRANCH  40  41
ENDBRANCH  32  35
ENDBRANCH  30  31
ENDBRANCH  29  30
ENDBRANCH   1  29
TORSDOF 15
ENDMDL
MODEL 3
REMARK VINA RESULT:     -13.4      1.264      3.527
REMARK SMILES CCc1ccc2c(CC(=O)NCCCCNC(=O)c3ccc(-c4c5nc(c(-c6c(F)c(F)c(F)c(F)c6F)c6ccc([nH]6)c(-c6c(F)c(F)c(F)c(F)c6F)c6nc(c(-c7c(F)c(F)c(F)c(F)c7F)c7ccc4[nH]7)C=C6)C=C5)cc3)c(C(=O)c3cc(C)ccn3)[nH]c2c1
REMARK SMILES IDX 13 1 12 2 11 3 9 4 10 5 8 7 7 8 3 9 4 10 94 11 5 12 93 13
REMARK SMILES IDX 6 14 92 15 82 16 2 18 1 19 83 20 84 21 85 22 86 23 91 24
REMARK SMILES IDX 87 25 90 26 88 27 89 28 14 29 15 30 16 31 17 32 18 34 19 35
REMARK SMILES IDX 20 36 81 37 21 38 80 39 22 40 23 41 24 42 74 43 25 44 79 45
REMARK SMILES IDX 73 46 75 47 26 48 78 49 72 50 71 51 27 53 59 54 39 55 58 56
REMARK SMILES IDX 40 57 43 58 57 59 76 60 41 61 42 62 56 64 77 65 44 66 28 67
REMARK SMILES IDX 29 68 37 69 30 70 31 71 35 72 38 73 32 74 33 75 36 76 34 77
REMARK SMILES IDX 60 78 61 79 69 80 62 81 63 82 67 83 70 84 64 85 65 86 68 87
REMARK SMILES IDX 66 88 45 89 46 90 54 91 47 92 48 93 52 94 55 95 49 96 50 97
REMARK SMILES IDX 53 98 51 99
REMARK H PARENT 11 6 92 17 16 33 75 52 43 63
REMARK Flexibility Score: inf
ROOT
ATOM      1  C   UNL A   1      31.849  30.525  26.630  1.00  0.00     0.023 C 
ENDROOT
BRANCH   1   2
ATOM      2  C   UNL A   1      33.283  30.089  26.917  1.00  0.00     0.116 C 
BRANCH   2   3
ATOM      3  N   UNL A   1      33.874  29.364  25.816  1.00  0.00    -0.356 N 
ATOM      4  C   UNL A   1      33.598  28.107  25.355  1.00  0.00     0.224 C 
ATOM      5  O   UNL A   1      34.085  27.799  24.263  1.00  0.00    -0.275 OA
ATOM      6  H   UNL A   1      34.578  29.846  25.324  1.00  0.00     0.163 HD
BRANCH   4   7
ATOM      7  C   UNL A   1      32.619  27.186  26.077  1.00  0.00     0.138 C 
BRANCH   7   8
ATOM      8  C   UNL A   1      31.369  26.840  25.308  1.00  0.00    -0.002 A 
ATOM      9  C   UNL A   1      28.720  29.038  22.835  1.00  0.00    -0.046 A 
ATOM     10  C   UNL A   1      29.884  29.702  23.232  1.00  0.00     0.004 A 
ATOM     11  C   UNL A   1      28.525  27.699  23.229  1.00  0.00     0.030 A 
ATOM     12  C   UNL A   1      30.852  29.065  24.021  1.00  0.00     0.011 A 
ATOM     13  C   UNL A   1      29.502  27.082  24.024  1.00  0.00     0.046 A 
ATOM     14  C   UNL A   1      30.652  27.736  24.442  1.00  0.00     0.004 A 
ATOM     15  N   UNL A   1      29.546  25.816  24.551  1.00  0.00    -0.352 N 
ATOM     16  C   UNL A   1      30.700  25.615  25.281  1.00  0.00     0.093 A 
ATOM     17  H   UNL A   1      28.844  25.137  24.425  1.00  0.00     0.167 HD
BRANCH   9  18
ATOM     18  C   UNL A   1      27.637  29.695  22.005  1.00  0.00     0.032 C 
ATOM     19  C   UNL A   1      28.062  30.857  21.113  1.00  0.00     0.009 C 
ENDBRANCH   9  18
BRANCH  16  20
ATOM     20  C   UNL A   1      31.084  24.360  25.922  1.00  0.00     0.227 C 
ATOM     21  O   UNL A   1      31.083  24.196  27.140  1.00  0.00    -0.285 OA
BRANCH  20  22
ATOM     22  C   UNL A   1      31.551  23.231  25.074  1.00  0.00     0.113 A 
ATOM     23  C   UNL A   1      31.927  22.031  25.671  1.00  0.00     0.036 A 
ATOM     24  N   UNL A   1      31.583  23.455  23.736  1.00  0.00    -0.253 NA
ATOM     25  C   UNL A   1      32.370  20.993  24.849  1.00  0.00    -0.047 A 
ATOM     26  C   UNL A   1      31.979  22.425  22.964  1.00  0.00     0.112 A 
ATOM     27  C   UNL A   1      32.814  19.684  25.425  1.00  0.00     0.044 C 
ATOM     28  C   UNL A   1      32.384  21.197  23.466  1.00  0.00     0.023 A 
ENDBRANCH  20  22
ENDBRANCH  16  20
ENDBRANCH   7   8
ENDBRANCH   4   7
ENDBRANCH   2   3
ENDBRANCH   1   2
BRANCH   1  29
ATOM     29  C   UNL A   1      31.583  32.017  26.835  1.00  0.00     0.023 C 
BRANCH  29  30
ATOM     30  C   UNL A   1      32.800  32.843  27.232  1.00  0.00     0.116 C 
BRANCH  30  31
ATOM     31  N   UNL A   1      32.466  34.202  27.630  1.00  0.00    -0.352 N 
ATOM     32  C   UNL A   1      33.019  34.968  28.627  1.00  0.00     0.251 C 
ATOM     33  H   UNL A   1      31.745  34.631  27.115  1.00  0.00     0.163 HD
ATOM     34  O   UNL A   1      32.534  36.058  28.914  1.00  0.00    -0.269 OA
BRANCH  32  35
ATOM     35  C   UNL A   1      34.182  34.456  29.383  1.00  0.00     0.039 A 
ATOM     36  C   UNL A   1      33.960  33.794  30.593  1.00  0.00     0.014 A 
ATOM     37  C   UNL A   1      35.482  34.610  28.894  1.00  0.00     0.014 A 
ATOM     38  C   UNL A   1      35.037  33.233  31.282  1.00  0.00     0.010 A 
ATOM     39  C   UNL A   1      36.542  33.981  29.538  1.00  0.00     0.010 A 
ATOM     40  C   UNL A   1      36.332  33.293  30.743  1.00  0.00    -0.014 A 
BRANCH  40  41
ATOM     41  C   UNL A   1      37.478  32.642  31.428  1.00  0.00     0.031 A 
ATOM     42  C   UNL A   1      38.181  31.477  30.789  1.00  0.00     0.074 A 
ATOM     43  C   UNL A   1      37.840  33.054  32.657  1.00  0.00     0.049 A 
ATOM     44  N   UNL A   1      39.168  30.751  31.249  1.00  0.00    -0.248 NA
ATOM     45  C   UNL A   1      37.686  31.052  29.471  1.00  0.00     0.031 C 
ATOM     46  C   UNL A   1      37.191  34.125  33.413  1.00  0.00     0.029 A 
ATOM     47  N   UNL A   1      38.833  32.609  33.495  1.00  0.00    -0.354 N 
ATOM     48  C   UNL A   1      39.399  29.776  30.287  1.00  0.00     0.074 A 
ATOM     49  C   UNL A   1      38.409  29.964  29.250  1.00  0.00     0.031 C 
ATOM     50  C   UNL A   1      37.811  34.266  34.595  1.00  0.00     0.029 A 
ATOM     51  C   UNL A   1      38.876  33.273  34.695  1.00  0.00     0.049 A 
ATOM     52  H   UNL A   1      39.454  31.885  33.256  1.00  0.00     0.167 HD
ATOM     53  C   UNL A   1      40.365  28.826  30.260  1.00  0.00     0.037 A 
ATOM     54  C   UNL A   1      39.678  33.095  35.763  1.00  0.00     0.037 A 
ATOM     55  C   UNL A   1      41.356  28.653  31.290  1.00  0.00     0.049 A 
ATOM     56  C   UNL A   1      40.753  32.045  35.708  1.00  0.00     0.074 A 
ATOM     57  C   UNL A   1      42.425  27.775  31.322  1.00  0.00     0.029 A 
ATOM     58  N   UNL A   1      41.392  29.368  32.480  1.00  0.00    -0.354 N 
ATOM     59  N   UNL A   1      41.026  31.191  34.751  1.00  0.00    -0.248 NA
ATOM     60  C   UNL A   1      41.640  31.945  36.874  1.00  0.00     0.031 C 
ATOM     61  C   UNL A   1      43.070  27.914  32.556  1.00  0.00     0.029 A 
ATOM     62  C   UNL A   1      42.445  28.927  33.267  1.00  0.00     0.049 A 
ATOM     63  H   UNL A   1      40.763  30.083  32.729  1.00  0.00     0.167 HD
ATOM     64  C   UNL A   1      42.126  30.466  35.188  1.00  0.00     0.074 A 
ATOM     65  C   UNL A   1      42.481  30.995  36.489  1.00  0.00     0.031 C 
ATOM     66  C   UNL A   1      42.783  29.454  34.566  1.00  0.00     0.037 A 
BRANCH  53  67
ATOM     67  C   UNL A   1      40.380  27.893  29.081  1.00  0.00     0.064 A 
ATOM     68  C   UNL A   1      41.143  28.161  27.933  1.00  0.00     0.173 A 
ATOM     69  C   UNL A   1      39.620  26.714  29.098  1.00  0.00     0.173 A 
ATOM     70  F   UNL A   1      41.883  29.277  27.858  1.00  0.00    -0.203 F 
ATOM     71  C   UNL A   1      41.104  27.312  26.829  1.00  0.00     0.198 A 
ATOM     72  C   UNL A   1      39.613  25.847  28.008  1.00  0.00     0.198 A 
ATOM     73  F   UNL A   1      38.878  26.400  30.172  1.00  0.00    -0.203 F 
ATOM     74  F   UNL A   1      41.783  27.628  25.719  1.00  0.00    -0.200 F 
ATOM     75  C   UNL A   1      40.342  26.154  26.869  1.00  0.00     0.200 A 
ATOM     76  F   UNL A   1      38.889  24.720  28.054  1.00  0.00    -0.200 F 
ATOM     77  F   UNL A   1      40.303  25.339  25.806  1.00  0.00    -0.200 F 
ENDBRANCH  53  67
BRANCH  54  78
ATOM     78  C   UNL A   1      39.496  33.953  36.962  1.00  0.00     0.064 A 
ATOM     79  C   UNL A   1      38.760  33.507  38.067  1.00  0.00     0.173 A 
ATOM     80  C   UNL A   1      40.085  35.225  37.039  1.00  0.00     0.173 A 
ATOM     81  F   UNL A   1      38.162  32.307  38.034  1.00  0.00    -0.203 F 
ATOM     82  C   UNL A   1      38.612  34.303  39.202  1.00  0.00     0.198 A 
ATOM     83  C   UNL A   1      39.961  36.007  38.186  1.00  0.00     0.198 A 
ATOM     84  F   UNL A   1      40.806  35.694  36.011  1.00  0.00    -0.203 F 
ATOM     85  F   UNL A   1      37.876  33.866  40.233  1.00  0.00    -0.200 F 
ATOM     86  C   UNL A   1      39.220  35.548  39.264  1.00  0.00     0.200 A 
ATOM     87  F   UNL A   1      40.565  37.201  38.248  1.00  0.00    -0.200 F 
ATOM     88  F   UNL A   1      39.091  36.305  40.362  1.00  0.00    -0.200 F 
ENDBRANCH  54  78
BRANCH  66  89
ATOM     89  C   UNL A   1      43.972  28.867  35.274  1.00  0.00     0.064 A 
ATOM     90  C   UNL A   1      43.846  27.782  36.155  1.00  0.00     0.173 A 
ATOM     91  C   UNL A   1      45.259  29.372  35.038  1.00  0.00     0.173 A 
ATOM     92  F   UNL A   1      42.636  27.270  36.427  1.00  0.00    -0.203 F 
ATOM     93  C   UNL A   1      44.960  27.247  36.796  1.00  0.00     0.198 A 
ATOM     94  C   UNL A   1      46.376  28.812  35.653  1.00  0.00     0.198 A 
ATOM     95  F   UNL A   1      45.438  30.404  34.199  1.00  0.00    -0.203 F 
ATOM     96  F   UNL A   1      44.808  26.246  37.675  1.00  0.00    -0.200 F 
ATOM     97  C   UNL A   1      46.224  27.756  36.539  1.00  0.00     0.200 A 
ATOM     98  F   UNL A   1      47.597  29.296  35.391  1.00  0.00    -0.200 F 
ATOM     99  F   UNL A   1      47.296  27.234  37.150  1.00  0.00    -0.200 F 
ENDBRANCH  66  89
ENDBRANCH  40  41
ENDBRANCH  32  35
ENDBRANCH  30  31
ENDBRANCH  29  30
ENDBRANCH   1  29
TORSDOF 15
ENDMDL
