MODEL 1
REMARK VINA RESULT:      -8.0      0.000      0.000
REMARK SMILES O=C(NCCCCNC(=O)[C@H](CO)NC(=O)[C@H](CS)NC(=O)[C@H](Cc1c[nH]c2ccccc12)NC(=O)c1ccc(F)cc1)c1ccc(-c2c3nc(c(-c4c(F)c(F)c(F)c(F)c4F)c4ccc([nH]4)c(-c4c(F)c(F)c(F)c(F)c4F)c4nc(c(-c5c(F)c(F)c(F)c(F)c5F)c5ccc2[nH]5)C=C4)C=C3)cc1
REMARK SMILES IDX 8 1 9 2 10 3 7 5 6 6 5 7 4 8 3 9 1 10 2 11 44 13 45 14
REMARK SMILES IDX 106 15 46 16 105 17 47 18 48 19 49 20 99 21 50 22 104 23
REMARK SMILES IDX 98 24 100 25 51 26 103 27 97 28 96 29 52 31 84 32 64 33
REMARK SMILES IDX 83 34 65 35 68 36 82 37 101 38 66 39 67 40 81 42 102 43
REMARK SMILES IDX 69 44 53 45 54 46 62 47 55 48 56 49 60 50 63 51 57 52 58 53
REMARK SMILES IDX 61 54 59 55 85 56 86 57 94 58 87 59 88 60 92 61 95 62 89 63
REMARK SMILES IDX 90 64 93 65 91 66 70 67 71 68 79 69 72 70 73 71 77 72 80 73
REMARK SMILES IDX 74 74 75 75 78 76 76 77 11 78 14 79 15 80 16 82 17 83 20 84
REMARK SMILES IDX 21 85 22 87 23 88 34 89 35 90 36 92 37 93 38 94 43 95 39 96
REMARK SMILES IDX 42 97 40 98 41 99 24 100 25 101 26 102 33 103 27 104 28 105
REMARK SMILES IDX 32 106 29 108 31 109 30 110 18 111 19 112 12 114 13 115
REMARK H PARENT 8 4 3 12 100 30 68 41 14 81 20 86 34 91 27 107 19 113 13 116
REMARK Flexibility Score: inf
ROOT
ATOM      1  N   UNL A   1      35.513  33.224  34.003  1.00  0.00    -0.354 N 
ATOM      2  C   UNL A   1      34.840  32.977  32.843  1.00  0.00     0.244 C 
ATOM      3  O   UNL A   1      33.612  33.115  32.894  1.00  0.00    -0.273 OA
ATOM      4  H   UNL A   1      34.946  33.583  34.725  1.00  0.00     0.163 HD
ENDROOT
BRANCH   1   5
ATOM      5  C   UNL A   1      36.904  33.061  34.373  1.00  0.00     0.116 C 
BRANCH   5   6
ATOM      6  C   UNL A   1      37.414  34.141  35.318  1.00  0.00     0.023 C 
BRANCH   6   7
ATOM      7  C   UNL A   1      38.680  34.865  34.875  1.00  0.00     0.023 C 
BRANCH   7   8
ATOM      8  C   UNL A   1      39.656  35.209  35.990  1.00  0.00     0.116 C 
BRANCH   8   9
ATOM      9  N   UNL A   1      39.625  34.269  37.100  1.00  0.00    -0.352 N 
ATOM     10  O   UNL A   1      40.013  32.331  38.189  1.00  0.00    -0.269 OA
ATOM     11  C   UNL A   1      40.203  33.026  37.205  1.00  0.00     0.251 C 
ATOM     12  H   UNL A   1      39.118  34.565  37.890  1.00  0.00     0.163 HD
BRANCH  11  13
ATOM     13  C   UNL A   1      41.024  32.523  36.087  1.00  0.00     0.039 A 
ATOM     14  C   UNL A   1      40.443  31.800  35.041  1.00  0.00     0.014 A 
ATOM     15  C   UNL A   1      42.401  32.752  36.116  1.00  0.00     0.014 A 
ATOM     16  C   UNL A   1      41.256  31.186  34.097  1.00  0.00     0.010 A 
ATOM     17  C   UNL A   1      43.209  32.199  35.125  1.00  0.00     0.010 A 
ATOM     18  C   UNL A   1      42.644  31.386  34.128  1.00  0.00    -0.014 A 
BRANCH  18  19
ATOM     19  C   UNL A   1      43.503  30.783  33.086  1.00  0.00     0.031 A 
ATOM     20  C   UNL A   1      44.023  29.385  33.235  1.00  0.00     0.074 A 
ATOM     21  C   UNL A   1      43.830  31.523  32.010  1.00  0.00     0.049 A 
ATOM     22  N   UNL A   1      44.865  28.733  32.474  1.00  0.00    -0.248 NA
ATOM     23  C   UNL A   1      43.541  28.618  34.394  1.00  0.00     0.031 C 
ATOM     24  C   UNL A   1      43.368  32.890  31.763  1.00  0.00     0.029 A 
ATOM     25  N   UNL A   1      44.626  31.237  30.933  1.00  0.00    -0.354 N 
ATOM     26  C   UNL A   1      45.037  27.494  33.076  1.00  0.00     0.074 A 
ATOM     27  C   UNL A   1      44.222  27.486  34.271  1.00  0.00     0.031 C 
ATOM     28  C   UNL A   1      43.873  33.318  30.598  1.00  0.00     0.029 A 
ATOM     29  C   UNL A   1      44.745  32.282  30.053  1.00  0.00     0.049 A 
ATOM     30  H   UNL A   1      45.069  30.367  30.803  1.00  0.00     0.167 HD
ATOM     31  C   UNL A   1      45.809  26.463  32.658  1.00  0.00     0.037 A 
ATOM     32  C   UNL A   1      45.502  32.410  28.948  1.00  0.00     0.037 A 
ATOM     33  C   UNL A   1      46.595  26.479  31.453  1.00  0.00     0.049 A 
ATOM     34  C   UNL A   1      46.382  31.270  28.530  1.00  0.00     0.074 A 
ATOM     35  C   UNL A   1      47.365  25.464  30.914  1.00  0.00     0.029 A 
ATOM     36  N   UNL A   1      46.715  27.569  30.602  1.00  0.00    -0.354 N 
ATOM     37  N   UNL A   1      46.527  30.097  29.094  1.00  0.00    -0.248 NA
ATOM     38  C   UNL A   1      47.209  31.472  27.334  1.00  0.00     0.031 C 
ATOM     39  C   UNL A   1      47.990  25.956  29.763  1.00  0.00     0.029 A 
ATOM     40  C   UNL A   1      47.571  27.262  29.558  1.00  0.00     0.049 A 
ATOM     41  H   UNL A   1      46.258  28.433  30.723  1.00  0.00     0.167 HD
ATOM     42  C   UNL A   1      47.452  29.413  28.320  1.00  0.00     0.074 A 
ATOM     43  C   UNL A   1      47.830  30.302  27.240  1.00  0.00     0.031 C 
ATOM     44  C   UNL A   1      47.936  28.160  28.492  1.00  0.00     0.037 A 
BRANCH  31  45
ATOM     45  C   UNL A   1      45.864  25.235  33.519  1.00  0.00     0.064 A 
ATOM     46  C   UNL A   1      46.876  25.092  34.481  1.00  0.00     0.173 A 
ATOM     47  C   UNL A   1      44.958  24.178  33.357  1.00  0.00     0.173 A 
ATOM     48  F   UNL A   1      47.772  26.072  34.671  1.00  0.00    -0.203 F 
ATOM     49  C   UNL A   1      46.982  23.932  35.244  1.00  0.00     0.198 A 
ATOM     50  C   UNL A   1      45.052  23.029  34.140  1.00  0.00     0.198 A 
ATOM     51  F   UNL A   1      43.966  24.268  32.459  1.00  0.00    -0.203 F 
ATOM     52  F   UNL A   1      47.971  23.809  36.139  1.00  0.00    -0.200 F 
ATOM     53  C   UNL A   1      46.068  22.903  35.076  1.00  0.00     0.200 A 
ATOM     54  F   UNL A   1      44.154  22.044  33.992  1.00  0.00    -0.200 F 
ATOM     55  F   UNL A   1      46.162  21.793  35.821  1.00  0.00    -0.200 F 
ENDBRANCH  31  45
BRANCH  32  56
ATOM     56  C   UNL A   1      45.441  33.680  28.186  1.00  0.00     0.064 A 
ATOM     57  C   UNL A   1      46.212  34.790  28.563  1.00  0.00     0.173 A 
ATOM     58  C   UNL A   1      44.529  33.841  27.137  1.00  0.00     0.173 A 
ATOM     59  F   UNL A   1      47.090  34.685  29.572  1.00  0.00    -0.203 F 
ATOM     60  C   UNL A   1      46.047  36.024  27.940  1.00  0.00     0.198 A 
ATOM     61  C   UNL A   1      44.380  35.071  26.499  1.00  0.00     0.198 A 
ATOM     62  F   UNL A   1      43.778  32.804  26.737  1.00  0.00    -0.203 F 
ATOM     63  F   UNL A   1      46.757  37.082  28.356  1.00  0.00    -0.200 F 
ATOM     64  C   UNL A   1      45.130  36.164  26.910  1.00  0.00     0.200 A 
ATOM     65  F   UNL A   1      43.501  35.202  25.497  1.00  0.00    -0.200 F 
ATOM     66  F   UNL A   1      44.962  37.354  26.318  1.00  0.00    -0.200 F 
ENDBRANCH  32  56
BRANCH  44  67
ATOM     67  C   UNL A   1      48.921  27.653  27.483  1.00  0.00     0.064 A 
ATOM     68  C   UNL A   1      50.286  27.947  27.618  1.00  0.00     0.173 A 
ATOM     69  C   UNL A   1      48.501  26.976  26.330  1.00  0.00     0.173 A 
ATOM     70  F   UNL A   1      50.733  28.599  28.701  1.00  0.00    -0.203 F 
ATOM     71  C   UNL A   1      51.193  27.602  26.620  1.00  0.00     0.198 A 
ATOM     72  C   UNL A   1      49.414  26.614  25.344  1.00  0.00     0.198 A 
ATOM     73  F   UNL A   1      47.206  26.663  26.166  1.00  0.00    -0.203 F 
ATOM     74  F   UNL A   1      52.486  27.929  26.750  1.00  0.00    -0.200 F 
ATOM     75  C   UNL A   1      50.756  26.938  25.484  1.00  0.00     0.200 A 
ATOM     76  F   UNL A   1      48.994  25.957  24.254  1.00  0.00    -0.200 F 
ATOM     77  F   UNL A   1      51.628  26.612  24.520  1.00  0.00    -0.200 F 
ENDBRANCH  44  67
ENDBRANCH  18  19
ENDBRANCH  11  13
ENDBRANCH   8   9
ENDBRANCH   7   8
ENDBRANCH   6   7
ENDBRANCH   5   6
ENDBRANCH   1   5
BRANCH   2  78
ATOM     78  C   UNL A   1      35.539  32.790  31.468  1.00  0.00     0.197 C 
BRANCH  78  79
ATOM     79  N   UNL A   1      35.608  31.442  30.932  1.00  0.00    -0.340 N 
ATOM     80  C   UNL A   1      36.545  30.477  31.191  1.00  0.00     0.244 C 
ATOM     81  H   UNL A   1      34.894  31.191  30.303  1.00  0.00     0.164 HD
ATOM     82  O   UNL A   1      36.278  29.332  30.819  1.00  0.00    -0.273 OA
BRANCH  80  83
ATOM     83  C   UNL A   1      37.840  30.812  31.986  1.00  0.00     0.181 C 
BRANCH  83  84
ATOM     84  N   UNL A   1      38.420  29.586  32.580  1.00  0.00    -0.342 N 
ATOM     85  C   UNL A   1      39.053  28.482  32.082  1.00  0.00     0.243 C 
ATOM     86  H   UNL A   1      38.327  29.560  33.560  1.00  0.00     0.164 HD
ATOM     87  O   UNL A   1      39.168  27.541  32.880  1.00  0.00    -0.273 OA
BRANCH  85  88
ATOM     88  C   UNL A   1      39.836  28.429  30.741  1.00  0.00     0.176 C 
BRANCH  88  89
ATOM     89  N   UNL A   1      39.058  28.916  29.602  1.00  0.00    -0.340 N 
ATOM     90  C   UNL A   1      38.782  28.344  28.391  1.00  0.00     0.251 C 
ATOM     91  H   UNL A   1      38.665  29.811  29.729  1.00  0.00     0.164 HD
ATOM     92  O   UNL A   1      37.937  28.870  27.670  1.00  0.00    -0.269 OA
BRANCH  90  93
ATOM     93  C   UNL A   1      39.568  27.200  27.882  1.00  0.00     0.040 A 
ATOM     94  C   UNL A   1      39.558  25.931  28.467  1.00  0.00     0.017 A 
ATOM     95  C   UNL A   1      40.363  27.448  26.752  1.00  0.00     0.017 A 
ATOM     96  C   UNL A   1      40.409  24.938  27.972  1.00  0.00     0.040 A 
ATOM     97  C   UNL A   1      41.198  26.450  26.251  1.00  0.00     0.040 A 
ATOM     98  C   UNL A   1      41.226  25.210  26.877  1.00  0.00     0.123 A 
ATOM     99  F   UNL A   1      42.049  24.260  26.416  1.00  0.00    -0.207 F 
ENDBRANCH  90  93
ENDBRANCH  88  89
BRANCH  88 100
ATOM    100  C   UNL A   1      41.139  29.225  30.909  1.00  0.00     0.072 C 
BRANCH 100 101
ATOM    101  C   UNL A   1      42.150  29.077  29.817  1.00  0.00    -0.020 A 
ATOM    102  C   UNL A   1      42.438  30.010  28.841  1.00  0.00     0.087 A 
ATOM    103  C   UNL A   1      42.899  27.898  29.502  1.00  0.00     0.003 A 
ATOM    104  N   UNL A   1      43.297  29.438  27.941  1.00  0.00    -0.361 N 
ATOM    105  C   UNL A   1      43.573  28.141  28.305  1.00  0.00     0.046 A 
ATOM    106  C   UNL A   1      43.028  26.627  30.101  1.00  0.00     0.010 A 
ATOM    107  H   UNL A   1      43.664  29.891  27.148  1.00  0.00     0.166 HD
ATOM    108  C   UNL A   1      44.348  27.169  27.663  1.00  0.00     0.026 A 
ATOM    109  C   UNL A   1      43.809  25.647  29.476  1.00  0.00     0.001 A 
ATOM    110  C   UNL A   1      44.451  25.914  28.270  1.00  0.00     0.002 A 
ENDBRANCH 100 101
ENDBRANCH  88 100
ENDBRANCH  85  88
ENDBRANCH  83  84
BRANCH  83 111
ATOM    111  C   UNL A   1      38.831  31.435  30.976  1.00  0.00     0.101 C 
BRANCH 111 112
ATOM    112  S   UNL A   1      39.376  33.117  31.411  1.00  0.00    -0.177 SA
ATOM    113  H   UNL A   1      38.982  33.405  32.681  1.00  0.00     0.102 HD
ENDBRANCH 111 112
ENDBRANCH  83 111
ENDBRANCH  80  83
ENDBRANCH  78  79
BRANCH  78 114
ATOM    114  C   UNL A   1      34.930  33.772  30.452  1.00  0.00     0.191 C 
BRANCH 114 115
ATOM    115  O   UNL A   1      34.779  35.065  31.044  1.00  0.00    -0.394 OA
ATOM    116  H   UNL A   1      33.946  35.098  31.539  1.00  0.00     0.210 HD
ENDBRANCH 114 115
ENDBRANCH  78 114
ENDBRANCH   2  78
TORSDOF 23
ENDMDL
MODEL 2
REMARK VINA RESULT:      -7.9      6.104     11.026
REMARK SMILES O=C(NCCCCNC(=O)[C@H](CO)NC(=O)[C@H](CS)NC(=O)[C@H](Cc1c[nH]c2ccccc12)NC(=O)c1ccc(F)cc1)c1ccc(-c2c3nc(c(-c4c(F)c(F)c(F)c(F)c4F)c4ccc([nH]4)c(-c4c(F)c(F)c(F)c(F)c4F)c4nc(c(-c5c(F)c(F)c(F)c(F)c5F)c5ccc2[nH]5)C=C4)C=C3)cc1
REMARK SMILES IDX 8 1 9 2 10 3 7 5 6 6 5 7 4 8 3 9 1 10 2 11 44 13 45 14
REMARK SMILES IDX 106 15 46 16 105 17 47 18 48 19 49 20 99 21 50 22 104 23
REMARK SMILES IDX 98 24 100 25 51 26 103 27 97 28 96 29 52 31 84 32 64 33
REMARK SMILES IDX 83 34 65 35 68 36 82 37 101 38 66 39 67 40 81 42 102 43
REMARK SMILES IDX 69 44 53 45 54 46 62 47 55 48 56 49 60 50 63 51 57 52 58 53
REMARK SMILES IDX 61 54 59 55 85 56 86 57 94 58 87 59 88 60 92 61 95 62 89 63
REMARK SMILES IDX 90 64 93 65 91 66 70 67 71 68 79 69 72 70 73 71 77 72 80 73
REMARK SMILES IDX 74 74 75 75 78 76 76 77 11 78 14 79 15 80 16 82 17 83 20 84
REMARK SMILES IDX 21 85 22 87 23 88 34 89 35 90 36 92 37 93 38 94 43 95 39 96
REMARK SMILES IDX 42 97 40 98 41 99 24 100 25 101 26 102 33 103 27 104 28 105
REMARK SMILES IDX 32 106 29 108 31 109 30 110 18 111 19 112 12 114 13 115
REMARK H PARENT 8 4 3 12 100 30 68 41 14 81 20 86 34 91 27 107 19 113 13 116
REMARK Flexibility Score: inf
ROOT
ATOM      1  N   UNL A   1      34.785  22.132  24.369  1.00  0.00    -0.354 N 
ATOM      2  C   UNL A   1      34.500  22.807  23.220  1.00  0.00     0.244 C 
ATOM      3  O   UNL A   1      35.476  23.149  22.541  1.00  0.00    -0.273 OA
ATOM      4  H   UNL A   1      35.738  21.907  24.475  1.00  0.00     0.163 HD
ENDROOT
BRANCH   1   5
ATOM      5  C   UNL A   1      33.949  21.682  25.464  1.00  0.00     0.116 C 
BRANCH   5   6
ATOM      6  C   UNL A   1      34.637  21.748  26.822  1.00  0.00     0.023 C 
BRANCH   6   7
ATOM      7  C   UNL A   1      35.462  23.002  27.087  1.00  0.00     0.023 C 
BRANCH   7   8
ATOM      8  C   UNL A   1      36.629  23.224  26.137  1.00  0.00     0.116 C 
BRANCH   8   9
ATOM      9  N   UNL A   1      37.584  22.127  26.124  1.00  0.00    -0.352 N 
ATOM     10  O   UNL A   1      39.604  21.133  26.275  1.00  0.00    -0.269 OA
ATOM     11  C   UNL A   1      38.929  22.140  26.410  1.00  0.00     0.251 C 
ATOM     12  H   UNL A   1      37.215  21.249  25.874  1.00  0.00     0.163 HD
BRANCH  11  13
ATOM     13  C   UNL A   1      39.556  23.403  26.843  1.00  0.00     0.039 A 
ATOM     14  C   UNL A   1      39.299  24.598  26.164  1.00  0.00     0.014 A 
ATOM     15  C   UNL A   1      40.440  23.373  27.922  1.00  0.00     0.014 A 
ATOM     16  C   UNL A   1      40.034  25.735  26.475  1.00  0.00     0.010 A 
ATOM     17  C   UNL A   1      41.121  24.533  28.283  1.00  0.00     0.010 A 
ATOM     18  C   UNL A   1      40.946  25.712  27.541  1.00  0.00    -0.014 A 
BRANCH  18  19
ATOM     19  C   UNL A   1      41.683  26.941  27.912  1.00  0.00     0.031 A 
ATOM     20  C   UNL A   1      41.012  28.029  28.694  1.00  0.00     0.074 A 
ATOM     21  C   UNL A   1      42.961  27.072  27.514  1.00  0.00     0.049 A 
ATOM     22  N   UNL A   1      41.469  29.211  29.021  1.00  0.00    -0.248 NA
ATOM     23  C   UNL A   1      39.644  27.762  29.167  1.00  0.00     0.031 C 
ATOM     24  C   UNL A   1      43.711  26.067  26.759  1.00  0.00     0.029 A 
ATOM     25  N   UNL A   1      43.851  28.101  27.680  1.00  0.00    -0.354 N 
ATOM     26  C   UNL A   1      40.439  29.838  29.709  1.00  0.00     0.074 A 
ATOM     27  C   UNL A   1      39.328  28.913  29.745  1.00  0.00     0.031 C 
ATOM     28  C   UNL A   1      44.954  26.520  26.544  1.00  0.00     0.029 A 
ATOM     29  C   UNL A   1      45.065  27.870  27.085  1.00  0.00     0.049 A 
ATOM     30  H   UNL A   1      43.640  28.923  28.178  1.00  0.00     0.167 HD
ATOM     31  C   UNL A   1      40.434  31.076  30.257  1.00  0.00     0.037 A 
ATOM     32  C   UNL A   1      46.138  28.671  26.955  1.00  0.00     0.037 A 
ATOM     33  C   UNL A   1      41.557  31.975  30.232  1.00  0.00     0.049 A 
ATOM     34  C   UNL A   1      46.092  30.053  27.533  1.00  0.00     0.074 A 
ATOM     35  C   UNL A   1      41.670  33.228  30.809  1.00  0.00     0.029 A 
ATOM     36  N   UNL A   1      42.762  31.718  29.592  1.00  0.00    -0.354 N 
ATOM     37  N   UNL A   1      45.122  30.633  28.196  1.00  0.00    -0.248 NA
ATOM     38  C   UNL A   1      47.278  30.896  27.338  1.00  0.00     0.031 C 
ATOM     39  C   UNL A   1      42.925  33.749  30.476  1.00  0.00     0.029 A 
ATOM     40  C   UNL A   1      43.613  32.801  29.733  1.00  0.00     0.049 A 
ATOM     41  H   UNL A   1      42.979  30.887  29.109  1.00  0.00     0.167 HD
ATOM     42  C   UNL A   1      45.579  31.904  28.509  1.00  0.00     0.074 A 
ATOM     43  C   UNL A   1      46.919  32.009  27.967  1.00  0.00     0.031 C 
ATOM     44  C   UNL A   1      44.944  32.888  29.187  1.00  0.00     0.037 A 
BRANCH  31  45
ATOM     45  C   UNL A   1      39.169  31.547  30.912  1.00  0.00     0.064 A 
ATOM     46  C   UNL A   1      38.251  32.329  30.193  1.00  0.00     0.173 A 
ATOM     47  C   UNL A   1      38.889  31.278  32.259  1.00  0.00     0.173 A 
ATOM     48  F   UNL A   1      38.475  32.621  28.903  1.00  0.00    -0.203 F 
ATOM     49  C   UNL A   1      37.103  32.830  30.803  1.00  0.00     0.198 A 
ATOM     50  C   UNL A   1      37.726  31.760  32.858  1.00  0.00     0.198 A 
ATOM     51  F   UNL A   1      39.728  30.528  32.987  1.00  0.00    -0.203 F 
ATOM     52  F   UNL A   1      36.254  33.595  30.103  1.00  0.00    -0.200 F 
ATOM     53  C   UNL A   1      36.840  32.541  32.133  1.00  0.00     0.200 A 
ATOM     54  F   UNL A   1      37.462  31.461  34.138  1.00  0.00    -0.200 F 
ATOM     55  F   UNL A   1      35.727  33.011  32.714  1.00  0.00    -0.200 F 
ENDBRANCH  31  45
BRANCH  32  56
ATOM     56  C   UNL A   1      47.328  28.155  26.238  1.00  0.00     0.064 A 
ATOM     57  C   UNL A   1      47.351  28.071  24.837  1.00  0.00     0.173 A 
ATOM     58  C   UNL A   1      48.419  27.634  26.944  1.00  0.00     0.173 A 
ATOM     59  F   UNL A   1      46.321  28.545  24.120  1.00  0.00    -0.203 F 
ATOM     60  C   UNL A   1      48.406  27.452  24.172  1.00  0.00     0.198 A 
ATOM     61  C   UNL A   1      49.485  27.035  26.276  1.00  0.00     0.198 A 
ATOM     62  F   UNL A   1      48.443  27.702  28.283  1.00  0.00    -0.203 F 
ATOM     63  F   UNL A   1      48.378  27.336  22.837  1.00  0.00    -0.200 F 
ATOM     64  C   UNL A   1      49.471  26.933  24.892  1.00  0.00     0.200 A 
ATOM     65  F   UNL A   1      50.518  26.544  26.972  1.00  0.00    -0.200 F 
ATOM     66  F   UNL A   1      50.481  26.327  24.253  1.00  0.00    -0.200 F 
ENDBRANCH  32  56
BRANCH  44  67
ATOM     67  C   UNL A   1      45.686  34.171  29.407  1.00  0.00     0.064 A 
ATOM     68  C   UNL A   1      45.632  35.193  28.446  1.00  0.00     0.173 A 
ATOM     69  C   UNL A   1      46.535  34.342  30.507  1.00  0.00     0.173 A 
ATOM     70  F   UNL A   1      44.838  35.069  27.372  1.00  0.00    -0.203 F 
ATOM     71  C   UNL A   1      46.423  36.331  28.570  1.00  0.00     0.198 A 
ATOM     72  C   UNL A   1      47.310  35.491  30.638  1.00  0.00     0.198 A 
ATOM     73  F   UNL A   1      46.608  33.396  31.457  1.00  0.00    -0.203 F 
ATOM     74  F   UNL A   1      46.387  37.275  27.620  1.00  0.00    -0.200 F 
ATOM     75  C   UNL A   1      47.262  36.478  29.663  1.00  0.00     0.200 A 
ATOM     76  F   UNL A   1      48.107  35.642  31.704  1.00  0.00    -0.200 F 
ATOM     77  F   UNL A   1      48.029  37.572  29.778  1.00  0.00    -0.200 F 
ENDBRANCH  44  67
ENDBRANCH  18  19
ENDBRANCH  11  13
ENDBRANCH   8   9
ENDBRANCH   7   8
ENDBRANCH   6   7
ENDBRANCH   5   6
ENDBRANCH   1   5
BRANCH   2  78
ATOM     78  C   UNL A   1      33.069  22.935  22.631  1.00  0.00     0.197 C 
BRANCH  78  79
ATOM     79  N   UNL A   1      32.919  23.680  21.394  1.00  0.00    -0.340 N 
ATOM     80  C   UNL A   1      32.743  25.029  21.236  1.00  0.00     0.244 C 
ATOM     81  H   UNL A   1      32.946  23.150  20.564  1.00  0.00     0.164 HD
ATOM     82  O   UNL A   1      32.881  25.476  20.095  1.00  0.00    -0.273 OA
BRANCH  80  83
ATOM     83  C   UNL A   1      32.461  25.947  22.460  1.00  0.00     0.181 C 
BRANCH  83  84
ATOM     84  N   UNL A   1      32.764  27.359  22.134  1.00  0.00    -0.342 N 
ATOM     85  C   UNL A   1      32.213  28.564  22.471  1.00  0.00     0.243 C 
ATOM     86  H   UNL A   1      33.542  27.451  21.537  1.00  0.00     0.164 HD
ATOM     87  O   UNL A   1      32.599  29.524  21.789  1.00  0.00    -0.273 OA
BRANCH  85  88
ATOM     88  C   UNL A   1      31.387  28.841  23.757  1.00  0.00     0.176 C 
BRANCH  88  89
ATOM     89  N   UNL A   1      30.083  28.177  23.757  1.00  0.00    -0.340 N 
ATOM     90  C   UNL A   1      28.897  28.525  23.173  1.00  0.00     0.251 C 
ATOM     91  H   UNL A   1      30.056  27.333  24.264  1.00  0.00     0.164 HD
ATOM     92  O   UNL A   1      27.987  27.700  23.152  1.00  0.00    -0.269 OA
BRANCH  90  93
ATOM     93  C   UNL A   1      28.647  29.903  22.699  1.00  0.00     0.040 A 
ATOM     94  C   UNL A   1      28.544  31.009  23.548  1.00  0.00     0.017 A 
ATOM     95  C   UNL A   1      28.502  30.065  21.312  1.00  0.00     0.017 A 
ATOM     96  C   UNL A   1      28.211  32.258  23.014  1.00  0.00     0.040 A 
ATOM     97  C   UNL A   1      28.186  31.315  20.782  1.00  0.00     0.040 A 
ATOM     98  C   UNL A   1      28.026  32.396  21.641  1.00  0.00     0.123 A 
ATOM     99  F   UNL A   1      27.693  33.591  21.137  1.00  0.00    -0.207 F 
ENDBRANCH  90  93
ENDBRANCH  88  89
BRANCH  88 100
ATOM    100  C   UNL A   1      32.228  28.422  24.973  1.00  0.00     0.072 C 
BRANCH 100 101
ATOM    101  C   UNL A   1      32.543  29.500  25.962  1.00  0.00    -0.020 A 
ATOM    102  C   UNL A   1      31.776  30.618  26.219  1.00  0.00     0.087 A 
ATOM    103  C   UNL A   1      33.751  29.638  26.715  1.00  0.00     0.003 A 
ATOM    104  N   UNL A   1      32.480  31.434  27.064  1.00  0.00    -0.361 N 
ATOM    105  C   UNL A   1      33.700  30.874  27.360  1.00  0.00     0.046 A 
ATOM    106  C   UNL A   1      34.910  28.847  26.869  1.00  0.00     0.010 A 
ATOM    107  H   UNL A   1      32.158  32.299  27.409  1.00  0.00     0.166 HD
ATOM    108  C   UNL A   1      34.757  31.370  28.131  1.00  0.00     0.026 A 
ATOM    109  C   UNL A   1      35.972  29.324  27.646  1.00  0.00     0.001 A 
ATOM    110  C   UNL A   1      35.898  30.572  28.260  1.00  0.00     0.002 A 
ENDBRANCH 100 101
ENDBRANCH  88 100
ENDBRANCH  85  88
ENDBRANCH  83  84
BRANCH  83 111
ATOM    111  C   UNL A   1      30.960  25.788  22.797  1.00  0.00     0.101 C 
BRANCH 111 112
ATOM    112  S   UNL A   1      30.629  24.706  24.222  1.00  0.00    -0.177 SA
ATOM    113  H   UNL A   1      30.162  25.452  25.259  1.00  0.00     0.102 HD
ENDBRANCH 111 112
ENDBRANCH  83 111
ENDBRANCH  80  83
ENDBRANCH  78  79
BRANCH  78 114
ATOM    114  C   UNL A   1      32.437  21.535  22.528  1.00  0.00     0.191 C 
BRANCH 114 115
ATOM    115  O   UNL A   1      31.708  21.411  21.304  1.00  0.00    -0.394 OA
ATOM    116  H   UNL A   1      32.324  21.227  20.578  1.00  0.00     0.210 HD
ENDBRANCH 114 115
ENDBRANCH  78 114
ENDBRANCH   2  78
TORSDOF 23
ENDMDL
MODEL 3
REMARK VINA RESULT:      -7.5      0.518      6.794
REMARK SMILES O=C(NCCCCNC(=O)[C@H](CO)NC(=O)[C@H](CS)NC(=O)[C@H](Cc1c[nH]c2ccccc12)NC(=O)c1ccc(F)cc1)c1ccc(-c2c3nc(c(-c4c(F)c(F)c(F)c(F)c4F)c4ccc([nH]4)c(-c4c(F)c(F)c(F)c(F)c4F)c4nc(c(-c5c(F)c(F)c(F)c(F)c5F)c5ccc2[nH]5)C=C4)C=C3)cc1
REMARK SMILES IDX 8 1 9 2 10 3 7 5 6 6 5 7 4 8 3 9 1 10 2 11 44 13 45 14
REMARK SMILES IDX 106 15 46 16 105 17 47 18 48 19 49 20 99 21 50 22 104 23
REMARK SMILES IDX 98 24 100 25 51 26 103 27 97 28 96 29 52 31 84 32 64 33
REMARK SMILES IDX 83 34 65 35 68 36 82 37 101 38 66 39 67 40 81 42 102 43
REMARK SMILES IDX 69 44 53 45 54 46 62 47 55 48 56 49 60 50 63 51 57 52 58 53
REMARK SMILES IDX 61 54 59 55 85 56 86 57 94 58 87 59 88 60 92 61 95 62 89 63
REMARK SMILES IDX 90 64 93 65 91 66 70 67 71 68 79 69 72 70 73 71 77 72 80 73
REMARK SMILES IDX 74 74 75 75 78 76 76 77 11 78 14 79 15 80 16 82 17 83 20 84
REMARK SMILES IDX 21 85 22 87 23 88 34 89 35 90 36 92 37 93 38 94 43 95 39 96
REMARK SMILES IDX 42 97 40 98 41 99 24 100 25 101 26 102 33 103 27 104 28 105
REMARK SMILES IDX 32 106 29 108 31 109 30 110 18 111 19 112 12 114 13 115
REMARK H PARENT 8 4 3 12 100 30 68 41 14 81 20 86 34 91 27 107 19 113 13 116
REMARK Flexibility Score: inf
ROOT
ATOM      1  N   UNL A   1      35.471  33.252  33.815  1.00  0.00    -0.354 N 
ATOM      2  C   UNL A   1      34.697  32.957  32.733  1.00  0.00     0.244 C 
ATOM      3  O   UNL A   1      33.478  33.101  32.887  1.00  0.00    -0.273 OA
ATOM      4  H   UNL A   1      34.972  33.645  34.568  1.00  0.00     0.163 HD
ENDROOT
BRANCH   1   5
ATOM      5  C   UNL A   1      36.890  33.100  34.066  1.00  0.00     0.116 C 
BRANCH   5   6
ATOM      6  C   UNL A   1      37.393  33.931  35.240  1.00  0.00     0.023 C 
BRANCH   6   7
ATOM      7  C   UNL A   1      38.515  34.913  34.923  1.00  0.00     0.023 C 
BRANCH   7   8
ATOM      8  C   UNL A   1      39.541  35.107  36.029  1.00  0.00     0.116 C 
BRANCH   8   9
ATOM      9  N   UNL A   1      39.438  34.124  37.097  1.00  0.00    -0.352 N 
ATOM     10  O   UNL A   1      39.793  32.161  38.150  1.00  0.00    -0.269 OA
ATOM     11  C   UNL A   1      40.053  32.900  37.216  1.00  0.00     0.251 C 
ATOM     12  H   UNL A   1      38.842  34.370  37.841  1.00  0.00     0.163 HD
BRANCH  11  13
ATOM     13  C   UNL A   1      41.002  32.472  36.171  1.00  0.00     0.039 A 
ATOM     14  C   UNL A   1      40.565  31.734  35.067  1.00  0.00     0.014 A 
ATOM     15  C   UNL A   1      42.352  32.788  36.327  1.00  0.00     0.014 A 
ATOM     16  C   UNL A   1      41.498  31.192  34.192  1.00  0.00     0.010 A 
ATOM     17  C   UNL A   1      43.280  32.306  35.406  1.00  0.00     0.010 A 
ATOM     18  C   UNL A   1      42.862  31.479  34.352  1.00  0.00    -0.014 A 
BRANCH  18  19
ATOM     19  C   UNL A   1      43.849  30.952  33.384  1.00  0.00     0.031 A 
ATOM     20  C   UNL A   1      44.272  31.770  32.201  1.00  0.00     0.074 A 
ATOM     21  C   UNL A   1      44.342  29.715  33.572  1.00  0.00     0.049 A 
ATOM     22  N   UNL A   1      45.046  31.432  31.200  1.00  0.00    -0.248 NA
ATOM     23  C   UNL A   1      43.754  33.144  32.123  1.00  0.00     0.031 C 
ATOM     24  C   UNL A   1      44.004  28.841  34.697  1.00  0.00     0.029 A 
ATOM     25  N   UNL A   1      45.222  28.976  32.826  1.00  0.00    -0.354 N 
ATOM     26  C   UNL A   1      45.084  32.538  30.362  1.00  0.00     0.074 A 
ATOM     27  C   UNL A   1      44.248  33.555  30.962  1.00  0.00     0.031 C 
ATOM     28  C   UNL A   1      44.684  27.692  34.578  1.00  0.00     0.029 A 
ATOM     29  C   UNL A   1      45.449  27.724  33.336  1.00  0.00     0.049 A 
ATOM     30  H   UNL A   1      45.649  29.312  32.005  1.00  0.00     0.167 HD
ATOM     31  C   UNL A   1      45.761  32.681  29.198  1.00  0.00     0.037 A 
ATOM     32  C   UNL A   1      46.164  26.697  32.841  1.00  0.00     0.037 A 
ATOM     33  C   UNL A   1      46.608  31.667  28.627  1.00  0.00     0.049 A 
ATOM     34  C   UNL A   1      46.869  26.865  31.528  1.00  0.00     0.074 A 
ATOM     35  C   UNL A   1      47.382  31.736  27.482  1.00  0.00     0.029 A 
ATOM     36  N   UNL A   1      46.790  30.397  29.158  1.00  0.00    -0.354 N 
ATOM     37  N   UNL A   1      46.915  27.918  30.750  1.00  0.00    -0.248 NA
ATOM     38  C   UNL A   1      47.612  25.705  31.019  1.00  0.00     0.031 C 
ATOM     39  C   UNL A   1      47.992  30.492  27.294  1.00  0.00     0.029 A 
ATOM     40  C   UNL A   1      47.638  29.663  28.347  1.00  0.00     0.049 A 
ATOM     41  H   UNL A   1      46.376  30.068  29.989  1.00  0.00     0.167 HD
ATOM     42  C   UNL A   1      47.697  27.557  29.664  1.00  0.00     0.074 A 
ATOM     43  C   UNL A   1      48.112  26.186  29.887  1.00  0.00     0.031 C 
ATOM     44  C   UNL A   1      48.040  28.299  28.585  1.00  0.00     0.037 A 
BRANCH  31  45
ATOM     45  C   UNL A   1      45.599  33.969  28.446  1.00  0.00     0.064 A 
ATOM     46  C   UNL A   1      46.427  35.065  28.737  1.00  0.00     0.173 A 
ATOM     47  C   UNL A   1      44.595  34.142  27.483  1.00  0.00     0.173 A 
ATOM     48  F   UNL A   1      47.399  34.954  29.655  1.00  0.00    -0.203 F 
ATOM     49  C   UNL A   1      46.249  36.288  28.096  1.00  0.00     0.198 A 
ATOM     50  C   UNL A   1      44.437  35.360  26.825  1.00  0.00     0.198 A 
ATOM     51  F   UNL A   1      43.785  33.123  27.162  1.00  0.00    -0.203 F 
ATOM     52  F   UNL A   1      47.036  37.327  28.407  1.00  0.00    -0.200 F 
ATOM     53  C   UNL A   1      45.258  36.433  27.138  1.00  0.00     0.200 A 
ATOM     54  F   UNL A   1      43.493  35.492  25.883  1.00  0.00    -0.200 F 
ATOM     55  F   UNL A   1      45.097  37.607  26.510  1.00  0.00    -0.200 F 
ENDBRANCH  31  45
BRANCH  32  56
ATOM     56  C   UNL A   1      46.224  25.434  33.613  1.00  0.00     0.064 A 
ATOM     57  C   UNL A   1      45.240  24.444  33.460  1.00  0.00     0.173 A 
ATOM     58  C   UNL A   1      47.201  25.241  34.596  1.00  0.00     0.173 A 
ATOM     59  F   UNL A   1      44.276  24.593  32.540  1.00  0.00    -0.203 F 
ATOM     60  C   UNL A   1      45.214  23.324  34.288  1.00  0.00     0.198 A 
ATOM     61  C   UNL A   1      47.187  24.110  35.408  1.00  0.00     0.198 A 
ATOM     62  F   UNL A   1      48.166  26.157  34.768  1.00  0.00    -0.203 F 
ATOM     63  F   UNL A   1      44.233  22.421  34.159  1.00  0.00    -0.200 F 
ATOM     64  C   UNL A   1      46.186  23.159  35.263  1.00  0.00     0.200 A 
ATOM     65  F   UNL A   1      48.133  23.946  36.342  1.00  0.00    -0.200 F 
ATOM     66  F   UNL A   1      46.154  22.088  36.067  1.00  0.00    -0.200 F 
ENDBRANCH  32  56
BRANCH  44  67
ATOM     67  C   UNL A   1      48.925  27.662  27.557  1.00  0.00     0.064 A 
ATOM     68  C   UNL A   1      48.367  27.053  26.423  1.00  0.00     0.173 A 
ATOM     69  C   UNL A   1      50.309  27.557  27.752  1.00  0.00     0.173 A 
ATOM     70  F   UNL A   1      47.047  27.123  26.200  1.00  0.00    -0.203 F 
ATOM     71  C   UNL A   1      49.163  26.340  25.532  1.00  0.00     0.198 A 
ATOM     72  C   UNL A   1      51.104  26.860  26.847  1.00  0.00     0.198 A 
ATOM     73  F   UNL A   1      50.886  28.136  28.816  1.00  0.00    -0.203 F 
ATOM     74  F   UNL A   1      48.604  25.731  24.477  1.00  0.00    -0.200 F 
ATOM     75  C   UNL A   1      50.529  26.242  25.745  1.00  0.00     0.200 A 
ATOM     76  F   UNL A   1      52.427  26.780  27.044  1.00  0.00    -0.200 F 
ATOM     77  F   UNL A   1      51.294  25.549  24.890  1.00  0.00    -0.200 F 
ENDBRANCH  44  67
ENDBRANCH  18  19
ENDBRANCH  11  13
ENDBRANCH   8   9
ENDBRANCH   7   8
ENDBRANCH   6   7
ENDBRANCH   5   6
ENDBRANCH   1   5
BRANCH   2  78
ATOM     78  C   UNL A   1      35.270  32.705  31.311  1.00  0.00     0.197 C 
BRANCH  78  79
ATOM     79  N   UNL A   1      35.482  31.326  30.910  1.00  0.00    -0.340 N 
ATOM     80  C   UNL A   1      36.526  30.501  31.237  1.00  0.00     0.244 C 
ATOM     81  H   UNL A   1      34.790  30.933  30.330  1.00  0.00     0.164 HD
ATOM     82  O   UNL A   1      36.384  29.302  30.989  1.00  0.00    -0.273 OA
BRANCH  80  83
ATOM     83  C   UNL A   1      37.788  31.058  31.956  1.00  0.00     0.181 C 
BRANCH  83  84
ATOM     84  N   UNL A   1      38.532  29.965  32.626  1.00  0.00    -0.342 N 
ATOM     85  C   UNL A   1      39.284  28.909  32.194  1.00  0.00     0.243 C 
ATOM     86  H   UNL A   1      38.469  30.011  33.607  1.00  0.00     0.164 HD
ATOM     87  O   UNL A   1      39.536  28.059  33.060  1.00  0.00    -0.273 OA
BRANCH  85  88
ATOM     88  C   UNL A   1      40.032  28.839  30.834  1.00  0.00     0.176 C 
BRANCH  88  89
ATOM     89  N   UNL A   1      39.232  29.332  29.713  1.00  0.00    -0.340 N 
ATOM     90  C   UNL A   1      38.927  28.764  28.507  1.00  0.00     0.251 C 
ATOM     91  H   UNL A   1      38.846  30.228  29.850  1.00  0.00     0.164 HD
ATOM     92  O   UNL A   1      38.070  29.295  27.806  1.00  0.00    -0.269 OA
BRANCH  90  93
ATOM     93  C   UNL A   1      39.697  27.617  27.980  1.00  0.00     0.040 A 
ATOM     94  C   UNL A   1      39.701  26.349  28.569  1.00  0.00     0.017 A 
ATOM     95  C   UNL A   1      40.461  27.860  26.827  1.00  0.00     0.017 A 
ATOM     96  C   UNL A   1      40.536  25.354  28.052  1.00  0.00     0.040 A 
ATOM     97  C   UNL A   1      41.279  26.859  26.306  1.00  0.00     0.040 A 
ATOM     98  C   UNL A   1      41.322  25.621  26.934  1.00  0.00     0.123 A 
ATOM     99  F   UNL A   1      42.130  24.668  26.453  1.00  0.00    -0.207 F 
ENDBRANCH  90  93
ENDBRANCH  88  89
BRANCH  88 100
ATOM    100  C   UNL A   1      41.350  29.617  30.966  1.00  0.00     0.072 C 
BRANCH 100 101
ATOM    101  C   UNL A   1      42.357  29.401  29.881  1.00  0.00    -0.020 A 
ATOM    102  C   UNL A   1      42.666  30.287  28.869  1.00  0.00     0.087 A 
ATOM    103  C   UNL A   1      43.077  28.194  29.615  1.00  0.00     0.003 A 
ATOM    104  N   UNL A   1      43.511  29.659  27.994  1.00  0.00    -0.361 N 
ATOM    105  C   UNL A   1      43.756  28.372  28.410  1.00  0.00     0.046 A 
ATOM    106  C   UNL A   1      43.176  26.945  30.264  1.00  0.00     0.010 A 
ATOM    107  H   UNL A   1      43.888  30.071  27.182  1.00  0.00     0.166 HD
ATOM    108  C   UNL A   1      44.508  27.357  27.807  1.00  0.00     0.026 A 
ATOM    109  C   UNL A   1      43.933  25.922  29.680  1.00  0.00     0.001 A 
ATOM    110  C   UNL A   1      44.581  26.125  28.464  1.00  0.00     0.002 A 
ENDBRANCH 100 101
ENDBRANCH  88 100
ENDBRANCH  85  88
ENDBRANCH  83  84
BRANCH  83 111
ATOM    111  C   UNL A   1      38.669  31.711  30.866  1.00  0.00     0.101 C 
BRANCH 111 112
ATOM    112  S   UNL A   1      39.622  33.150  31.445  1.00  0.00    -0.177 SA
ATOM    113  H   UNL A   1      40.951  32.866  31.386  1.00  0.00     0.102 HD
ENDBRANCH 111 112
ENDBRANCH  83 111
ENDBRANCH  80  83
ENDBRANCH  78  79
BRANCH  78 114
ATOM    114  C   UNL A   1      34.420  33.469  30.280  1.00  0.00     0.191 C 
BRANCH 114 115
ATOM    115  O   UNL A   1      34.704  32.998  28.960  1.00  0.00    -0.394 OA
ATOM    116  H   UNL A   1      33.882  32.697  28.542  1.00  0.00     0.210 HD
ENDBRANCH 114 115
ENDBRANCH  78 114
ENDBRANCH   2  78
TORSDOF 23
ENDMDL
