MODEL 1
REMARK VINA RESULT:     -12.5      0.000      0.000
REMARK SMILES C[C@@H]1CCC[C@]1(Sc1ccc(F)cc1)C(=O)NCCCCNC(=O)c1ccc(-c2c3nc(c(-c4c(F)c(F)c(F)c(F)c4F)c4ccc([nH]4)c(-c4c(F)c(F)c(F)c(F)c4F)c4nc(c(-c5c(F)c(F)c(F)c(F)c5F)c5ccc2[nH]5)C=C4)C=C3)cc1
REMARK SMILES IDX 19 1 18 2 17 3 15 4 16 5 6 7 1 8 2 9 3 10 4 11 5 12 7 13
REMARK SMILES IDX 8 14 9 15 14 16 10 17 13 18 11 19 12 20 20 21 21 22 22 23
REMARK SMILES IDX 23 24 24 26 25 27 26 28 87 29 27 30 86 31 28 32 29 33 30 34
REMARK SMILES IDX 80 35 31 36 85 37 79 38 81 39 32 40 84 41 78 42 77 43 33 45
REMARK SMILES IDX 65 46 45 47 64 48 46 49 49 50 63 51 82 52 47 53 48 54 62 56
REMARK SMILES IDX 83 57 50 58 34 59 35 60 43 61 36 62 37 63 41 64 44 65 38 66
REMARK SMILES IDX 39 67 42 68 40 69 66 70 67 71 75 72 68 73 69 74 73 75 76 76
REMARK SMILES IDX 70 77 71 78 74 79 72 80 51 81 52 82 60 83 53 84 54 85 58 86
REMARK SMILES IDX 61 87 55 88 56 89 59 90 57 91
REMARK H PARENT 17 6 22 25 81 44 49 55
REMARK Flexibility Score: inf
ROOT
ATOM      1  C   UNL A   1      31.797  30.369  26.872  1.00  0.00     0.023 C 
ENDROOT
BRANCH   1   2
ATOM      2  C   UNL A   1      32.433  29.702  25.657  1.00  0.00     0.116 C 
BRANCH   2   3
ATOM      3  N   UNL A   1      31.657  29.887  24.443  1.00  0.00    -0.355 N 
ATOM      4  C   UNL A   1      31.276  28.982  23.485  1.00  0.00     0.236 C 
ATOM      5  O   UNL A   1      30.528  29.400  22.596  1.00  0.00    -0.273 OA
ATOM      6  H   UNL A   1      31.357  30.810  24.280  1.00  0.00     0.163 HD
BRANCH   4   7
ATOM      7  C   UNL A   1      31.783  27.506  23.522  1.00  0.00     0.102 C 
ATOM      8  C   UNL A   1      33.925  28.485  22.434  1.00  0.00     0.009 C 
ATOM      9  C   UNL A   1      33.327  27.419  23.376  1.00  0.00     0.012 C 
ATOM     10  C   UNL A   1      33.603  26.047  22.744  1.00  0.00     0.005 C 
ATOM     11  C   UNL A   1      32.330  25.636  22.018  1.00  0.00     0.002 C 
ATOM     12  C   UNL A   1      31.294  26.725  22.286  1.00  0.00     0.028 C 
BRANCH   7  13
ATOM     13  S   UNL A   1      30.927  26.801  25.062  1.00  0.00    -0.109 SA
BRANCH  13  14
ATOM     14  C   UNL A   1      31.598  25.191  25.356  1.00  0.00     0.008 A 
ATOM     15  C   UNL A   1      32.760  25.005  26.114  1.00  0.00     0.018 A 
ATOM     16  C   UNL A   1      30.849  24.073  24.969  1.00  0.00     0.018 A 
ATOM     17  C   UNL A   1      33.207  23.716  26.412  1.00  0.00     0.040 A 
ATOM     18  C   UNL A   1      31.283  22.784  25.285  1.00  0.00     0.040 A 
ATOM     19  C   UNL A   1      32.466  22.618  25.994  1.00  0.00     0.123 A 
ATOM     20  F   UNL A   1      32.886  21.383  26.296  1.00  0.00    -0.207 F 
ENDBRANCH  13  14
ENDBRANCH   7  13
ENDBRANCH   4   7
ENDBRANCH   2   3
ENDBRANCH   1   2
BRANCH   1  21
ATOM     21  C   UNL A   1      31.647  31.885  26.765  1.00  0.00     0.023 C 
BRANCH  21  22
ATOM     22  C   UNL A   1      32.823  32.686  27.308  1.00  0.00     0.116 C 
BRANCH  22  23
ATOM     23  N   UNL A   1      32.474  34.060  27.638  1.00  0.00    -0.352 N 
ATOM     24  C   UNL A   1      33.023  34.878  28.596  1.00  0.00     0.251 C 
ATOM     25  H   UNL A   1      31.747  34.456  27.105  1.00  0.00     0.163 HD
ATOM     26  O   UNL A   1      32.534  35.977  28.836  1.00  0.00    -0.269 OA
BRANCH  24  27
ATOM     27  C   UNL A   1      34.194  34.405  29.359  1.00  0.00     0.039 A 
ATOM     28  C   UNL A   1      33.992  33.744  30.574  1.00  0.00     0.014 A 
ATOM     29  C   UNL A   1      35.484  34.580  28.851  1.00  0.00     0.014 A 
ATOM     30  C   UNL A   1      35.083  33.195  31.248  1.00  0.00     0.010 A 
ATOM     31  C   UNL A   1      36.559  33.970  29.485  1.00  0.00     0.010 A 
ATOM     32  C   UNL A   1      36.370  33.273  30.689  1.00  0.00    -0.014 A 
BRANCH  32  33
ATOM     33  C   UNL A   1      37.546  32.658  31.348  1.00  0.00     0.031 A 
ATOM     34  C   UNL A   1      38.278  31.542  30.660  1.00  0.00     0.074 A 
ATOM     35  C   UNL A   1      37.901  33.038  32.589  1.00  0.00     0.049 A 
ATOM     36  N   UNL A   1      39.231  30.770  31.116  1.00  0.00    -0.248 NA
ATOM     37  C   UNL A   1      37.861  31.235  29.283  1.00  0.00     0.031 C 
ATOM     38  C   UNL A   1      37.254  34.095  33.367  1.00  0.00     0.029 A 
ATOM     39  N   UNL A   1      38.887  32.568  33.420  1.00  0.00    -0.354 N 
ATOM     40  C   UNL A   1      39.508  29.875  30.092  1.00  0.00     0.074 A 
ATOM     41  C   UNL A   1      38.592  30.164  29.013  1.00  0.00     0.031 C 
ATOM     42  C   UNL A   1      37.877  34.210  34.551  1.00  0.00     0.029 A 
ATOM     43  C   UNL A   1      38.934  33.206  34.635  1.00  0.00     0.049 A 
ATOM     44  H   UNL A   1      39.502  31.841  33.169  1.00  0.00     0.167 HD
ATOM     45  C   UNL A   1      40.461  28.914  30.050  1.00  0.00     0.037 A 
ATOM     46  C   UNL A   1      39.735  32.998  35.697  1.00  0.00     0.037 A 
ATOM     47  C   UNL A   1      41.389  28.651  31.116  1.00  0.00     0.049 A 
ATOM     48  C   UNL A   1      40.771  31.911  35.639  1.00  0.00     0.074 A 
ATOM     49  C   UNL A   1      42.414  27.723  31.157  1.00  0.00     0.029 A 
ATOM     50  N   UNL A   1      41.407  29.325  32.329  1.00  0.00    -0.354 N 
ATOM     51  N   UNL A   1      41.040  31.081  34.660  1.00  0.00    -0.248 NA
ATOM     52  C   UNL A   1      41.611  31.724  36.830  1.00  0.00     0.031 C 
ATOM     53  C   UNL A   1      43.031  27.810  32.408  1.00  0.00     0.029 A 
ATOM     54  C   UNL A   1      42.420  28.825  33.129  1.00  0.00     0.049 A 
ATOM     55  H   UNL A   1      40.793  30.050  32.583  1.00  0.00     0.167 HD
ATOM     56  C   UNL A   1      42.096  30.296  35.102  1.00  0.00     0.074 A 
ATOM     57  C   UNL A   1      42.419  30.746  36.441  1.00  0.00     0.031 C 
ATOM     58  C   UNL A   1      42.739  29.297  34.453  1.00  0.00     0.037 A 
BRANCH  45  59
ATOM     59  C   UNL A   1      40.548  28.083  28.804  1.00  0.00     0.064 A 
ATOM     60  C   UNL A   1      41.315  28.514  27.711  1.00  0.00     0.173 A 
ATOM     61  C   UNL A   1      39.851  26.872  28.681  1.00  0.00     0.173 A 
ATOM     62  F   UNL A   1      41.998  29.667  27.775  1.00  0.00    -0.203 F 
ATOM     63  C   UNL A   1      41.380  27.761  26.541  1.00  0.00     0.198 A 
ATOM     64  C   UNL A   1      39.943  26.107  27.522  1.00  0.00     0.198 A 
ATOM     65  F   UNL A   1      39.114  26.410  29.702  1.00  0.00    -0.203 F 
ATOM     66  F   UNL A   1      42.104  28.202  25.503  1.00  0.00    -0.200 F 
ATOM     67  C   UNL A   1      40.702  26.555  26.451  1.00  0.00     0.200 A 
ATOM     68  F   UNL A   1      39.311  24.928  27.448  1.00  0.00    -0.200 F 
ATOM     69  F   UNL A   1      40.784  25.821  25.333  1.00  0.00    -0.200 F 
ENDBRANCH  45  59
BRANCH  46  70
ATOM     70  C   UNL A   1      39.609  33.880  36.886  1.00  0.00     0.064 A 
ATOM     71  C   UNL A   1      38.823  33.520  37.988  1.00  0.00     0.173 A 
ATOM     72  C   UNL A   1      40.237  35.132  36.908  1.00  0.00     0.173 A 
ATOM     73  F   UNL A   1      38.198  32.334  38.010  1.00  0.00    -0.203 F 
ATOM     74  C   UNL A   1      38.648  34.393  39.061  1.00  0.00     0.198 A 
ATOM     75  C   UNL A   1      40.078  35.996  37.990  1.00  0.00     0.198 A 
ATOM     76  F   UNL A   1      41.013  35.511  35.883  1.00  0.00    -0.203 F 
ATOM     77  F   UNL A   1      37.860  34.043  40.087  1.00  0.00    -0.200 F 
ATOM     78  C   UNL A   1      39.276  35.630  39.061  1.00  0.00     0.200 A 
ATOM     79  F   UNL A   1      40.701  37.183  37.994  1.00  0.00    -0.200 F 
ATOM     80  F   UNL A   1      39.108  36.469  40.092  1.00  0.00    -0.200 F 
ENDBRANCH  46  70
BRANCH  58  81
ATOM     81  C   UNL A   1      43.889  28.633  35.151  1.00  0.00     0.064 A 
ATOM     82  C   UNL A   1      43.661  27.537  35.998  1.00  0.00     0.173 A 
ATOM     83  C   UNL A   1      45.189  29.149  35.074  1.00  0.00     0.173 A 
ATOM     84  F   UNL A   1      42.431  27.014  36.110  1.00  0.00    -0.203 F 
ATOM     85  C   UNL A   1      44.691  26.999  36.763  1.00  0.00     0.198 A 
ATOM     86  C   UNL A   1      46.222  28.592  35.823  1.00  0.00     0.198 A 
ATOM     87  F   UNL A   1      45.457  30.189  34.269  1.00  0.00    -0.203 F 
ATOM     88  F   UNL A   1      44.442  25.979  37.597  1.00  0.00    -0.200 F 
ATOM     89  C   UNL A   1      45.970  27.526  36.676  1.00  0.00     0.200 A 
ATOM     90  F   UNL A   1      47.463  29.091  35.725  1.00  0.00    -0.200 F 
ATOM     91  F   UNL A   1      46.961  27.010  37.416  1.00  0.00    -0.200 F 
ENDBRANCH  58  81
ENDBRANCH  32  33
ENDBRANCH  24  27
ENDBRANCH  22  23
ENDBRANCH  21  22
ENDBRANCH   1  21
TORSDOF 13
ENDMDL
MODEL 2
REMARK VINA RESULT:     -12.4      0.282      1.636
REMARK SMILES C[C@@H]1CCC[C@]1(Sc1ccc(F)cc1)C(=O)NCCCCNC(=O)c1ccc(-c2c3nc(c(-c4c(F)c(F)c(F)c(F)c4F)c4ccc([nH]4)c(-c4c(F)c(F)c(F)c(F)c4F)c4nc(c(-c5c(F)c(F)c(F)c(F)c5F)c5ccc2[nH]5)C=C4)C=C3)cc1
REMARK SMILES IDX 19 1 18 2 17 3 15 4 16 5 6 7 1 8 2 9 3 10 4 11 5 12 7 13
REMARK SMILES IDX 8 14 9 15 14 16 10 17 13 18 11 19 12 20 20 21 21 22 22 23
REMARK SMILES IDX 23 24 24 26 25 27 26 28 87 29 27 30 86 31 28 32 29 33 30 34
REMARK SMILES IDX 80 35 31 36 85 37 79 38 81 39 32 40 84 41 78 42 77 43 33 45
REMARK SMILES IDX 65 46 45 47 64 48 46 49 49 50 63 51 82 52 47 53 48 54 62 56
REMARK SMILES IDX 83 57 50 58 34 59 35 60 43 61 36 62 37 63 41 64 44 65 38 66
REMARK SMILES IDX 39 67 42 68 40 69 66 70 67 71 75 72 68 73 69 74 73 75 76 76
REMARK SMILES IDX 70 77 71 78 74 79 72 80 51 81 52 82 60 83 53 84 54 85 58 86
REMARK SMILES IDX 61 87 55 88 56 89 59 90 57 91
REMARK H PARENT 17 6 22 25 81 44 49 55
REMARK Flexibility Score: inf
ROOT
ATOM      1  C   UNL A   1      31.777  30.246  26.698  1.00  0.00     0.023 C 
ENDROOT
BRANCH   1   2
ATOM      2  C   UNL A   1      32.410  29.557  25.494  1.00  0.00     0.116 C 
BRANCH   2   3
ATOM      3  N   UNL A   1      31.677  29.789  24.262  1.00  0.00    -0.355 N 
ATOM      4  C   UNL A   1      31.302  28.916  23.273  1.00  0.00     0.236 C 
ATOM      5  O   UNL A   1      30.593  29.373  22.372  1.00  0.00    -0.273 OA
ATOM      6  H   UNL A   1      31.405  30.724  24.112  1.00  0.00     0.163 HD
BRANCH   4   7
ATOM      7  C   UNL A   1      31.769  27.427  23.291  1.00  0.00     0.102 C 
ATOM      8  C   UNL A   1      33.998  28.383  22.368  1.00  0.00     0.009 C 
ATOM      9  C   UNL A   1      33.317  27.303  23.236  1.00  0.00     0.012 C 
ATOM     10  C   UNL A   1      33.597  25.945  22.576  1.00  0.00     0.005 C 
ATOM     11  C   UNL A   1      32.361  25.591  21.761  1.00  0.00     0.002 C 
ATOM     12  C   UNL A   1      31.338  26.698  22.003  1.00  0.00     0.028 C 
BRANCH   7  13
ATOM     13  S   UNL A   1      30.804  26.696  24.752  1.00  0.00    -0.109 SA
BRANCH  13  14
ATOM     14  C   UNL A   1      31.558  25.152  25.172  1.00  0.00     0.008 A 
ATOM     15  C   UNL A   1      32.638  25.077  26.059  1.00  0.00     0.018 A 
ATOM     16  C   UNL A   1      30.944  23.969  24.742  1.00  0.00     0.018 A 
ATOM     17  C   UNL A   1      33.145  23.835  26.448  1.00  0.00     0.040 A 
ATOM     18  C   UNL A   1      31.436  22.727  25.147  1.00  0.00     0.040 A 
ATOM     19  C   UNL A   1      32.541  22.672  25.987  1.00  0.00     0.123 A 
ATOM     20  F   UNL A   1      33.016  21.482  26.374  1.00  0.00    -0.207 F 
ENDBRANCH  13  14
ENDBRANCH   7  13
ENDBRANCH   4   7
ENDBRANCH   2   3
ENDBRANCH   1   2
BRANCH   1  21
ATOM     21  C   UNL A   1      31.686  31.766  26.592  1.00  0.00     0.023 C 
BRANCH  21  22
ATOM     22  C   UNL A   1      32.819  32.525  27.272  1.00  0.00     0.116 C 
BRANCH  22  23
ATOM     23  N   UNL A   1      32.472  33.901  27.595  1.00  0.00    -0.352 N 
ATOM     24  C   UNL A   1      33.032  34.729  28.537  1.00  0.00     0.251 C 
ATOM     25  H   UNL A   1      31.737  34.291  27.068  1.00  0.00     0.163 HD
ATOM     26  O   UNL A   1      32.544  35.829  28.774  1.00  0.00    -0.269 OA
BRANCH  24  27
ATOM     27  C   UNL A   1      34.215  34.266  29.288  1.00  0.00     0.039 A 
ATOM     28  C   UNL A   1      34.030  33.597  30.501  1.00  0.00     0.014 A 
ATOM     29  C   UNL A   1      35.498  34.457  28.771  1.00  0.00     0.014 A 
ATOM     30  C   UNL A   1      35.132  33.056  31.164  1.00  0.00     0.010 A 
ATOM     31  C   UNL A   1      36.585  33.856  29.392  1.00  0.00     0.010 A 
ATOM     32  C   UNL A   1      36.413  33.151  30.595  1.00  0.00    -0.014 A 
BRANCH  32  33
ATOM     33  C   UNL A   1      37.602  32.546  31.241  1.00  0.00     0.031 A 
ATOM     34  C   UNL A   1      38.338  31.439  30.543  1.00  0.00     0.074 A 
ATOM     35  C   UNL A   1      37.965  32.927  32.480  1.00  0.00     0.049 A 
ATOM     36  N   UNL A   1      39.303  30.675  30.989  1.00  0.00    -0.248 NA
ATOM     37  C   UNL A   1      37.911  31.132  29.170  1.00  0.00     0.031 C 
ATOM     38  C   UNL A   1      37.315  33.975  33.267  1.00  0.00     0.029 A 
ATOM     39  N   UNL A   1      38.963  32.464  33.300  1.00  0.00    -0.354 N 
ATOM     40  C   UNL A   1      39.579  29.786  29.960  1.00  0.00     0.074 A 
ATOM     41  C   UNL A   1      38.650  30.068  28.890  1.00  0.00     0.031 C 
ATOM     42  C   UNL A   1      37.948  34.093  34.445  1.00  0.00     0.029 A 
ATOM     43  C   UNL A   1      39.016  33.100  34.516  1.00  0.00     0.049 A 
ATOM     44  H   UNL A   1      39.583  31.744  33.042  1.00  0.00     0.167 HD
ATOM     45  C   UNL A   1      40.541  28.834  29.906  1.00  0.00     0.037 A 
ATOM     46  C   UNL A   1      39.829  32.898  35.570  1.00  0.00     0.037 A 
ATOM     47  C   UNL A   1      41.482  28.578  30.962  1.00  0.00     0.049 A 
ATOM     48  C   UNL A   1      40.875  31.820  35.499  1.00  0.00     0.074 A 
ATOM     49  C   UNL A   1      42.516  27.659  30.991  1.00  0.00     0.029 A 
ATOM     50  N   UNL A   1      41.505  29.248  32.177  1.00  0.00    -0.354 N 
ATOM     51  N   UNL A   1      41.143  30.996  34.515  1.00  0.00    -0.248 NA
ATOM     52  C   UNL A   1      41.728  31.639  36.682  1.00  0.00     0.031 C 
ATOM     53  C   UNL A   1      43.144  27.750  32.236  1.00  0.00     0.029 A 
ATOM     54  C   UNL A   1      42.530  28.757  32.967  1.00  0.00     0.049 A 
ATOM     55  H   UNL A   1      40.886  29.968  32.438  1.00  0.00     0.167 HD
ATOM     56  C   UNL A   1      42.211  30.220  34.946  1.00  0.00     0.074 A 
ATOM     57  C   UNL A   1      42.542  30.670  36.283  1.00  0.00     0.031 C 
ATOM     58  C   UNL A   1      42.857  29.229  34.288  1.00  0.00     0.037 A 
BRANCH  45  59
ATOM     59  C   UNL A   1      40.624  28.007  28.657  1.00  0.00     0.064 A 
ATOM     60  C   UNL A   1      39.926  26.795  28.556  1.00  0.00     0.173 A 
ATOM     61  C   UNL A   1      41.416  28.402  27.569  1.00  0.00     0.173 A 
ATOM     62  F   UNL A   1      39.158  26.369  29.570  1.00  0.00    -0.203 F 
ATOM     63  C   UNL A   1      40.019  26.008  27.410  1.00  0.00     0.198 A 
ATOM     64  C   UNL A   1      41.483  27.629  26.413  1.00  0.00     0.198 A 
ATOM     65  F   UNL A   1      42.093  29.560  27.610  1.00  0.00    -0.203 F 
ATOM     66  F   UNL A   1      39.360  24.844  27.344  1.00  0.00    -0.200 F 
ATOM     67  C   UNL A   1      40.790  26.430  26.338  1.00  0.00     0.200 A 
ATOM     68  F   UNL A   1      42.204  28.053  25.367  1.00  0.00    -0.200 F 
ATOM     69  F   UNL A   1      40.860  25.684  25.227  1.00  0.00    -0.200 F 
ENDBRANCH  45  59
BRANCH  46  70
ATOM     70  C   UNL A   1      39.706  33.775  36.762  1.00  0.00     0.064 A 
ATOM     71  C   UNL A   1      38.908  33.420  37.858  1.00  0.00     0.173 A 
ATOM     72  C   UNL A   1      40.348  35.020  36.794  1.00  0.00     0.173 A 
ATOM     73  F   UNL A   1      38.269  32.241  37.870  1.00  0.00    -0.203 F 
ATOM     74  C   UNL A   1      38.737  34.290  38.933  1.00  0.00     0.198 A 
ATOM     75  C   UNL A   1      40.193  35.881  37.879  1.00  0.00     0.198 A 
ATOM     76  F   UNL A   1      41.136  35.394  35.776  1.00  0.00    -0.203 F 
ATOM     77  F   UNL A   1      37.939  33.944  39.953  1.00  0.00    -0.200 F 
ATOM     78  C   UNL A   1      39.379  35.519  38.943  1.00  0.00     0.200 A 
ATOM     79  F   UNL A   1      40.829  37.060  37.893  1.00  0.00    -0.200 F 
ATOM     80  F   UNL A   1      39.215  36.355  39.977  1.00  0.00    -0.200 F 
ENDBRANCH  46  70
BRANCH  58  81
ATOM     81  C   UNL A   1      44.020  28.575  34.973  1.00  0.00     0.064 A 
ATOM     82  C   UNL A   1      45.323  29.053  34.759  1.00  0.00     0.173 A 
ATOM     83  C   UNL A   1      43.860  27.415  35.742  1.00  0.00     0.173 A 
ATOM     84  F   UNL A   1      45.526  30.156  34.023  1.00  0.00    -0.203 F 
ATOM     85  C   UNL A   1      46.426  28.375  35.271  1.00  0.00     0.198 A 
ATOM     86  C   UNL A   1      44.965  26.753  36.272  1.00  0.00     0.198 A 
ATOM     87  F   UNL A   1      42.633  26.928  35.983  1.00  0.00    -0.203 F 
ATOM     88  F   UNL A   1      47.663  28.826  35.019  1.00  0.00    -0.200 F 
ATOM     89  C   UNL A   1      46.246  27.227  36.026  1.00  0.00     0.200 A 
ATOM     90  F   UNL A   1      44.790  25.653  37.017  1.00  0.00    -0.200 F 
ATOM     91  F   UNL A   1      47.309  26.573  36.515  1.00  0.00    -0.200 F 
ENDBRANCH  58  81
ENDBRANCH  32  33
ENDBRANCH  24  27
ENDBRANCH  22  23
ENDBRANCH  21  22
ENDBRANCH   1  21
TORSDOF 13
ENDMDL
MODEL 3
REMARK VINA RESULT:     -12.4      6.013     10.839
REMARK SMILES C[C@@H]1CCC[C@]1(Sc1ccc(F)cc1)C(=O)NCCCCNC(=O)c1ccc(-c2c3nc(c(-c4c(F)c(F)c(F)c(F)c4F)c4ccc([nH]4)c(-c4c(F)c(F)c(F)c(F)c4F)c4nc(c(-c5c(F)c(F)c(F)c(F)c5F)c5ccc2[nH]5)C=C4)C=C3)cc1
REMARK SMILES IDX 19 1 18 2 17 3 15 4 16 5 6 7 1 8 2 9 3 10 4 11 5 12 7 13
REMARK SMILES IDX 8 14 9 15 14 16 10 17 13 18 11 19 12 20 20 21 21 22 22 23
REMARK SMILES IDX 23 24 24 26 25 27 26 28 87 29 27 30 86 31 28 32 29 33 30 34
REMARK SMILES IDX 80 35 31 36 85 37 79 38 81 39 32 40 84 41 78 42 77 43 33 45
REMARK SMILES IDX 65 46 45 47 64 48 46 49 49 50 63 51 82 52 47 53 48 54 62 56
REMARK SMILES IDX 83 57 50 58 34 59 35 60 43 61 36 62 37 63 41 64 44 65 38 66
REMARK SMILES IDX 39 67 42 68 40 69 66 70 67 71 75 72 68 73 69 74 73 75 76 76
REMARK SMILES IDX 70 77 71 78 74 79 72 80 51 81 52 82 60 83 53 84 54 85 58 86
REMARK SMILES IDX 61 87 55 88 56 89 59 90 57 91
REMARK H PARENT 17 6 22 25 81 44 49 55
REMARK Flexibility Score: inf
ROOT
ATOM      1  C   UNL A   1      37.293  21.415  24.639  1.00  0.00     0.023 C 
ENDROOT
BRANCH   1   2
ATOM      2  C   UNL A   1      36.135  21.788  25.559  1.00  0.00     0.116 C 
BRANCH   2   3
ATOM      3  N   UNL A   1      35.166  20.716  25.707  1.00  0.00    -0.355 N 
ATOM      4  C   UNL A   1      33.797  20.735  25.610  1.00  0.00     0.236 C 
ATOM      5  O   UNL A   1      33.223  19.645  25.687  1.00  0.00    -0.273 OA
ATOM      6  H   UNL A   1      35.552  19.834  25.910  1.00  0.00     0.163 HD
BRANCH   4   7
ATOM      7  C   UNL A   1      33.020  22.075  25.427  1.00  0.00     0.102 C 
ATOM      8  C   UNL A   1      33.318  22.302  27.994  1.00  0.00     0.009 C 
ATOM      9  C   UNL A   1      33.215  23.030  26.637  1.00  0.00     0.012 C 
ATOM     10  C   UNL A   1      31.950  23.900  26.682  1.00  0.00     0.005 C 
ATOM     11  C   UNL A   1      30.856  23.119  25.967  1.00  0.00     0.002 C 
ATOM     12  C   UNL A   1      31.497  21.836  25.442  1.00  0.00     0.028 C 
BRANCH   7  13
ATOM     13  S   UNL A   1      33.528  22.627  23.683  1.00  0.00    -0.109 SA
BRANCH  13  14
ATOM     14  C   UNL A   1      33.088  24.332  23.512  1.00  0.00     0.008 A 
ATOM     15  C   UNL A   1      33.931  25.358  23.955  1.00  0.00     0.018 A 
ATOM     16  C   UNL A   1      31.953  24.658  22.760  1.00  0.00     0.018 A 
ATOM     17  C   UNL A   1      33.601  26.694  23.715  1.00  0.00     0.040 A 
ATOM     18  C   UNL A   1      31.634  25.992  22.500  1.00  0.00     0.040 A 
ATOM     19  C   UNL A   1      32.455  26.998  22.991  1.00  0.00     0.123 A 
ATOM     20  F   UNL A   1      32.149  28.278  22.746  1.00  0.00    -0.207 F 
ENDBRANCH  13  14
ENDBRANCH   7  13
ENDBRANCH   4   7
ENDBRANCH   2   3
ENDBRANCH   1   2
BRANCH   1  21
ATOM     21  C   UNL A   1      38.039  20.143  25.032  1.00  0.00     0.023 C 
BRANCH  21  22
ATOM     22  C   UNL A   1      39.229  20.357  25.959  1.00  0.00     0.116 C 
BRANCH  22  23
ATOM     23  N   UNL A   1      40.197  19.271  25.906  1.00  0.00    -0.352 N 
ATOM     24  C   UNL A   1      41.558  19.326  26.086  1.00  0.00     0.251 C 
ATOM     25  H   UNL A   1      39.827  18.378  25.716  1.00  0.00     0.163 HD
ATOM     26  O   UNL A   1      42.256  18.336  25.888  1.00  0.00    -0.269 OA
BRANCH  24  27
ATOM     27  C   UNL A   1      42.179  20.601  26.492  1.00  0.00     0.039 A 
ATOM     28  C   UNL A   1      42.676  21.458  25.506  1.00  0.00     0.014 A 
ATOM     29  C   UNL A   1      42.229  20.964  27.839  1.00  0.00     0.014 A 
ATOM     30  C   UNL A   1      43.162  22.715  25.868  1.00  0.00     0.010 A 
ATOM     31  C   UNL A   1      42.644  22.242  28.191  1.00  0.00     0.010 A 
ATOM     32  C   UNL A   1      43.116  23.129  27.210  1.00  0.00    -0.014 A 
BRANCH  32  33
ATOM     33  C   UNL A   1      43.575  24.474  27.627  1.00  0.00     0.031 A 
ATOM     34  C   UNL A   1      42.561  25.524  27.982  1.00  0.00     0.074 A 
ATOM     35  C   UNL A   1      44.886  24.778  27.607  1.00  0.00     0.049 A 
ATOM     36  N   UNL A   1      42.736  26.797  28.227  1.00  0.00    -0.248 NA
ATOM     37  C   UNL A   1      41.158  25.086  28.038  1.00  0.00     0.031 C 
ATOM     38  C   UNL A   1      45.964  23.851  27.260  1.00  0.00     0.029 A 
ATOM     39  N   UNL A   1      45.534  25.959  27.870  1.00  0.00    -0.354 N 
ATOM     40  C   UNL A   1      41.466  27.313  28.444  1.00  0.00     0.074 A 
ATOM     41  C   UNL A   1      40.527  26.231  28.250  1.00  0.00     0.031 C 
ATOM     42  C   UNL A   1      47.140  24.491  27.357  1.00  0.00     0.029 A 
ATOM     43  C   UNL A   1      46.898  25.883  27.727  1.00  0.00     0.049 A 
ATOM     44  H   UNL A   1      45.066  26.783  28.136  1.00  0.00     0.167 HD
ATOM     45  C   UNL A   1      41.119  28.573  28.796  1.00  0.00     0.037 A 
ATOM     46  C   UNL A   1      47.843  26.831  27.870  1.00  0.00     0.037 A 
ATOM     47  C   UNL A   1      42.061  29.637  29.016  1.00  0.00     0.049 A 
ATOM     48  C   UNL A   1      47.434  28.230  28.239  1.00  0.00     0.074 A 
ATOM     49  C   UNL A   1      41.812  30.940  29.409  1.00  0.00     0.029 A 
ATOM     50  N   UNL A   1      43.435  29.517  28.866  1.00  0.00    -0.354 N 
ATOM     51  N   UNL A   1      46.233  28.706  28.461  1.00  0.00    -0.248 NA
ATOM     52  C   UNL A   1      48.507  29.225  28.374  1.00  0.00     0.031 C 
ATOM     53  C   UNL A   1      43.032  31.619  29.464  1.00  0.00     0.029 A 
ATOM     54  C   UNL A   1      44.047  30.727  29.149  1.00  0.00     0.049 A 
ATOM     55  H   UNL A   1      43.905  28.695  28.598  1.00  0.00     0.167 HD
ATOM     56  C   UNL A   1      46.406  30.044  28.789  1.00  0.00     0.074 A 
ATOM     57  C   UNL A   1      47.830  30.307  28.736  1.00  0.00     0.031 C 
ATOM     58  C   UNL A   1      45.467  30.966  29.109  1.00  0.00     0.037 A 
BRANCH  45  59
ATOM     59  C   UNL A   1      39.658  28.863  28.973  1.00  0.00     0.064 A 
ATOM     60  C   UNL A   1      38.880  29.299  27.890  1.00  0.00     0.173 A 
ATOM     61  C   UNL A   1      39.031  28.733  30.221  1.00  0.00     0.173 A 
ATOM     62  F   UNL A   1      39.431  29.445  26.676  1.00  0.00    -0.203 F 
ATOM     63  C   UNL A   1      37.529  29.596  28.052  1.00  0.00     0.198 A 
ATOM     64  C   UNL A   1      37.674  28.999  30.373  1.00  0.00     0.198 A 
ATOM     65  F   UNL A   1      39.728  28.305  31.286  1.00  0.00    -0.203 F 
ATOM     66  F   UNL A   1      36.810  30.030  27.008  1.00  0.00    -0.200 F 
ATOM     67  C   UNL A   1      36.926  29.437  29.290  1.00  0.00     0.200 A 
ATOM     68  F   UNL A   1      37.087  28.817  31.564  1.00  0.00    -0.200 F 
ATOM     69  F   UNL A   1      35.620  29.700  29.440  1.00  0.00    -0.200 F 
ENDBRANCH  45  59
BRANCH  46  70
ATOM     70  C   UNL A   1      49.272  26.463  27.707  1.00  0.00     0.064 A 
ATOM     71  C   UNL A   1      50.116  26.282  28.811  1.00  0.00     0.173 A 
ATOM     72  C   UNL A   1      49.831  26.341  26.428  1.00  0.00     0.173 A 
ATOM     73  F   UNL A   1      49.629  26.394  30.055  1.00  0.00    -0.203 F 
ATOM     74  C   UNL A   1      51.474  26.018  28.641  1.00  0.00     0.198 A 
ATOM     75  C   UNL A   1      51.184  26.056  26.258  1.00  0.00     0.198 A 
ATOM     76  F   UNL A   1      49.057  26.488  25.343  1.00  0.00    -0.203 F 
ATOM     77  F   UNL A   1      52.269  25.887  29.711  1.00  0.00    -0.200 F 
ATOM     78  C   UNL A   1      52.007  25.905  27.365  1.00  0.00     0.200 A 
ATOM     79  F   UNL A   1      51.691  25.931  25.024  1.00  0.00    -0.200 F 
ATOM     80  F   UNL A   1      53.312  25.650  27.201  1.00  0.00    -0.200 F 
ENDBRANCH  46  70
BRANCH  58  81
ATOM     81  C   UNL A   1      45.933  32.345  29.469  1.00  0.00     0.064 A 
ATOM     82  C   UNL A   1      46.195  32.672  30.809  1.00  0.00     0.173 A 
ATOM     83  C   UNL A   1      46.007  33.366  28.513  1.00  0.00     0.173 A 
ATOM     84  F   UNL A   1      46.128  31.729  31.760  1.00  0.00    -0.203 F 
ATOM     85  C   UNL A   1      46.491  33.980  31.180  1.00  0.00     0.198 A 
ATOM     86  C   UNL A   1      46.326  34.669  28.886  1.00  0.00     0.198 A 
ATOM     87  F   UNL A   1      45.776  33.099  27.219  1.00  0.00    -0.203 F 
ATOM     88  F   UNL A   1      46.696  34.278  32.472  1.00  0.00    -0.200 F 
ATOM     89  C   UNL A   1      46.555  34.977  30.220  1.00  0.00     0.200 A 
ATOM     90  F   UNL A   1      46.407  35.630  27.954  1.00  0.00    -0.200 F 
ATOM     91  F   UNL A   1      46.836  36.238  30.579  1.00  0.00    -0.200 F 
ENDBRANCH  58  81
ENDBRANCH  32  33
ENDBRANCH  24  27
ENDBRANCH  22  23
ENDBRANCH  21  22
ENDBRANCH   1  21
TORSDOF 13
ENDMDL
