MODEL 1
REMARK VINA RESULT:     -11.7      0.000      0.000
REMARK SMILES [NH3+][C@](CCC[P@TB4](=O)([O-])[O-])(Cc1ccccc1)C(=O)NCCCCNC(=O)c1ccc(-c2c3nc(c(-c4c(F)c(F)c(F)c(F)c4F)c4ccc([nH]4)c(-c4c(F)c(F)c(F)c(F)c4F)c4nc(c(-c5c(F)c(F)c(F)c(F)c5F)c5ccc2[nH]5)C=C4)C=C3)cc1
REMARK SMILES IDX 20 1 19 2 17 3 18 4 2 6 1 7 10 11 11 12 12 13 16 14 13 15
REMARK SMILES IDX 15 16 14 17 3 18 4 19 5 20 6 21 7 22 8 23 9 24 21 25 22 26
REMARK SMILES IDX 23 27 24 28 25 29 26 31 27 32 28 33 89 34 29 35 88 36 30 37
REMARK SMILES IDX 31 38 32 39 82 40 33 41 87 42 81 43 83 44 34 45 86 46 80 47
REMARK SMILES IDX 79 48 35 50 67 51 47 52 66 53 48 54 51 55 65 56 84 57 49 58
REMARK SMILES IDX 50 59 64 61 85 62 52 63 36 64 37 65 45 66 38 67 39 68 43 69
REMARK SMILES IDX 46 70 40 71 41 72 44 73 42 74 68 75 69 76 77 77 70 78 71 79
REMARK SMILES IDX 75 80 78 81 72 82 73 83 76 84 74 85 53 86 54 87 62 88 55 89
REMARK SMILES IDX 56 90 60 91 63 92 57 93 58 94 61 95 59 96
REMARK H PARENT 19 5 1 8 1 9 1 10 24 30 83 49 51 60
REMARK Flexibility Score: inf
ROOT
ATOM      1  C   UNL A   1      31.973  29.710  25.478  1.00  0.00       nan C 
ENDROOT
BRANCH   1   2
ATOM      2  N   UNL A   1      31.171  28.502  25.381  1.00  0.00       nan N 
ATOM      3  C   UNL A   1      31.012  27.653  24.317  1.00  0.00       nan C 
ATOM      4  O   UNL A   1      30.345  26.631  24.501  1.00  0.00       nan OA
ATOM      5  H   UNL A   1      30.673  28.259  26.193  1.00  0.00       nan HD
BRANCH   3   6
ATOM      6  C   UNL A   1      31.680  27.985  22.944  1.00  0.00       nan C 
BRANCH   6   7
ATOM      7  N   UNL A   1      31.043  27.073  21.967  1.00  0.00       nan N 
ATOM      8  H   UNL A   1      30.172  26.712  22.356  1.00  0.00       nan HD
ATOM      9  H   UNL A   1      31.674  26.296  21.766  1.00  0.00       nan HD
ATOM     10  H   UNL A   1      30.845  27.582  21.106  1.00  0.00       nan HD
ENDBRANCH   6   7
BRANCH   6  11
ATOM     11  C   UNL A   1      33.220  27.746  22.972  1.00  0.00       nan C 
BRANCH  11  12
ATOM     12  C   UNL A   1      33.645  26.423  23.574  1.00  0.00       nan A 
ATOM     13  C   UNL A   1      34.022  26.339  24.921  1.00  0.00       nan A 
ATOM     14  C   UNL A   1      33.736  25.274  22.775  1.00  0.00       nan A 
ATOM     15  C   UNL A   1      34.530  25.151  25.445  1.00  0.00       nan A 
ATOM     16  C   UNL A   1      34.243  24.085  23.302  1.00  0.00       nan A 
ATOM     17  C   UNL A   1      34.650  24.027  24.633  1.00  0.00       nan A 
ENDBRANCH  11  12
ENDBRANCH   6  11
BRANCH   6  18
ATOM     18  C   UNL A   1      31.365  29.457  22.565  1.00  0.00       nan C 
BRANCH  18  19
ATOM     19  C   UNL A   1      29.943  29.709  22.059  1.00  0.00       nan C 
BRANCH  19  20
ATOM     20  C   UNL A   1      28.982  30.246  23.112  1.00  0.00       nan C 
BRANCH  20  21
ATOM     21  P   UNL A   1      28.635  32.030  22.900  1.00  0.00       nan P 
ATOM     22  O   UNL A   1      28.554  31.886  21.381  1.00  0.00       nan OA
ATOM     23  O   UNL A   1      27.102  31.877  23.450  1.00  0.00       nan OA
ATOM     24  O   UNL A   1      28.307  33.717  22.699  1.00  0.00       nan OA
ENDBRANCH  20  21
ENDBRANCH  19  20
ENDBRANCH  18  19
ENDBRANCH   6  18
ENDBRANCH   3   6
ENDBRANCH   1   2
BRANCH   1  25
ATOM     25  C   UNL A   1      31.804  30.399  26.824  1.00  0.00       nan C 
BRANCH  25  26
ATOM     26  C   UNL A   1      31.620  31.901  26.714  1.00  0.00       nan C 
BRANCH  26  27
ATOM     27  C   UNL A   1      32.795  32.701  27.248  1.00  0.00       nan C 
BRANCH  27  28
ATOM     28  N   UNL A   1      32.446  34.075  27.586  1.00  0.00       nan N 
ATOM     29  C   UNL A   1      32.996  34.865  28.568  1.00  0.00       inf C 
ATOM     30  H   UNL A   1      31.731  34.486  27.048  1.00  0.00       inf HD
ATOM     31  O   UNL A   1      32.544  35.960  28.841  1.00  0.00    -0.269 OA
BRANCH  29  32
ATOM     32  C   UNL A   1      34.142  34.310  29.307  1.00  0.00     0.039 A 
ATOM     33  C   UNL A   1      33.903  33.492  30.410  1.00  0.00     0.014 A 
ATOM     34  C   UNL A   1      35.435  34.504  28.812  1.00  0.00     0.014 A 
ATOM     35  C   UNL A   1      34.972  32.809  30.989  1.00  0.00     0.010 A 
ATOM     36  C   UNL A   1      36.477  33.756  29.333  1.00  0.00     0.010 A 
ATOM     37  C   UNL A   1      36.257  32.910  30.432  1.00  0.00    -0.014 A 
BRANCH  37  38
ATOM     38  C   UNL A   1      37.408  32.174  31.002  1.00  0.00     0.031 A 
ATOM     39  C   UNL A   1      37.911  32.552  32.366  1.00  0.00     0.074 A 
ATOM     40  C   UNL A   1      38.036  31.233  30.274  1.00  0.00     0.049 A 
ATOM     41  N   UNL A   1      38.972  32.132  33.004  1.00  0.00    -0.248 NA
ATOM     42  C   UNL A   1      37.136  33.571  33.094  1.00  0.00     0.031 C 
ATOM     43  C   UNL A   1      37.661  30.812  28.922  1.00  0.00     0.029 A 
ATOM     44  N   UNL A   1      39.136  30.467  30.567  1.00  0.00    -0.354 N 
ATOM     45  C   UNL A   1      39.000  32.848  34.192  1.00  0.00     0.074 A 
ATOM     46  C   UNL A   1      37.889  33.772  34.163  1.00  0.00     0.031 C 
ATOM     47  C   UNL A   1      38.504  29.849  28.512  1.00  0.00     0.029 A 
ATOM     48  C   UNL A   1      39.499  29.613  29.554  1.00  0.00     0.049 A 
ATOM     49  H   UNL A   1      39.621  30.526  31.421  1.00  0.00     0.167 HD
ATOM     50  C   UNL A   1      39.860  32.724  35.230  1.00  0.00     0.037 A 
ATOM     51  C   UNL A   1      40.527  28.746  29.479  1.00  0.00     0.037 A 
ATOM     52  C   UNL A   1      40.939  31.775  35.268  1.00  0.00     0.049 A 
ATOM     53  C   UNL A   1      41.467  28.627  30.649  1.00  0.00     0.074 A 
ATOM     54  C   UNL A   1      41.843  31.538  36.287  1.00  0.00     0.029 A 
ATOM     55  N   UNL A   1      41.252  30.900  34.238  1.00  0.00    -0.354 N 
ATOM     56  N   UNL A   1      41.456  29.272  31.790  1.00  0.00    -0.248 NA
ATOM     57  C   UNL A   1      42.560  27.652  30.523  1.00  0.00     0.031 C 
ATOM     58  C   UNL A   1      42.724  30.538  35.862  1.00  0.00     0.029 A 
ATOM     59  C   UNL A   1      42.341  30.124  34.596  1.00  0.00     0.049 A 
ATOM     60  H   UNL A   1      40.772  30.840  33.381  1.00  0.00     0.167 HD
ATOM     61  C   UNL A   1      42.511  28.758  32.530  1.00  0.00     0.074 A 
ATOM     62  C   UNL A   1      43.138  27.740  31.713  1.00  0.00     0.031 C 
ATOM     63  C   UNL A   1      42.926  29.096  33.775  1.00  0.00     0.037 A 
BRANCH  50  64
ATOM     64  C   UNL A   1      39.653  33.624  36.412  1.00  0.00     0.064 A 
ATOM     65  C   UNL A   1      40.246  34.894  36.477  1.00  0.00     0.173 A 
ATOM     66  C   UNL A   1      38.832  33.227  37.477  1.00  0.00     0.173 A 
ATOM     67  F   UNL A   1      41.054  35.314  35.491  1.00  0.00    -0.203 F 
ATOM     68  C   UNL A   1      40.046  35.722  37.578  1.00  0.00     0.198 A 
ATOM     69  C   UNL A   1      38.610  34.070  38.562  1.00  0.00     0.198 A 
ATOM     70  F   UNL A   1      38.241  32.022  37.463  1.00  0.00    -0.203 F 
ATOM     71  F   UNL A   1      40.662  36.911  37.640  1.00  0.00    -0.200 F 
ATOM     72  C   UNL A   1      39.221  35.314  38.614  1.00  0.00     0.200 A 
ATOM     73  F   UNL A   1      37.804  33.678  39.558  1.00  0.00    -0.200 F 
ATOM     74  F   UNL A   1      39.022  36.115  39.669  1.00  0.00    -0.200 F 
ENDBRANCH  50  64
BRANCH  51  75
ATOM     75  C   UNL A   1      40.707  27.899  28.271  1.00  0.00     0.064 A 
ATOM     76  C   UNL A   1      40.144  26.617  28.204  1.00  0.00     0.173 A 
ATOM     77  C   UNL A   1      41.460  28.338  27.173  1.00  0.00     0.173 A 
ATOM     78  F   UNL A   1      39.431  26.144  29.238  1.00  0.00    -0.203 F 
ATOM     79  C   UNL A   1      40.352  25.796  27.098  1.00  0.00     0.198 A 
ATOM     80  C   UNL A   1      41.644  27.527  26.055  1.00  0.00     0.198 A 
ATOM     81  F   UNL A   1      42.015  29.559  27.184  1.00  0.00    -0.203 F 
ATOM     82  F   UNL A   1      39.846  24.554  27.084  1.00  0.00    -0.200 F 
ATOM     83  C   UNL A   1      41.098  26.252  26.023  1.00  0.00     0.200 A 
ATOM     84  F   UNL A   1      42.356  27.977  25.012  1.00  0.00    -0.200 F 
ATOM     85  F   UNL A   1      41.301  25.461  24.961  1.00  0.00    -0.200 F 
ENDBRANCH  51  75
BRANCH  63  86
ATOM     86  C   UNL A   1      44.072  28.321  34.354  1.00  0.00     0.064 A 
ATOM     87  C   UNL A   1      43.873  27.119  35.049  1.00  0.00     0.173 A 
ATOM     88  C   UNL A   1      45.390  28.763  34.162  1.00  0.00     0.173 A 
ATOM     89  F   UNL A   1      42.632  26.664  35.270  1.00  0.00    -0.203 F 
ATOM     90  C   UNL A   1      44.954  26.398  35.550  1.00  0.00     0.198 A 
ATOM     91  C   UNL A   1      46.468  28.024  34.639  1.00  0.00     0.198 A 
ATOM     92  F   UNL A   1      45.631  29.902  33.497  1.00  0.00    -0.203 F 
ATOM     93  F   UNL A   1      44.740  25.274  36.247  1.00  0.00    -0.200 F 
ATOM     94  C   UNL A   1      46.250  26.846  35.336  1.00  0.00     0.200 A 
ATOM     95  F   UNL A   1      47.719  28.451  34.420  1.00  0.00    -0.200 F 
ATOM     96  F   UNL A   1      47.289  26.145  35.810  1.00  0.00    -0.200 F 
ENDBRANCH  63  86
ENDBRANCH  37  38
ENDBRANCH  29  32
ENDBRANCH  27  28
ENDBRANCH  26  27
ENDBRANCH  25  26
ENDBRANCH   1  25
TORSDOF 18
ENDMDL
MODEL 2
REMARK VINA RESULT:     -11.6      1.067      2.120
REMARK SMILES [NH3+][C@](CCC[P@TB4](=O)([O-])[O-])(Cc1ccccc1)C(=O)NCCCCNC(=O)c1ccc(-c2c3nc(c(-c4c(F)c(F)c(F)c(F)c4F)c4ccc([nH]4)c(-c4c(F)c(F)c(F)c(F)c4F)c4nc(c(-c5c(F)c(F)c(F)c(F)c5F)c5ccc2[nH]5)C=C4)C=C3)cc1
REMARK SMILES IDX 20 1 19 2 17 3 18 4 2 6 1 7 10 11 11 12 12 13 16 14 13 15
REMARK SMILES IDX 15 16 14 17 3 18 4 19 5 20 6 21 7 22 8 23 9 24 21 25 22 26
REMARK SMILES IDX 23 27 24 28 25 29 26 31 27 32 28 33 89 34 29 35 88 36 30 37
REMARK SMILES IDX 31 38 32 39 82 40 33 41 87 42 81 43 83 44 34 45 86 46 80 47
REMARK SMILES IDX 79 48 35 50 67 51 47 52 66 53 48 54 51 55 65 56 84 57 49 58
REMARK SMILES IDX 50 59 64 61 85 62 52 63 36 64 37 65 45 66 38 67 39 68 43 69
REMARK SMILES IDX 46 70 40 71 41 72 44 73 42 74 68 75 69 76 77 77 70 78 71 79
REMARK SMILES IDX 75 80 78 81 72 82 73 83 76 84 74 85 53 86 54 87 62 88 55 89
REMARK SMILES IDX 56 90 60 91 63 92 57 93 58 94 61 95 59 96
REMARK H PARENT 19 5 1 8 1 9 1 10 24 30 83 49 51 60
REMARK Flexibility Score: inf
ROOT
ATOM      1  C   UNL A   1      32.986  29.999  26.313  1.00  0.00       nan C 
ENDROOT
BRANCH   1   2
ATOM      2  N   UNL A   1      33.670  29.529  25.119  1.00  0.00       nan N 
ATOM      3  C   UNL A   1      33.511  28.349  24.440  1.00  0.00       nan C 
ATOM      4  O   UNL A   1      34.145  28.210  23.390  1.00  0.00       nan OA
ATOM      5  H   UNL A   1      34.340  30.145  24.747  1.00  0.00       nan HD
BRANCH   3   6
ATOM      6  C   UNL A   1      32.542  27.253  24.991  1.00  0.00       nan C 
BRANCH   6   7
ATOM      7  N   UNL A   1      32.803  27.196  26.447  1.00  0.00       nan N 
ATOM      8  H   UNL A   1      32.803  26.224  26.755  1.00  0.00       nan HD
ATOM      9  H   UNL A   1      32.075  27.710  26.943  1.00  0.00       nan HD
ATOM     10  H   UNL A   1      33.711  27.615  26.647  1.00  0.00       nan HD
ENDBRANCH   6   7
BRANCH   6  11
ATOM     11  C   UNL A   1      32.811  25.860  24.346  1.00  0.00       nan C 
BRANCH  11  12
ATOM     12  C   UNL A   1      33.548  24.881  25.237  1.00  0.00       nan A 
ATOM     13  C   UNL A   1      34.944  24.776  25.182  1.00  0.00       nan A 
ATOM     14  C   UNL A   1      32.838  24.013  26.078  1.00  0.00       nan A 
ATOM     15  C   UNL A   1      35.612  23.793  25.909  1.00  0.00       nan A 
ATOM     16  C   UNL A   1      33.509  23.029  26.807  1.00  0.00       nan A 
ATOM     17  C   UNL A   1      34.894  22.913  26.714  1.00  0.00       nan A 
ENDBRANCH  11  12
ENDBRANCH   6  11
BRANCH   6  18
ATOM     18  C   UNL A   1      31.076  27.695  24.741  1.00  0.00       nan C 
BRANCH  18  19
ATOM     19  C   UNL A   1      30.571  27.502  23.310  1.00  0.00       nan C 
BRANCH  19  20
ATOM     20  C   UNL A   1      30.313  28.796  22.548  1.00  0.00       nan C 
BRANCH  20  21
ATOM     21  P   UNL A   1      28.635  29.461  22.845  1.00  0.00       nan P 
ATOM     22  O   UNL A   1      29.194  30.703  23.536  1.00  0.00       nan OA
ATOM     23  O   UNL A   1      28.434  29.869  21.274  1.00  0.00       nan OA
ATOM     24  O   UNL A   1      27.048  30.090  23.127  1.00  0.00       nan OA
ENDBRANCH  20  21
ENDBRANCH  19  20
ENDBRANCH  18  19
ENDBRANCH   6  18
ENDBRANCH   3   6
ENDBRANCH   1   2
BRANCH   1  25
ATOM     25  C   UNL A   1      31.780  30.862  25.975  1.00  0.00       nan C 
BRANCH  25  26
ATOM     26  C   UNL A   1      31.516  31.956  26.994  1.00  0.00       nan C 
BRANCH  26  27
ATOM     27  C   UNL A   1      32.748  32.770  27.348  1.00  0.00       nan C 
BRANCH  27  28
ATOM     28  N   UNL A   1      32.447  34.165  27.645  1.00  0.00       nan N 
ATOM     29  C   UNL A   1      33.022  34.963  28.605  1.00  0.00       inf C 
ATOM     30  H   UNL A   1      31.748  34.585  27.093  1.00  0.00       inf HD
ATOM     31  O   UNL A   1      32.608  36.081  28.845  1.00  0.00    -0.269 OA
BRANCH  29  32
ATOM     32  C   UNL A   1      34.148  34.391  29.363  1.00  0.00     0.039 A 
ATOM     33  C   UNL A   1      33.878  33.546  30.438  1.00  0.00     0.014 A 
ATOM     34  C   UNL A   1      35.454  34.597  28.910  1.00  0.00     0.014 A 
ATOM     35  C   UNL A   1      34.930  32.849  31.030  1.00  0.00     0.010 A 
ATOM     36  C   UNL A   1      36.482  33.837  29.442  1.00  0.00     0.010 A 
ATOM     37  C   UNL A   1      36.231  32.964  30.512  1.00  0.00    -0.014 A 
BRANCH  37  38
ATOM     38  C   UNL A   1      37.366  32.214  31.097  1.00  0.00     0.031 A 
ATOM     39  C   UNL A   1      37.864  32.595  32.462  1.00  0.00     0.074 A 
ATOM     40  C   UNL A   1      37.986  31.259  30.380  1.00  0.00     0.049 A 
ATOM     41  N   UNL A   1      38.913  32.163  33.112  1.00  0.00    -0.248 NA
ATOM     42  C   UNL A   1      37.099  33.631  33.177  1.00  0.00     0.031 C 
ATOM     43  C   UNL A   1      37.615  30.834  29.029  1.00  0.00     0.029 A 
ATOM     44  N   UNL A   1      39.071  30.479  30.687  1.00  0.00    -0.354 N 
ATOM     45  C   UNL A   1      38.943  32.887  34.295  1.00  0.00     0.074 A 
ATOM     46  C   UNL A   1      37.846  33.828  34.251  1.00  0.00     0.031 C 
ATOM     47  C   UNL A   1      38.446  29.855  28.633  1.00  0.00     0.029 A 
ATOM     48  C   UNL A   1      39.429  29.612  29.684  1.00  0.00     0.049 A 
ATOM     49  H   UNL A   1      39.550  30.536  31.546  1.00  0.00     0.167 HD
ATOM     50  C   UNL A   1      39.792  32.757  35.340  1.00  0.00     0.037 A 
ATOM     51  C   UNL A   1      40.444  28.728  29.623  1.00  0.00     0.037 A 
ATOM     52  C   UNL A   1      40.856  31.792  35.394  1.00  0.00     0.049 A 
ATOM     53  C   UNL A   1      41.373  28.603  30.801  1.00  0.00     0.074 A 
ATOM     54  C   UNL A   1      41.748  31.548  36.422  1.00  0.00     0.029 A 
ATOM     55  N   UNL A   1      41.164  30.905  34.373  1.00  0.00    -0.354 N 
ATOM     56  N   UNL A   1      41.363  29.257  31.938  1.00  0.00    -0.248 NA
ATOM     57  C   UNL A   1      42.451  27.611  30.691  1.00  0.00     0.031 C 
ATOM     58  C   UNL A   1      42.617  30.532  36.011  1.00  0.00     0.029 A 
ATOM     59  C   UNL A   1      42.238  30.115  34.745  1.00  0.00     0.049 A 
ATOM     60  H   UNL A   1      40.690  30.846  33.512  1.00  0.00     0.167 HD
ATOM     61  C   UNL A   1      42.404  28.731  32.690  1.00  0.00     0.074 A 
ATOM     62  C   UNL A   1      43.021  27.699  31.885  1.00  0.00     0.031 C 
ATOM     63  C   UNL A   1      42.814  29.072  33.936  1.00  0.00     0.037 A 
BRANCH  50  64
ATOM     64  C   UNL A   1      39.590  33.668  36.514  1.00  0.00     0.064 A 
ATOM     65  C   UNL A   1      40.174  34.944  36.560  1.00  0.00     0.173 A 
ATOM     66  C   UNL A   1      38.782  33.277  37.592  1.00  0.00     0.173 A 
ATOM     67  F   UNL A   1      40.968  35.359  35.561  1.00  0.00    -0.203 F 
ATOM     68  C   UNL A   1      39.978  35.783  37.653  1.00  0.00     0.198 A 
ATOM     69  C   UNL A   1      38.564  34.130  38.670  1.00  0.00     0.198 A 
ATOM     70  F   UNL A   1      38.201  32.068  37.597  1.00  0.00    -0.203 F 
ATOM     71  F   UNL A   1      40.585  36.976  37.696  1.00  0.00    -0.200 F 
ATOM     72  C   UNL A   1      39.166  35.379  38.702  1.00  0.00     0.200 A 
ATOM     73  F   UNL A   1      37.771  33.743  39.678  1.00  0.00    -0.200 F 
ATOM     74  F   UNL A   1      38.971  36.191  39.750  1.00  0.00    -0.200 F 
ENDBRANCH  50  64
BRANCH  51  75
ATOM     75  C   UNL A   1      40.620  27.871  28.423  1.00  0.00     0.064 A 
ATOM     76  C   UNL A   1      41.377  28.314  27.329  1.00  0.00     0.173 A 
ATOM     77  C   UNL A   1      40.020  26.607  28.330  1.00  0.00     0.173 A 
ATOM     78  F   UNL A   1      41.955  29.525  27.363  1.00  0.00    -0.203 F 
ATOM     79  C   UNL A   1      41.505  27.539  26.179  1.00  0.00     0.198 A 
ATOM     80  C   UNL A   1      40.171  25.820  27.189  1.00  0.00     0.198 A 
ATOM     81  F   UNL A   1      39.290  26.132  29.350  1.00  0.00    -0.203 F 
ATOM     82  F   UNL A   1      42.190  28.012  25.128  1.00  0.00    -0.200 F 
ATOM     83  C   UNL A   1      40.904  26.292  26.111  1.00  0.00     0.200 A 
ATOM     84  F   UNL A   1      39.600  24.609  27.132  1.00  0.00    -0.200 F 
ATOM     85  F   UNL A   1      41.024  25.548  25.002  1.00  0.00    -0.200 F 
ENDBRANCH  51  75
BRANCH  63  86
ATOM     86  C   UNL A   1      43.943  28.284  34.530  1.00  0.00     0.064 A 
ATOM     87  C   UNL A   1      45.275  28.710  34.425  1.00  0.00     0.173 A 
ATOM     88  C   UNL A   1      43.679  27.114  35.258  1.00  0.00     0.173 A 
ATOM     89  F   UNL A   1      45.578  29.814  33.727  1.00  0.00    -0.203 F 
ATOM     90  C   UNL A   1      46.305  27.980  35.012  1.00  0.00     0.198 A 
ATOM     91  C   UNL A   1      44.708  26.404  35.868  1.00  0.00     0.198 A 
ATOM     92  F   UNL A   1      42.420  26.671  35.393  1.00  0.00    -0.203 F 
ATOM     93  F   UNL A   1      47.575  28.382  34.865  1.00  0.00    -0.200 F 
ATOM     94  C   UNL A   1      46.020  26.833  35.740  1.00  0.00     0.200 A 
ATOM     95  F   UNL A   1      44.430  25.305  36.582  1.00  0.00    -0.200 F 
ATOM     96  F   UNL A   1      47.013  26.139  36.313  1.00  0.00    -0.200 F 
ENDBRANCH  63  86
ENDBRANCH  37  38
ENDBRANCH  29  32
ENDBRANCH  27  28
ENDBRANCH  26  27
ENDBRANCH  25  26
ENDBRANCH   1  25
TORSDOF 18
ENDMDL
MODEL 3
REMARK VINA RESULT:     -11.5      2.551      3.730
REMARK SMILES [NH3+][C@](CCC[P@TB4](=O)([O-])[O-])(Cc1ccccc1)C(=O)NCCCCNC(=O)c1ccc(-c2c3nc(c(-c4c(F)c(F)c(F)c(F)c4F)c4ccc([nH]4)c(-c4c(F)c(F)c(F)c(F)c4F)c4nc(c(-c5c(F)c(F)c(F)c(F)c5F)c5ccc2[nH]5)C=C4)C=C3)cc1
REMARK SMILES IDX 20 1 19 2 17 3 18 4 2 6 1 7 10 11 11 12 12 13 16 14 13 15
REMARK SMILES IDX 15 16 14 17 3 18 4 19 5 20 6 21 7 22 8 23 9 24 21 25 22 26
REMARK SMILES IDX 23 27 24 28 25 29 26 31 27 32 28 33 89 34 29 35 88 36 30 37
REMARK SMILES IDX 31 38 32 39 82 40 33 41 87 42 81 43 83 44 34 45 86 46 80 47
REMARK SMILES IDX 79 48 35 50 67 51 47 52 66 53 48 54 51 55 65 56 84 57 49 58
REMARK SMILES IDX 50 59 64 61 85 62 52 63 36 64 37 65 45 66 38 67 39 68 43 69
REMARK SMILES IDX 46 70 40 71 41 72 44 73 42 74 68 75 69 76 77 77 70 78 71 79
REMARK SMILES IDX 75 80 78 81 72 82 73 83 76 84 74 85 53 86 54 87 62 88 55 89
REMARK SMILES IDX 56 90 60 91 63 92 57 93 58 94 61 95 59 96
REMARK H PARENT 19 5 1 8 1 9 1 10 24 30 83 49 51 60
REMARK Flexibility Score: inf
ROOT
ATOM      1  C   UNL A   1      32.112  26.160  26.388  1.00  0.00       nan C 
ENDROOT
BRANCH   1   2
ATOM      2  N   UNL A   1      31.038  25.280  26.816  1.00  0.00       nan N 
ATOM      3  C   UNL A   1      30.956  23.914  26.738  1.00  0.00       nan C 
ATOM      4  O   UNL A   1      29.974  23.374  27.256  1.00  0.00       nan OA
ATOM      5  H   UNL A   1      30.261  25.728  27.220  1.00  0.00       nan HD
BRANCH   3   6
ATOM      6  C   UNL A   1      32.089  23.101  26.033  1.00  0.00       nan C 
BRANCH   6   7
ATOM      7  N   UNL A   1      31.569  21.719  25.922  1.00  0.00       nan N 
ATOM      8  H   UNL A   1      31.136  21.591  25.007  1.00  0.00       nan HD
ATOM      9  H   UNL A   1      30.875  21.558  26.651  1.00  0.00       nan HD
ATOM     10  H   UNL A   1      32.337  21.057  26.030  1.00  0.00       nan HD
ENDBRANCH   6   7
BRANCH   6  11
ATOM     11  C   UNL A   1      33.412  23.108  26.858  1.00  0.00       nan C 
BRANCH  11  12
ATOM     12  C   UNL A   1      34.658  22.783  26.060  1.00  0.00       nan A 
ATOM     13  C   UNL A   1      34.962  21.459  25.718  1.00  0.00       nan A 
ATOM     14  C   UNL A   1      35.564  23.795  25.713  1.00  0.00       nan A 
ATOM     15  C   UNL A   1      36.168  21.145  25.093  1.00  0.00       nan A 
ATOM     16  C   UNL A   1      36.770  23.479  25.085  1.00  0.00       nan A 
ATOM     17  C   UNL A   1      37.076  22.154  24.785  1.00  0.00       nan A 
ENDBRANCH  11  12
ENDBRANCH   6  11
BRANCH   6  18
ATOM     18  C   UNL A   1      32.329  23.683  24.614  1.00  0.00       nan C 
BRANCH  18  19
ATOM     19  C   UNL A   1      31.095  23.728  23.711  1.00  0.00       nan C 
BRANCH  19  20
ATOM     20  C   UNL A   1      30.880  25.057  22.997  1.00  0.00       nan C 
BRANCH  20  21
ATOM     21  P   UNL A   1      32.427  25.733  22.293  1.00  0.00       nan P 
ATOM     22  O   UNL A   1      31.771  25.953  20.931  1.00  0.00       nan OA
ATOM     23  O   UNL A   1      32.271  27.146  23.103  1.00  0.00       nan OA
ATOM     24  O   UNL A   1      33.890  26.372  21.627  1.00  0.00       nan OA
ENDBRANCH  20  21
ENDBRANCH  19  20
ENDBRANCH  18  19
ENDBRANCH   6  18
ENDBRANCH   3   6
ENDBRANCH   1   2
BRANCH   1  25
ATOM     25  C   UNL A   1      32.109  27.476  27.151  1.00  0.00       nan C 
BRANCH  25  26
ATOM     26  C   UNL A   1      31.794  28.678  26.280  1.00  0.00       nan C 
BRANCH  26  27
ATOM     27  C   UNL A   1      32.974  29.612  26.079  1.00  0.00       nan C 
BRANCH  27  28
ATOM     28  N   UNL A   1      32.683  30.992  26.449  1.00  0.00       nan N 
ATOM     29  C   UNL A   1      33.402  31.806  27.291  1.00  0.00       inf C 
ATOM     30  H   UNL A   1      31.874  31.386  26.050  1.00  0.00       inf HD
ATOM     31  O   UNL A   1      33.000  32.905  27.623  1.00  0.00    -0.269 OA
BRANCH  29  32
ATOM     32  C   UNL A   1      34.675  31.275  27.807  1.00  0.00     0.039 A 
ATOM     33  C   UNL A   1      35.743  32.150  28.001  1.00  0.00     0.014 A 
ATOM     34  C   UNL A   1      34.745  29.941  28.218  1.00  0.00     0.014 A 
ATOM     35  C   UNL A   1      36.878  31.694  28.671  1.00  0.00     0.010 A 
ATOM     36  C   UNL A   1      35.835  29.518  28.960  1.00  0.00     0.010 A 
ATOM     37  C   UNL A   1      36.914  30.388  29.184  1.00  0.00    -0.014 A 
BRANCH  37  38
ATOM     38  C   UNL A   1      38.090  29.881  29.928  1.00  0.00     0.031 A 
ATOM     39  C   UNL A   1      38.340  30.380  31.322  1.00  0.00     0.074 A 
ATOM     40  C   UNL A   1      38.960  29.046  29.330  1.00  0.00     0.049 A 
ATOM     41  N   UNL A   1      39.365  30.169  32.107  1.00  0.00    -0.248 NA
ATOM     42  C   UNL A   1      37.314  31.266  31.898  1.00  0.00     0.031 C 
ATOM     43  C   UNL A   1      38.841  28.529  27.965  1.00  0.00     0.029 A 
ATOM     44  N   UNL A   1      40.126  28.494  29.793  1.00  0.00    -0.354 N 
ATOM     45  C   UNL A   1      39.116  30.912  33.252  1.00  0.00     0.074 A 
ATOM     46  C   UNL A   1      37.877  31.625  33.041  1.00  0.00     0.031 C 
ATOM     47  C   UNL A   1      39.881  27.718  27.710  1.00  0.00     0.029 A 
ATOM     48  C   UNL A   1      40.759  27.690  28.877  1.00  0.00     0.049 A 
ATOM     49  H   UNL A   1      40.479  28.660  30.698  1.00  0.00     0.167 HD
ATOM     50  C   UNL A   1      39.842  30.969  34.393  1.00  0.00     0.037 A 
ATOM     51  C   UNL A   1      41.920  27.014  28.972  1.00  0.00     0.037 A 
ATOM     52  C   UNL A   1      41.053  30.226  34.611  1.00  0.00     0.049 A 
ATOM     53  C   UNL A   1      42.707  27.094  30.253  1.00  0.00     0.074 A 
ATOM     54  C   UNL A   1      41.844  30.179  35.743  1.00  0.00     0.029 A 
ATOM     55  N   UNL A   1      41.642  29.392  33.671  1.00  0.00    -0.354 N 
ATOM     56  N   UNL A   1      42.437  27.759  31.351  1.00  0.00    -0.248 NA
ATOM     57  C   UNL A   1      43.957  26.323  30.311  1.00  0.00     0.031 C 
ATOM     58  C   UNL A   1      42.930  29.339  35.480  1.00  0.00     0.029 A 
ATOM     59  C   UNL A   1      42.791  28.829  34.199  1.00  0.00     0.049 A 
ATOM     60  H   UNL A   1      41.295  29.225  32.766  1.00  0.00     0.167 HD
ATOM     61  C   UNL A   1      43.460  27.458  32.240  1.00  0.00     0.074 A 
ATOM     62  C   UNL A   1      44.351  26.544  31.558  1.00  0.00     0.031 C 
ATOM     63  C   UNL A   1      43.645  27.898  33.509  1.00  0.00     0.037 A 
BRANCH  50  64
ATOM     64  C   UNL A   1      39.333  31.850  35.494  1.00  0.00     0.064 A 
ATOM     65  C   UNL A   1      39.719  33.196  35.592  1.00  0.00     0.173 A 
ATOM     66  C   UNL A   1      38.427  31.356  36.444  1.00  0.00     0.173 A 
ATOM     67  F   UNL A   1      40.597  33.713  34.718  1.00  0.00    -0.203 F 
ATOM     68  C   UNL A   1      39.239  34.006  36.617  1.00  0.00     0.198 A 
ATOM     69  C   UNL A   1      37.926  32.177  37.450  1.00  0.00     0.198 A 
ATOM     70  F   UNL A   1      38.026  30.077  36.394  1.00  0.00    -0.203 F 
ATOM     71  F   UNL A   1      39.661  35.274  36.720  1.00  0.00    -0.200 F 
ATOM     72  C   UNL A   1      38.336  33.499  37.539  1.00  0.00     0.200 A 
ATOM     73  F   UNL A   1      37.045  31.689  38.334  1.00  0.00    -0.200 F 
ATOM     74  F   UNL A   1      37.868  34.282  38.520  1.00  0.00    -0.200 F 
ENDBRANCH  50  64
BRANCH  51  75
ATOM     75  C   UNL A   1      42.397  26.180  27.839  1.00  0.00     0.064 A 
ATOM     76  C   UNL A   1      43.348  26.673  26.935  1.00  0.00     0.173 A 
ATOM     77  C   UNL A   1      41.899  24.888  27.619  1.00  0.00     0.173 A 
ATOM     78  F   UNL A   1      43.841  27.912  27.092  1.00  0.00    -0.203 F 
ATOM     79  C   UNL A   1      43.763  25.919  25.840  1.00  0.00     0.198 A 
ATOM     80  C   UNL A   1      42.335  24.122  26.539  1.00  0.00     0.198 A 
ATOM     81  F   UNL A   1      40.991  24.365  28.457  1.00  0.00    -0.203 F 
ATOM     82  F   UNL A   1      44.634  26.437  24.963  1.00  0.00    -0.200 F 
ATOM     83  C   UNL A   1      43.258  24.643  25.645  1.00  0.00     0.200 A 
ATOM     84  F   UNL A   1      41.854  22.884  26.360  1.00  0.00    -0.200 F 
ATOM     85  F   UNL A   1      43.654  23.919  24.589  1.00  0.00    -0.200 F 
ENDBRANCH  51  75
BRANCH  63  86
ATOM     86  C   UNL A   1      44.821  27.352  34.262  1.00  0.00     0.064 A 
ATOM     87  C   UNL A   1      46.059  28.011  34.274  1.00  0.00     0.173 A 
ATOM     88  C   UNL A   1      44.689  26.182  35.024  1.00  0.00     0.173 A 
ATOM     89  F   UNL A   1      46.238  29.125  33.550  1.00  0.00    -0.203 F 
ATOM     90  C   UNL A   1      47.129  27.505  35.007  1.00  0.00     0.198 A 
ATOM     91  C   UNL A   1      45.752  25.695  35.779  1.00  0.00     0.198 A 
ATOM     92  F   UNL A   1      43.522  25.521  35.050  1.00  0.00    -0.203 F 
ATOM     93  F   UNL A   1      48.316  28.127  34.973  1.00  0.00    -0.200 F 
ATOM     94  C   UNL A   1      46.972  26.353  35.765  1.00  0.00     0.200 A 
ATOM     95  F   UNL A   1      45.594  24.591  36.521  1.00  0.00    -0.200 F 
ATOM     96  F   UNL A   1      48.000  25.873  36.478  1.00  0.00    -0.200 F 
ENDBRANCH  63  86
ENDBRANCH  37  38
ENDBRANCH  29  32
ENDBRANCH  27  28
ENDBRANCH  26  27
ENDBRANCH  25  26
ENDBRANCH   1  25
TORSDOF 18
ENDMDL
