MODEL 1
REMARK VINA RESULT:     -12.0      0.000      0.000
REMARK SMILES CC(C)[NH2+][C@@]1(C(=O)NCCCCNC(=O)c2ccc(-c3c4nc(c(-c5c(F)c(F)c(F)c(F)c5F)c5ccc([nH]5)c(-c5c(F)c(F)c(F)c(F)c5F)c5nc(c(-c6c(F)c(F)c(F)c(F)c6F)c6ccc3[nH]6)C=C5)C=C4)cc2)CC[C@H](Sc2ccccn2)C1
REMARK SMILES IDX 10 1 9 2 8 3 6 4 7 5 5 7 79 8 89 9 80 10 81 11 4 12 2 15
REMARK SMILES IDX 1 16 3 17 82 18 83 19 84 20 88 21 85 22 87 23 86 24 11 25
REMARK SMILES IDX 12 26 13 27 14 28 15 30 16 31 17 32 78 33 18 34 77 35 19 36
REMARK SMILES IDX 20 37 21 38 71 39 22 40 76 41 70 42 72 43 23 44 75 45 69 46
REMARK SMILES IDX 68 47 24 49 56 50 36 51 55 52 37 53 40 54 54 55 73 56 38 57
REMARK SMILES IDX 39 58 53 60 74 61 41 62 25 63 26 64 34 65 27 66 28 67 32 68
REMARK SMILES IDX 35 69 29 70 30 71 33 72 31 73 57 74 58 75 66 76 59 77 60 78
REMARK SMILES IDX 64 79 67 80 61 81 62 82 65 83 63 84 42 85 43 86 51 87 44 88
REMARK SMILES IDX 45 89 49 90 52 91 46 92 47 93 50 94 48 95
REMARK H PARENT 8 6 4 13 4 14 13 29 72 48 40 59
REMARK Flexibility Score: inf
ROOT
ATOM      1  C   UNL A   1      39.173  22.412  26.326  1.00  0.00     0.023 C 
ENDROOT
BRANCH   1   2
ATOM      2  C   UNL A   1      37.966  23.148  25.771  1.00  0.00     0.116 C 
BRANCH   2   3
ATOM      3  N   UNL A   1      37.563  22.723  24.459  1.00  0.00    -0.351 N 
ATOM      4  C   UNL A   1      36.364  22.875  23.841  1.00  0.00     0.281 C 
ATOM      5  O   UNL A   1      36.413  22.952  22.603  1.00  0.00    -0.268 OA
ATOM      6  H   UNL A   1      38.252  22.255  23.934  1.00  0.00     0.163 HD
BRANCH   4   7
ATOM      7  C   UNL A   1      34.972  22.948  24.571  1.00  0.00     0.176 C 
ATOM      8  C   UNL A   1      35.070  22.030  25.815  1.00  0.00     0.080 C 
ATOM      9  C   UNL A   1      33.686  22.454  23.864  1.00  0.00     0.094 C 
ATOM     10  C   UNL A   1      34.506  20.689  25.357  1.00  0.00     0.022 C 
ATOM     11  C   UNL A   1      33.292  21.115  24.541  1.00  0.00     0.060 C 
BRANCH   7  12
ATOM     12  N   UNL A   1      34.823  24.348  25.074  1.00  0.00    -0.332 N 
ATOM     13  H   UNL A   1      34.926  24.321  26.089  1.00  0.00     0.347 HD
ATOM     14  H   UNL A   1      35.538  24.880  24.576  1.00  0.00     0.347 HD
BRANCH  12  15
ATOM     15  C   UNL A   1      33.560  25.047  24.777  1.00  0.00     0.176 C 
ATOM     16  C   UNL A   1      32.882  25.318  26.127  1.00  0.00     0.075 C 
ATOM     17  C   UNL A   1      33.715  26.383  24.042  1.00  0.00     0.075 C 
ENDBRANCH  12  15
ENDBRANCH   7  12
BRANCH  11  18
ATOM     18  S   UNL A   1      32.401  19.947  23.432  1.00  0.00    -0.103 SA
BRANCH  18  19
ATOM     19  C   UNL A   1      32.766  18.285  23.962  1.00  0.00     0.096 A 
ATOM     20  C   UNL A   1      33.685  17.469  23.317  1.00  0.00     0.035 A 
ATOM     21  N   UNL A   1      32.192  17.921  25.134  1.00  0.00    -0.250 NA
ATOM     22  C   UNL A   1      34.014  16.235  23.881  1.00  0.00     0.004 A 
ATOM     23  C   UNL A   1      32.564  16.743  25.687  1.00  0.00     0.112 A 
ATOM     24  C   UNL A   1      33.457  15.870  25.098  1.00  0.00     0.020 A 
ENDBRANCH  18  19
ENDBRANCH  11  18
ENDBRANCH   4   7
ENDBRANCH   2   3
ENDBRANCH   1   2
BRANCH   1  25
ATOM     25  C   UNL A   1      39.414  21.027  25.745  1.00  0.00     0.023 C 
BRANCH  25  26
ATOM     26  C   UNL A   1      39.971  19.992  26.710  1.00  0.00     0.116 C 
BRANCH  26  27
ATOM     27  N   UNL A   1      40.939  19.070  26.127  1.00  0.00    -0.352 N 
ATOM     28  C   UNL A   1      42.278  19.267  25.869  1.00  0.00     0.251 C 
ATOM     29  H   UNL A   1      40.587  18.184  25.884  1.00  0.00     0.163 HD
ATOM     30  O   UNL A   1      42.970  18.397  25.372  1.00  0.00    -0.269 OA
BRANCH  28  31
ATOM     31  C   UNL A   1      42.850  20.597  26.138  1.00  0.00     0.039 A 
ATOM     32  C   UNL A   1      43.097  21.437  25.053  1.00  0.00     0.014 A 
ATOM     33  C   UNL A   1      43.019  21.040  27.450  1.00  0.00     0.014 A 
ATOM     34  C   UNL A   1      43.429  22.768  25.287  1.00  0.00     0.010 A 
ATOM     35  C   UNL A   1      43.242  22.389  27.678  1.00  0.00     0.010 A 
ATOM     36  C   UNL A   1      43.454  23.262  26.600  1.00  0.00    -0.014 A 
BRANCH  36  37
ATOM     37  C   UNL A   1      43.737  24.688  26.880  1.00  0.00     0.031 A 
ATOM     38  C   UNL A   1      45.118  25.219  26.628  1.00  0.00     0.074 A 
ATOM     39  C   UNL A   1      42.785  25.468  27.426  1.00  0.00     0.049 A 
ATOM     40  N   UNL A   1      45.622  26.391  26.914  1.00  0.00    -0.248 NA
ATOM     41  C   UNL A   1      46.078  24.287  26.012  1.00  0.00     0.031 C 
ATOM     42  C   UNL A   1      41.426  25.041  27.767  1.00  0.00     0.029 A 
ATOM     43  N   UNL A   1      42.820  26.786  27.802  1.00  0.00    -0.354 N 
ATOM     44  C   UNL A   1      46.959  26.321  26.548  1.00  0.00     0.074 A 
ATOM     45  C   UNL A   1      47.205  24.975  26.081  1.00  0.00     0.031 C 
ATOM     46  C   UNL A   1      40.749  26.085  28.271  1.00  0.00     0.029 A 
ATOM     47  C   UNL A   1      41.635  27.243  28.324  1.00  0.00     0.049 A 
ATOM     48  H   UNL A   1      43.620  27.352  27.705  1.00  0.00     0.167 HD
ATOM     49  C   UNL A   1      47.890  27.302  26.571  1.00  0.00     0.037 A 
ATOM     50  C   UNL A   1      41.309  28.462  28.791  1.00  0.00     0.037 A 
ATOM     51  C   UNL A   1      47.617  28.650  26.989  1.00  0.00     0.049 A 
ATOM     52  C   UNL A   1      42.349  29.550  28.759  1.00  0.00     0.074 A 
ATOM     53  C   UNL A   1      48.467  29.741  27.001  1.00  0.00     0.029 A 
ATOM     54  N   UNL A   1      46.386  29.092  27.454  1.00  0.00    -0.354 N 
ATOM     55  N   UNL A   1      43.598  29.490  28.364  1.00  0.00    -0.248 NA
ATOM     56  C   UNL A   1      41.930  30.879  29.225  1.00  0.00     0.031 C 
ATOM     57  C   UNL A   1      47.757  30.838  27.502  1.00  0.00     0.029 A 
ATOM     58  C   UNL A   1      46.453  30.440  27.758  1.00  0.00     0.049 A 
ATOM     59  H   UNL A   1      45.584  28.529  27.553  1.00  0.00     0.167 HD
ATOM     60  C   UNL A   1      44.105  30.775  28.503  1.00  0.00     0.074 A 
ATOM     61  C   UNL A   1      43.022  31.596  29.006  1.00  0.00     0.031 C 
ATOM     62  C   UNL A   1      45.352  31.235  28.239  1.00  0.00     0.037 A 
BRANCH  49  63
ATOM     63  C   UNL A   1      49.277  26.946  26.123  1.00  0.00     0.064 A 
ATOM     64  C   UNL A   1      49.671  27.071  24.781  1.00  0.00     0.173 A 
ATOM     65  C   UNL A   1      50.223  26.470  27.042  1.00  0.00     0.173 A 
ATOM     66  F   UNL A   1      48.798  27.502  23.858  1.00  0.00    -0.203 F 
ATOM     67  C   UNL A   1      50.948  26.697  24.371  1.00  0.00     0.198 A 
ATOM     68  C   UNL A   1      51.510  26.129  26.634  1.00  0.00     0.198 A 
ATOM     69  F   UNL A   1      49.899  26.331  28.336  1.00  0.00    -0.203 F 
ATOM     70  F   UNL A   1      51.279  26.763  23.074  1.00  0.00    -0.200 F 
ATOM     71  C   UNL A   1      51.869  26.233  25.298  1.00  0.00     0.200 A 
ATOM     72  F   UNL A   1      52.402  25.690  27.533  1.00  0.00    -0.200 F 
ATOM     73  F   UNL A   1      53.097  25.873  24.902  1.00  0.00    -0.200 F 
ENDBRANCH  49  63
BRANCH  50  74
ATOM     74  C   UNL A   1      39.931  28.733  29.278  1.00  0.00     0.064 A 
ATOM     75  C   UNL A   1      39.598  28.543  30.627  1.00  0.00     0.173 A 
ATOM     76  C   UNL A   1      38.922  29.184  28.415  1.00  0.00     0.173 A 
ATOM     77  F   UNL A   1      40.524  28.097  31.488  1.00  0.00    -0.203 F 
ATOM     78  C   UNL A   1      38.303  28.769  31.089  1.00  0.00     0.198 A 
ATOM     79  C   UNL A   1      37.634  29.435  28.885  1.00  0.00     0.198 A 
ATOM     80  F   UNL A   1      39.190  29.389  27.117  1.00  0.00    -0.203 F 
ATOM     81  F   UNL A   1      38.002  28.535  32.374  1.00  0.00    -0.200 F 
ATOM     82  C   UNL A   1      37.323  29.220  30.218  1.00  0.00     0.200 A 
ATOM     83  F   UNL A   1      36.692  29.884  28.042  1.00  0.00    -0.200 F 
ATOM     84  F   UNL A   1      36.079  29.440  30.663  1.00  0.00    -0.200 F 
ENDBRANCH  50  74
BRANCH  62  85
ATOM     85  C   UNL A   1      45.595  32.701  28.440  1.00  0.00     0.064 A 
ATOM     86  C   UNL A   1      46.056  33.211  29.662  1.00  0.00     0.173 A 
ATOM     87  C   UNL A   1      45.398  33.600  27.381  1.00  0.00     0.173 A 
ATOM     88  F   UNL A   1      46.245  32.393  30.707  1.00  0.00    -0.203 F 
ATOM     89  C   UNL A   1      46.285  34.574  29.824  1.00  0.00     0.198 A 
ATOM     90  C   UNL A   1      45.657  34.958  27.538  1.00  0.00     0.198 A 
ATOM     91  F   UNL A   1      44.966  33.159  26.190  1.00  0.00    -0.203 F 
ATOM     92  F   UNL A   1      46.679  35.048  31.015  1.00  0.00    -0.200 F 
ATOM     93  C   UNL A   1      46.091  35.445  28.762  1.00  0.00     0.200 A 
ATOM     94  F   UNL A   1      45.482  35.795  26.507  1.00  0.00    -0.200 F 
ATOM     95  F   UNL A   1      46.318  36.756  28.919  1.00  0.00    -0.200 F 
ENDBRANCH  62  85
ENDBRANCH  36  37
ENDBRANCH  28  31
ENDBRANCH  26  27
ENDBRANCH  25  26
ENDBRANCH   1  25
TORSDOF 15
ENDMDL
MODEL 2
REMARK VINA RESULT:     -12.0      0.522      7.433
REMARK SMILES CC(C)[NH2+][C@@]1(C(=O)NCCCCNC(=O)c2ccc(-c3c4nc(c(-c5c(F)c(F)c(F)c(F)c5F)c5ccc([nH]5)c(-c5c(F)c(F)c(F)c(F)c5F)c5nc(c(-c6c(F)c(F)c(F)c(F)c6F)c6ccc3[nH]6)C=C5)C=C4)cc2)CC[C@H](Sc2ccccn2)C1
REMARK SMILES IDX 10 1 9 2 8 3 6 4 7 5 5 7 79 8 89 9 80 10 81 11 4 12 2 15
REMARK SMILES IDX 1 16 3 17 82 18 83 19 84 20 88 21 85 22 87 23 86 24 11 25
REMARK SMILES IDX 12 26 13 27 14 28 15 30 16 31 17 32 78 33 18 34 77 35 19 36
REMARK SMILES IDX 20 37 21 38 71 39 22 40 76 41 70 42 72 43 23 44 75 45 69 46
REMARK SMILES IDX 68 47 24 49 56 50 36 51 55 52 37 53 40 54 54 55 73 56 38 57
REMARK SMILES IDX 39 58 53 60 74 61 41 62 25 63 26 64 34 65 27 66 28 67 32 68
REMARK SMILES IDX 35 69 29 70 30 71 33 72 31 73 57 74 58 75 66 76 59 77 60 78
REMARK SMILES IDX 64 79 67 80 61 81 62 82 65 83 63 84 42 85 43 86 51 87 44 88
REMARK SMILES IDX 45 89 49 90 52 91 46 92 47 93 50 94 48 95
REMARK H PARENT 8 6 4 13 4 14 13 29 72 48 40 59
REMARK Flexibility Score: inf
ROOT
ATOM      1  C   UNL A   1      38.954  22.883  26.355  1.00  0.00     0.023 C 
ENDROOT
BRANCH   1   2
ATOM      2  C   UNL A   1      37.813  23.630  25.687  1.00  0.00     0.116 C 
BRANCH   2   3
ATOM      3  N   UNL A   1      37.400  23.080  24.424  1.00  0.00    -0.351 N 
ATOM      4  C   UNL A   1      36.164  23.053  23.866  1.00  0.00     0.281 C 
ATOM      5  O   UNL A   1      36.144  23.057  22.624  1.00  0.00    -0.268 OA
ATOM      6  H   UNL A   1      38.115  22.664  23.890  1.00  0.00     0.163 HD
BRANCH   4   7
ATOM      7  C   UNL A   1      34.809  23.008  24.666  1.00  0.00     0.176 C 
ATOM      8  C   UNL A   1      35.022  22.032  25.851  1.00  0.00     0.080 C 
ATOM      9  C   UNL A   1      33.518  22.481  23.996  1.00  0.00     0.094 C 
ATOM     10  C   UNL A   1      34.507  20.688  25.346  1.00  0.00     0.022 C 
ATOM     11  C   UNL A   1      33.232  21.088  24.616  1.00  0.00     0.060 C 
BRANCH   7  12
ATOM     12  N   UNL A   1      34.613  24.369  25.253  1.00  0.00    -0.332 N 
ATOM     13  H   UNL A   1      34.571  24.262  26.266  1.00  0.00     0.347 HD
ATOM     14  H   UNL A   1      35.398  24.918  24.903  1.00  0.00     0.347 HD
BRANCH  12  15
ATOM     15  C   UNL A   1      33.414  25.121  24.839  1.00  0.00     0.176 C 
ATOM     16  C   UNL A   1      32.580  25.347  26.107  1.00  0.00     0.075 C 
ATOM     17  C   UNL A   1      33.694  26.485  24.199  1.00  0.00     0.075 C 
ENDBRANCH  12  15
ENDBRANCH   7  12
BRANCH  11  18
ATOM     18  S   UNL A   1      32.348  19.931  23.488  1.00  0.00    -0.103 SA
BRANCH  18  19
ATOM     19  C   UNL A   1      32.712  18.264  24.001  1.00  0.00     0.096 A 
ATOM     20  C   UNL A   1      33.607  17.443  23.328  1.00  0.00     0.035 A 
ATOM     21  N   UNL A   1      32.164  17.899  25.184  1.00  0.00    -0.250 NA
ATOM     22  C   UNL A   1      33.939  16.203  23.879  1.00  0.00     0.004 A 
ATOM     23  C   UNL A   1      32.539  16.715  25.723  1.00  0.00     0.112 A 
ATOM     24  C   UNL A   1      33.410  15.838  25.108  1.00  0.00     0.020 A 
ENDBRANCH  18  19
ENDBRANCH  11  18
ENDBRANCH   4   7
ENDBRANCH   2   3
ENDBRANCH   1   2
BRANCH   1  25
ATOM     25  C   UNL A   1      39.273  21.519  25.762  1.00  0.00     0.023 C 
BRANCH  25  26
ATOM     26  C   UNL A   1      39.555  20.412  26.766  1.00  0.00     0.116 C 
BRANCH  26  27
ATOM     27  N   UNL A   1      40.419  19.345  26.274  1.00  0.00    -0.352 N 
ATOM     28  C   UNL A   1      41.786  19.345  26.103  1.00  0.00     0.251 C 
ATOM     29  H   UNL A   1      39.962  18.509  26.029  1.00  0.00     0.163 HD
ATOM     30  O   UNL A   1      42.379  18.371  25.675  1.00  0.00    -0.269 OA
BRANCH  28  31
ATOM     31  C   UNL A   1      42.521  20.591  26.377  1.00  0.00     0.039 A 
ATOM     32  C   UNL A   1      42.964  21.345  25.290  1.00  0.00     0.014 A 
ATOM     33  C   UNL A   1      42.656  21.058  27.685  1.00  0.00     0.014 A 
ATOM     34  C   UNL A   1      43.466  22.624  25.511  1.00  0.00     0.010 A 
ATOM     35  C   UNL A   1      43.052  22.370  27.891  1.00  0.00     0.010 A 
ATOM     36  C   UNL A   1      43.464  23.161  26.807  1.00  0.00    -0.014 A 
BRANCH  36  37
ATOM     37  C   UNL A   1      43.927  24.543  27.067  1.00  0.00     0.031 A 
ATOM     38  C   UNL A   1      42.949  25.551  27.597  1.00  0.00     0.074 A 
ATOM     39  C   UNL A   1      45.187  24.901  26.755  1.00  0.00     0.049 A 
ATOM     40  N   UNL A   1      43.098  26.837  27.780  1.00  0.00    -0.248 NA
ATOM     41  C   UNL A   1      41.602  25.052  27.921  1.00  0.00     0.031 C 
ATOM     42  C   UNL A   1      46.205  24.017  26.181  1.00  0.00     0.029 A 
ATOM     43  N   UNL A   1      45.825  26.109  26.869  1.00  0.00    -0.354 N 
ATOM     44  C   UNL A   1      41.860  27.300  28.202  1.00  0.00     0.074 A 
ATOM     45  C   UNL A   1      40.954  26.173  28.187  1.00  0.00     0.031 C 
ATOM     46  C   UNL A   1      47.347  24.706  26.023  1.00  0.00     0.029 A 
ATOM     47  C   UNL A   1      47.132  26.085  26.448  1.00  0.00     0.049 A 
ATOM     48  H   UNL A   1      45.387  26.918  27.220  1.00  0.00     0.167 HD
ATOM     49  C   UNL A   1      41.518  28.547  28.597  1.00  0.00     0.037 A 
ATOM     50  C   UNL A   1      48.047  27.071  26.414  1.00  0.00     0.037 A 
ATOM     51  C   UNL A   1      42.443  29.646  28.657  1.00  0.00     0.049 A 
ATOM     52  C   UNL A   1      47.656  28.438  26.906  1.00  0.00     0.074 A 
ATOM     53  C   UNL A   1      42.223  30.940  29.094  1.00  0.00     0.029 A 
ATOM     54  N   UNL A   1      43.777  29.568  28.281  1.00  0.00    -0.354 N 
ATOM     55  N   UNL A   1      46.496  28.857  27.351  1.00  0.00    -0.248 NA
ATOM     56  C   UNL A   1      48.704  29.467  26.902  1.00  0.00     0.031 C 
ATOM     57  C   UNL A   1      43.419  31.653  28.955  1.00  0.00     0.029 A 
ATOM     58  C   UNL A   1      44.394  30.792  28.474  1.00  0.00     0.049 A 
ATOM     59  H   UNL A   1      44.219  28.762  27.928  1.00  0.00     0.167 HD
ATOM     60  C   UNL A   1      46.681  30.184  27.712  1.00  0.00     0.074 A 
ATOM     61  C   UNL A   1      48.070  30.497  27.444  1.00  0.00     0.031 C 
ATOM     62  C   UNL A   1      45.784  31.067  28.217  1.00  0.00     0.037 A 
BRANCH  49  63
ATOM     63  C   UNL A   1      40.090  28.775  29.000  1.00  0.00     0.064 A 
ATOM     64  C   UNL A   1      39.657  28.574  30.320  1.00  0.00     0.173 A 
ATOM     65  C   UNL A   1      39.142  29.197  28.057  1.00  0.00     0.173 A 
ATOM     66  F   UNL A   1      40.520  28.150  31.257  1.00  0.00    -0.203 F 
ATOM     67  C   UNL A   1      38.321  28.747  30.672  1.00  0.00     0.198 A 
ATOM     68  C   UNL A   1      37.813  29.403  28.420  1.00  0.00     0.198 A 
ATOM     69  F   UNL A   1      39.502  29.405  26.781  1.00  0.00    -0.203 F 
ATOM     70  F   UNL A   1      37.921  28.484  31.922  1.00  0.00    -0.200 F 
ATOM     71  C   UNL A   1      37.402  29.169  29.723  1.00  0.00     0.200 A 
ATOM     72  F   UNL A   1      36.927  29.820  27.504  1.00  0.00    -0.200 F 
ATOM     73  F   UNL A   1      36.116  29.336  30.062  1.00  0.00    -0.200 F 
ENDBRANCH  49  63
BRANCH  50  74
ATOM     74  C   UNL A   1      49.430  26.791  25.945  1.00  0.00     0.064 A 
ATOM     75  C   UNL A   1      49.798  27.032  24.614  1.00  0.00     0.173 A 
ATOM     76  C   UNL A   1      50.410  26.281  26.809  1.00  0.00     0.173 A 
ATOM     77  F   UNL A   1      48.892  27.505  23.745  1.00  0.00    -0.203 F 
ATOM     78  C   UNL A   1      51.084  26.751  24.158  1.00  0.00     0.198 A 
ATOM     79  C   UNL A   1      51.703  26.025  26.358  1.00  0.00     0.198 A 
ATOM     80  F   UNL A   1      50.112  26.040  28.095  1.00  0.00    -0.203 F 
ATOM     81  F   UNL A   1      51.394  26.947  22.869  1.00  0.00    -0.200 F 
ATOM     82  C   UNL A   1      52.037  26.251  25.032  1.00  0.00     0.200 A 
ATOM     83  F   UNL A   1      52.626  25.555  27.210  1.00  0.00    -0.200 F 
ATOM     84  F   UNL A   1      53.274  25.983  24.595  1.00  0.00    -0.200 F 
ENDBRANCH  50  74
BRANCH  62  85
ATOM     85  C   UNL A   1      46.293  32.434  28.561  1.00  0.00     0.064 A 
ATOM     86  C   UNL A   1      46.812  32.731  29.829  1.00  0.00     0.173 A 
ATOM     87  C   UNL A   1      46.295  33.450  27.593  1.00  0.00     0.173 A 
ATOM     88  F   UNL A   1      46.818  31.797  30.792  1.00  0.00    -0.203 F 
ATOM     89  C   UNL A   1      47.289  34.004  30.124  1.00  0.00     0.198 A 
ATOM     90  C   UNL A   1      46.800  34.713  27.882  1.00  0.00     0.198 A 
ATOM     91  F   UNL A   1      45.816  33.212  26.363  1.00  0.00    -0.203 F 
ATOM     92  F   UNL A   1      47.737  34.281  31.357  1.00  0.00    -0.200 F 
ATOM     93  C   UNL A   1      47.289  34.992  29.150  1.00  0.00     0.200 A 
ATOM     94  F   UNL A   1      46.811  35.662  26.936  1.00  0.00    -0.200 F 
ATOM     95  F   UNL A   1      47.754  36.216  29.435  1.00  0.00    -0.200 F 
ENDBRANCH  62  85
ENDBRANCH  36  37
ENDBRANCH  28  31
ENDBRANCH  26  27
ENDBRANCH  25  26
ENDBRANCH   1  25
TORSDOF 15
ENDMDL
MODEL 3
REMARK VINA RESULT:     -11.9      6.081     11.735
REMARK SMILES CC(C)[NH2+][C@@]1(C(=O)NCCCCNC(=O)c2ccc(-c3c4nc(c(-c5c(F)c(F)c(F)c(F)c5F)c5ccc([nH]5)c(-c5c(F)c(F)c(F)c(F)c5F)c5nc(c(-c6c(F)c(F)c(F)c(F)c6F)c6ccc3[nH]6)C=C5)C=C4)cc2)CC[C@H](Sc2ccccn2)C1
REMARK SMILES IDX 10 1 9 2 8 3 6 4 7 5 5 7 79 8 89 9 80 10 81 11 4 12 2 15
REMARK SMILES IDX 1 16 3 17 82 18 83 19 84 20 88 21 85 22 87 23 86 24 11 25
REMARK SMILES IDX 12 26 13 27 14 28 15 30 16 31 17 32 78 33 18 34 77 35 19 36
REMARK SMILES IDX 20 37 21 38 71 39 22 40 76 41 70 42 72 43 23 44 75 45 69 46
REMARK SMILES IDX 68 47 24 49 56 50 36 51 55 52 37 53 40 54 54 55 73 56 38 57
REMARK SMILES IDX 39 58 53 60 74 61 41 62 25 63 26 64 34 65 27 66 28 67 32 68
REMARK SMILES IDX 35 69 29 70 30 71 33 72 31 73 57 74 58 75 66 76 59 77 60 78
REMARK SMILES IDX 64 79 67 80 61 81 62 82 65 83 63 84 42 85 43 86 51 87 44 88
REMARK SMILES IDX 45 89 49 90 52 91 46 92 47 93 50 94 48 95
REMARK H PARENT 8 6 4 13 4 14 13 29 72 48 40 59
REMARK Flexibility Score: inf
ROOT
ATOM      1  C   UNL A   1      31.849  30.367  26.671  1.00  0.00     0.023 C 
ENDROOT
BRANCH   1   2
ATOM      2  C   UNL A   1      33.265  29.836  26.537  1.00  0.00     0.116 C 
BRANCH   2   3
ATOM      3  N   UNL A   1      33.710  29.665  25.180  1.00  0.00    -0.351 N 
ATOM      4  C   UNL A   1      33.156  28.928  24.184  1.00  0.00     0.281 C 
ATOM      5  O   UNL A   1      33.355  29.356  23.036  1.00  0.00    -0.268 OA
ATOM      6  H   UNL A   1      34.532  30.151  24.940  1.00  0.00     0.163 HD
BRANCH   4   7
ATOM      7  C   UNL A   1      32.319  27.612  24.391  1.00  0.00     0.176 C 
ATOM      8  C   UNL A   1      32.327  26.859  23.036  1.00  0.00     0.080 C 
ATOM      9  C   UNL A   1      30.814  27.685  24.748  1.00  0.00     0.094 C 
ATOM     10  C   UNL A   1      31.045  27.297  22.337  1.00  0.00     0.022 C 
ATOM     11  C   UNL A   1      30.033  27.264  23.475  1.00  0.00     0.060 C 
BRANCH   7  12
ATOM     12  N   UNL A   1      33.078  26.768  25.363  1.00  0.00    -0.332 N 
ATOM     13  H   UNL A   1      34.033  27.126  25.398  1.00  0.00     0.347 HD
ATOM     14  H   UNL A   1      32.552  26.839  26.234  1.00  0.00     0.347 HD
BRANCH  12  15
ATOM     15  C   UNL A   1      33.159  25.322  25.089  1.00  0.00     0.176 C 
ATOM     16  C   UNL A   1      34.619  24.913  25.326  1.00  0.00     0.075 C 
ATOM     17  C   UNL A   1      32.267  24.444  25.973  1.00  0.00     0.075 C 
ENDBRANCH  12  15
ENDBRANCH   7  12
BRANCH  11  18
ATOM     18  S   UNL A   1      28.368  28.037  23.327  1.00  0.00    -0.103 SA
BRANCH  18  19
ATOM     19  C   UNL A   1      28.579  29.709  22.746  1.00  0.00     0.096 A 
ATOM     20  C   UNL A   1      28.279  30.104  21.450  1.00  0.00     0.035 A 
ATOM     21  N   UNL A   1      28.915  30.607  23.703  1.00  0.00    -0.250 NA
ATOM     22  C   UNL A   1      28.340  31.460  21.120  1.00  0.00     0.004 A 
ATOM     23  C   UNL A   1      28.918  31.920  23.373  1.00  0.00     0.112 A 
ATOM     24  C   UNL A   1      28.648  32.388  22.103  1.00  0.00     0.020 A 
ENDBRANCH  18  19
ENDBRANCH  11  18
ENDBRANCH   4   7
ENDBRANCH   2   3
ENDBRANCH   1   2
BRANCH   1  25
ATOM     25  C   UNL A   1      31.714  31.880  26.612  1.00  0.00     0.023 C 
BRANCH  25  26
ATOM     26  C   UNL A   1      32.804  32.669  27.321  1.00  0.00     0.116 C 
BRANCH  26  27
ATOM     27  N   UNL A   1      32.427  34.026  27.703  1.00  0.00    -0.352 N 
ATOM     28  C   UNL A   1      33.041  34.879  28.594  1.00  0.00     0.251 C 
ATOM     29  H   UNL A   1      31.623  34.382  27.262  1.00  0.00     0.163 HD
ATOM     30  O   UNL A   1      32.608  35.995  28.816  1.00  0.00    -0.269 OA
BRANCH  28  31
ATOM     31  C   UNL A   1      34.205  34.379  29.345  1.00  0.00     0.039 A 
ATOM     32  C   UNL A   1      33.970  33.636  30.502  1.00  0.00     0.014 A 
ATOM     33  C   UNL A   1      35.495  34.542  28.839  1.00  0.00     0.014 A 
ATOM     34  C   UNL A   1      35.032  32.971  31.109  1.00  0.00     0.010 A 
ATOM     35  C   UNL A   1      36.527  33.793  29.380  1.00  0.00     0.010 A 
ATOM     36  C   UNL A   1      36.305  33.006  30.521  1.00  0.00    -0.014 A 
BRANCH  36  37
ATOM     37  C   UNL A   1      37.441  32.255  31.103  1.00  0.00     0.031 A 
ATOM     38  C   UNL A   1      37.910  32.600  32.486  1.00  0.00     0.074 A 
ATOM     39  C   UNL A   1      38.086  31.332  30.365  1.00  0.00     0.049 A 
ATOM     40  N   UNL A   1      38.953  32.164  33.143  1.00  0.00    -0.248 NA
ATOM     41  C   UNL A   1      37.123  33.611  33.214  1.00  0.00     0.031 C 
ATOM     42  C   UNL A   1      37.752  30.958  28.988  1.00  0.00     0.029 A 
ATOM     43  N   UNL A   1      39.169  30.547  30.667  1.00  0.00    -0.354 N 
ATOM     44  C   UNL A   1      38.965  32.872  34.336  1.00  0.00     0.074 A 
ATOM     45  C   UNL A   1      37.866  33.811  34.288  1.00  0.00     0.031 C 
ATOM     46  C   UNL A   1      38.592  29.994  28.578  1.00  0.00     0.029 A 
ATOM     47  C   UNL A   1      39.544  29.709  29.646  1.00  0.00     0.049 A 
ATOM     48  H   UNL A   1      39.632  30.579  31.535  1.00  0.00     0.167 HD
ATOM     49  C   UNL A   1      39.801  32.730  35.391  1.00  0.00     0.037 A 
ATOM     50  C   UNL A   1      40.547  28.813  29.587  1.00  0.00     0.037 A 
ATOM     51  C   UNL A   1      40.856  31.755  35.445  1.00  0.00     0.049 A 
ATOM     52  C   UNL A   1      41.432  28.638  30.792  1.00  0.00     0.074 A 
ATOM     53  C   UNL A   1      41.729  31.482  36.483  1.00  0.00     0.029 A 
ATOM     54  N   UNL A   1      41.168  30.881  34.414  1.00  0.00    -0.354 N 
ATOM     55  N   UNL A   1      41.405  29.276  31.938  1.00  0.00    -0.248 NA
ATOM     56  C   UNL A   1      42.476  27.609  30.702  1.00  0.00     0.031 C 
ATOM     57  C   UNL A   1      42.588  30.459  36.068  1.00  0.00     0.029 A 
ATOM     58  C   UNL A   1      42.222  30.066  34.790  1.00  0.00     0.049 A 
ATOM     59  H   UNL A   1      40.708  30.844  33.544  1.00  0.00     0.167 HD
ATOM     60  C   UNL A   1      42.404  28.708  32.715  1.00  0.00     0.074 A 
ATOM     61  C   UNL A   1      43.009  27.662  31.915  1.00  0.00     0.031 C 
ATOM     62  C   UNL A   1      42.789  29.020  33.978  1.00  0.00     0.037 A 
BRANCH  49  63
ATOM     63  C   UNL A   1      39.591  33.643  36.563  1.00  0.00     0.064 A 
ATOM     64  C   UNL A   1      38.802  33.262  37.660  1.00  0.00     0.173 A 
ATOM     65  C   UNL A   1      40.182  34.914  36.592  1.00  0.00     0.173 A 
ATOM     66  F   UNL A   1      38.197  32.064  37.674  1.00  0.00    -0.203 F 
ATOM     67  C   UNL A   1      38.581  34.135  38.723  1.00  0.00     0.198 A 
ATOM     68  C   UNL A   1      39.987  35.771  37.672  1.00  0.00     0.198 A 
ATOM     69  F   UNL A   1      40.946  35.328  35.569  1.00  0.00    -0.203 F 
ATOM     70  F   UNL A   1      37.770  33.773  39.726  1.00  0.00    -0.200 F 
ATOM     71  C   UNL A   1      39.179  35.385  38.731  1.00  0.00     0.200 A 
ATOM     72  F   UNL A   1      40.574  36.976  37.683  1.00  0.00    -0.200 F 
ATOM     73  F   UNL A   1      38.966  36.225  39.754  1.00  0.00    -0.200 F 
ENDBRANCH  49  63
BRANCH  50  74
ATOM     74  C   UNL A   1      40.737  27.982  28.370  1.00  0.00     0.064 A 
ATOM     75  C   UNL A   1      41.518  28.444  27.301  1.00  0.00     0.173 A 
ATOM     76  C   UNL A   1      40.147  26.715  28.246  1.00  0.00     0.173 A 
ATOM     77  F   UNL A   1      42.090  29.655  27.366  1.00  0.00    -0.203 F 
ATOM     78  C   UNL A   1      41.682  27.683  26.145  1.00  0.00     0.198 A 
ATOM     79  C   UNL A   1      40.334  25.944  27.099  1.00  0.00     0.198 A 
ATOM     80  F   UNL A   1      39.397  26.223  29.242  1.00  0.00    -0.203 F 
ATOM     81  F   UNL A   1      42.396  28.170  25.121  1.00  0.00    -0.200 F 
ATOM     82  C   UNL A   1      41.094  26.432  26.047  1.00  0.00     0.200 A 
ATOM     83  F   UNL A   1      39.774  24.729  27.014  1.00  0.00    -0.200 F 
ATOM     84  F   UNL A   1      41.253  25.699  24.937  1.00  0.00    -0.200 F 
ENDBRANCH  50  74
BRANCH  62  85
ATOM     85  C   UNL A   1      43.878  28.187  34.584  1.00  0.00     0.064 A 
ATOM     86  C   UNL A   1      45.225  28.567  34.509  1.00  0.00     0.173 A 
ATOM     87  C   UNL A   1      43.561  27.013  35.284  1.00  0.00     0.173 A 
ATOM     88  F   UNL A   1      45.579  29.674  33.838  1.00  0.00    -0.203 F 
ATOM     89  C   UNL A   1      46.220  27.785  35.088  1.00  0.00     0.198 A 
ATOM     90  C   UNL A   1      44.554  26.250  35.888  1.00  0.00     0.198 A 
ATOM     91  F   UNL A   1      42.285  26.613  35.391  1.00  0.00    -0.203 F 
ATOM     92  F   UNL A   1      47.506  28.139  34.963  1.00  0.00    -0.200 F 
ATOM     93  C   UNL A   1      45.884  26.631  35.782  1.00  0.00     0.200 A 
ATOM     94  F   UNL A   1      44.227  25.144  36.569  1.00  0.00    -0.200 F 
ATOM     95  F   UNL A   1      46.843  25.883  36.344  1.00  0.00    -0.200 F 
ENDBRANCH  62  85
ENDBRANCH  36  37
ENDBRANCH  28  31
ENDBRANCH  26  27
ENDBRANCH  25  26
ENDBRANCH   1  25
TORSDOF 15
ENDMDL
