MODEL 1
REMARK VINA RESULT:     -13.5      0.000      0.000
REMARK SMILES C[NH+]1CCC2(CC1)OC[C@H](C(=O)NCCCCNC(=O)c1ccc(-c3c4nc(c(-c5c(F)c(F)c(F)c(F)c5F)c5ccc([nH]5)c(-c5c(F)c(F)c(F)c(F)c5F)c5nc(c(-c6c(F)c(F)c(F)c(F)c6F)c6ccc3[nH]6)C=C5)C=C4)cc1)N2C(=O)c1cc(C(F)(F)F)cc(C(F)(F)F)c1
REMARK SMILES IDX 15 1 14 2 13 3 11 4 12 5 10 7 1 8 2 9 3 10 7 11 4 13 6 14
REMARK SMILES IDX 5 15 8 16 84 17 9 18 85 19 86 20 87 21 88 22 100 23 89 24
REMARK SMILES IDX 95 25 94 26 90 27 91 28 92 29 93 30 96 31 97 32 98 33 99 34
REMARK SMILES IDX 16 35 17 36 18 37 19 38 20 40 21 41 22 42 83 43 23 44 82 45
REMARK SMILES IDX 24 46 25 47 26 48 76 49 27 50 81 51 75 52 77 53 28 54 80 55
REMARK SMILES IDX 74 56 73 57 29 59 61 60 41 61 60 62 42 63 45 64 59 65 78 66
REMARK SMILES IDX 43 67 44 68 58 70 79 71 46 72 30 73 31 74 39 75 32 76 33 77
REMARK SMILES IDX 37 78 40 79 34 80 35 81 38 82 36 83 62 84 63 85 71 86 64 87
REMARK SMILES IDX 65 88 69 89 72 90 66 91 67 92 70 93 68 94 47 95 48 96 56 97
REMARK SMILES IDX 49 98 50 99 54 100 57 101 51 102 52 103 55 104 53 105
REMARK H PARENT 13 6 2 12 18 39 77 58 45 69
REMARK Flexibility Score: inf
ROOT
ATOM      1  C   UNL A   1      31.669  30.684  26.147  1.00  0.00     0.023 C 
ENDROOT
BRANCH   1   2
ATOM      2  C   UNL A   1      31.895  29.508  27.095  1.00  0.00     0.116 C 
BRANCH   2   3
ATOM      3  N   UNL A   1      33.029  28.708  26.681  1.00  0.00    -0.354 N 
ATOM      4  C   UNL A   1      33.101  27.389  26.348  1.00  0.00     0.245 C 
ATOM      5  O   UNL A   1      34.237  26.926  26.219  1.00  0.00    -0.273 OA
ATOM      6  H   UNL A   1      33.883  29.194  26.632  1.00  0.00     0.163 HD
BRANCH   4   7
ATOM      7  C   UNL A   1      31.825  26.560  26.099  1.00  0.00     0.203 C 
ATOM      8  C   UNL A   1      32.942  23.341  20.699  1.00  0.00     0.332 C 
ATOM      9  N   UNL A   1      32.956  23.337  22.156  1.00  0.00    -0.337 N 
ATOM     10  C   UNL A   1      33.823  24.384  22.691  1.00  0.00     0.267 C 
ATOM     11  C   UNL A   1      31.614  23.226  22.729  1.00  0.00     0.267 C 
ATOM     12  H   UNL A   1      33.400  22.478  22.481  1.00  0.00     0.347 HD
ATOM     13  C   UNL A   1      33.140  25.660  23.109  1.00  0.00     0.120 C 
ATOM     14  C   UNL A   1      30.951  24.487  23.264  1.00  0.00     0.120 C 
ATOM     15  C   UNL A   1      31.893  25.458  23.972  1.00  0.00     0.155 C 
ATOM     16  O   UNL A   1      31.209  26.752  23.843  1.00  0.00    -0.352 OA
ATOM     17  N   UNL A   1      32.081  25.289  25.439  1.00  0.00    -0.295 N 
ATOM     18  C   UNL A   1      30.931  27.290  25.135  1.00  0.00     0.198 C 
BRANCH  17  19
ATOM     19  C   UNL A   1      32.351  24.233  26.310  1.00  0.00     0.256 C 
ATOM     20  O   UNL A   1      31.767  24.115  27.390  1.00  0.00    -0.269 OA
BRANCH  19  21
ATOM     21  C   UNL A   1      33.290  23.144  26.013  1.00  0.00     0.041 A 
ATOM     22  C   UNL A   1      32.810  21.847  25.778  1.00  0.00     0.027 A 
ATOM     23  C   UNL A   1      34.661  23.362  26.108  1.00  0.00     0.027 A 
ATOM     24  C   UNL A   1      33.707  20.800  25.488  1.00  0.00     0.057 A 
ATOM     25  C   UNL A   1      35.564  22.377  25.681  1.00  0.00     0.057 A 
ATOM     26  C   UNL A   1      35.079  21.093  25.390  1.00  0.00     0.026 A 
BRANCH  24  27
ATOM     27  C   UNL A   1      33.204  19.391  25.275  1.00  0.00     0.416 C 
ATOM     28  F   UNL A   1      32.111  19.350  24.464  1.00  0.00    -0.166 F 
ATOM     29  F   UNL A   1      34.135  18.586  24.697  1.00  0.00    -0.166 F 
ATOM     30  F   UNL A   1      32.834  18.768  26.429  1.00  0.00    -0.166 F 
ENDBRANCH  24  27
BRANCH  25  31
ATOM     31  C   UNL A   1      37.021  22.711  25.451  1.00  0.00     0.416 C 
ATOM     32  F   UNL A   1      37.407  22.497  24.165  1.00  0.00    -0.166 F 
ATOM     33  F   UNL A   1      37.299  24.019  25.708  1.00  0.00    -0.166 F 
ATOM     34  F   UNL A   1      37.876  21.987  26.225  1.00  0.00    -0.166 F 
ENDBRANCH  25  31
ENDBRANCH  19  21
ENDBRANCH  17  19
ENDBRANCH   4   7
ENDBRANCH   2   3
ENDBRANCH   1   2
BRANCH   1  35
ATOM     35  C   UNL A   1      31.408  32.025  26.837  1.00  0.00     0.023 C 
BRANCH  35  36
ATOM     36  C   UNL A   1      32.652  32.781  27.287  1.00  0.00     0.116 C 
BRANCH  36  37
ATOM     37  N   UNL A   1      32.380  34.169  27.624  1.00  0.00    -0.352 N 
ATOM     38  C   UNL A   1      32.971  34.972  28.572  1.00  0.00     0.251 C 
ATOM     39  H   UNL A   1      31.668  34.598  27.097  1.00  0.00     0.163 HD
ATOM     40  O   UNL A   1      32.516  36.081  28.811  1.00  0.00    -0.269 OA
BRANCH  38  41
ATOM     41  C   UNL A   1      34.142  34.474  29.326  1.00  0.00     0.039 A 
ATOM     42  C   UNL A   1      33.934  33.895  30.580  1.00  0.00     0.014 A 
ATOM     43  C   UNL A   1      35.433  34.567  28.800  1.00  0.00     0.014 A 
ATOM     44  C   UNL A   1      35.012  33.348  31.277  1.00  0.00     0.010 A 
ATOM     45  C   UNL A   1      36.494  33.953  29.460  1.00  0.00     0.010 A 
ATOM     46  C   UNL A   1      36.295  33.336  30.705  1.00  0.00    -0.014 A 
BRANCH  46  47
ATOM     47  C   UNL A   1      37.436  32.675  31.390  1.00  0.00     0.031 A 
ATOM     48  C   UNL A   1      38.111  31.486  30.765  1.00  0.00     0.074 A 
ATOM     49  C   UNL A   1      37.825  33.110  32.605  1.00  0.00     0.049 A 
ATOM     50  N   UNL A   1      39.075  30.737  31.238  1.00  0.00    -0.248 NA
ATOM     51  C   UNL A   1      37.623  31.066  29.442  1.00  0.00     0.031 C 
ATOM     52  C   UNL A   1      37.221  34.225  33.339  1.00  0.00     0.029 A 
ATOM     53  N   UNL A   1      38.814  32.659  33.446  1.00  0.00    -0.354 N 
ATOM     54  C   UNL A   1      39.297  29.755  30.281  1.00  0.00     0.074 A 
ATOM     55  C   UNL A   1      38.334  29.970  29.224  1.00  0.00     0.031 C 
ATOM     56  C   UNL A   1      37.865  34.385  34.505  1.00  0.00     0.029 A 
ATOM     57  C   UNL A   1      38.896  33.359  34.625  1.00  0.00     0.049 A 
ATOM     58  H   UNL A   1      39.407  31.906  33.224  1.00  0.00     0.167 HD
ATOM     59  C   UNL A   1      40.236  28.779  30.274  1.00  0.00     0.037 A 
ATOM     60  C   UNL A   1      39.704  33.184  35.690  1.00  0.00     0.037 A 
ATOM     61  C   UNL A   1      41.208  28.583  31.318  1.00  0.00     0.049 A 
ATOM     62  C   UNL A   1      40.724  32.077  35.662  1.00  0.00     0.074 A 
ATOM     63  C   UNL A   1      42.236  27.658  31.374  1.00  0.00     0.029 A 
ATOM     64  N   UNL A   1      41.269  29.320  32.492  1.00  0.00    -0.354 N 
ATOM     65  N   UNL A   1      40.974  31.203  34.717  1.00  0.00    -0.248 NA
ATOM     66  C   UNL A   1      41.583  31.938  36.847  1.00  0.00     0.031 C 
ATOM     67  C   UNL A   1      42.883  27.798  32.606  1.00  0.00     0.029 A 
ATOM     68  C   UNL A   1      42.301  28.852  33.290  1.00  0.00     0.049 A 
ATOM     69  H   UNL A   1      40.668  30.065  32.723  1.00  0.00     0.167 HD
ATOM     70  C   UNL A   1      42.036  30.436  35.178  1.00  0.00     0.074 A 
ATOM     71  C   UNL A   1      42.395  30.959  36.479  1.00  0.00     0.031 C 
ATOM     72  C   UNL A   1      42.657  29.392  34.577  1.00  0.00     0.037 A 
BRANCH  59  73
ATOM     73  C   UNL A   1      40.265  27.843  29.100  1.00  0.00     0.064 A 
ATOM     74  C   UNL A   1      39.524  26.651  29.089  1.00  0.00     0.173 A 
ATOM     75  C   UNL A   1      40.995  28.171  27.947  1.00  0.00     0.173 A 
ATOM     76  F   UNL A   1      38.817  26.285  30.169  1.00  0.00    -0.203 F 
ATOM     77  C   UNL A   1      39.531  25.813  27.977  1.00  0.00     0.198 A 
ATOM     78  C   UNL A   1      40.973  27.346  26.826  1.00  0.00     0.198 A 
ATOM     79  F   UNL A   1      41.716  29.301  27.902  1.00  0.00    -0.203 F 
ATOM     80  F   UNL A   1      38.850  24.658  28.006  1.00  0.00    -0.200 F 
ATOM     81  C   UNL A   1      40.247  26.165  26.843  1.00  0.00     0.200 A 
ATOM     82  F   UNL A   1      41.653  27.698  25.725  1.00  0.00    -0.200 F 
ATOM     83  F   UNL A   1      40.241  25.365  25.768  1.00  0.00    -0.200 F 
ENDBRANCH  59  73
BRANCH  60  84
ATOM     84  C   UNL A   1      39.591  34.080  36.872  1.00  0.00     0.064 A 
ATOM     85  C   UNL A   1      40.271  35.306  36.916  1.00  0.00     0.173 A 
ATOM     86  C   UNL A   1      38.828  33.720  37.992  1.00  0.00     0.173 A 
ATOM     87  F   UNL A   1      41.031  35.687  35.879  1.00  0.00    -0.203 F 
ATOM     88  C   UNL A   1      40.221  36.119  38.047  1.00  0.00     0.198 A 
ATOM     89  C   UNL A   1      38.749  34.550  39.109  1.00  0.00     0.198 A 
ATOM     90  F   UNL A   1      38.152  32.562  38.002  1.00  0.00    -0.203 F 
ATOM     91  F   UNL A   1      40.932  37.254  38.086  1.00  0.00    -0.200 F 
ATOM     92  C   UNL A   1      39.456  35.743  39.140  1.00  0.00     0.200 A 
ATOM     93  F   UNL A   1      37.996  34.190  40.157  1.00  0.00    -0.200 F 
ATOM     94  F   UNL A   1      39.410  36.523  40.228  1.00  0.00    -0.200 F 
ENDBRANCH  60  84
BRANCH  72  95
ATOM     95  C   UNL A   1      43.823  28.774  35.296  1.00  0.00     0.064 A 
ATOM     96  C   UNL A   1      43.658  27.720  36.206  1.00  0.00     0.173 A 
ATOM     97  C   UNL A   1      45.129  29.218  35.036  1.00  0.00     0.173 A 
ATOM     98  F   UNL A   1      42.431  27.267  36.501  1.00  0.00    -0.203 F 
ATOM     99  C   UNL A   1      44.755  27.155  36.852  1.00  0.00     0.198 A 
ATOM    100  C   UNL A   1      46.225  28.626  35.656  1.00  0.00     0.198 A 
ATOM    101  F   UNL A   1      45.344  30.218  34.167  1.00  0.00    -0.203 F 
ATOM    102  F   UNL A   1      44.568  26.185  37.759  1.00  0.00    -0.200 F 
ATOM    103  C   UNL A   1      46.037  27.602  36.571  1.00  0.00     0.200 A 
ATOM    104  F   UNL A   1      47.464  29.049  35.370  1.00  0.00    -0.200 F 
ATOM    105  F   UNL A   1      47.091  27.049  37.186  1.00  0.00    -0.200 F 
ENDBRANCH  72  95
ENDBRANCH  46  47
ENDBRANCH  38  41
ENDBRANCH  36  37
ENDBRANCH  35  36
ENDBRANCH   1  35
TORSDOF 15
ENDMDL
MODEL 2
REMARK VINA RESULT:     -13.5      0.080      1.551
REMARK SMILES C[NH+]1CCC2(CC1)OC[C@H](C(=O)NCCCCNC(=O)c1ccc(-c3c4nc(c(-c5c(F)c(F)c(F)c(F)c5F)c5ccc([nH]5)c(-c5c(F)c(F)c(F)c(F)c5F)c5nc(c(-c6c(F)c(F)c(F)c(F)c6F)c6ccc3[nH]6)C=C5)C=C4)cc1)N2C(=O)c1cc(C(F)(F)F)cc(C(F)(F)F)c1
REMARK SMILES IDX 15 1 14 2 13 3 11 4 12 5 10 7 1 8 2 9 3 10 7 11 4 13 6 14
REMARK SMILES IDX 5 15 8 16 84 17 9 18 85 19 86 20 87 21 88 22 100 23 89 24
REMARK SMILES IDX 95 25 94 26 90 27 91 28 92 29 93 30 96 31 97 32 98 33 99 34
REMARK SMILES IDX 16 35 17 36 18 37 19 38 20 40 21 41 22 42 83 43 23 44 82 45
REMARK SMILES IDX 24 46 25 47 26 48 76 49 27 50 81 51 75 52 77 53 28 54 80 55
REMARK SMILES IDX 74 56 73 57 29 59 61 60 41 61 60 62 42 63 45 64 59 65 78 66
REMARK SMILES IDX 43 67 44 68 58 70 79 71 46 72 30 73 31 74 39 75 32 76 33 77
REMARK SMILES IDX 37 78 40 79 34 80 35 81 38 82 36 83 62 84 63 85 71 86 64 87
REMARK SMILES IDX 65 88 69 89 72 90 66 91 67 92 70 93 68 94 47 95 48 96 56 97
REMARK SMILES IDX 49 98 50 99 54 100 57 101 51 102 52 103 55 104 53 105
REMARK H PARENT 13 6 2 12 18 39 77 58 45 69
REMARK Flexibility Score: inf
ROOT
ATOM      1  C   UNL A   1      31.700  30.677  26.174  1.00  0.00     0.023 C 
ENDROOT
BRANCH   1   2
ATOM      2  C   UNL A   1      31.958  29.536  27.157  1.00  0.00     0.116 C 
BRANCH   2   3
ATOM      3  N   UNL A   1      33.081  28.724  26.737  1.00  0.00    -0.354 N 
ATOM      4  C   UNL A   1      33.134  27.409  26.386  1.00  0.00     0.245 C 
ATOM      5  O   UNL A   1      34.262  26.929  26.256  1.00  0.00    -0.273 OA
ATOM      6  H   UNL A   1      33.943  29.197  26.700  1.00  0.00     0.163 HD
BRANCH   4   7
ATOM      7  C   UNL A   1      31.845  26.605  26.119  1.00  0.00     0.203 C 
ATOM      8  C   UNL A   1      32.947  23.429  20.690  1.00  0.00     0.332 C 
ATOM      9  N   UNL A   1      32.950  23.408  22.147  1.00  0.00    -0.337 N 
ATOM     10  C   UNL A   1      33.831  24.434  22.700  1.00  0.00     0.267 C 
ATOM     11  C   UNL A   1      31.603  23.313  22.709  1.00  0.00     0.267 C 
ATOM     12  H   UNL A   1      33.378  22.538  22.465  1.00  0.00     0.347 HD
ATOM     13  C   UNL A   1      33.167  25.717  23.127  1.00  0.00     0.120 C 
ATOM     14  C   UNL A   1      30.957  24.579  23.253  1.00  0.00     0.120 C 
ATOM     15  C   UNL A   1      31.910  25.525  23.980  1.00  0.00     0.155 C 
ATOM     16  O   UNL A   1      31.249  26.833  23.861  1.00  0.00    -0.352 OA
ATOM     17  N   UNL A   1      32.085  25.336  25.445  1.00  0.00    -0.295 N 
ATOM     18  C   UNL A   1      30.971  27.360  25.157  1.00  0.00     0.198 C 
BRANCH  17  19
ATOM     19  C   UNL A   1      32.331  24.267  26.306  1.00  0.00     0.256 C 
ATOM     20  O   UNL A   1      31.725  24.137  27.373  1.00  0.00    -0.269 OA
BRANCH  19  21
ATOM     21  C   UNL A   1      33.269  23.176  26.012  1.00  0.00     0.041 A 
ATOM     22  C   UNL A   1      32.788  21.878  25.783  1.00  0.00     0.027 A 
ATOM     23  C   UNL A   1      34.640  23.393  26.103  1.00  0.00     0.027 A 
ATOM     24  C   UNL A   1      33.684  20.829  25.496  1.00  0.00     0.057 A 
ATOM     25  C   UNL A   1      35.542  22.406  25.678  1.00  0.00     0.057 A 
ATOM     26  C   UNL A   1      35.055  21.121  25.394  1.00  0.00     0.026 A 
BRANCH  24  27
ATOM     27  C   UNL A   1      33.179  19.420  25.290  1.00  0.00     0.416 C 
ATOM     28  F   UNL A   1      34.116  18.614  24.720  1.00  0.00    -0.166 F 
ATOM     29  F   UNL A   1      32.820  18.817  26.455  1.00  0.00    -0.166 F 
ATOM     30  F   UNL A   1      32.086  19.350  24.480  1.00  0.00    -0.166 F 
ENDBRANCH  24  27
BRANCH  25  31
ATOM     31  C   UNL A   1      36.999  22.738  25.445  1.00  0.00     0.416 C 
ATOM     32  F   UNL A   1      37.364  22.589  24.143  1.00  0.00    -0.166 F 
ATOM     33  F   UNL A   1      37.294  24.028  25.766  1.00  0.00    -0.166 F 
ATOM     34  F   UNL A   1      37.858  21.966  26.166  1.00  0.00    -0.166 F 
ENDBRANCH  25  31
ENDBRANCH  19  21
ENDBRANCH  17  19
ENDBRANCH   4   7
ENDBRANCH   2   3
ENDBRANCH   1   2
BRANCH   1  35
ATOM     35  C   UNL A   1      31.437  32.038  26.825  1.00  0.00     0.023 C 
BRANCH  35  36
ATOM     36  C   UNL A   1      32.678  32.786  27.300  1.00  0.00     0.116 C 
BRANCH  36  37
ATOM     37  N   UNL A   1      32.405  34.171  27.649  1.00  0.00    -0.352 N 
ATOM     38  C   UNL A   1      32.996  34.966  28.602  1.00  0.00     0.251 C 
ATOM     39  H   UNL A   1      31.692  34.603  27.126  1.00  0.00     0.163 HD
ATOM     40  O   UNL A   1      32.541  36.072  28.850  1.00  0.00    -0.269 OA
BRANCH  38  41
ATOM     41  C   UNL A   1      34.169  34.463  29.351  1.00  0.00     0.039 A 
ATOM     42  C   UNL A   1      33.962  33.873  30.600  1.00  0.00     0.014 A 
ATOM     43  C   UNL A   1      35.459  34.562  28.825  1.00  0.00     0.014 A 
ATOM     44  C   UNL A   1      35.042  33.320  31.290  1.00  0.00     0.010 A 
ATOM     45  C   UNL A   1      36.522  33.944  29.478  1.00  0.00     0.010 A 
ATOM     46  C   UNL A   1      36.324  33.315  30.717  1.00  0.00    -0.014 A 
BRANCH  46  47
ATOM     47  C   UNL A   1      37.467  32.650  31.396  1.00  0.00     0.031 A 
ATOM     48  C   UNL A   1      38.146  31.471  30.757  1.00  0.00     0.074 A 
ATOM     49  C   UNL A   1      37.853  33.071  32.617  1.00  0.00     0.049 A 
ATOM     50  N   UNL A   1      39.112  30.719  31.222  1.00  0.00    -0.248 NA
ATOM     51  C   UNL A   1      37.661  31.065  29.428  1.00  0.00     0.031 C 
ATOM     52  C   UNL A   1      37.245  34.175  33.363  1.00  0.00     0.029 A 
ATOM     53  N   UNL A   1      38.843  32.613  33.452  1.00  0.00    -0.354 N 
ATOM     54  C   UNL A   1      39.338  29.750  30.253  1.00  0.00     0.074 A 
ATOM     55  C   UNL A   1      38.376  29.974  29.198  1.00  0.00     0.031 C 
ATOM     56  C   UNL A   1      37.887  34.323  34.532  1.00  0.00     0.029 A 
ATOM     57  C   UNL A   1      38.921  33.299  34.640  1.00  0.00     0.049 A 
ATOM     58  H   UNL A   1      39.439  31.865  33.223  1.00  0.00     0.167 HD
ATOM     59  C   UNL A   1      40.280  28.776  30.236  1.00  0.00     0.037 A 
ATOM     60  C   UNL A   1      39.729  33.114  35.704  1.00  0.00     0.037 A 
ATOM     61  C   UNL A   1      41.252  28.571  31.278  1.00  0.00     0.049 A 
ATOM     62  C   UNL A   1      40.752  32.010  35.664  1.00  0.00     0.074 A 
ATOM     63  C   UNL A   1      42.283  27.649  31.324  1.00  0.00     0.029 A 
ATOM     64  N   UNL A   1      41.309  29.294  32.461  1.00  0.00    -0.354 N 
ATOM     65  N   UNL A   1      41.006  31.149  34.709  1.00  0.00    -0.248 NA
ATOM     66  C   UNL A   1      41.610  31.860  36.847  1.00  0.00     0.031 C 
ATOM     67  C   UNL A   1      42.928  27.776  32.558  1.00  0.00     0.029 A 
ATOM     68  C   UNL A   1      42.342  28.820  33.254  1.00  0.00     0.049 A 
ATOM     69  H   UNL A   1      40.706  30.034  32.701  1.00  0.00     0.167 HD
ATOM     70  C   UNL A   1      42.071  30.380  35.161  1.00  0.00     0.074 A 
ATOM     71  C   UNL A   1      42.426  30.888  36.468  1.00  0.00     0.031 C 
ATOM     72  C   UNL A   1      42.695  29.345  34.549  1.00  0.00     0.037 A 
BRANCH  59  73
ATOM     73  C   UNL A   1      40.313  27.855  29.050  1.00  0.00     0.064 A 
ATOM     74  C   UNL A   1      39.577  26.661  29.024  1.00  0.00     0.173 A 
ATOM     75  C   UNL A   1      41.043  28.200  27.902  1.00  0.00     0.173 A 
ATOM     76  F   UNL A   1      38.871  26.278  30.099  1.00  0.00    -0.203 F 
ATOM     77  C   UNL A   1      39.588  25.835  27.903  1.00  0.00     0.198 A 
ATOM     78  C   UNL A   1      41.025  27.389  26.770  1.00  0.00     0.198 A 
ATOM     79  F   UNL A   1      41.759  29.333  27.871  1.00  0.00    -0.203 F 
ATOM     80  F   UNL A   1      38.912  24.678  27.917  1.00  0.00    -0.200 F 
ATOM     81  C   UNL A   1      40.304  26.205  26.774  1.00  0.00     0.200 A 
ATOM     82  F   UNL A   1      41.704  27.756  25.675  1.00  0.00    -0.200 F 
ATOM     83  F   UNL A   1      40.301  25.417  25.689  1.00  0.00    -0.200 F 
ENDBRANCH  59  73
BRANCH  60  84
ATOM     84  C   UNL A   1      39.612  33.996  36.896  1.00  0.00     0.064 A 
ATOM     85  C   UNL A   1      38.834  33.618  38.000  1.00  0.00     0.173 A 
ATOM     86  C   UNL A   1      40.249  35.244  36.948  1.00  0.00     0.173 A 
ATOM     87  F   UNL A   1      38.187  32.443  37.993  1.00  0.00    -0.203 F 
ATOM     88  C   UNL A   1      38.670  34.468  39.093  1.00  0.00     0.198 A 
ATOM     89  C   UNL A   1      40.113  36.079  38.055  1.00  0.00     0.198 A 
ATOM     90  F   UNL A   1      41.010  35.653  35.922  1.00  0.00    -0.203 F 
ATOM     91  F   UNL A   1      37.869  34.108  40.105  1.00  0.00    -0.200 F 
ATOM     92  C   UNL A   1      39.313  35.696  39.121  1.00  0.00     0.200 A 
ATOM     93  F   UNL A   1      40.750  37.258  38.085  1.00  0.00    -0.200 F 
ATOM     94  F   UNL A   1      39.153  36.514  40.169  1.00  0.00    -0.200 F 
ENDBRANCH  60  84
BRANCH  72  95
ATOM     95  C   UNL A   1      43.862  28.722  35.261  1.00  0.00     0.064 A 
ATOM     96  C   UNL A   1      45.176  29.167  35.060  1.00  0.00     0.173 A 
ATOM     97  C   UNL A   1      43.654  27.690  36.190  1.00  0.00     0.173 A 
ATOM     98  F   UNL A   1      45.432  30.140  34.173  1.00  0.00    -0.203 F 
ATOM     99  C   UNL A   1      46.241  28.583  35.741  1.00  0.00     0.198 A 
ATOM    100  C   UNL A   1      44.717  27.134  36.895  1.00  0.00     0.198 A 
ATOM    101  F   UNL A   1      42.414  27.232  36.427  1.00  0.00    -0.203 F 
ATOM    102  F   UNL A   1      47.495  28.988  35.492  1.00  0.00    -0.200 F 
ATOM    103  C   UNL A   1      46.011  27.573  36.662  1.00  0.00     0.200 A 
ATOM    104  F   UNL A   1      44.489  26.170  37.797  1.00  0.00    -0.200 F 
ATOM    105  F   UNL A   1      47.037  27.019  37.323  1.00  0.00    -0.200 F 
ENDBRANCH  72  95
ENDBRANCH  46  47
ENDBRANCH  38  41
ENDBRANCH  36  37
ENDBRANCH  35  36
ENDBRANCH   1  35
TORSDOF 15
ENDMDL
MODEL 3
REMARK VINA RESULT:     -13.4      0.162      1.553
REMARK SMILES C[NH+]1CCC2(CC1)OC[C@H](C(=O)NCCCCNC(=O)c1ccc(-c3c4nc(c(-c5c(F)c(F)c(F)c(F)c5F)c5ccc([nH]5)c(-c5c(F)c(F)c(F)c(F)c5F)c5nc(c(-c6c(F)c(F)c(F)c(F)c6F)c6ccc3[nH]6)C=C5)C=C4)cc1)N2C(=O)c1cc(C(F)(F)F)cc(C(F)(F)F)c1
REMARK SMILES IDX 15 1 14 2 13 3 11 4 12 5 10 7 1 8 2 9 3 10 7 11 4 13 6 14
REMARK SMILES IDX 5 15 8 16 84 17 9 18 85 19 86 20 87 21 88 22 100 23 89 24
REMARK SMILES IDX 95 25 94 26 90 27 91 28 92 29 93 30 96 31 97 32 98 33 99 34
REMARK SMILES IDX 16 35 17 36 18 37 19 38 20 40 21 41 22 42 83 43 23 44 82 45
REMARK SMILES IDX 24 46 25 47 26 48 76 49 27 50 81 51 75 52 77 53 28 54 80 55
REMARK SMILES IDX 74 56 73 57 29 59 61 60 41 61 60 62 42 63 45 64 59 65 78 66
REMARK SMILES IDX 43 67 44 68 58 70 79 71 46 72 30 73 31 74 39 75 32 76 33 77
REMARK SMILES IDX 37 78 40 79 34 80 35 81 38 82 36 83 62 84 63 85 71 86 64 87
REMARK SMILES IDX 65 88 69 89 72 90 66 91 67 92 70 93 68 94 47 95 48 96 56 97
REMARK SMILES IDX 49 98 50 99 54 100 57 101 51 102 52 103 55 104 53 105
REMARK H PARENT 13 6 2 12 18 39 77 58 45 69
REMARK Flexibility Score: inf
ROOT
ATOM      1  C   UNL A   1      31.666  30.698  26.069  1.00  0.00     0.023 C 
ENDROOT
BRANCH   1   2
ATOM      2  C   UNL A   1      31.897  29.546  27.046  1.00  0.00     0.116 C 
BRANCH   2   3
ATOM      3  N   UNL A   1      33.031  28.737  26.647  1.00  0.00    -0.354 N 
ATOM      4  C   UNL A   1      33.098  27.416  26.320  1.00  0.00     0.245 C 
ATOM      5  O   UNL A   1      34.232  26.945  26.205  1.00  0.00    -0.273 OA
ATOM      6  H   UNL A   1      33.888  29.218  26.605  1.00  0.00     0.163 HD
BRANCH   4   7
ATOM      7  C   UNL A   1      31.819  26.594  26.063  1.00  0.00     0.203 C 
ATOM      8  C   UNL A   1      32.965  23.353  20.682  1.00  0.00     0.332 C 
ATOM      9  N   UNL A   1      32.966  23.353  22.139  1.00  0.00    -0.337 N 
ATOM     10  C   UNL A   1      33.834  24.396  22.679  1.00  0.00     0.267 C 
ATOM     11  C   UNL A   1      31.618  23.252  22.700  1.00  0.00     0.267 C 
ATOM     12  H   UNL A   1      33.402  22.493  22.471  1.00  0.00     0.347 HD
ATOM     13  C   UNL A   1      33.156  25.678  23.087  1.00  0.00     0.120 C 
ATOM     14  C   UNL A   1      30.958  24.519  23.225  1.00  0.00     0.120 C 
ATOM     15  C   UNL A   1      31.900  25.485  23.940  1.00  0.00     0.155 C 
ATOM     16  O   UNL A   1      31.225  26.784  23.801  1.00  0.00    -0.352 OA
ATOM     17  N   UNL A   1      32.073  25.319  25.408  1.00  0.00    -0.295 N 
ATOM     18  C   UNL A   1      30.938  27.326  25.088  1.00  0.00     0.198 C 
BRANCH  17  19
ATOM     19  C   UNL A   1      32.329  24.265  26.285  1.00  0.00     0.256 C 
ATOM     20  O   UNL A   1      31.730  24.149  27.357  1.00  0.00    -0.269 OA
BRANCH  19  21
ATOM     21  C   UNL A   1      33.270  23.174  26.003  1.00  0.00     0.041 A 
ATOM     22  C   UNL A   1      32.792  21.875  25.773  1.00  0.00     0.027 A 
ATOM     23  C   UNL A   1      34.640  23.392  26.107  1.00  0.00     0.027 A 
ATOM     24  C   UNL A   1      33.691  20.826  25.498  1.00  0.00     0.057 A 
ATOM     25  C   UNL A   1      35.547  22.404  25.693  1.00  0.00     0.057 A 
ATOM     26  C   UNL A   1      35.063  21.118  25.408  1.00  0.00     0.026 A 
BRANCH  24  27
ATOM     27  C   UNL A   1      33.189  19.415  25.291  1.00  0.00     0.416 C 
ATOM     28  F   UNL A   1      32.087  19.371  24.495  1.00  0.00    -0.166 F 
ATOM     29  F   UNL A   1      34.115  18.613  24.701  1.00  0.00    -0.166 F 
ATOM     30  F   UNL A   1      32.836  18.791  26.450  1.00  0.00    -0.166 F 
ENDBRANCH  24  27
BRANCH  25  31
ATOM     31  C   UNL A   1      37.006  22.736  25.472  1.00  0.00     0.416 C 
ATOM     32  F   UNL A   1      37.838  21.884  26.131  1.00  0.00    -0.166 F 
ATOM     33  F   UNL A   1      37.361  22.659  24.160  1.00  0.00    -0.166 F 
ATOM     34  F   UNL A   1      37.349  23.988  25.881  1.00  0.00    -0.166 F 
ENDBRANCH  25  31
ENDBRANCH  19  21
ENDBRANCH  17  19
ENDBRANCH   4   7
ENDBRANCH   2   3
ENDBRANCH   1   2
BRANCH   1  35
ATOM     35  C   UNL A   1      31.387  32.052  26.726  1.00  0.00     0.023 C 
BRANCH  35  36
ATOM     36  C   UNL A   1      32.606  32.759  27.308  1.00  0.00     0.116 C 
BRANCH  36  37
ATOM     37  N   UNL A   1      32.345  34.148  27.648  1.00  0.00    -0.352 N 
ATOM     38  C   UNL A   1      32.955  34.949  28.584  1.00  0.00     0.251 C 
ATOM     39  H   UNL A   1      31.625  34.579  27.132  1.00  0.00     0.163 HD
ATOM     40  O   UNL A   1      32.508  36.061  28.829  1.00  0.00    -0.269 OA
BRANCH  38  41
ATOM     41  C   UNL A   1      34.137  34.448  29.319  1.00  0.00     0.039 A 
ATOM     42  C   UNL A   1      33.942  33.820  30.551  1.00  0.00     0.014 A 
ATOM     43  C   UNL A   1      35.425  34.587  28.796  1.00  0.00     0.014 A 
ATOM     44  C   UNL A   1      35.032  33.269  31.226  1.00  0.00     0.010 A 
ATOM     45  C   UNL A   1      36.499  33.970  29.431  1.00  0.00     0.010 A 
ATOM     46  C   UNL A   1      36.314  33.304  30.653  1.00  0.00    -0.014 A 
BRANCH  46  47
ATOM     47  C   UNL A   1      37.469  32.642  31.313  1.00  0.00     0.031 A 
ATOM     48  C   UNL A   1      38.144  31.466  30.661  1.00  0.00     0.074 A 
ATOM     49  C   UNL A   1      37.872  33.061  32.529  1.00  0.00     0.049 A 
ATOM     50  N   UNL A   1      39.120  30.717  31.111  1.00  0.00    -0.248 NA
ATOM     51  C   UNL A   1      37.640  31.062  29.339  1.00  0.00     0.031 C 
ATOM     52  C   UNL A   1      37.271  34.161  33.287  1.00  0.00     0.029 A 
ATOM     53  N   UNL A   1      38.875  32.605  33.349  1.00  0.00    -0.354 N 
ATOM     54  C   UNL A   1      39.335  29.751  30.136  1.00  0.00     0.074 A 
ATOM     55  C   UNL A   1      38.356  29.975  29.095  1.00  0.00     0.031 C 
ATOM     56  C   UNL A   1      37.929  34.309  34.447  1.00  0.00     0.029 A 
ATOM     57  C   UNL A   1      38.969  33.289  34.537  1.00  0.00     0.049 A 
ATOM     58  H   UNL A   1      39.471  31.860  33.109  1.00  0.00     0.167 HD
ATOM     59  C   UNL A   1      40.280  28.782  30.102  1.00  0.00     0.037 A 
ATOM     60  C   UNL A   1      39.793  33.104  35.589  1.00  0.00     0.037 A 
ATOM     61  C   UNL A   1      41.268  28.578  31.129  1.00  0.00     0.049 A 
ATOM     62  C   UNL A   1      40.820  32.005  35.530  1.00  0.00     0.074 A 
ATOM     63  C   UNL A   1      42.304  27.660  31.158  1.00  0.00     0.029 A 
ATOM     64  N   UNL A   1      41.340  29.298  32.313  1.00  0.00    -0.354 N 
ATOM     65  N   UNL A   1      41.063  31.147  34.570  1.00  0.00    -0.248 NA
ATOM     66  C   UNL A   1      41.696  31.855  36.701  1.00  0.00     0.031 C 
ATOM     67  C   UNL A   1      42.967  27.787  32.383  1.00  0.00     0.029 A 
ATOM     68  C   UNL A   1      42.386  28.826  33.089  1.00  0.00     0.049 A 
ATOM     69  H   UNL A   1      40.737  30.035  32.563  1.00  0.00     0.167 HD
ATOM     70  C   UNL A   1      42.137  30.381  35.005  1.00  0.00     0.074 A 
ATOM     71  C   UNL A   1      42.510  30.887  36.307  1.00  0.00     0.031 C 
ATOM     72  C   UNL A   1      42.757  29.350  34.380  1.00  0.00     0.037 A 
BRANCH  59  73
ATOM     73  C   UNL A   1      40.300  27.863  28.914  1.00  0.00     0.064 A 
ATOM     74  C   UNL A   1      41.025  28.174  27.754  1.00  0.00     0.173 A 
ATOM     75  C   UNL A   1      39.633  26.629  28.958  1.00  0.00     0.173 A 
ATOM     76  F   UNL A   1      41.672  29.346  27.655  1.00  0.00    -0.203 F 
ATOM     77  C   UNL A   1      41.064  27.295  26.675  1.00  0.00     0.198 A 
ATOM     78  C   UNL A   1      39.701  25.738  27.890  1.00  0.00     0.198 A 
ATOM     79  F   UNL A   1      38.929  26.279  30.045  1.00  0.00    -0.203 F 
ATOM     80  F   UNL A   1      41.728  27.633  25.561  1.00  0.00    -0.200 F 
ATOM     81  C   UNL A   1      40.411  26.074  26.748  1.00  0.00     0.200 A 
ATOM     82  F   UNL A   1      39.083  24.552  27.970  1.00  0.00    -0.200 F 
ATOM     83  F   UNL A   1      40.462  25.222  25.714  1.00  0.00    -0.200 F 
ENDBRANCH  59  73
BRANCH  60  84
ATOM     84  C   UNL A   1      39.690  33.982  36.785  1.00  0.00     0.064 A 
ATOM     85  C   UNL A   1      38.915  33.607  37.891  1.00  0.00     0.173 A 
ATOM     86  C   UNL A   1      40.339  35.225  36.837  1.00  0.00     0.173 A 
ATOM     87  F   UNL A   1      38.257  32.439  37.883  1.00  0.00    -0.203 F 
ATOM     88  C   UNL A   1      38.763  34.455  38.987  1.00  0.00     0.198 A 
ATOM     89  C   UNL A   1      40.216  36.057  37.948  1.00  0.00     0.198 A 
ATOM     90  F   UNL A   1      41.098  35.631  35.809  1.00  0.00    -0.203 F 
ATOM     91  F   UNL A   1      37.965  34.098  40.002  1.00  0.00    -0.200 F 
ATOM     92  C   UNL A   1      39.417  35.677  39.017  1.00  0.00     0.200 A 
ATOM     93  F   UNL A   1      40.863  37.230  37.979  1.00  0.00    -0.200 F 
ATOM     94  F   UNL A   1      39.270  36.493  40.069  1.00  0.00    -0.200 F 
ENDBRANCH  60  84
BRANCH  72  95
ATOM     95  C   UNL A   1      43.937  28.730  35.073  1.00  0.00     0.064 A 
ATOM     96  C   UNL A   1      43.796  27.636  35.939  1.00  0.00     0.173 A 
ATOM     97  C   UNL A   1      45.232  29.215  34.834  1.00  0.00     0.173 A 
ATOM     98  F   UNL A   1      42.580  27.142  36.213  1.00  0.00    -0.203 F 
ATOM     99  C   UNL A   1      44.906  27.070  36.561  1.00  0.00     0.198 A 
ATOM    100  C   UNL A   1      46.342  28.624  35.430  1.00  0.00     0.198 A 
ATOM    101  F   UNL A   1      45.424  30.256  34.007  1.00  0.00    -0.203 F 
ATOM    102  F   UNL A   1      44.742  26.059  37.427  1.00  0.00    -0.200 F 
ATOM    103  C   UNL A   1      46.177  27.558  36.301  1.00  0.00     0.200 A 
ATOM    104  F   UNL A   1      47.570  29.087  35.163  1.00  0.00    -0.200 F 
ATOM    105  F   UNL A   1      47.244  27.005  36.894  1.00  0.00    -0.200 F 
ENDBRANCH  72  95
ENDBRANCH  46  47
ENDBRANCH  38  41
ENDBRANCH  36  37
ENDBRANCH  35  36
ENDBRANCH   1  35
TORSDOF 15
ENDMDL
