MODEL 1
REMARK VINA RESULT:     -12.0      0.000      0.000
REMARK SMILES CCCc1cc2c(cc1Cl)C=C(C(=O)NCCCCNC(=O)c1ccc(-c3c4nc(c(-c5c(F)c(F)c(F)c(F)c5F)c5ccc([nH]5)c(-c5c(F)c(F)c(F)c(F)c5F)c5nc(c(-c6c(F)c(F)c(F)c(F)c6F)c6ccc3[nH]6)C=C5)C=C4)cc1)[C@@H](C(F)(F)F)O2
REMARK SMILES IDX 17 1 16 2 15 3 13 4 14 5 12 7 4 8 5 9 9 10 6 11 8 12 10 13
REMARK SMILES IDX 7 14 91 15 11 16 86 17 3 18 2 19 1 20 87 21 88 22 89 23
REMARK SMILES IDX 90 24 18 25 19 26 20 27 21 28 22 30 23 31 24 32 85 33 25 34
REMARK SMILES IDX 84 35 26 36 27 37 28 38 78 39 29 40 83 41 77 42 79 43 30 44
REMARK SMILES IDX 82 45 76 46 75 47 31 49 63 50 43 51 62 52 44 53 47 54 61 55
REMARK SMILES IDX 80 56 45 57 46 58 60 60 81 61 48 62 32 63 33 64 41 65 34 66
REMARK SMILES IDX 35 67 39 68 42 69 36 70 37 71 40 72 38 73 64 74 65 75 73 76
REMARK SMILES IDX 66 77 67 78 71 79 74 80 68 81 69 82 72 83 70 84 49 85 50 86
REMARK SMILES IDX 58 87 51 88 52 89 56 90 59 91 53 92 54 93 57 94 55 95
REMARK H PARENT 15 6 20 29 79 48 47 59
REMARK Flexibility Score: inf
ROOT
ATOM      1  C   UNL A   1      32.327  29.679  25.152  1.00  0.00     0.023 C 
ENDROOT
BRANCH   1   2
ATOM      2  C   UNL A   1      31.938  28.960  23.863  1.00  0.00     0.116 C 
BRANCH   2   3
ATOM      3  N   UNL A   1      30.883  27.986  24.073  1.00  0.00    -0.352 N 
ATOM      4  C   UNL A   1      30.774  26.635  24.080  1.00  0.00     0.251 C 
ATOM      5  O   UNL A   1      29.640  26.200  24.304  1.00  0.00    -0.270 OA
ATOM      6  H   UNL A   1      30.018  28.420  24.258  1.00  0.00     0.163 HD
BRANCH   4   7
ATOM      7  C   UNL A   1      31.897  25.680  23.840  1.00  0.00     0.067 C 
ATOM      8  C   UNL A   1      36.101  22.900  24.322  1.00  0.00    -0.026 A 
ATOM      9  C   UNL A   1      35.037  22.946  23.409  1.00  0.00     0.052 A 
ATOM     10  C   UNL A   1      36.088  23.807  25.395  1.00  0.00     0.045 A 
ATOM     11  C   UNL A   1      33.984  23.840  23.578  1.00  0.00     0.128 A 
ATOM     12  C   UNL A   1      35.039  24.726  25.544  1.00  0.00     0.032 A 
ATOM     13  Cl  UNL A   1      37.339  23.833  26.586  1.00  0.00    -0.084 Cl
ATOM     14  C   UNL A   1      33.975  24.738  24.639  1.00  0.00     0.019 A 
ATOM     15  O   UNL A   1      32.959  23.727  22.687  1.00  0.00    -0.475 OA
ATOM     16  C   UNL A   1      32.836  25.632  24.804  1.00  0.00     0.025 C 
ATOM     17  C   UNL A   1      32.037  24.843  22.598  1.00  0.00     0.314 C 
BRANCH   8  18
ATOM     18  C   UNL A   1      37.174  21.857  24.112  1.00  0.00     0.037 C 
BRANCH  18  19
ATOM     19  C   UNL A   1      36.923  20.545  24.867  1.00  0.00     0.001 C 
ATOM     20  C   UNL A   1      38.157  19.659  25.001  1.00  0.00     0.004 C 
ENDBRANCH  18  19
ENDBRANCH   8  18
BRANCH  17  21
ATOM     21  C   UNL A   1      32.403  25.671  21.353  1.00  0.00     0.429 C 
ATOM     22  F   UNL A   1      31.305  26.308  20.872  1.00  0.00    -0.167 F 
ATOM     23  F   UNL A   1      33.317  26.634  21.616  1.00  0.00    -0.167 F 
ATOM     24  F   UNL A   1      32.903  24.911  20.353  1.00  0.00    -0.167 F 
ENDBRANCH  17  21
ENDBRANCH   4   7
ENDBRANCH   2   3
ENDBRANCH   1   2
BRANCH   1  25
ATOM     25  C   UNL A   1      33.639  29.191  25.770  1.00  0.00     0.023 C 
BRANCH  25  26
ATOM     26  C   UNL A   1      33.662  29.124  27.297  1.00  0.00     0.116 C 
BRANCH  26  27
ATOM     27  N   UNL A   1      33.812  30.413  27.959  1.00  0.00    -0.352 N 
ATOM     28  C   UNL A   1      34.945  30.911  28.567  1.00  0.00     0.251 C 
ATOM     29  H   UNL A   1      33.017  30.993  27.973  1.00  0.00     0.163 HD
ATOM     30  O   UNL A   1      34.945  31.998  29.131  1.00  0.00    -0.269 OA
BRANCH  28  31
ATOM     31  C   UNL A   1      36.145  30.055  28.579  1.00  0.00     0.039 A 
ATOM     32  C   UNL A   1      36.475  29.342  29.734  1.00  0.00     0.014 A 
ATOM     33  C   UNL A   1      37.024  30.124  27.497  1.00  0.00     0.014 A 
ATOM     34  C   UNL A   1      37.766  28.849  29.878  1.00  0.00     0.010 A 
ATOM     35  C   UNL A   1      38.300  29.576  27.623  1.00  0.00     0.010 A 
ATOM     36  C   UNL A   1      38.701  29.000  28.839  1.00  0.00    -0.014 A 
BRANCH  36  37
ATOM     37  C   UNL A   1      40.122  28.652  29.076  1.00  0.00     0.031 A 
ATOM     38  C   UNL A   1      40.991  29.564  29.903  1.00  0.00     0.074 A 
ATOM     39  C   UNL A   1      40.614  27.491  28.610  1.00  0.00     0.049 A 
ATOM     40  N   UNL A   1      42.268  29.467  30.176  1.00  0.00    -0.248 NA
ATOM     41  C   UNL A   1      40.339  30.739  30.502  1.00  0.00     0.031 C 
ATOM     42  C   UNL A   1      39.858  26.503  27.842  1.00  0.00     0.029 A 
ATOM     43  N   UNL A   1      41.862  26.939  28.734  1.00  0.00    -0.354 N 
ATOM     44  C   UNL A   1      42.576  30.579  30.949  1.00  0.00     0.074 A 
ATOM     45  C   UNL A   1      41.358  31.344  31.098  1.00  0.00     0.031 C 
ATOM     46  C   UNL A   1      40.645  25.446  27.597  1.00  0.00     0.029 A 
ATOM     47  C   UNL A   1      41.975  25.707  28.139  1.00  0.00     0.049 A 
ATOM     48  H   UNL A   1      42.605  27.381  29.204  1.00  0.00     0.167 HD
ATOM     49  C   UNL A   1      43.769  30.926  31.490  1.00  0.00     0.037 A 
ATOM     50  C   UNL A   1      43.039  24.891  28.029  1.00  0.00     0.037 A 
ATOM     51  C   UNL A   1      44.973  30.146  31.372  1.00  0.00     0.049 A 
ATOM     52  C   UNL A   1      44.359  25.318  28.602  1.00  0.00     0.074 A 
ATOM     53  C   UNL A   1      46.229  30.412  31.887  1.00  0.00     0.029 A 
ATOM     54  N   UNL A   1      45.062  28.935  30.702  1.00  0.00    -0.354 N 
ATOM     55  N   UNL A   1      44.653  26.400  29.280  1.00  0.00    -0.248 NA
ATOM     56  C   UNL A   1      45.499  24.421  28.374  1.00  0.00     0.031 C 
ATOM     57  C   UNL A   1      47.086  29.373  31.509  1.00  0.00     0.029 A 
ATOM     58  C   UNL A   1      46.356  28.447  30.782  1.00  0.00     0.049 A 
ATOM     59  H   UNL A   1      44.317  28.489  30.239  1.00  0.00     0.167 HD
ATOM     60  C   UNL A   1      46.010  26.320  29.552  1.00  0.00     0.074 A 
ATOM     61  C   UNL A   1      46.478  25.069  28.992  1.00  0.00     0.031 C 
ATOM     62  C   UNL A   1      46.803  27.210  30.199  1.00  0.00     0.037 A 
BRANCH  49  63
ATOM     63  C   UNL A   1      43.841  32.216  32.249  1.00  0.00     0.064 A 
ATOM     64  C   UNL A   1      44.091  33.433  31.603  1.00  0.00     0.173 A 
ATOM     65  C   UNL A   1      43.600  32.238  33.630  1.00  0.00     0.173 A 
ATOM     66  F   UNL A   1      44.344  33.460  30.286  1.00  0.00    -0.203 F 
ATOM     67  C   UNL A   1      44.107  34.630  32.317  1.00  0.00     0.198 A 
ATOM     68  C   UNL A   1      43.598  33.438  34.337  1.00  0.00     0.198 A 
ATOM     69  F   UNL A   1      43.356  31.097  34.292  1.00  0.00    -0.203 F 
ATOM     70  F   UNL A   1      44.375  35.781  31.684  1.00  0.00    -0.200 F 
ATOM     71  C   UNL A   1      43.853  34.632  33.681  1.00  0.00     0.200 A 
ATOM     72  F   UNL A   1      43.348  33.438  35.654  1.00  0.00    -0.200 F 
ATOM     73  F   UNL A   1      43.860  35.785  34.363  1.00  0.00    -0.200 F 
ENDBRANCH  49  63
BRANCH  50  74
ATOM     74  C   UNL A   1      42.893  23.596  27.324  1.00  0.00     0.064 A 
ATOM     75  C   UNL A   1      43.329  23.447  26.001  1.00  0.00     0.173 A 
ATOM     76  C   UNL A   1      42.345  22.477  27.966  1.00  0.00     0.173 A 
ATOM     77  F   UNL A   1      43.840  24.498  25.343  1.00  0.00    -0.203 F 
ATOM     78  C   UNL A   1      43.221  22.223  25.345  1.00  0.00     0.198 A 
ATOM     79  C   UNL A   1      42.256  21.248  27.316  1.00  0.00     0.198 A 
ATOM     80  F   UNL A   1      41.915  22.574  29.232  1.00  0.00    -0.203 F 
ATOM     81  F   UNL A   1      43.624  22.110  24.072  1.00  0.00    -0.200 F 
ATOM     82  C   UNL A   1      42.692  21.124  26.005  1.00  0.00     0.200 A 
ATOM     83  F   UNL A   1      41.755  20.187  27.961  1.00  0.00    -0.200 F 
ATOM     84  F   UNL A   1      42.600  19.944  25.378  1.00  0.00    -0.200 F 
ENDBRANCH  50  74
BRANCH  62  85
ATOM     85  C   UNL A   1      48.255  26.867  30.316  1.00  0.00     0.064 A 
ATOM     86  C   UNL A   1      49.190  27.360  29.395  1.00  0.00     0.173 A 
ATOM     87  C   UNL A   1      48.720  26.073  31.374  1.00  0.00     0.173 A 
ATOM     88  F   UNL A   1      48.785  28.110  28.360  1.00  0.00    -0.203 F 
ATOM     89  C   UNL A   1      50.542  27.057  29.522  1.00  0.00     0.198 A 
ATOM     90  C   UNL A   1      50.076  25.789  31.507  1.00  0.00     0.198 A 
ATOM     91  F   UNL A   1      47.862  25.583  32.280  1.00  0.00    -0.203 F 
ATOM     92  F   UNL A   1      51.416  27.512  28.614  1.00  0.00    -0.200 F 
ATOM     93  C   UNL A   1      50.984  26.277  30.580  1.00  0.00     0.200 A 
ATOM     94  F   UNL A   1      50.503  25.039  32.533  1.00  0.00    -0.200 F 
ATOM     95  F   UNL A   1      52.287  25.988  30.702  1.00  0.00    -0.200 F 
ENDBRANCH  62  85
ENDBRANCH  36  37
ENDBRANCH  28  31
ENDBRANCH  26  27
ENDBRANCH  25  26
ENDBRANCH   1  25
TORSDOF 14
ENDMDL
MODEL 2
REMARK VINA RESULT:     -12.0      3.368      7.886
REMARK SMILES CCCc1cc2c(cc1Cl)C=C(C(=O)NCCCCNC(=O)c1ccc(-c3c4nc(c(-c5c(F)c(F)c(F)c(F)c5F)c5ccc([nH]5)c(-c5c(F)c(F)c(F)c(F)c5F)c5nc(c(-c6c(F)c(F)c(F)c(F)c6F)c6ccc3[nH]6)C=C5)C=C4)cc1)[C@@H](C(F)(F)F)O2
REMARK SMILES IDX 17 1 16 2 15 3 13 4 14 5 12 7 4 8 5 9 9 10 6 11 8 12 10 13
REMARK SMILES IDX 7 14 91 15 11 16 86 17 3 18 2 19 1 20 87 21 88 22 89 23
REMARK SMILES IDX 90 24 18 25 19 26 20 27 21 28 22 30 23 31 24 32 85 33 25 34
REMARK SMILES IDX 84 35 26 36 27 37 28 38 78 39 29 40 83 41 77 42 79 43 30 44
REMARK SMILES IDX 82 45 76 46 75 47 31 49 63 50 43 51 62 52 44 53 47 54 61 55
REMARK SMILES IDX 80 56 45 57 46 58 60 60 81 61 48 62 32 63 33 64 41 65 34 66
REMARK SMILES IDX 35 67 39 68 42 69 36 70 37 71 40 72 38 73 64 74 65 75 73 76
REMARK SMILES IDX 66 77 67 78 71 79 74 80 68 81 69 82 72 83 70 84 49 85 50 86
REMARK SMILES IDX 58 87 51 88 52 89 56 90 59 91 53 92 54 93 57 94 55 95
REMARK H PARENT 15 6 20 29 79 48 47 59
REMARK Flexibility Score: inf
ROOT
ATOM      1  C   UNL A   1      37.296  20.188  24.991  1.00  0.00     0.023 C 
ENDROOT
BRANCH   1   2
ATOM      2  C   UNL A   1      35.787  20.379  24.865  1.00  0.00     0.116 C 
BRANCH   2   3
ATOM      3  N   UNL A   1      35.184  20.840  26.102  1.00  0.00    -0.352 N 
ATOM      4  C   UNL A   1      34.463  21.913  26.508  1.00  0.00     0.251 C 
ATOM      5  O   UNL A   1      34.146  21.911  27.702  1.00  0.00    -0.270 OA
ATOM      6  H   UNL A   1      35.342  20.208  26.841  1.00  0.00     0.163 HD
BRANCH   4   7
ATOM      7  C   UNL A   1      34.049  23.052  25.636  1.00  0.00     0.067 C 
ATOM      8  C   UNL A   1      33.098  27.675  23.803  1.00  0.00    -0.026 A 
ATOM      9  C   UNL A   1      33.084  26.374  23.279  1.00  0.00     0.052 A 
ATOM     10  C   UNL A   1      33.446  27.837  25.155  1.00  0.00     0.045 A 
ATOM     11  C   UNL A   1      33.433  25.279  24.064  1.00  0.00     0.128 A 
ATOM     12  C   UNL A   1      33.769  26.728  25.950  1.00  0.00     0.032 A 
ATOM     13  Cl  UNL A   1      33.509  29.393  25.903  1.00  0.00    -0.084 Cl
ATOM     14  C   UNL A   1      33.774  25.443  25.402  1.00  0.00     0.019 A 
ATOM     15  O   UNL A   1      33.479  24.078  23.423  1.00  0.00    -0.475 OA
ATOM     16  C   UNL A   1      34.173  24.277  26.182  1.00  0.00     0.025 C 
ATOM     17  C   UNL A   1      33.480  22.888  24.253  1.00  0.00     0.314 C 
BRANCH   8  18
ATOM     18  C   UNL A   1      32.772  28.821  22.872  1.00  0.00     0.037 C 
BRANCH  18  19
ATOM     19  C   UNL A   1      31.276  28.969  22.569  1.00  0.00     0.001 C 
ATOM     20  C   UNL A   1      30.437  29.389  23.771  1.00  0.00     0.004 C 
ENDBRANCH  18  19
ENDBRANCH   8  18
BRANCH  17  21
ATOM     21  C   UNL A   1      32.058  22.301  24.253  1.00  0.00     0.429 C 
ATOM     22  F   UNL A   1      31.366  22.743  25.334  1.00  0.00    -0.167 F 
ATOM     23  F   UNL A   1      31.340  22.669  23.166  1.00  0.00    -0.167 F 
ATOM     24  F   UNL A   1      32.054  20.950  24.293  1.00  0.00    -0.167 F 
ENDBRANCH  17  21
ENDBRANCH   4   7
ENDBRANCH   2   3
ENDBRANCH   1   2
BRANCH   1  25
ATOM     25  C   UNL A   1      38.066  21.472  25.309  1.00  0.00     0.023 C 
BRANCH  25  26
ATOM     26  C   UNL A   1      39.368  21.284  26.085  1.00  0.00     0.116 C 
BRANCH  26  27
ATOM     27  N   UNL A   1      40.009  19.990  25.889  1.00  0.00    -0.352 N 
ATOM     28  C   UNL A   1      41.339  19.680  26.080  1.00  0.00     0.251 C 
ATOM     29  H   UNL A   1      39.428  19.255  25.587  1.00  0.00     0.163 HD
ATOM     30  O   UNL A   1      41.777  18.561  25.844  1.00  0.00    -0.269 OA
BRANCH  28  31
ATOM     31  C   UNL A   1      42.237  20.766  26.513  1.00  0.00     0.039 A 
ATOM     32  C   UNL A   1      42.296  21.119  27.863  1.00  0.00     0.014 A 
ATOM     33  C   UNL A   1      42.868  21.539  25.536  1.00  0.00     0.014 A 
ATOM     34  C   UNL A   1      42.834  22.350  28.216  1.00  0.00     0.010 A 
ATOM     35  C   UNL A   1      43.459  22.747  25.903  1.00  0.00     0.010 A 
ATOM     36  C   UNL A   1      43.381  23.192  27.233  1.00  0.00    -0.014 A 
BRANCH  36  37
ATOM     37  C   UNL A   1      43.768  24.578  27.588  1.00  0.00     0.031 A 
ATOM     38  C   UNL A   1      42.708  25.581  27.964  1.00  0.00     0.074 A 
ATOM     39  C   UNL A   1      45.067  24.918  27.639  1.00  0.00     0.049 A 
ATOM     40  N   UNL A   1      42.836  26.853  28.249  1.00  0.00    -0.248 NA
ATOM     41  C   UNL A   1      41.322  25.090  28.029  1.00  0.00     0.031 C 
ATOM     42  C   UNL A   1      46.185  24.022  27.347  1.00  0.00     0.029 A 
ATOM     43  N   UNL A   1      45.665  26.105  27.976  1.00  0.00    -0.354 N 
ATOM     44  C   UNL A   1      41.551  27.318  28.496  1.00  0.00     0.074 A 
ATOM     45  C   UNL A   1      40.653  26.197  28.321  1.00  0.00     0.031 C 
ATOM     46  C   UNL A   1      47.336  24.678  27.556  1.00  0.00     0.029 A 
ATOM     47  C   UNL A   1      47.036  26.055  27.939  1.00  0.00     0.049 A 
ATOM     48  H   UNL A   1      45.161  26.914  28.220  1.00  0.00     0.167 HD
ATOM     49  C   UNL A   1      41.158  28.567  28.843  1.00  0.00     0.037 A 
ATOM     50  C   UNL A   1      47.946  27.018  28.170  1.00  0.00     0.037 A 
ATOM     51  C   UNL A   1      42.055  29.672  29.053  1.00  0.00     0.049 A 
ATOM     52  C   UNL A   1      47.482  28.404  28.513  1.00  0.00     0.074 A 
ATOM     53  C   UNL A   1      41.753  30.975  29.408  1.00  0.00     0.029 A 
ATOM     54  N   UNL A   1      43.435  29.597  28.939  1.00  0.00    -0.354 N 
ATOM     55  N   UNL A   1      46.261  28.846  28.686  1.00  0.00    -0.248 NA
ATOM     56  C   UNL A   1      48.523  29.429  28.672  1.00  0.00     0.031 C 
ATOM     57  C   UNL A   1      42.950  31.695  29.488  1.00  0.00     0.029 A 
ATOM     58  C   UNL A   1      43.998  30.834  29.209  1.00  0.00     0.049 A 
ATOM     59  H   UNL A   1      43.939  28.786  28.702  1.00  0.00     0.167 HD
ATOM     60  C   UNL A   1      46.383  30.200  28.963  1.00  0.00     0.074 A 
ATOM     61  C   UNL A   1      47.801  30.501  28.965  1.00  0.00     0.031 C 
ATOM     62  C   UNL A   1      45.409  31.115  29.184  1.00  0.00     0.037 A 
BRANCH  49  63
ATOM     63  C   UNL A   1      39.689  28.815  29.004  1.00  0.00     0.064 A 
ATOM     64  C   UNL A   1      39.053  28.669  30.244  1.00  0.00     0.173 A 
ATOM     65  C   UNL A   1      38.922  29.260  27.917  1.00  0.00     0.173 A 
ATOM     66  F   UNL A   1      39.741  28.229  31.308  1.00  0.00    -0.203 F 
ATOM     67  C   UNL A   1      37.696  28.950  30.388  1.00  0.00     0.198 A 
ATOM     68  C   UNL A   1      37.571  29.558  28.069  1.00  0.00     0.198 A 
ATOM     69  F   UNL A   1      39.488  29.416  26.711  1.00  0.00    -0.203 F 
ATOM     70  F   UNL A   1      37.101  28.778  31.576  1.00  0.00    -0.200 F 
ATOM     71  C   UNL A   1      36.959  29.402  29.302  1.00  0.00     0.200 A 
ATOM     72  F   UNL A   1      36.862  29.999  27.021  1.00  0.00    -0.200 F 
ATOM     73  F   UNL A   1      35.656  29.681  29.446  1.00  0.00    -0.200 F 
ENDBRANCH  49  63
BRANCH  50  74
ATOM     74  C   UNL A   1      49.389  26.699  28.061  1.00  0.00     0.064 A 
ATOM     75  C   UNL A   1      50.034  26.715  26.818  1.00  0.00     0.173 A 
ATOM     76  C   UNL A   1      50.155  26.400  29.196  1.00  0.00     0.173 A 
ATOM     77  F   UNL A   1      49.333  26.975  25.704  1.00  0.00    -0.203 F 
ATOM     78  C   UNL A   1      51.396  26.445  26.714  1.00  0.00     0.198 A 
ATOM     79  C   UNL A   1      51.522  26.151  29.094  1.00  0.00     0.198 A 
ATOM     80  F   UNL A   1      49.579  26.373  30.406  1.00  0.00    -0.203 F 
ATOM     81  F   UNL A   1      51.987  26.444  25.511  1.00  0.00    -0.200 F 
ATOM     82  C   UNL A   1      52.140  26.170  27.852  1.00  0.00     0.200 A 
ATOM     83  F   UNL A   1      52.238  25.897  30.197  1.00  0.00    -0.200 F 
ATOM     84  F   UNL A   1      53.453  25.922  27.753  1.00  0.00    -0.200 F 
ENDBRANCH  50  74
BRANCH  62  85
ATOM     85  C   UNL A   1      45.844  32.526  29.428  1.00  0.00     0.064 A 
ATOM     86  C   UNL A   1      46.155  32.973  30.720  1.00  0.00     0.173 A 
ATOM     87  C   UNL A   1      45.986  33.426  28.363  1.00  0.00     0.173 A 
ATOM     88  F   UNL A   1      46.018  32.149  31.770  1.00  0.00    -0.203 F 
ATOM     89  C   UNL A   1      46.582  34.279  30.939  1.00  0.00     0.198 A 
ATOM     90  C   UNL A   1      46.430  34.726  28.584  1.00  0.00     0.198 A 
ATOM     91  F   UNL A   1      45.703  33.041  27.110  1.00  0.00    -0.203 F 
ATOM     92  F   UNL A   1      46.844  34.697  32.185  1.00  0.00    -0.200 F 
ATOM     93  C   UNL A   1      46.724  35.152  29.871  1.00  0.00     0.200 A 
ATOM     94  F   UNL A   1      46.573  35.568  27.551  1.00  0.00    -0.200 F 
ATOM     95  F   UNL A   1      47.136  36.410  30.083  1.00  0.00    -0.200 F 
ENDBRANCH  62  85
ENDBRANCH  36  37
ENDBRANCH  28  31
ENDBRANCH  26  27
ENDBRANCH  25  26
ENDBRANCH   1  25
TORSDOF 14
ENDMDL
MODEL 3
REMARK VINA RESULT:     -11.9      3.787      5.431
REMARK SMILES CCCc1cc2c(cc1Cl)C=C(C(=O)NCCCCNC(=O)c1ccc(-c3c4nc(c(-c5c(F)c(F)c(F)c(F)c5F)c5ccc([nH]5)c(-c5c(F)c(F)c(F)c(F)c5F)c5nc(c(-c6c(F)c(F)c(F)c(F)c6F)c6ccc3[nH]6)C=C5)C=C4)cc1)[C@@H](C(F)(F)F)O2
REMARK SMILES IDX 17 1 16 2 15 3 13 4 14 5 12 7 4 8 5 9 9 10 6 11 8 12 10 13
REMARK SMILES IDX 7 14 91 15 11 16 86 17 3 18 2 19 1 20 87 21 88 22 89 23
REMARK SMILES IDX 90 24 18 25 19 26 20 27 21 28 22 30 23 31 24 32 85 33 25 34
REMARK SMILES IDX 84 35 26 36 27 37 28 38 78 39 29 40 83 41 77 42 79 43 30 44
REMARK SMILES IDX 82 45 76 46 75 47 31 49 63 50 43 51 62 52 44 53 47 54 61 55
REMARK SMILES IDX 80 56 45 57 46 58 60 60 81 61 48 62 32 63 33 64 41 65 34 66
REMARK SMILES IDX 35 67 39 68 42 69 36 70 37 71 40 72 38 73 64 74 65 75 73 76
REMARK SMILES IDX 66 77 67 78 71 79 74 80 68 81 69 82 72 83 70 84 49 85 50 86
REMARK SMILES IDX 58 87 51 88 52 89 56 90 59 91 53 92 54 93 57 94 55 95
REMARK H PARENT 15 6 20 29 79 48 47 59
REMARK Flexibility Score: inf
ROOT
ATOM      1  C   UNL A   1      32.575  30.015  27.170  1.00  0.00     0.023 C 
ENDROOT
BRANCH   1   2
ATOM      2  C   UNL A   1      33.683  29.499  26.255  1.00  0.00     0.116 C 
BRANCH   2   3
ATOM      3  N   UNL A   1      33.279  29.472  24.862  1.00  0.00    -0.352 N 
ATOM      4  C   UNL A   1      32.888  28.533  23.966  1.00  0.00     0.251 C 
ATOM      5  O   UNL A   1      32.633  28.960  22.836  1.00  0.00    -0.270 OA
ATOM      6  H   UNL A   1      33.294  30.372  24.462  1.00  0.00     0.163 HD
BRANCH   4   7
ATOM      7  C   UNL A   1      32.755  27.074  24.251  1.00  0.00     0.067 C 
ATOM      8  C   UNL A   1      33.723  22.159  24.993  1.00  0.00    -0.026 A 
ATOM      9  C   UNL A   1      32.607  22.992  25.168  1.00  0.00     0.052 A 
ATOM     10  C   UNL A   1      34.903  22.735  24.494  1.00  0.00     0.045 A 
ATOM     11  C   UNL A   1      32.676  24.353  24.886  1.00  0.00     0.128 A 
ATOM     12  C   UNL A   1      34.959  24.102  24.184  1.00  0.00     0.032 A 
ATOM     13  Cl  UNL A   1      36.340  21.809  24.250  1.00  0.00    -0.084 Cl
ATOM     14  C   UNL A   1      33.845  24.920  24.390  1.00  0.00     0.019 A 
ATOM     15  O   UNL A   1      31.564  25.080  25.188  1.00  0.00    -0.475 OA
ATOM     16  C   UNL A   1      33.890  26.356  24.145  1.00  0.00     0.025 C 
ATOM     17  C   UNL A   1      31.455  26.397  24.591  1.00  0.00     0.314 C 
BRANCH   8  18
ATOM     18  C   UNL A   1      33.593  20.705  25.384  1.00  0.00     0.037 C 
BRANCH  18  19
ATOM     19  C   UNL A   1      32.590  19.919  24.530  1.00  0.00     0.001 C 
ATOM     20  C   UNL A   1      32.537  18.428  24.848  1.00  0.00     0.004 C 
ENDBRANCH  18  19
ENDBRANCH   8  18
BRANCH  17  21
ATOM     21  C   UNL A   1      30.495  26.305  23.392  1.00  0.00     0.429 C 
ATOM     22  F   UNL A   1      29.709  25.203  23.503  1.00  0.00    -0.167 F 
ATOM     23  F   UNL A   1      29.656  27.364  23.312  1.00  0.00    -0.167 F 
ATOM     24  F   UNL A   1      31.146  26.223  22.211  1.00  0.00    -0.167 F 
ENDBRANCH  17  21
ENDBRANCH   4   7
ENDBRANCH   2   3
ENDBRANCH   1   2
BRANCH   1  25
ATOM     25  C   UNL A   1      32.201  31.481  26.938  1.00  0.00     0.023 C 
BRANCH  25  26
ATOM     26  C   UNL A   1      33.116  32.506  27.607  1.00  0.00     0.116 C 
BRANCH  26  27
ATOM     27  N   UNL A   1      32.540  33.838  27.736  1.00  0.00    -0.352 N 
ATOM     28  C   UNL A   1      33.003  34.874  28.520  1.00  0.00     0.251 C 
ATOM     29  H   UNL A   1      31.732  34.019  27.205  1.00  0.00     0.163 HD
ATOM     30  O   UNL A   1      32.412  35.945  28.580  1.00  0.00    -0.269 OA
BRANCH  28  31
ATOM     31  C   UNL A   1      34.201  34.626  29.342  1.00  0.00     0.039 A 
ATOM     32  C   UNL A   1      35.468  34.692  28.757  1.00  0.00     0.014 A 
ATOM     33  C   UNL A   1      34.030  34.148  30.643  1.00  0.00     0.014 A 
ATOM     34  C   UNL A   1      36.545  34.105  29.411  1.00  0.00     0.010 A 
ATOM     35  C   UNL A   1      35.125  33.613  31.319  1.00  0.00     0.010 A 
ATOM     36  C   UNL A   1      36.371  33.524  30.679  1.00  0.00    -0.014 A 
BRANCH  36  37
ATOM     37  C   UNL A   1      37.471  32.730  31.277  1.00  0.00     0.031 A 
ATOM     38  C   UNL A   1      37.925  33.015  32.685  1.00  0.00     0.074 A 
ATOM     39  C   UNL A   1      38.016  31.714  30.585  1.00  0.00     0.049 A 
ATOM     40  N   UNL A   1      38.904  32.474  33.364  1.00  0.00    -0.248 NA
ATOM     41  C   UNL A   1      37.178  34.043  33.428  1.00  0.00     0.031 C 
ATOM     42  C   UNL A   1      37.626  31.309  29.236  1.00  0.00     0.029 A 
ATOM     43  N   UNL A   1      38.999  30.825  30.934  1.00  0.00    -0.354 N 
ATOM     44  C   UNL A   1      38.910  33.115  34.596  1.00  0.00     0.074 A 
ATOM     45  C   UNL A   1      37.843  34.091  34.574  1.00  0.00     0.031 C 
ATOM     46  C   UNL A   1      38.335  30.226  28.884  1.00  0.00     0.029 A 
ATOM     47  C   UNL A   1      39.266  29.897  29.959  1.00  0.00     0.049 A 
ATOM     48  H   UNL A   1      39.467  30.849  31.799  1.00  0.00     0.167 HD
ATOM     49  C   UNL A   1      39.730  32.902  35.654  1.00  0.00     0.037 A 
ATOM     50  C   UNL A   1      40.175  28.905  29.930  1.00  0.00     0.037 A 
ATOM     51  C   UNL A   1      40.768  31.905  35.690  1.00  0.00     0.049 A 
ATOM     52  C   UNL A   1      41.098  28.717  31.098  1.00  0.00     0.074 A 
ATOM     53  C   UNL A   1      41.649  31.612  36.716  1.00  0.00     0.029 A 
ATOM     54  N   UNL A   1      41.052  31.028  34.654  1.00  0.00    -0.354 N 
ATOM     55  N   UNL A   1      41.134  29.368  32.235  1.00  0.00    -0.248 NA
ATOM     56  C   UNL A   1      42.122  27.671  30.970  1.00  0.00     0.031 C 
ATOM     57  C   UNL A   1      42.483  30.571  36.292  1.00  0.00     0.029 A 
ATOM     58  C   UNL A   1      42.102  30.200  35.013  1.00  0.00     0.049 A 
ATOM     59  H   UNL A   1      40.578  31.000  33.792  1.00  0.00     0.167 HD
ATOM     60  C   UNL A   1      42.186  28.820  32.953  1.00  0.00     0.074 A 
ATOM     61  C   UNL A   1      42.746  27.762  32.136  1.00  0.00     0.031 C 
ATOM     62  C   UNL A   1      42.656  29.169  34.176  1.00  0.00     0.037 A 
BRANCH  49  63
ATOM     63  C   UNL A   1      39.552  33.773  36.860  1.00  0.00     0.064 A 
ATOM     64  C   UNL A   1      40.118  35.052  36.930  1.00  0.00     0.173 A 
ATOM     65  C   UNL A   1      38.759  33.343  37.933  1.00  0.00     0.173 A 
ATOM     66  F   UNL A   1      40.899  35.501  35.935  1.00  0.00    -0.203 F 
ATOM     67  C   UNL A   1      39.903  35.869  38.038  1.00  0.00     0.198 A 
ATOM     68  C   UNL A   1      38.531  34.168  39.031  1.00  0.00     0.198 A 
ATOM     69  F   UNL A   1      38.196  32.125  37.911  1.00  0.00    -0.203 F 
ATOM     70  F   UNL A   1      40.476  37.080  38.097  1.00  0.00    -0.200 F 
ATOM     71  C   UNL A   1      39.104  35.429  39.084  1.00  0.00     0.200 A 
ATOM     72  F   UNL A   1      37.755  33.743  40.037  1.00  0.00    -0.200 F 
ATOM     73  F   UNL A   1      38.891  36.219  40.145  1.00  0.00    -0.200 F 
ENDBRANCH  49  63
BRANCH  50  74
ATOM     74  C   UNL A   1      40.262  28.031  28.737  1.00  0.00     0.064 A 
ATOM     75  C   UNL A   1      41.008  28.420  27.617  1.00  0.00     0.173 A 
ATOM     76  C   UNL A   1      39.627  26.781  28.704  1.00  0.00     0.173 A 
ATOM     77  F   UNL A   1      41.613  29.616  27.599  1.00  0.00    -0.203 F 
ATOM     78  C   UNL A   1      41.117  27.588  26.505  1.00  0.00     0.198 A 
ATOM     79  C   UNL A   1      39.754  25.942  27.600  1.00  0.00     0.198 A 
ATOM     80  F   UNL A   1      38.903  26.369  29.754  1.00  0.00    -0.203 F 
ATOM     81  F   UNL A   1      41.817  27.990  25.436  1.00  0.00    -0.200 F 
ATOM     82  C   UNL A   1      40.496  26.347  26.501  1.00  0.00     0.200 A 
ATOM     83  F   UNL A   1      39.162  24.740  27.604  1.00  0.00    -0.200 F 
ATOM     84  F   UNL A   1      40.611  25.543  25.436  1.00  0.00    -0.200 F 
ENDBRANCH  50  74
BRANCH  62  85
ATOM     85  C   UNL A   1      43.840  28.412  34.691  1.00  0.00     0.064 A 
ATOM     86  C   UNL A   1      45.144  28.886  34.487  1.00  0.00     0.173 A 
ATOM     87  C   UNL A   1      43.671  27.229  35.423  1.00  0.00     0.173 A 
ATOM     88  F   UNL A   1      45.351  30.006  33.779  1.00  0.00    -0.203 F 
ATOM     89  C   UNL A   1      46.241  28.191  34.988  1.00  0.00     0.198 A 
ATOM     90  C   UNL A   1      44.770  26.547  35.938  1.00  0.00     0.198 A 
ATOM     91  F   UNL A   1      42.442  26.741  35.646  1.00  0.00    -0.203 F 
ATOM     92  F   UNL A   1      47.480  28.643  34.756  1.00  0.00    -0.200 F 
ATOM     93  C   UNL A   1      46.052  27.026  35.717  1.00  0.00     0.200 A 
ATOM     94  F   UNL A   1      44.587  25.424  36.647  1.00  0.00    -0.200 F 
ATOM     95  F   UNL A   1      47.110  26.359  36.200  1.00  0.00    -0.200 F 
ENDBRANCH  62  85
ENDBRANCH  36  37
ENDBRANCH  28  31
ENDBRANCH  26  27
ENDBRANCH  25  26
ENDBRANCH   1  25
TORSDOF 14
ENDMDL
