MODEL 1
REMARK VINA RESULT:     -12.2      0.000      0.000
REMARK SMILES N#CCSc1nnnn1-c1ccc(C(=O)NCCCCNC(=O)c2ccc(-c3c4nc(c(-c5c(F)c(F)c(F)c(F)c5F)c5ccc([nH]5)c(-c5c(F)c(F)c(F)c(F)c5F)c5nc(c(-c6c(F)c(F)c(F)c(F)c6F)c6ccc3[nH]6)C=C5)C=C4)cc2)cc1
REMARK SMILES IDX 17 1 16 2 14 3 15 4 13 6 10 7 11 8 88 9 12 10 87 11 9 12
REMARK SMILES IDX 5 13 6 14 7 15 8 16 4 17 3 18 2 19 1 20 18 21 19 22 20 23
REMARK SMILES IDX 21 24 22 25 23 27 24 28 25 29 86 30 26 31 85 32 27 33 28 34
REMARK SMILES IDX 29 35 79 36 30 37 84 38 78 39 80 40 31 41 83 42 77 43 76 44
REMARK SMILES IDX 32 46 64 47 44 48 63 49 45 50 48 51 62 52 81 53 46 54 47 55
REMARK SMILES IDX 61 57 82 58 49 59 33 60 34 61 42 62 35 63 36 64 40 65 43 66
REMARK SMILES IDX 37 67 38 68 41 69 39 70 65 71 66 72 74 73 67 74 68 75 72 76
REMARK SMILES IDX 75 77 69 78 70 79 73 80 71 81 50 82 51 83 59 84 52 85 53 86
REMARK SMILES IDX 57 87 60 88 54 89 55 90 58 91 56 92
REMARK H PARENT 16 5 21 26 80 45 48 56
REMARK Flexibility Score: inf
ROOT
ATOM      1  C   UNL A   1      35.893  20.545  24.891  1.00  0.00     0.116 C 
ENDROOT
BRANCH   1   2
ATOM      2  N   UNL A   1      35.357  20.881  26.201  1.00  0.00    -0.352 N 
ATOM      3  C   UNL A   1      34.526  21.886  26.637  1.00  0.00     0.251 C 
ATOM      4  O   UNL A   1      34.176  21.877  27.816  1.00  0.00    -0.269 OA
ATOM      5  H   UNL A   1      35.648  20.270  26.915  1.00  0.00     0.163 HD
BRANCH   3   6
ATOM      6  C   UNL A   1      33.964  22.918  25.725  1.00  0.00     0.039 A 
ATOM      7  C   UNL A   1      33.040  24.611  23.726  1.00  0.00     0.069 A 
ATOM      8  C   UNL A   1      32.365  23.413  23.952  1.00  0.00     0.029 A 
ATOM      9  C   UNL A   1      34.058  25.046  24.575  1.00  0.00     0.029 A 
ATOM     10  C   UNL A   1      32.838  22.566  24.957  1.00  0.00     0.016 A 
ATOM     11  C   UNL A   1      34.504  24.200  25.585  1.00  0.00     0.016 A 
BRANCH   7  12
ATOM     12  N   UNL A   1      32.778  25.349  22.570  1.00  0.00    -0.187 N 
ATOM     13  C   UNL A   1      31.621  26.020  22.218  1.00  0.00     0.215 A 
ATOM     14  N   UNL A   1      31.696  26.321  20.940  1.00  0.00    -0.101 NA
ATOM     15  N   UNL A   1      32.898  25.824  20.498  1.00  0.00    -0.022 NA
ATOM     16  N   UNL A   1      33.568  25.240  21.484  1.00  0.00    -0.039 NA
BRANCH  13  17
ATOM     17  S   UNL A   1      30.455  26.721  23.302  1.00  0.00    -0.069 SA
BRANCH  17  18
ATOM     18  C   UNL A   1      31.338  27.858  24.401  1.00  0.00     0.198 C 
BRANCH  18  19
ATOM     19  C   UNL A   1      31.385  27.428  25.859  1.00  0.00     0.074 C 
ATOM     20  N   UNL A   1      31.424  27.072  27.068  1.00  0.00    -0.197 NA
ENDBRANCH  18  19
ENDBRANCH  17  18
ENDBRANCH  13  17
ENDBRANCH   7  12
ENDBRANCH   3   6
ENDBRANCH   1   2
BRANCH   1  21
ATOM     21  C   UNL A   1      37.420  20.676  24.846  1.00  0.00     0.023 C 
BRANCH  21  22
ATOM     22  C   UNL A   1      37.975  22.059  25.216  1.00  0.00     0.023 C 
BRANCH  22  23
ATOM     23  C   UNL A   1      38.973  22.059  26.364  1.00  0.00     0.116 C 
BRANCH  23  24
ATOM     24  N   UNL A   1      40.352  21.828  25.927  1.00  0.00    -0.352 N 
ATOM     25  C   UNL A   1      41.396  22.732  25.938  1.00  0.00     0.251 C 
ATOM     26  H   UNL A   1      40.558  20.926  25.588  1.00  0.00     0.163 HD
ATOM     27  O   UNL A   1      42.382  22.594  25.221  1.00  0.00    -0.269 OA
BRANCH  25  28
ATOM     28  C   UNL A   1      41.304  23.867  26.864  1.00  0.00     0.039 A 
ATOM     29  C   UNL A   1      42.145  23.988  27.974  1.00  0.00     0.014 A 
ATOM     30  C   UNL A   1      40.402  24.871  26.524  1.00  0.00     0.014 A 
ATOM     31  C   UNL A   1      42.133  25.180  28.694  1.00  0.00     0.010 A 
ATOM     32  C   UNL A   1      40.504  26.091  27.136  1.00  0.00     0.010 A 
ATOM     33  C   UNL A   1      41.323  26.238  28.253  1.00  0.00    -0.014 A 
BRANCH  33  34
ATOM     34  C   UNL A   1      41.382  27.552  28.887  1.00  0.00     0.031 A 
ATOM     35  C   UNL A   1      42.512  28.431  28.458  1.00  0.00     0.074 A 
ATOM     36  C   UNL A   1      40.336  28.031  29.597  1.00  0.00     0.049 A 
ATOM     37  N   UNL A   1      43.438  28.961  29.188  1.00  0.00    -0.248 NA
ATOM     38  C   UNL A   1      42.681  28.687  27.017  1.00  0.00     0.031 C 
ATOM     39  C   UNL A   1      39.019  27.411  29.812  1.00  0.00     0.029 A 
ATOM     40  N   UNL A   1      40.183  29.249  30.180  1.00  0.00    -0.354 N 
ATOM     41  C   UNL A   1      44.211  29.752  28.334  1.00  0.00     0.074 A 
ATOM     42  C   UNL A   1      43.790  29.429  26.996  1.00  0.00     0.031 C 
ATOM     43  C   UNL A   1      38.142  28.343  30.243  1.00  0.00     0.029 A 
ATOM     44  C   UNL A   1      38.875  29.561  30.523  1.00  0.00     0.049 A 
ATOM     45  H   UNL A   1      40.938  29.860  30.345  1.00  0.00     0.167 HD
ATOM     46  C   UNL A   1      44.985  30.768  28.811  1.00  0.00     0.037 A 
ATOM     47  C   UNL A   1      38.420  30.751  30.981  1.00  0.00     0.037 A 
ATOM     48  C   UNL A   1      45.191  30.637  30.229  1.00  0.00     0.049 A 
ATOM     49  C   UNL A   1      39.598  31.500  31.484  1.00  0.00     0.074 A 
ATOM     50  C   UNL A   1      45.804  29.708  31.044  1.00  0.00     0.029 A 
ATOM     51  N   UNL A   1      44.404  31.398  31.055  1.00  0.00    -0.354 N 
ATOM     52  N   UNL A   1      40.308  31.132  32.515  1.00  0.00    -0.248 NA
ATOM     53  C   UNL A   1      40.252  32.419  30.566  1.00  0.00     0.031 C 
ATOM     54  C   UNL A   1      44.984  29.648  32.210  1.00  0.00     0.029 A 
ATOM     55  C   UNL A   1      43.961  30.586  32.063  1.00  0.00     0.049 A 
ATOM     56  H   UNL A   1      44.197  32.354  30.943  1.00  0.00     0.167 HD
ATOM     57  C   UNL A   1      41.616  31.427  32.164  1.00  0.00     0.074 A 
ATOM     58  C   UNL A   1      41.510  32.303  31.000  1.00  0.00     0.031 C 
ATOM     59  C   UNL A   1      42.658  30.708  32.676  1.00  0.00     0.037 A 
BRANCH  46  60
ATOM     60  C   UNL A   1      45.254  32.075  28.095  1.00  0.00     0.064 A 
ATOM     61  C   UNL A   1      44.170  32.933  27.801  1.00  0.00     0.173 A 
ATOM     62  C   UNL A   1      46.455  32.367  27.414  1.00  0.00     0.173 A 
ATOM     63  F   UNL A   1      42.975  32.748  28.381  1.00  0.00    -0.203 F 
ATOM     64  C   UNL A   1      44.259  33.935  26.831  1.00  0.00     0.198 A 
ATOM     65  C   UNL A   1      46.553  33.404  26.486  1.00  0.00     0.198 A 
ATOM     66  F   UNL A   1      47.543  31.599  27.528  1.00  0.00    -0.203 F 
ATOM     67  F   UNL A   1      43.165  34.630  26.489  1.00  0.00    -0.200 F 
ATOM     68  C   UNL A   1      45.448  34.163  26.167  1.00  0.00     0.200 A 
ATOM     69  F   UNL A   1      47.711  33.598  25.839  1.00  0.00    -0.200 F 
ATOM     70  F   UNL A   1      45.520  35.075  25.188  1.00  0.00    -0.200 F 
ENDBRANCH  46  60
BRANCH  47  71
ATOM     71  C   UNL A   1      37.119  31.400  30.706  1.00  0.00     0.064 A 
ATOM     72  C   UNL A   1      36.197  31.639  31.736  1.00  0.00     0.173 A 
ATOM     73  C   UNL A   1      36.877  32.054  29.480  1.00  0.00     0.173 A 
ATOM     74  F   UNL A   1      36.381  31.087  32.943  1.00  0.00    -0.203 F 
ATOM     75  C   UNL A   1      35.113  32.507  31.561  1.00  0.00     0.198 A 
ATOM     76  C   UNL A   1      35.793  32.915  29.306  1.00  0.00     0.198 A 
ATOM     77  F   UNL A   1      37.742  31.942  28.460  1.00  0.00    -0.203 F 
ATOM     78  F   UNL A   1      34.288  32.759  32.587  1.00  0.00    -0.200 F 
ATOM     79  C   UNL A   1      34.919  33.152  30.350  1.00  0.00     0.200 A 
ATOM     80  F   UNL A   1      35.639  33.561  28.142  1.00  0.00    -0.200 F 
ATOM     81  F   UNL A   1      33.919  34.033  30.203  1.00  0.00    -0.200 F 
ENDBRANCH  47  71
BRANCH  59  82
ATOM     82  C   UNL A   1      42.379  29.784  33.828  1.00  0.00     0.064 A 
ATOM     83  C   UNL A   1      41.953  28.452  33.687  1.00  0.00     0.173 A 
ATOM     84  C   UNL A   1      42.735  30.214  35.112  1.00  0.00     0.173 A 
ATOM     85  F   UNL A   1      41.680  27.938  32.483  1.00  0.00    -0.203 F 
ATOM     86  C   UNL A   1      41.867  27.599  34.787  1.00  0.00     0.198 A 
ATOM     87  C   UNL A   1      42.682  29.352  36.204  1.00  0.00     0.198 A 
ATOM     88  F   UNL A   1      43.197  31.460  35.298  1.00  0.00    -0.203 F 
ATOM     89  F   UNL A   1      41.462  26.331  34.626  1.00  0.00    -0.200 F 
ATOM     90  C   UNL A   1      42.243  28.048  36.042  1.00  0.00     0.200 A 
ATOM     91  F   UNL A   1      43.093  29.775  37.407  1.00  0.00    -0.200 F 
ATOM     92  F   UNL A   1      42.213  27.214  37.091  1.00  0.00    -0.200 F 
ENDBRANCH  59  82
ENDBRANCH  33  34
ENDBRANCH  25  28
ENDBRANCH  23  24
ENDBRANCH  22  23
ENDBRANCH  21  22
ENDBRANCH   1  21
TORSDOF 15
ENDMDL
MODEL 2
REMARK VINA RESULT:     -12.0      3.284      8.744
REMARK SMILES N#CCSc1nnnn1-c1ccc(C(=O)NCCCCNC(=O)c2ccc(-c3c4nc(c(-c5c(F)c(F)c(F)c(F)c5F)c5ccc([nH]5)c(-c5c(F)c(F)c(F)c(F)c5F)c5nc(c(-c6c(F)c(F)c(F)c(F)c6F)c6ccc3[nH]6)C=C5)C=C4)cc2)cc1
REMARK SMILES IDX 17 1 16 2 14 3 15 4 13 6 10 7 11 8 88 9 12 10 87 11 9 12
REMARK SMILES IDX 5 13 6 14 7 15 8 16 4 17 3 18 2 19 1 20 18 21 19 22 20 23
REMARK SMILES IDX 21 24 22 25 23 27 24 28 25 29 86 30 26 31 85 32 27 33 28 34
REMARK SMILES IDX 29 35 79 36 30 37 84 38 78 39 80 40 31 41 83 42 77 43 76 44
REMARK SMILES IDX 32 46 64 47 44 48 63 49 45 50 48 51 62 52 81 53 46 54 47 55
REMARK SMILES IDX 61 57 82 58 49 59 33 60 34 61 42 62 35 63 36 64 40 65 43 66
REMARK SMILES IDX 37 67 38 68 41 69 39 70 65 71 66 72 74 73 67 74 68 75 72 76
REMARK SMILES IDX 75 77 69 78 70 79 73 80 71 81 50 82 51 83 59 84 52 85 53 86
REMARK SMILES IDX 57 87 60 88 54 89 55 90 58 91 56 92
REMARK H PARENT 16 5 21 26 80 45 48 56
REMARK Flexibility Score: inf
ROOT
ATOM      1  C   UNL A   1      33.290  29.756  26.530  1.00  0.00     0.116 C 
ENDROOT
BRANCH   1   2
ATOM      2  N   UNL A   1      33.670  29.662  25.129  1.00  0.00    -0.352 N 
ATOM      3  C   UNL A   1      33.627  28.632  24.219  1.00  0.00     0.251 C 
ATOM      4  O   UNL A   1      33.953  28.871  23.058  1.00  0.00    -0.269 OA
ATOM      5  H   UNL A   1      34.030  30.501  24.760  1.00  0.00     0.163 HD
BRANCH   3   6
ATOM      6  C   UNL A   1      33.113  27.278  24.562  1.00  0.00     0.039 A 
ATOM      7  C   UNL A   1      31.893  24.940  25.433  1.00  0.00     0.069 A 
ATOM      8  C   UNL A   1      31.205  25.760  24.541  1.00  0.00     0.029 A 
ATOM      9  C   UNL A   1      33.225  25.183  25.769  1.00  0.00     0.029 A 
ATOM     10  C   UNL A   1      31.824  26.937  24.111  1.00  0.00     0.016 A 
ATOM     11  C   UNL A   1      33.835  26.348  25.314  1.00  0.00     0.016 A 
BRANCH   7  12
ATOM     12  N   UNL A   1      31.217  23.913  26.096  1.00  0.00    -0.187 N 
ATOM     13  C   UNL A   1      31.120  22.578  25.747  1.00  0.00     0.215 A 
ATOM     14  N   UNL A   1      30.160  22.038  26.466  1.00  0.00    -0.101 NA
ATOM     15  N   UNL A   1      29.655  23.044  27.252  1.00  0.00    -0.022 NA
ATOM     16  N   UNL A   1      30.298  24.186  27.042  1.00  0.00    -0.039 NA
BRANCH  13  17
ATOM     17  S   UNL A   1      32.285  21.651  24.849  1.00  0.00    -0.069 SA
BRANCH  17  18
ATOM     18  C   UNL A   1      32.075  22.050  23.095  1.00  0.00     0.198 C 
BRANCH  18  19
ATOM     19  C   UNL A   1      32.980  23.157  22.579  1.00  0.00     0.074 C 
ATOM     20  N   UNL A   1      33.732  24.075  22.152  1.00  0.00    -0.197 NA
ENDBRANCH  18  19
ENDBRANCH  17  18
ENDBRANCH  13  17
ENDBRANCH   7  12
ENDBRANCH   3   6
ENDBRANCH   1   2
BRANCH   1  21
ATOM     21  C   UNL A   1      34.270  30.623  27.331  1.00  0.00     0.023 C 
BRANCH  21  22
ATOM     22  C   UNL A   1      33.744  32.004  27.742  1.00  0.00     0.023 C 
BRANCH  22  23
ATOM     23  C   UNL A   1      34.777  32.912  28.395  1.00  0.00     0.116 C 
BRANCH  23  24
ATOM     24  N   UNL A   1      34.618  33.013  29.847  1.00  0.00    -0.352 N 
ATOM     25  C   UNL A   1      35.286  32.288  30.814  1.00  0.00     0.251 C 
ATOM     26  H   UNL A   1      33.961  33.673  30.171  1.00  0.00     0.163 HD
ATOM     27  O   UNL A   1      34.838  32.150  31.948  1.00  0.00    -0.269 OA
BRANCH  25  28
ATOM     28  C   UNL A   1      36.579  31.696  30.450  1.00  0.00     0.039 A 
ATOM     29  C   UNL A   1      37.750  32.455  30.391  1.00  0.00     0.014 A 
ATOM     30  C   UNL A   1      36.597  30.316  30.264  1.00  0.00     0.014 A 
ATOM     31  C   UNL A   1      38.966  31.795  30.231  1.00  0.00     0.010 A 
ATOM     32  C   UNL A   1      37.799  29.662  30.262  1.00  0.00     0.010 A 
ATOM     33  C   UNL A   1      38.984  30.392  30.189  1.00  0.00    -0.014 A 
BRANCH  33  34
ATOM     34  C   UNL A   1      40.241  29.651  30.166  1.00  0.00     0.031 A 
ATOM     35  C   UNL A   1      40.887  29.424  31.494  1.00  0.00     0.074 A 
ATOM     36  C   UNL A   1      40.638  28.986  29.057  1.00  0.00     0.049 A 
ATOM     37  N   UNL A   1      42.068  29.777  31.883  1.00  0.00    -0.248 NA
ATOM     38  C   UNL A   1      40.083  28.792  32.556  1.00  0.00     0.031 C 
ATOM     39  C   UNL A   1      39.926  28.837  27.779  1.00  0.00     0.029 A 
ATOM     40  N   UNL A   1      41.723  28.187  28.881  1.00  0.00    -0.354 N 
ATOM     41  C   UNL A   1      42.226  29.273  33.176  1.00  0.00     0.074 A 
ATOM     42  C   UNL A   1      40.928  28.808  33.589  1.00  0.00     0.031 C 
ATOM     43  C   UNL A   1      40.460  27.816  27.076  1.00  0.00     0.029 A 
ATOM     44  C   UNL A   1      41.662  27.377  27.755  1.00  0.00     0.049 A 
ATOM     45  H   UNL A   1      42.488  28.182  29.501  1.00  0.00     0.167 HD
ATOM     46  C   UNL A   1      43.462  29.082  33.719  1.00  0.00     0.037 A 
ATOM     47  C   UNL A   1      42.528  26.393  27.419  1.00  0.00     0.037 A 
ATOM     48  C   UNL A   1      44.465  29.809  32.987  1.00  0.00     0.049 A 
ATOM     49  C   UNL A   1      43.774  26.631  28.188  1.00  0.00     0.074 A 
ATOM     50  C   UNL A   1      44.716  31.142  32.736  1.00  0.00     0.029 A 
ATOM     51  N   UNL A   1      45.211  29.110  32.072  1.00  0.00    -0.354 N 
ATOM     52  N   UNL A   1      44.549  27.665  28.015  1.00  0.00    -0.248 NA
ATOM     53  C   UNL A   1      43.919  25.942  29.461  1.00  0.00     0.031 C 
ATOM     54  C   UNL A   1      45.197  31.177  31.393  1.00  0.00     0.029 A 
ATOM     55  C   UNL A   1      45.272  29.862  30.930  1.00  0.00     0.049 A 
ATOM     56  H   UNL A   1      45.626  28.228  32.212  1.00  0.00     0.167 HD
ATOM     57  C   UNL A   1      44.968  28.008  29.292  1.00  0.00     0.074 A 
ATOM     58  C   UNL A   1      44.628  26.858  30.126  1.00  0.00     0.031 C 
ATOM     59  C   UNL A   1      45.290  29.299  29.600  1.00  0.00     0.037 A 
BRANCH  46  60
ATOM     60  C   UNL A   1      43.839  27.965  34.671  1.00  0.00     0.064 A 
ATOM     61  C   UNL A   1      43.619  26.626  34.278  1.00  0.00     0.173 A 
ATOM     62  C   UNL A   1      44.099  28.156  36.044  1.00  0.00     0.173 A 
ATOM     63  F   UNL A   1      43.353  26.322  32.999  1.00  0.00    -0.203 F 
ATOM     64  C   UNL A   1      43.566  25.580  35.204  1.00  0.00     0.198 A 
ATOM     65  C   UNL A   1      44.098  27.101  36.957  1.00  0.00     0.198 A 
ATOM     66  F   UNL A   1      44.248  29.372  36.579  1.00  0.00    -0.203 F 
ATOM     67  F   UNL A   1      43.217  24.350  34.802  1.00  0.00    -0.200 F 
ATOM     68  C   UNL A   1      43.796  25.821  36.545  1.00  0.00     0.200 A 
ATOM     69  F   UNL A   1      44.307  27.357  38.256  1.00  0.00    -0.200 F 
ATOM     70  F   UNL A   1      43.679  24.836  37.445  1.00  0.00    -0.200 F 
ENDBRANCH  46  60
BRANCH  47  71
ATOM     71  C   UNL A   1      42.234  25.104  26.753  1.00  0.00     0.064 A 
ATOM     72  C   UNL A   1      42.957  24.690  25.625  1.00  0.00     0.173 A 
ATOM     73  C   UNL A   1      41.434  24.127  27.381  1.00  0.00     0.173 A 
ATOM     74  F   UNL A   1      43.773  25.550  24.998  1.00  0.00    -0.203 F 
ATOM     75  C   UNL A   1      42.909  23.368  25.168  1.00  0.00     0.198 A 
ATOM     76  C   UNL A   1      41.383  22.811  26.922  1.00  0.00     0.198 A 
ATOM     77  F   UNL A   1      40.762  24.411  28.507  1.00  0.00    -0.203 F 
ATOM     78  F   UNL A   1      43.661  22.995  24.124  1.00  0.00    -0.200 F 
ATOM     79  C   UNL A   1      42.131  22.428  25.824  1.00  0.00     0.200 A 
ATOM     80  F   UNL A   1      40.656  21.903  27.587  1.00  0.00    -0.200 F 
ATOM     81  F   UNL A   1      42.135  21.148  25.427  1.00  0.00    -0.200 F 
ENDBRANCH  47  71
BRANCH  59  82
ATOM     82  C   UNL A   1      45.448  30.276  28.470  1.00  0.00     0.064 A 
ATOM     83  C   UNL A   1      44.414  31.092  27.981  1.00  0.00     0.173 A 
ATOM     84  C   UNL A   1      46.742  30.521  27.992  1.00  0.00     0.173 A 
ATOM     85  F   UNL A   1      43.167  30.982  28.451  1.00  0.00    -0.203 F 
ATOM     86  C   UNL A   1      44.663  32.091  27.040  1.00  0.00     0.198 A 
ATOM     87  C   UNL A   1      46.995  31.541  27.080  1.00  0.00     0.198 A 
ATOM     88  F   UNL A   1      47.776  29.806  28.463  1.00  0.00    -0.203 F 
ATOM     89  F   UNL A   1      43.659  32.860  26.593  1.00  0.00    -0.200 F 
ATOM     90  C   UNL A   1      45.956  32.322  26.601  1.00  0.00     0.200 A 
ATOM     91  F   UNL A   1      48.253  31.792  26.695  1.00  0.00    -0.200 F 
ATOM     92  F   UNL A   1      46.205  33.317  25.738  1.00  0.00    -0.200 F 
ENDBRANCH  59  82
ENDBRANCH  33  34
ENDBRANCH  25  28
ENDBRANCH  23  24
ENDBRANCH  22  23
ENDBRANCH  21  22
ENDBRANCH   1  21
TORSDOF 15
ENDMDL
MODEL 3
REMARK VINA RESULT:     -11.9      3.240      8.557
REMARK SMILES N#CCSc1nnnn1-c1ccc(C(=O)NCCCCNC(=O)c2ccc(-c3c4nc(c(-c5c(F)c(F)c(F)c(F)c5F)c5ccc([nH]5)c(-c5c(F)c(F)c(F)c(F)c5F)c5nc(c(-c6c(F)c(F)c(F)c(F)c6F)c6ccc3[nH]6)C=C5)C=C4)cc2)cc1
REMARK SMILES IDX 17 1 16 2 14 3 15 4 13 6 10 7 11 8 88 9 12 10 87 11 9 12
REMARK SMILES IDX 5 13 6 14 7 15 8 16 4 17 3 18 2 19 1 20 18 21 19 22 20 23
REMARK SMILES IDX 21 24 22 25 23 27 24 28 25 29 86 30 26 31 85 32 27 33 28 34
REMARK SMILES IDX 29 35 79 36 30 37 84 38 78 39 80 40 31 41 83 42 77 43 76 44
REMARK SMILES IDX 32 46 64 47 44 48 63 49 45 50 48 51 62 52 81 53 46 54 47 55
REMARK SMILES IDX 61 57 82 58 49 59 33 60 34 61 42 62 35 63 36 64 40 65 43 66
REMARK SMILES IDX 37 67 38 68 41 69 39 70 65 71 66 72 74 73 67 74 68 75 72 76
REMARK SMILES IDX 75 77 69 78 70 79 73 80 71 81 50 82 51 83 59 84 52 85 53 86
REMARK SMILES IDX 57 87 60 88 54 89 55 90 58 91 56 92
REMARK H PARENT 16 5 21 26 80 45 48 56
REMARK Flexibility Score: inf
ROOT
ATOM      1  C   UNL A   1      34.685  29.236  27.514  1.00  0.00     0.116 C 
ENDROOT
BRANCH   1   2
ATOM      2  N   UNL A   1      33.315  28.959  27.916  1.00  0.00    -0.352 N 
ATOM      3  C   UNL A   1      32.289  28.272  27.312  1.00  0.00     0.251 C 
ATOM      4  O   UNL A   1      31.238  28.135  27.935  1.00  0.00    -0.269 OA
ATOM      5  H   UNL A   1      33.076  29.338  28.792  1.00  0.00     0.163 HD
BRANCH   3   6
ATOM      6  C   UNL A   1      32.433  27.613  25.985  1.00  0.00     0.039 A 
ATOM      7  C   UNL A   1      32.645  26.041  23.705  1.00  0.00     0.069 A 
ATOM      8  C   UNL A   1      31.389  26.211  24.286  1.00  0.00     0.029 A 
ATOM      9  C   UNL A   1      33.755  26.763  24.145  1.00  0.00     0.029 A 
ATOM     10  C   UNL A   1      31.292  26.999  25.435  1.00  0.00     0.016 A 
ATOM     11  C   UNL A   1      33.637  27.562  25.277  1.00  0.00     0.016 A 
BRANCH   7  12
ATOM     12  N   UNL A   1      32.835  25.055  22.735  1.00  0.00    -0.187 N 
ATOM     13  C   UNL A   1      33.412  23.806  22.876  1.00  0.00     0.215 A 
ATOM     14  N   UNL A   1      33.657  23.332  21.673  1.00  0.00    -0.101 NA
ATOM     15  N   UNL A   1      33.242  24.297  20.788  1.00  0.00    -0.022 NA
ATOM     16  N   UNL A   1      32.731  25.344  21.423  1.00  0.00    -0.039 NA
BRANCH  13  17
ATOM     17  S   UNL A   1      33.444  22.831  24.316  1.00  0.00    -0.069 SA
BRANCH  17  18
ATOM     18  C   UNL A   1      31.729  22.523  24.812  1.00  0.00     0.198 C 
BRANCH  18  19
ATOM     19  C   UNL A   1      31.331  23.134  26.145  1.00  0.00     0.074 C 
ATOM     20  N   UNL A   1      31.000  23.641  27.251  1.00  0.00    -0.197 NA
ENDBRANCH  18  19
ENDBRANCH  17  18
ENDBRANCH  13  17
ENDBRANCH   7  12
ENDBRANCH   3   6
ENDBRANCH   1   2
BRANCH   1  21
ATOM     21  C   UNL A   1      34.925  30.735  27.296  1.00  0.00     0.023 C 
BRANCH  21  22
ATOM     22  C   UNL A   1      33.961  31.672  28.037  1.00  0.00     0.023 C 
BRANCH  22  23
ATOM     23  C   UNL A   1      34.601  32.936  28.593  1.00  0.00     0.116 C 
BRANCH  23  24
ATOM     24  N   UNL A   1      34.476  33.052  30.048  1.00  0.00    -0.352 N 
ATOM     25  C   UNL A   1      35.146  32.316  31.006  1.00  0.00     0.251 C 
ATOM     26  H   UNL A   1      33.845  33.732  30.380  1.00  0.00     0.163 HD
ATOM     27  O   UNL A   1      34.719  32.199  32.150  1.00  0.00    -0.269 OA
BRANCH  25  28
ATOM     28  C   UNL A   1      36.414  31.687  30.618  1.00  0.00     0.039 A 
ATOM     29  C   UNL A   1      37.575  32.433  30.403  1.00  0.00     0.014 A 
ATOM     30  C   UNL A   1      36.426  30.295  30.574  1.00  0.00     0.014 A 
ATOM     31  C   UNL A   1      38.781  31.758  30.230  1.00  0.00     0.010 A 
ATOM     32  C   UNL A   1      37.629  29.642  30.559  1.00  0.00     0.010 A 
ATOM     33  C   UNL A   1      38.802  30.358  30.332  1.00  0.00    -0.014 A 
BRANCH  33  34
ATOM     34  C   UNL A   1      40.059  29.616  30.301  1.00  0.00     0.031 A 
ATOM     35  C   UNL A   1      40.722  29.403  31.623  1.00  0.00     0.074 A 
ATOM     36  C   UNL A   1      40.442  28.939  29.194  1.00  0.00     0.049 A 
ATOM     37  N   UNL A   1      41.908  29.760  31.993  1.00  0.00    -0.248 NA
ATOM     38  C   UNL A   1      39.931  28.784  32.702  1.00  0.00     0.031 C 
ATOM     39  C   UNL A   1      39.713  28.777  27.927  1.00  0.00     0.029 A 
ATOM     40  N   UNL A   1      41.523  28.137  29.013  1.00  0.00    -0.354 N 
ATOM     41  C   UNL A   1      42.083  29.270  33.289  1.00  0.00     0.074 A 
ATOM     42  C   UNL A   1      40.790  28.810  33.723  1.00  0.00     0.031 C 
ATOM     43  C   UNL A   1      40.238  27.748  27.228  1.00  0.00     0.029 A 
ATOM     44  C   UNL A   1      41.448  27.315  27.897  1.00  0.00     0.049 A 
ATOM     45  H   UNL A   1      42.296  28.138  29.623  1.00  0.00     0.167 HD
ATOM     46  C   UNL A   1      43.325  29.084  33.819  1.00  0.00     0.037 A 
ATOM     47  C   UNL A   1      42.309  26.326  27.561  1.00  0.00     0.037 A 
ATOM     48  C   UNL A   1      44.319  29.803  33.065  1.00  0.00     0.049 A 
ATOM     49  C   UNL A   1      43.565  26.572  28.311  1.00  0.00     0.074 A 
ATOM     50  C   UNL A   1      44.567  31.132  32.797  1.00  0.00     0.029 A 
ATOM     51  N   UNL A   1      45.053  29.093  32.149  1.00  0.00    -0.354 N 
ATOM     52  N   UNL A   1      44.338  27.604  28.117  1.00  0.00    -0.248 NA
ATOM     53  C   UNL A   1      43.726  25.897  29.589  1.00  0.00     0.031 C 
ATOM     54  C   UNL A   1      45.032  31.152  31.448  1.00  0.00     0.029 A 
ATOM     55  C   UNL A   1      45.100  29.832  30.998  1.00  0.00     0.049 A 
ATOM     56  H   UNL A   1      45.469  28.212  32.293  1.00  0.00     0.167 HD
ATOM     57  C   UNL A   1      44.774  27.961  29.384  1.00  0.00     0.074 A 
ATOM     58  C   UNL A   1      44.444  26.820  30.235  1.00  0.00     0.031 C 
ATOM     59  C   UNL A   1      45.100  29.254  29.674  1.00  0.00     0.037 A 
BRANCH  46  60
ATOM     60  C   UNL A   1      43.713  27.978  34.777  1.00  0.00     0.064 A 
ATOM     61  C   UNL A   1      43.409  26.640  34.440  1.00  0.00     0.173 A 
ATOM     62  C   UNL A   1      44.071  28.193  36.125  1.00  0.00     0.173 A 
ATOM     63  F   UNL A   1      43.047  26.314  33.191  1.00  0.00    -0.203 F 
ATOM     64  C   UNL A   1      43.370  25.623  35.400  1.00  0.00     0.198 A 
ATOM     65  C   UNL A   1      44.084  27.165  37.067  1.00  0.00     0.198 A 
ATOM     66  F   UNL A   1      44.309  29.415  36.612  1.00  0.00    -0.203 F 
ATOM     67  F   UNL A   1      42.942  24.400  35.057  1.00  0.00    -0.200 F 
ATOM     68  C   UNL A   1      43.698  25.889  36.714  1.00  0.00     0.200 A 
ATOM     69  F   UNL A   1      44.388  27.446  38.342  1.00  0.00    -0.200 F 
ATOM     70  F   UNL A   1      43.596  24.936  37.650  1.00  0.00    -0.200 F 
ENDBRANCH  46  60
BRANCH  47  71
ATOM     71  C   UNL A   1      42.006  25.031  26.913  1.00  0.00     0.064 A 
ATOM     72  C   UNL A   1      42.730  24.594  25.794  1.00  0.00     0.173 A 
ATOM     73  C   UNL A   1      41.195  24.071  27.552  1.00  0.00     0.173 A 
ATOM     74  F   UNL A   1      43.555  25.437  25.157  1.00  0.00    -0.203 F 
ATOM     75  C   UNL A   1      42.670  23.266  25.356  1.00  0.00     0.198 A 
ATOM     76  C   UNL A   1      41.133  22.748  27.112  1.00  0.00     0.198 A 
ATOM     77  F   UNL A   1      40.521  24.378  28.671  1.00  0.00    -0.203 F 
ATOM     78  F   UNL A   1      43.424  22.870  24.321  1.00  0.00    -0.200 F 
ATOM     79  C   UNL A   1      41.882  22.342  26.023  1.00  0.00     0.200 A 
ATOM     80  F   UNL A   1      40.395  21.857  27.788  1.00  0.00    -0.200 F 
ATOM     81  F   UNL A   1      41.876  21.056  25.645  1.00  0.00    -0.200 F 
ENDBRANCH  47  71
BRANCH  59  82
ATOM     82  C   UNL A   1      45.245  30.219  28.531  1.00  0.00     0.064 A 
ATOM     83  C   UNL A   1      44.221  31.071  28.083  1.00  0.00     0.173 A 
ATOM     84  C   UNL A   1      46.524  30.412  27.995  1.00  0.00     0.173 A 
ATOM     85  F   UNL A   1      42.993  31.011  28.609  1.00  0.00    -0.203 F 
ATOM     86  C   UNL A   1      44.465  32.055  27.126  1.00  0.00     0.198 A 
ATOM     87  C   UNL A   1      46.774  31.418  27.066  1.00  0.00     0.198 A 
ATOM     88  F   UNL A   1      47.550  29.662  28.424  1.00  0.00    -0.203 F 
ATOM     89  F   UNL A   1      43.472  32.859  26.718  1.00  0.00    -0.200 F 
ATOM     90  C   UNL A   1      45.745  32.235  26.628  1.00  0.00     0.200 A 
ATOM     91  F   UNL A   1      48.023  31.619  26.624  1.00  0.00    -0.200 F 
ATOM     92  F   UNL A   1      45.993  33.216  25.748  1.00  0.00    -0.200 F 
ENDBRANCH  59  82
ENDBRANCH  33  34
ENDBRANCH  25  28
ENDBRANCH  23  24
ENDBRANCH  22  23
ENDBRANCH  21  22
ENDBRANCH   1  21
TORSDOF 15
ENDMDL
