MODEL 1
REMARK VINA RESULT:     -12.5      0.000      0.000
REMARK SMILES CC/C(C(=O)NCCCCNC(=O)c1ccc(-c2c3nc(c(-c4c(F)c(F)c(F)c(F)c4F)c4ccc([nH]4)c(-c4c(F)c(F)c(F)c(F)c4F)c4nc(c(-c5c(F)c(F)c(F)c(F)c5F)c5ccc2[nH]5)C=C4)C=C3)cc1)=C1\CCc2ccccc21
REMARK SMILES IDX 9 1 8 2 7 3 6 4 4 5 5 6 3 8 77 9 78 10 85 11 79 12 80 13
REMARK SMILES IDX 84 14 81 15 83 16 82 17 2 18 1 19 10 20 11 21 12 22 13 24
REMARK SMILES IDX 14 25 15 26 76 27 16 28 75 29 17 30 18 31 19 32 69 33 20 34
REMARK SMILES IDX 74 35 68 36 70 37 21 38 73 39 67 40 66 41 22 43 54 44 34 45
REMARK SMILES IDX 53 46 35 47 38 48 52 49 71 50 36 51 37 52 51 54 72 55 39 56
REMARK SMILES IDX 23 57 24 58 32 59 25 60 26 61 30 62 33 63 27 64 28 65 31 66
REMARK SMILES IDX 29 67 55 68 56 69 64 70 57 71 58 72 62 73 65 74 59 75 60 76
REMARK SMILES IDX 63 77 61 78 40 79 41 80 49 81 42 82 43 83 47 84 50 85 44 86
REMARK SMILES IDX 45 87 48 88 46 89
REMARK H PARENT 6 7 11 23 70 42 38 53
REMARK Flexibility Score: inf
ROOT
ATOM      1  C   UNL A   1      32.876  29.338  24.705  1.00  0.00     0.023 C 
ENDROOT
BRANCH   1   2
ATOM      2  C   UNL A   1      33.808  28.238  24.225  1.00  0.00     0.023 C 
BRANCH   2   3
ATOM      3  C   UNL A   1      34.119  28.221  22.720  1.00  0.00     0.116 C 
BRANCH   3   4
ATOM      4  N   UNL A   1      33.139  27.417  22.006  1.00  0.00    -0.352 N 
ATOM      5  C   UNL A   1      33.058  26.049  22.059  1.00  0.00     0.247 C 
ATOM      6  O   UNL A   1      33.268  25.399  21.036  1.00  0.00    -0.270 OA
ATOM      7  H   UNL A   1      32.484  27.890  21.442  1.00  0.00     0.163 HD
BRANCH   5   8
ATOM      8  C   UNL A   1      32.328  25.432  23.222  1.00  0.00     0.020 C 
ATOM      9  C   UNL A   1      32.899  24.617  24.136  1.00  0.00    -0.031 C 
ATOM     10  C   UNL A   1      32.267  24.155  25.438  1.00  0.00     0.041 C 
ATOM     11  C   UNL A   1      34.269  24.091  24.221  1.00  0.00    -0.019 A 
ATOM     12  C   UNL A   1      33.412  24.081  26.455  1.00  0.00     0.041 C 
ATOM     13  C   UNL A   1      34.587  23.853  25.563  1.00  0.00    -0.040 A 
ATOM     14  C   UNL A   1      35.182  23.757  23.238  1.00  0.00     0.009 A 
ATOM     15  C   UNL A   1      35.859  23.462  25.957  1.00  0.00     0.004 A 
ATOM     16  C   UNL A   1      36.467  23.342  23.617  1.00  0.00     0.001 A 
ATOM     17  C   UNL A   1      36.814  23.231  24.969  1.00  0.00     0.000 A 
BRANCH   8  18
ATOM     18  C   UNL A   1      30.852  25.825  23.146  1.00  0.00     0.038 C 
ATOM     19  C   UNL A   1      30.286  26.835  24.142  1.00  0.00     0.009 C 
ENDBRANCH   8  18
ENDBRANCH   5   8
ENDBRANCH   3   4
ENDBRANCH   2   3
ENDBRANCH   1   2
BRANCH   1  20
ATOM     20  C   UNL A   1      32.730  29.466  26.212  1.00  0.00     0.116 C 
BRANCH  20  21
ATOM     21  N   UNL A   1      32.377  30.795  26.697  1.00  0.00    -0.352 N 
ATOM     22  C   UNL A   1      33.189  31.699  27.354  1.00  0.00     0.251 C 
ATOM     23  H   UNL A   1      31.449  31.083  26.536  1.00  0.00     0.163 HD
ATOM     24  O   UNL A   1      32.763  32.786  27.729  1.00  0.00    -0.269 OA
BRANCH  22  25
ATOM     25  C   UNL A   1      34.581  31.298  27.659  1.00  0.00     0.039 A 
ATOM     26  C   UNL A   1      35.566  32.283  27.752  1.00  0.00     0.014 A 
ATOM     27  C   UNL A   1      34.860  29.979  28.018  1.00  0.00     0.014 A 
ATOM     28  C   UNL A   1      36.794  31.969  28.340  1.00  0.00     0.010 A 
ATOM     29  C   UNL A   1      36.038  29.697  28.697  1.00  0.00     0.010 A 
ATOM     30  C   UNL A   1      37.009  30.696  28.890  1.00  0.00    -0.014 A 
BRANCH  30  31
ATOM     31  C   UNL A   1      38.212  30.373  29.705  1.00  0.00     0.031 A 
ATOM     32  C   UNL A   1      39.240  29.416  29.168  1.00  0.00     0.074 A 
ATOM     33  C   UNL A   1      38.316  30.830  30.970  1.00  0.00     0.049 A 
ATOM     34  N   UNL A   1      40.245  28.845  29.782  1.00  0.00    -0.248 NA
ATOM     35  C   UNL A   1      39.084  29.009  27.763  1.00  0.00     0.031 C 
ATOM     36  C   UNL A   1      37.359  31.712  31.640  1.00  0.00     0.029 A 
ATOM     37  N   UNL A   1      39.271  30.593  31.931  1.00  0.00    -0.354 N 
ATOM     38  C   UNL A   1      40.805  27.976  28.856  1.00  0.00     0.074 A 
ATOM     39  C   UNL A   1      40.005  28.065  27.654  1.00  0.00     0.031 C 
ATOM     40  C   UNL A   1      37.785  31.961  32.889  1.00  0.00     0.029 A 
ATOM     41  C   UNL A   1      39.021  31.223  33.127  1.00  0.00     0.049 A 
ATOM     42  H   UNL A   1      40.060  30.025  31.776  1.00  0.00     0.167 HD
ATOM     43  C   UNL A   1      41.901  27.192  28.987  1.00  0.00     0.037 A 
ATOM     44  C   UNL A   1      39.706  31.199  34.286  1.00  0.00     0.037 A 
ATOM     45  C   UNL A   1      42.735  27.157  30.158  1.00  0.00     0.049 A 
ATOM     46  C   UNL A   1      40.958  30.369  34.386  1.00  0.00     0.074 A 
ATOM     47  C   UNL A   1      43.908  26.453  30.362  1.00  0.00     0.029 A 
ATOM     48  N   UNL A   1      42.490  27.874  31.320  1.00  0.00    -0.354 N 
ATOM     49  N   UNL A   1      41.505  29.590  33.487  1.00  0.00    -0.248 NA
ATOM     50  C   UNL A   1      41.689  30.422  35.660  1.00  0.00     0.031 C 
ATOM     51  C   UNL A   1      44.364  26.729  31.655  1.00  0.00     0.029 A 
ATOM     52  C   UNL A   1      43.492  27.629  32.244  1.00  0.00     0.049 A 
ATOM     53  H   UNL A   1      41.719  28.467  31.466  1.00  0.00     0.167 HD
ATOM     54  C   UNL A   1      42.657  29.082  34.072  1.00  0.00     0.074 A 
ATOM     55  C   UNL A   1      42.735  29.648  35.402  1.00  0.00     0.031 C 
ATOM     56  C   UNL A   1      43.567  28.224  33.553  1.00  0.00     0.037 A 
BRANCH  43  57
ATOM     57  C   UNL A   1      42.266  26.317  27.825  1.00  0.00     0.064 A 
ATOM     58  C   UNL A   1      43.231  26.709  26.885  1.00  0.00     0.173 A 
ATOM     59  C   UNL A   1      41.656  25.064  27.658  1.00  0.00     0.173 A 
ATOM     60  F   UNL A   1      43.831  27.903  26.993  1.00  0.00    -0.203 F 
ATOM     61  C   UNL A   1      43.545  25.895  25.800  1.00  0.00     0.198 A 
ATOM     62  C   UNL A   1      41.997  24.239  26.589  1.00  0.00     0.198 A 
ATOM     63  F   UNL A   1      40.731  24.641  28.532  1.00  0.00    -0.203 F 
ATOM     64  F   UNL A   1      44.428  26.315  24.883  1.00  0.00    -0.200 F 
ATOM     65  C   UNL A   1      42.933  24.659  25.657  1.00  0.00     0.200 A 
ATOM     66  F   UNL A   1      41.411  23.041  26.457  1.00  0.00    -0.200 F 
ATOM     67  F   UNL A   1      43.238  23.876  24.613  1.00  0.00    -0.200 F 
ENDBRANCH  43  57
BRANCH  44  68
ATOM     68  C   UNL A   1      39.245  32.013  35.440  1.00  0.00     0.064 A 
ATOM     69  C   UNL A   1      39.610  33.363  35.552  1.00  0.00     0.173 A 
ATOM     70  C   UNL A   1      38.441  31.469  36.451  1.00  0.00     0.173 A 
ATOM     71  F   UNL A   1      40.396  33.921  34.619  1.00  0.00    -0.203 F 
ATOM     72  C   UNL A   1      39.204  34.132  36.640  1.00  0.00     0.198 A 
ATOM     73  C   UNL A   1      38.016  32.245  37.527  1.00  0.00     0.198 A 
ATOM     74  F   UNL A   1      38.062  30.185  36.389  1.00  0.00    -0.203 F 
ATOM     75  F   UNL A   1      39.603  35.407  36.743  1.00  0.00    -0.200 F 
ATOM     76  C   UNL A   1      38.403  33.573  37.625  1.00  0.00     0.200 A 
ATOM     77  F   UNL A   1      37.233  31.706  38.473  1.00  0.00    -0.200 F 
ATOM     78  F   UNL A   1      38.012  34.314  38.672  1.00  0.00    -0.200 F 
ENDBRANCH  44  68
BRANCH  56  79
ATOM     79  C   UNL A   1      44.756  27.883  34.399  1.00  0.00     0.064 A 
ATOM     80  C   UNL A   1      45.922  28.660  34.377  1.00  0.00     0.173 A 
ATOM     81  C   UNL A   1      44.701  26.798  35.285  1.00  0.00     0.173 A 
ATOM     82  F   UNL A   1      46.024  29.699  33.534  1.00  0.00    -0.203 F 
ATOM     83  C   UNL A   1      46.998  28.354  35.205  1.00  0.00     0.198 A 
ATOM     84  C   UNL A   1      45.770  26.508  36.128  1.00  0.00     0.198 A 
ATOM     85  F   UNL A   1      43.604  26.027  35.345  1.00  0.00    -0.203 F 
ATOM     86  F   UNL A   1      48.116  29.091  35.148  1.00  0.00    -0.200 F 
ATOM     87  C   UNL A   1      46.918  27.284  36.085  1.00  0.00     0.200 A 
ATOM     88  F   UNL A   1      45.688  25.480  36.984  1.00  0.00    -0.200 F 
ATOM     89  F   UNL A   1      47.952  26.998  36.888  1.00  0.00    -0.200 F 
ENDBRANCH  56  79
ENDBRANCH  30  31
ENDBRANCH  22  25
ENDBRANCH  20  21
ENDBRANCH   1  20
TORSDOF 12
ENDMDL
MODEL 2
REMARK VINA RESULT:     -12.5      0.546      1.768
REMARK SMILES CC/C(C(=O)NCCCCNC(=O)c1ccc(-c2c3nc(c(-c4c(F)c(F)c(F)c(F)c4F)c4ccc([nH]4)c(-c4c(F)c(F)c(F)c(F)c4F)c4nc(c(-c5c(F)c(F)c(F)c(F)c5F)c5ccc2[nH]5)C=C4)C=C3)cc1)=C1\CCc2ccccc21
REMARK SMILES IDX 9 1 8 2 7 3 6 4 4 5 5 6 3 8 77 9 78 10 85 11 79 12 80 13
REMARK SMILES IDX 84 14 81 15 83 16 82 17 2 18 1 19 10 20 11 21 12 22 13 24
REMARK SMILES IDX 14 25 15 26 76 27 16 28 75 29 17 30 18 31 19 32 69 33 20 34
REMARK SMILES IDX 74 35 68 36 70 37 21 38 73 39 67 40 66 41 22 43 54 44 34 45
REMARK SMILES IDX 53 46 35 47 38 48 52 49 71 50 36 51 37 52 51 54 72 55 39 56
REMARK SMILES IDX 23 57 24 58 32 59 25 60 26 61 30 62 33 63 27 64 28 65 31 66
REMARK SMILES IDX 29 67 55 68 56 69 64 70 57 71 58 72 62 73 65 74 59 75 60 76
REMARK SMILES IDX 63 77 61 78 40 79 41 80 49 81 42 82 43 83 47 84 50 85 44 86
REMARK SMILES IDX 45 87 48 88 46 89
REMARK H PARENT 6 7 11 23 70 42 38 53
REMARK Flexibility Score: inf
ROOT
ATOM      1  C   UNL A   1      32.803  29.313  24.624  1.00  0.00     0.023 C 
ENDROOT
BRANCH   1   2
ATOM      2  C   UNL A   1      33.851  28.350  24.092  1.00  0.00     0.023 C 
BRANCH   2   3
ATOM      3  C   UNL A   1      33.828  28.092  22.576  1.00  0.00     0.116 C 
BRANCH   3   4
ATOM      4  N   UNL A   1      32.459  27.963  22.102  1.00  0.00    -0.352 N 
ATOM      5  C   UNL A   1      31.746  26.792  22.072  1.00  0.00     0.247 C 
ATOM      6  O   UNL A   1      31.401  26.331  20.985  1.00  0.00    -0.270 OA
ATOM      7  H   UNL A   1      32.009  28.778  21.778  1.00  0.00     0.163 HD
BRANCH   5   8
ATOM      8  C   UNL A   1      31.071  26.347  23.341  1.00  0.00     0.020 C 
ATOM      9  C   UNL A   1      31.625  25.517  24.252  1.00  0.00    -0.031 C 
ATOM     10  C   UNL A   1      31.080  25.220  25.639  1.00  0.00     0.041 C 
ATOM     11  C   UNL A   1      32.919  24.818  24.242  1.00  0.00    -0.019 A 
ATOM     12  C   UNL A   1      32.308  25.053  26.542  1.00  0.00     0.041 C 
ATOM     13  C   UNL A   1      33.344  24.618  25.560  1.00  0.00    -0.040 A 
ATOM     14  C   UNL A   1      33.673  24.308  23.201  1.00  0.00     0.009 A 
ATOM     15  C   UNL A   1      34.590  24.083  25.856  1.00  0.00     0.004 A 
ATOM     16  C   UNL A   1      34.927  23.747  23.483  1.00  0.00     0.001 A 
ATOM     17  C   UNL A   1      35.398  23.669  24.799  1.00  0.00     0.000 A 
BRANCH   8  18
ATOM     18  C   UNL A   1      29.657  26.929  23.381  1.00  0.00     0.038 C 
ATOM     19  C   UNL A   1      29.447  28.423  23.141  1.00  0.00     0.009 C 
ENDBRANCH   8  18
ENDBRANCH   5   8
ENDBRANCH   3   4
ENDBRANCH   2   3
ENDBRANCH   1   2
BRANCH   1  20
ATOM     20  C   UNL A   1      32.776  29.488  26.133  1.00  0.00     0.116 C 
BRANCH  20  21
ATOM     21  N   UNL A   1      32.404  30.818  26.602  1.00  0.00    -0.352 N 
ATOM     22  C   UNL A   1      33.198  31.733  27.266  1.00  0.00     0.251 C 
ATOM     23  H   UNL A   1      31.477  31.097  26.425  1.00  0.00     0.163 HD
ATOM     24  O   UNL A   1      32.756  32.820  27.627  1.00  0.00    -0.269 OA
BRANCH  22  25
ATOM     25  C   UNL A   1      34.588  31.346  27.597  1.00  0.00     0.039 A 
ATOM     26  C   UNL A   1      35.544  32.346  27.787  1.00  0.00     0.014 A 
ATOM     27  C   UNL A   1      34.887  30.014  27.884  1.00  0.00     0.014 A 
ATOM     28  C   UNL A   1      36.758  32.024  28.400  1.00  0.00     0.010 A 
ATOM     29  C   UNL A   1      36.048  29.717  28.587  1.00  0.00     0.010 A 
ATOM     30  C   UNL A   1      36.986  30.723  28.877  1.00  0.00    -0.014 A 
BRANCH  30  31
ATOM     31  C   UNL A   1      38.167  30.378  29.715  1.00  0.00     0.031 A 
ATOM     32  C   UNL A   1      39.198  29.421  29.186  1.00  0.00     0.074 A 
ATOM     33  C   UNL A   1      38.246  30.815  30.988  1.00  0.00     0.049 A 
ATOM     34  N   UNL A   1      40.184  28.831  29.814  1.00  0.00    -0.248 NA
ATOM     35  C   UNL A   1      39.071  29.036  27.772  1.00  0.00     0.031 C 
ATOM     36  C   UNL A   1      37.281  31.695  31.649  1.00  0.00     0.029 A 
ATOM     37  N   UNL A   1      39.176  30.556  31.966  1.00  0.00    -0.354 N 
ATOM     38  C   UNL A   1      40.758  27.972  28.888  1.00  0.00     0.074 A 
ATOM     39  C   UNL A   1      39.986  28.085  27.669  1.00  0.00     0.031 C 
ATOM     40  C   UNL A   1      37.681  31.922  32.912  1.00  0.00     0.029 A 
ATOM     41  C   UNL A   1      38.905  31.170  33.166  1.00  0.00     0.049 A 
ATOM     42  H   UNL A   1      39.964  29.983  31.821  1.00  0.00     0.167 HD
ATOM     43  C   UNL A   1      41.844  27.176  29.032  1.00  0.00     0.037 A 
ATOM     44  C   UNL A   1      39.562  31.122  34.340  1.00  0.00     0.037 A 
ATOM     45  C   UNL A   1      42.650  27.116  30.221  1.00  0.00     0.049 A 
ATOM     46  C   UNL A   1      40.805  30.280  34.456  1.00  0.00     0.074 A 
ATOM     47  C   UNL A   1      43.813  26.399  30.441  1.00  0.00     0.029 A 
ATOM     48  N   UNL A   1      42.385  27.817  31.388  1.00  0.00    -0.354 N 
ATOM     49  N   UNL A   1      41.366  29.509  33.557  1.00  0.00    -0.248 NA
ATOM     50  C   UNL A   1      41.507  30.307  35.747  1.00  0.00     0.031 C 
ATOM     51  C   UNL A   1      44.241  26.651  31.748  1.00  0.00     0.029 A 
ATOM     52  C   UNL A   1      43.363  27.550  32.330  1.00  0.00     0.049 A 
ATOM     53  H   UNL A   1      41.616  28.415  31.525  1.00  0.00     0.167 HD
ATOM     54  C   UNL A   1      42.499  28.983  34.161  1.00  0.00     0.074 A 
ATOM     55  C   UNL A   1      42.552  29.528  35.501  1.00  0.00     0.031 C 
ATOM     56  C   UNL A   1      43.414  28.125  33.650  1.00  0.00     0.037 A 
BRANCH  43  57
ATOM     57  C   UNL A   1      42.228  26.315  27.865  1.00  0.00     0.064 A 
ATOM     58  C   UNL A   1      41.623  25.068  27.643  1.00  0.00     0.173 A 
ATOM     59  C   UNL A   1      43.198  26.748  26.949  1.00  0.00     0.173 A 
ATOM     60  F   UNL A   1      40.701  24.604  28.499  1.00  0.00    -0.203 F 
ATOM     61  C   UNL A   1      42.002  24.271  26.567  1.00  0.00     0.198 A 
ATOM     62  C   UNL A   1      43.551  25.962  25.855  1.00  0.00     0.198 A 
ATOM     63  F   UNL A   1      43.801  27.935  27.113  1.00  0.00    -0.203 F 
ATOM     64  F   UNL A   1      41.453  23.059  26.407  1.00  0.00    -0.200 F 
ATOM     65  C   UNL A   1      42.961  24.721  25.671  1.00  0.00     0.200 A 
ATOM     66  F   UNL A   1      44.471  26.401  24.986  1.00  0.00    -0.200 F 
ATOM     67  F   UNL A   1      43.324  23.953  24.635  1.00  0.00    -0.200 F 
ENDBRANCH  43  57
BRANCH  44  68
ATOM     68  C   UNL A   1      39.082  31.923  35.496  1.00  0.00     0.064 A 
ATOM     69  C   UNL A   1      39.437  33.274  35.623  1.00  0.00     0.173 A 
ATOM     70  C   UNL A   1      38.269  31.365  36.492  1.00  0.00     0.173 A 
ATOM     71  F   UNL A   1      40.231  33.846  34.706  1.00  0.00    -0.203 F 
ATOM     72  C   UNL A   1      39.012  34.031  36.714  1.00  0.00     0.198 A 
ATOM     73  C   UNL A   1      37.826  32.129  37.570  1.00  0.00     0.198 A 
ATOM     74  F   UNL A   1      37.899  30.079  36.413  1.00  0.00    -0.203 F 
ATOM     75  F   UNL A   1      39.402  35.307  36.833  1.00  0.00    -0.200 F 
ATOM     76  C   UNL A   1      38.204  33.458  37.684  1.00  0.00     0.200 A 
ATOM     77  F   UNL A   1      37.036  31.576  38.500  1.00  0.00    -0.200 F 
ATOM     78  F   UNL A   1      37.795  34.187  38.732  1.00  0.00    -0.200 F 
ENDBRANCH  44  68
BRANCH  56  79
ATOM     79  C   UNL A   1      44.580  27.760  34.518  1.00  0.00     0.064 A 
ATOM     80  C   UNL A   1      44.558  26.626  35.340  1.00  0.00     0.173 A 
ATOM     81  C   UNL A   1      45.754  28.526  34.478  1.00  0.00     0.173 A 
ATOM     82  F   UNL A   1      43.451  25.872  35.421  1.00  0.00    -0.203 F 
ATOM     83  C   UNL A   1      45.668  26.278  36.104  1.00  0.00     0.198 A 
ATOM     84  C   UNL A   1      46.870  28.162  35.226  1.00  0.00     0.198 A 
ATOM     85  F   UNL A   1      45.824  29.618  33.702  1.00  0.00    -0.203 F 
ATOM     86  F   UNL A   1      45.617  25.207  36.908  1.00  0.00    -0.200 F 
ATOM     87  C   UNL A   1      46.825  27.042  36.041  1.00  0.00     0.200 A 
ATOM     88  F   UNL A   1      47.990  28.895  35.156  1.00  0.00    -0.200 F 
ATOM     89  F   UNL A   1      47.896  26.698  36.769  1.00  0.00    -0.200 F 
ENDBRANCH  56  79
ENDBRANCH  30  31
ENDBRANCH  22  25
ENDBRANCH  20  21
ENDBRANCH   1  20
TORSDOF 12
ENDMDL
MODEL 3
REMARK VINA RESULT:     -12.5      1.841      8.060
REMARK SMILES CC/C(C(=O)NCCCCNC(=O)c1ccc(-c2c3nc(c(-c4c(F)c(F)c(F)c(F)c4F)c4ccc([nH]4)c(-c4c(F)c(F)c(F)c(F)c4F)c4nc(c(-c5c(F)c(F)c(F)c(F)c5F)c5ccc2[nH]5)C=C4)C=C3)cc1)=C1\CCc2ccccc21
REMARK SMILES IDX 9 1 8 2 7 3 6 4 4 5 5 6 3 8 77 9 78 10 85 11 79 12 80 13
REMARK SMILES IDX 84 14 81 15 83 16 82 17 2 18 1 19 10 20 11 21 12 22 13 24
REMARK SMILES IDX 14 25 15 26 76 27 16 28 75 29 17 30 18 31 19 32 69 33 20 34
REMARK SMILES IDX 74 35 68 36 70 37 21 38 73 39 67 40 66 41 22 43 54 44 34 45
REMARK SMILES IDX 53 46 35 47 38 48 52 49 71 50 36 51 37 52 51 54 72 55 39 56
REMARK SMILES IDX 23 57 24 58 32 59 25 60 26 61 30 62 33 63 27 64 28 65 31 66
REMARK SMILES IDX 29 67 55 68 56 69 64 70 57 71 58 72 62 73 65 74 59 75 60 76
REMARK SMILES IDX 63 77 61 78 40 79 41 80 49 81 42 82 43 83 47 84 50 85 44 86
REMARK SMILES IDX 45 87 48 88 46 89
REMARK H PARENT 6 7 11 23 70 42 38 53
REMARK Flexibility Score: inf
ROOT
ATOM      1  C   UNL A   1      32.020  31.576  26.914  1.00  0.00     0.023 C 
ENDROOT
BRANCH   1   2
ATOM      2  C   UNL A   1      32.380  30.108  27.071  1.00  0.00     0.023 C 
BRANCH   2   3
ATOM      3  C   UNL A   1      33.418  29.554  26.082  1.00  0.00     0.116 C 
BRANCH   3   4
ATOM      4  N   UNL A   1      33.044  29.883  24.715  1.00  0.00    -0.352 N 
ATOM      5  C   UNL A   1      32.823  28.966  23.719  1.00  0.00     0.247 C 
ATOM      6  O   UNL A   1      33.574  28.952  22.745  1.00  0.00    -0.270 OA
ATOM      7  H   UNL A   1      32.942  30.836  24.487  1.00  0.00     0.163 HD
BRANCH   5   8
ATOM      8  C   UNL A   1      31.469  28.313  23.653  1.00  0.00     0.020 C 
ATOM      9  C   UNL A   1      31.184  27.093  24.160  1.00  0.00    -0.031 C 
ATOM     10  C   UNL A   1      29.796  26.493  24.315  1.00  0.00     0.041 C 
ATOM     11  C   UNL A   1      32.053  26.107  24.817  1.00  0.00    -0.019 A 
ATOM     12  C   UNL A   1      29.838  25.675  25.611  1.00  0.00     0.041 C 
ATOM     13  C   UNL A   1      31.290  25.341  25.706  1.00  0.00    -0.040 A 
ATOM     14  C   UNL A   1      33.391  25.806  24.639  1.00  0.00     0.009 A 
ATOM     15  C   UNL A   1      31.868  24.406  26.552  1.00  0.00     0.004 A 
ATOM     16  C   UNL A   1      33.989  24.850  25.473  1.00  0.00     0.001 A 
ATOM     17  C   UNL A   1      33.239  24.181  26.449  1.00  0.00     0.000 A 
BRANCH   8  18
ATOM     18  C   UNL A   1      30.519  29.219  22.869  1.00  0.00     0.038 C 
ATOM     19  C   UNL A   1      29.599  30.179  23.619  1.00  0.00     0.009 C 
ENDBRANCH   8  18
ENDBRANCH   5   8
ENDBRANCH   3   4
ENDBRANCH   2   3
ENDBRANCH   1   2
BRANCH   1  20
ATOM     20  C   UNL A   1      33.016  32.564  27.499  1.00  0.00     0.116 C 
BRANCH  20  21
ATOM     21  N   UNL A   1      32.510  33.917  27.701  1.00  0.00    -0.352 N 
ATOM     22  C   UNL A   1      32.994  34.880  28.566  1.00  0.00     0.251 C 
ATOM     23  H   UNL A   1      31.732  34.175  27.157  1.00  0.00     0.163 HD
ATOM     24  O   UNL A   1      32.463  35.982  28.656  1.00  0.00    -0.269 OA
BRANCH  22  25
ATOM     25  C   UNL A   1      34.135  34.527  29.440  1.00  0.00     0.039 A 
ATOM     26  C   UNL A   1      33.883  33.966  30.693  1.00  0.00     0.014 A 
ATOM     27  C   UNL A   1      35.437  34.596  28.942  1.00  0.00     0.014 A 
ATOM     28  C   UNL A   1      34.924  33.345  31.388  1.00  0.00     0.010 A 
ATOM     29  C   UNL A   1      36.445  33.887  29.583  1.00  0.00     0.010 A 
ATOM     30  C   UNL A   1      36.195  33.230  30.801  1.00  0.00    -0.014 A 
BRANCH  30  31
ATOM     31  C   UNL A   1      37.278  32.405  31.402  1.00  0.00     0.031 A 
ATOM     32  C   UNL A   1      37.787  32.735  32.778  1.00  0.00     0.074 A 
ATOM     33  C   UNL A   1      37.890  31.452  30.670  1.00  0.00     0.049 A 
ATOM     34  N   UNL A   1      38.846  32.284  33.402  1.00  0.00    -0.248 NA
ATOM     35  C   UNL A   1      37.031  33.747  33.531  1.00  0.00     0.031 C 
ATOM     36  C   UNL A   1      37.541  31.074  29.300  1.00  0.00     0.029 A 
ATOM     37  N   UNL A   1      38.957  30.640  30.972  1.00  0.00    -0.354 N 
ATOM     38  C   UNL A   1      38.909  32.993  34.593  1.00  0.00     0.074 A 
ATOM     39  C   UNL A   1      37.807  33.932  34.587  1.00  0.00     0.031 C 
ATOM     40  C   UNL A   1      38.359  30.090  28.889  1.00  0.00     0.029 A 
ATOM     41  C   UNL A   1      39.319  29.797  29.948  1.00  0.00     0.049 A 
ATOM     42  H   UNL A   1      39.419  30.661  31.841  1.00  0.00     0.167 HD
ATOM     43  C   UNL A   1      39.791  32.860  35.612  1.00  0.00     0.037 A 
ATOM     44  C   UNL A   1      40.320  28.899  29.868  1.00  0.00     0.037 A 
ATOM     45  C   UNL A   1      40.842  31.880  35.647  1.00  0.00     0.049 A 
ATOM     46  C   UNL A   1      41.248  28.724  31.039  1.00  0.00     0.074 A 
ATOM     47  C   UNL A   1      41.742  31.614  36.664  1.00  0.00     0.029 A 
ATOM     48  N   UNL A   1      41.124  30.990  34.620  1.00  0.00    -0.354 N 
ATOM     49  N   UNL A   1      41.268  29.367  32.181  1.00  0.00    -0.248 NA
ATOM     50  C   UNL A   1      42.290  27.694  30.913  1.00  0.00     0.031 C 
ATOM     51  C   UNL A   1      42.580  30.576  36.246  1.00  0.00     0.029 A 
ATOM     52  C   UNL A   1      42.183  30.174  34.981  1.00  0.00     0.049 A 
ATOM     53  H   UNL A   1      40.644  30.947  33.763  1.00  0.00     0.167 HD
ATOM     54  C   UNL A   1      42.299  28.803  32.919  1.00  0.00     0.074 A 
ATOM     55  C   UNL A   1      42.879  27.760  32.099  1.00  0.00     0.031 C 
ATOM     56  C   UNL A   1      42.727  29.122  34.163  1.00  0.00     0.037 A 
BRANCH  43  57
ATOM     57  C   UNL A   1      39.644  33.792  36.778  1.00  0.00     0.064 A 
ATOM     58  C   UNL A   1      38.872  33.449  37.898  1.00  0.00     0.173 A 
ATOM     59  C   UNL A   1      40.297  35.033  36.783  1.00  0.00     0.173 A 
ATOM     60  F   UNL A   1      38.217  32.280  37.934  1.00  0.00    -0.203 F 
ATOM     61  C   UNL A   1      38.729  34.332  38.965  1.00  0.00     0.198 A 
ATOM     62  C   UNL A   1      40.177  35.900  37.867  1.00  0.00     0.198 A 
ATOM     63  F   UNL A   1      41.051  35.406  35.739  1.00  0.00    -0.203 F 
ATOM     64  F   UNL A   1      37.940  34.008  39.999  1.00  0.00    -0.200 F 
ATOM     65  C   UNL A   1      39.386  35.553  38.951  1.00  0.00     0.200 A 
ATOM     66  F   UNL A   1      40.819  37.076  37.856  1.00  0.00    -0.200 F 
ATOM     67  F   UNL A   1      39.248  36.401  39.980  1.00  0.00    -0.200 F 
ENDBRANCH  43  57
BRANCH  44  68
ATOM     68  C   UNL A   1      40.478  28.067  28.647  1.00  0.00     0.064 A 
ATOM     69  C   UNL A   1      39.848  26.818  28.549  1.00  0.00     0.173 A 
ATOM     70  C   UNL A   1      41.256  28.493  27.562  1.00  0.00     0.173 A 
ATOM     71  F   UNL A   1      39.110  26.360  29.571  1.00  0.00    -0.203 F 
ATOM     72  C   UNL A   1      40.006  26.018  27.419  1.00  0.00     0.198 A 
ATOM     73  C   UNL A   1      41.395  27.702  26.423  1.00  0.00     0.198 A 
ATOM     74  F   UNL A   1      41.876  29.681  27.605  1.00  0.00    -0.203 F 
ATOM     75  F   UNL A   1      39.428  24.810  27.371  1.00  0.00    -0.200 F 
ATOM     76  C   UNL A   1      40.777  26.462  26.356  1.00  0.00     0.200 A 
ATOM     77  F   UNL A   1      42.131  28.138  25.392  1.00  0.00    -0.200 F 
ATOM     78  F   UNL A   1      40.928  25.693  25.269  1.00  0.00    -0.200 F 
ENDBRANCH  44  68
BRANCH  56  79
ATOM     79  C   UNL A   1      43.841  28.303  34.742  1.00  0.00     0.064 A 
ATOM     80  C   UNL A   1      43.592  27.117  35.446  1.00  0.00     0.173 A 
ATOM     81  C   UNL A   1      45.175  28.684  34.537  1.00  0.00     0.173 A 
ATOM     82  F   UNL A   1      42.332  26.722  35.679  1.00  0.00    -0.203 F 
ATOM     83  C   UNL A   1      44.643  26.346  35.935  1.00  0.00     0.198 A 
ATOM     84  C   UNL A   1      46.223  27.899  35.008  1.00  0.00     0.198 A 
ATOM     85  F   UNL A   1      45.461  29.810  33.865  1.00  0.00    -0.203 F 
ATOM     86  F   UNL A   1      44.385  25.230  36.632  1.00  0.00    -0.200 F 
ATOM     87  C   UNL A   1      45.956  26.733  35.709  1.00  0.00     0.200 A 
ATOM     88  F   UNL A   1      47.491  28.269  34.781  1.00  0.00    -0.200 F 
ATOM     89  F   UNL A   1      46.965  25.983  36.173  1.00  0.00    -0.200 F 
ENDBRANCH  56  79
ENDBRANCH  30  31
ENDBRANCH  22  25
ENDBRANCH  20  21
ENDBRANCH   1  20
TORSDOF 12
ENDMDL
