MODEL 1
REMARK VINA RESULT:     -11.5      0.000      0.000
REMARK SMILES O=C(COC[C@@H]1CCCCO1)NCCCCNC(=O)c1ccc(-c2c3nc(c(-c4c(F)c(F)c(F)c(F)c4F)c4ccc([nH]4)c(-c4c(F)c(F)c(F)c(F)c4F)c4nc(c(-c5c(F)c(F)c(F)c(F)c5F)c5ccc2[nH]5)C=C4)C=C3)cc1
REMARK SMILES IDX 14 1 13 2 12 3 1 4 2 5 3 7 4 8 5 9 6 10 7 11 11 12 8 13
REMARK SMILES IDX 10 14 9 15 15 16 16 17 17 18 18 19 19 21 20 22 21 23 82 24
REMARK SMILES IDX 22 25 81 26 23 27 24 28 25 29 75 30 26 31 80 32 74 33 76 34
REMARK SMILES IDX 27 35 79 36 73 37 72 38 28 40 60 41 40 42 59 43 41 44 44 45
REMARK SMILES IDX 58 46 77 47 42 48 43 49 57 51 78 52 45 53 29 54 30 55 38 56
REMARK SMILES IDX 31 57 32 58 36 59 39 60 33 61 34 62 37 63 35 64 61 65 62 66
REMARK SMILES IDX 70 67 63 68 64 69 68 70 71 71 65 72 66 73 69 74 67 75 46 76
REMARK SMILES IDX 47 77 55 78 48 79 49 80 53 81 56 82 50 83 51 84 54 85 52 86
REMARK H PARENT 12 6 17 20 76 39 44 50
REMARK Flexibility Score: inf
ROOT
ATOM      1  C   UNL A   1      31.711  30.504  26.814  1.00  0.00     0.023 C 
ENDROOT
BRANCH   1   2
ATOM      2  C   UNL A   1      32.507  29.921  25.649  1.00  0.00     0.116 C 
BRANCH   2   3
ATOM      3  N   UNL A   1      31.689  29.166  24.725  1.00  0.00    -0.354 N 
ATOM      4  O   UNL A   1      33.200  29.266  23.003  1.00  0.00    -0.272 OA
ATOM      5  C   UNL A   1      32.144  28.842  23.462  1.00  0.00     0.245 C 
ATOM      6  H   UNL A   1      30.790  28.877  25.002  1.00  0.00     0.163 HD
BRANCH   5   7
ATOM      7  C   UNL A   1      31.177  27.974  22.642  1.00  0.00     0.260 C 
BRANCH   7   8
ATOM      8  O   UNL A   1      30.016  28.558  22.075  1.00  0.00    -0.369 OA
BRANCH   8   9
ATOM      9  C   UNL A   1      28.864  28.724  22.913  1.00  0.00     0.192 C 
BRANCH   9  10
ATOM     10  C   UNL A   1      27.672  29.534  22.351  1.00  0.00     0.144 C 
ATOM     11  C   UNL A   1      28.052  30.428  21.166  1.00  0.00     0.034 C 
ATOM     12  O   UNL A   1      27.039  30.337  23.357  1.00  0.00    -0.376 OA
ATOM     13  C   UNL A   1      28.922  31.603  21.594  1.00  0.00     0.005 C 
ATOM     14  C   UNL A   1      27.821  31.424  23.851  1.00  0.00     0.160 C 
ATOM     15  C   UNL A   1      28.265  32.363  22.739  1.00  0.00     0.029 C 
ENDBRANCH   9  10
ENDBRANCH   8   9
ENDBRANCH   7   8
ENDBRANCH   5   7
ENDBRANCH   2   3
ENDBRANCH   1   2
BRANCH   1  16
ATOM     16  C   UNL A   1      31.541  32.023  26.777  1.00  0.00     0.023 C 
BRANCH  16  17
ATOM     17  C   UNL A   1      32.758  32.830  27.218  1.00  0.00     0.116 C 
BRANCH  17  18
ATOM     18  N   UNL A   1      32.432  34.189  27.621  1.00  0.00    -0.352 N 
ATOM     19  C   UNL A   1      32.992  34.967  28.609  1.00  0.00     0.251 C 
ATOM     20  H   UNL A   1      31.704  34.614  27.114  1.00  0.00     0.163 HD
ATOM     21  O   UNL A   1      32.501  36.053  28.889  1.00  0.00    -0.269 OA
BRANCH  19  22
ATOM     22  C   UNL A   1      34.170  34.479  29.361  1.00  0.00     0.039 A 
ATOM     23  C   UNL A   1      33.972  33.895  30.616  1.00  0.00     0.014 A 
ATOM     24  C   UNL A   1      35.461  34.588  28.839  1.00  0.00     0.014 A 
ATOM     25  C   UNL A   1      35.057  33.355  31.310  1.00  0.00     0.010 A 
ATOM     26  C   UNL A   1      36.529  33.978  29.495  1.00  0.00     0.010 A 
ATOM     27  C   UNL A   1      36.339  33.351  30.736  1.00  0.00    -0.014 A 
BRANCH  27  28
ATOM     28  C   UNL A   1      37.485  32.688  31.412  1.00  0.00     0.031 A 
ATOM     29  C   UNL A   1      38.187  31.530  30.758  1.00  0.00     0.074 A 
ATOM     30  C   UNL A   1      37.855  33.087  32.645  1.00  0.00     0.049 A 
ATOM     31  N   UNL A   1      39.160  30.782  31.219  1.00  0.00    -0.248 NA
ATOM     32  C   UNL A   1      37.718  31.142  29.420  1.00  0.00     0.031 C 
ATOM     33  C   UNL A   1      37.227  34.167  33.407  1.00  0.00     0.029 A 
ATOM     34  N   UNL A   1      38.841  32.622  33.480  1.00  0.00    -0.354 N 
ATOM     35  C   UNL A   1      39.408  29.835  30.235  1.00  0.00     0.074 A 
ATOM     36  C   UNL A   1      38.446  30.063  29.178  1.00  0.00     0.031 C 
ATOM     37  C   UNL A   1      37.855  34.297  34.586  1.00  0.00     0.029 A 
ATOM     38  C   UNL A   1      38.901  33.284  34.683  1.00  0.00     0.049 A 
ATOM     39  H   UNL A   1      39.448  31.885  33.240  1.00  0.00     0.167 HD
ATOM     40  C   UNL A   1      40.366  28.876  30.204  1.00  0.00     0.037 A 
ATOM     41  C   UNL A   1      39.701  33.089  35.749  1.00  0.00     0.037 A 
ATOM     42  C   UNL A   1      41.330  28.661  31.251  1.00  0.00     0.049 A 
ATOM     43  C   UNL A   1      40.742  32.003  35.700  1.00  0.00     0.074 A 
ATOM     44  C   UNL A   1      42.375  27.752  31.289  1.00  0.00     0.029 A 
ATOM     45  N   UNL A   1      41.365  29.356  32.451  1.00  0.00    -0.354 N 
ATOM     46  N   UNL A   1      41.013  31.158  34.734  1.00  0.00    -0.248 NA
ATOM     47  C   UNL A   1      41.592  31.846  36.888  1.00  0.00     0.031 C 
ATOM     48  C   UNL A   1      43.003  27.858  32.533  1.00  0.00     0.029 A 
ATOM     49  C   UNL A   1      42.394  28.878  33.247  1.00  0.00     0.049 A 
ATOM     50  H   UNL A   1      40.750  30.084  32.701  1.00  0.00     0.167 HD
ATOM     51  C   UNL A   1      42.082  30.394  35.184  1.00  0.00     0.074 A 
ATOM     52  C   UNL A   1      42.420  30.885  36.503  1.00  0.00     0.031 C 
ATOM     53  C   UNL A   1      42.725  29.378  34.558  1.00  0.00     0.037 A 
BRANCH  40  54
ATOM     54  C   UNL A   1      40.416  27.984  28.996  1.00  0.00     0.064 A 
ATOM     55  C   UNL A   1      41.194  28.304  27.872  1.00  0.00     0.173 A 
ATOM     56  C   UNL A   1      39.705  26.773  28.975  1.00  0.00     0.173 A 
ATOM     57  F   UNL A   1      41.886  29.453  27.836  1.00  0.00    -0.203 F 
ATOM     58  C   UNL A   1      41.228  27.466  26.760  1.00  0.00     0.198 A 
ATOM     59  C   UNL A   1      39.771  25.921  27.876  1.00  0.00     0.198 A 
ATOM     60  F   UNL A   1      38.952  26.412  30.024  1.00  0.00    -0.203 F 
ATOM     61  F   UNL A   1      41.933  27.822  25.677  1.00  0.00    -0.200 F 
ATOM     62  C   UNL A   1      40.524  26.272  26.766  1.00  0.00     0.200 A 
ATOM     63  F   UNL A   1      39.102  24.760  27.889  1.00  0.00    -0.200 F 
ATOM     64  F   UNL A   1      40.564  25.463  25.699  1.00  0.00    -0.200 F 
ENDBRANCH  40  54
BRANCH  41  65
ATOM     65  C   UNL A   1      39.560  33.954  36.951  1.00  0.00     0.064 A 
ATOM     66  C   UNL A   1      38.799  33.539  38.053  1.00  0.00     0.173 A 
ATOM     67  C   UNL A   1      40.174  35.213  37.021  1.00  0.00     0.173 A 
ATOM     68  F   UNL A   1      38.173  32.353  38.026  1.00  0.00    -0.203 F 
ATOM     69  C   UNL A   1      38.639  34.359  39.169  1.00  0.00     0.198 A 
ATOM     70  C   UNL A   1      40.041  36.018  38.150  1.00  0.00     0.198 A 
ATOM     71  F   UNL A   1      40.917  35.657  35.996  1.00  0.00    -0.203 F 
ATOM     72  F   UNL A   1      37.864  33.958  40.186  1.00  0.00    -0.200 F 
ATOM     73  C   UNL A   1      39.265  35.595  39.220  1.00  0.00     0.200 A 
ATOM     74  F   UNL A   1      40.661  37.205  38.202  1.00  0.00    -0.200 F 
ATOM     75  F   UNL A   1      39.116  36.381  40.294  1.00  0.00    -0.200 F 
ENDBRANCH  41  65
BRANCH  53  76
ATOM     76  C   UNL A   1      43.889  28.751  35.274  1.00  0.00     0.064 A 
ATOM     77  C   UNL A   1      45.199  29.229  35.119  1.00  0.00     0.173 A 
ATOM     78  C   UNL A   1      43.682  27.681  36.159  1.00  0.00     0.173 A 
ATOM     79  F   UNL A   1      45.453  30.240  34.275  1.00  0.00    -0.203 F 
ATOM     80  C   UNL A   1      46.261  28.640  35.800  1.00  0.00     0.198 A 
ATOM     81  C   UNL A   1      44.741  27.118  36.865  1.00  0.00     0.198 A 
ATOM     82  F   UNL A   1      42.448  27.189  36.350  1.00  0.00    -0.203 F 
ATOM     83  F   UNL A   1      47.510  29.079  35.597  1.00  0.00    -0.200 F 
ATOM     84  C   UNL A   1      46.031  27.592  36.679  1.00  0.00     0.200 A 
ATOM     85  F   UNL A   1      44.514  26.117  37.727  1.00  0.00    -0.200 F 
ATOM     86  F   UNL A   1      47.053  27.033  37.342  1.00  0.00    -0.200 F 
ENDBRANCH  53  76
ENDBRANCH  27  28
ENDBRANCH  19  22
ENDBRANCH  17  18
ENDBRANCH  16  17
ENDBRANCH   1  16
TORSDOF 14
ENDMDL
MODEL 2
REMARK VINA RESULT:     -11.2      0.851      7.766
REMARK SMILES O=C(COC[C@@H]1CCCCO1)NCCCCNC(=O)c1ccc(-c2c3nc(c(-c4c(F)c(F)c(F)c(F)c4F)c4ccc([nH]4)c(-c4c(F)c(F)c(F)c(F)c4F)c4nc(c(-c5c(F)c(F)c(F)c(F)c5F)c5ccc2[nH]5)C=C4)C=C3)cc1
REMARK SMILES IDX 14 1 13 2 12 3 1 4 2 5 3 7 4 8 5 9 6 10 7 11 11 12 8 13
REMARK SMILES IDX 10 14 9 15 15 16 16 17 17 18 18 19 19 21 20 22 21 23 82 24
REMARK SMILES IDX 22 25 81 26 23 27 24 28 25 29 75 30 26 31 80 32 74 33 76 34
REMARK SMILES IDX 27 35 79 36 73 37 72 38 28 40 60 41 40 42 59 43 41 44 44 45
REMARK SMILES IDX 58 46 77 47 42 48 43 49 57 51 78 52 45 53 29 54 30 55 38 56
REMARK SMILES IDX 31 57 32 58 36 59 39 60 33 61 34 62 37 63 35 64 61 65 62 66
REMARK SMILES IDX 70 67 63 68 64 69 68 70 71 71 65 72 66 73 69 74 67 75 46 76
REMARK SMILES IDX 47 77 55 78 48 79 49 80 53 81 56 82 50 83 51 84 54 85 52 86
REMARK H PARENT 12 6 17 20 76 39 44 50
REMARK Flexibility Score: inf
ROOT
ATOM      1  C   UNL A   1      31.566  30.732  26.846  1.00  0.00     0.023 C 
ENDROOT
BRANCH   1   2
ATOM      2  C   UNL A   1      32.733  30.084  26.103  1.00  0.00     0.116 C 
BRANCH   2   3
ATOM      3  N   UNL A   1      32.319  29.356  24.924  1.00  0.00    -0.354 N 
ATOM      4  O   UNL A   1      31.449  27.582  26.088  1.00  0.00    -0.272 OA
ATOM      5  C   UNL A   1      31.639  28.158  25.022  1.00  0.00     0.245 C 
ATOM      6  H   UNL A   1      32.526  29.721  24.034  1.00  0.00     0.163 HD
BRANCH   5   7
ATOM      7  C   UNL A   1      31.211  27.559  23.673  1.00  0.00     0.260 C 
BRANCH   7   8
ATOM      8  O   UNL A   1      29.840  27.298  23.423  1.00  0.00    -0.369 OA
BRANCH   8   9
ATOM      9  C   UNL A   1      29.038  28.354  22.877  1.00  0.00     0.192 C 
BRANCH   9  10
ATOM     10  C   UNL A   1      29.720  29.715  22.610  1.00  0.00     0.144 C 
ATOM     11  C   UNL A   1      29.351  30.791  23.637  1.00  0.00     0.034 C 
ATOM     12  O   UNL A   1      29.440  30.212  21.293  1.00  0.00    -0.376 OA
ATOM     13  C   UNL A   1      27.905  31.247  23.491  1.00  0.00     0.005 C 
ATOM     14  C   UNL A   1      28.086  30.604  21.064  1.00  0.00     0.160 C 
ATOM     15  C   UNL A   1      27.620  31.661  22.053  1.00  0.00     0.029 C 
ENDBRANCH   9  10
ENDBRANCH   8   9
ENDBRANCH   7   8
ENDBRANCH   5   7
ENDBRANCH   2   3
ENDBRANCH   1   2
BRANCH   1  16
ATOM     16  C   UNL A   1      31.491  32.254  26.717  1.00  0.00     0.023 C 
BRANCH  16  17
ATOM     17  C   UNL A   1      32.743  33.011  27.150  1.00  0.00     0.116 C 
BRANCH  17  18
ATOM     18  N   UNL A   1      32.462  34.347  27.651  1.00  0.00    -0.352 N 
ATOM     19  C   UNL A   1      33.051  35.034  28.688  1.00  0.00     0.251 C 
ATOM     20  H   UNL A   1      31.746  34.831  27.180  1.00  0.00     0.163 HD
ATOM     21  O   UNL A   1      32.596  36.113  29.048  1.00  0.00    -0.269 OA
BRANCH  19  22
ATOM     22  C   UNL A   1      34.216  34.456  29.396  1.00  0.00     0.039 A 
ATOM     23  C   UNL A   1      33.996  33.733  30.573  1.00  0.00     0.014 A 
ATOM     24  C   UNL A   1      35.515  34.617  28.910  1.00  0.00     0.014 A 
ATOM     25  C   UNL A   1      35.068  33.110  31.216  1.00  0.00     0.010 A 
ATOM     26  C   UNL A   1      36.571  33.929  29.507  1.00  0.00     0.010 A 
ATOM     27  C   UNL A   1      36.359  33.165  30.665  1.00  0.00    -0.014 A 
BRANCH  27  28
ATOM     28  C   UNL A   1      37.492  32.422  31.276  1.00  0.00     0.031 A 
ATOM     29  C   UNL A   1      37.998  32.794  32.642  1.00  0.00     0.074 A 
ATOM     30  C   UNL A   1      38.110  31.452  30.573  1.00  0.00     0.049 A 
ATOM     31  N   UNL A   1      39.015  32.309  33.310  1.00  0.00    -0.248 NA
ATOM     32  C   UNL A   1      37.283  33.873  33.341  1.00  0.00     0.031 C 
ATOM     33  C   UNL A   1      37.746  31.026  29.222  1.00  0.00     0.029 A 
ATOM     34  N   UNL A   1      39.182  30.656  30.894  1.00  0.00    -0.354 N 
ATOM     35  C   UNL A   1      39.068  33.029  34.496  1.00  0.00     0.074 A 
ATOM     36  C   UNL A   1      38.018  34.023  34.432  1.00  0.00     0.031 C 
ATOM     37  C   UNL A   1      38.563  30.033  28.838  1.00  0.00     0.029 A 
ATOM     38  C   UNL A   1      39.537  29.781  29.896  1.00  0.00     0.049 A 
ATOM     39  H   UNL A   1      39.651  30.706  31.758  1.00  0.00     0.167 HD
ATOM     40  C   UNL A   1      39.899  32.862  35.554  1.00  0.00     0.037 A 
ATOM     41  C   UNL A   1      40.541  28.885  29.834  1.00  0.00     0.037 A 
ATOM     42  C   UNL A   1      40.933  31.863  35.620  1.00  0.00     0.049 A 
ATOM     43  C   UNL A   1      41.466  28.733  31.013  1.00  0.00     0.074 A 
ATOM     44  C   UNL A   1      41.791  31.577  36.669  1.00  0.00     0.029 A 
ATOM     45  N   UNL A   1      41.257  30.989  34.592  1.00  0.00    -0.354 N 
ATOM     46  N   UNL A   1      41.460  29.372  32.157  1.00  0.00    -0.248 NA
ATOM     47  C   UNL A   1      42.533  27.731  30.891  1.00  0.00     0.031 C 
ATOM     48  C   UNL A   1      42.671  30.573  36.254  1.00  0.00     0.029 A 
ATOM     49  C   UNL A   1      42.321  30.184  34.971  1.00  0.00     0.049 A 
ATOM     50  H   UNL A   1      40.799  30.946  33.721  1.00  0.00     0.167 HD
ATOM     51  C   UNL A   1      42.499  28.829  32.902  1.00  0.00     0.074 A 
ATOM     52  C   UNL A   1      43.103  27.798  32.086  1.00  0.00     0.031 C 
ATOM     53  C   UNL A   1      42.912  29.156  34.152  1.00  0.00     0.037 A 
BRANCH  40  54
ATOM     54  C   UNL A   1      39.725  33.784  36.727  1.00  0.00     0.064 A 
ATOM     55  C   UNL A   1      38.911  33.445  37.820  1.00  0.00     0.173 A 
ATOM     56  C   UNL A   1      40.408  35.010  36.777  1.00  0.00     0.173 A 
ATOM     57  F   UNL A   1      38.228  32.290  37.819  1.00  0.00    -0.203 F 
ATOM     58  C   UNL A   1      38.760  34.312  38.899  1.00  0.00     0.198 A 
ATOM     59  C   UNL A   1      40.282  35.858  37.875  1.00  0.00     0.198 A 
ATOM     60  F   UNL A   1      41.206  35.382  35.765  1.00  0.00    -0.203 F 
ATOM     61  F   UNL A   1      37.932  33.991  39.903  1.00  0.00    -0.200 F 
ATOM     62  C   UNL A   1      39.451  35.514  38.930  1.00  0.00     0.200 A 
ATOM     63  F   UNL A   1      40.964  37.011  37.910  1.00  0.00    -0.200 F 
ATOM     64  F   UNL A   1      39.310  36.343  39.972  1.00  0.00    -0.200 F 
ENDBRANCH  40  54
BRANCH  41  65
ATOM     65  C   UNL A   1      40.714  28.046  28.617  1.00  0.00     0.064 A 
ATOM     66  C   UNL A   1      41.484  28.497  27.536  1.00  0.00     0.173 A 
ATOM     67  C   UNL A   1      40.111  26.786  28.507  1.00  0.00     0.173 A 
ATOM     68  F   UNL A   1      42.063  29.706  27.584  1.00  0.00    -0.203 F 
ATOM     69  C   UNL A   1      41.625  27.728  26.382  1.00  0.00     0.198 A 
ATOM     70  C   UNL A   1      40.279  26.004  27.366  1.00  0.00     0.198 A 
ATOM     71  F   UNL A   1      39.367  26.305  29.514  1.00  0.00    -0.203 F 
ATOM     72  F   UNL A   1      42.324  28.206  25.343  1.00  0.00    -0.200 F 
ATOM     73  C   UNL A   1      41.028  26.480  26.300  1.00  0.00     0.200 A 
ATOM     74  F   UNL A   1      39.713  24.791  27.298  1.00  0.00    -0.200 F 
ATOM     75  F   UNL A   1      41.167  25.739  25.193  1.00  0.00    -0.200 F 
ENDBRANCH  41  65
BRANCH  53  76
ATOM     76  C   UNL A   1      44.051  28.364  34.733  1.00  0.00     0.064 A 
ATOM     77  C   UNL A   1      45.383  28.786  34.612  1.00  0.00     0.173 A 
ATOM     78  C   UNL A   1      43.798  27.187  35.454  1.00  0.00     0.173 A 
ATOM     79  F   UNL A   1      45.680  29.896  33.921  1.00  0.00    -0.203 F 
ATOM     80  C   UNL A   1      46.422  28.042  35.166  1.00  0.00     0.198 A 
ATOM     81  C   UNL A   1      44.836  26.465  36.037  1.00  0.00     0.198 A 
ATOM     82  F   UNL A   1      42.541  26.743  35.606  1.00  0.00    -0.203 F 
ATOM     83  F   UNL A   1      47.691  28.436  34.994  1.00  0.00    -0.200 F 
ATOM     84  C   UNL A   1      46.148  26.889  35.886  1.00  0.00     0.200 A 
ATOM     85  F   UNL A   1      44.566  25.360  36.746  1.00  0.00    -0.200 F 
ATOM     86  F   UNL A   1      47.148  26.180  36.427  1.00  0.00    -0.200 F 
ENDBRANCH  53  76
ENDBRANCH  27  28
ENDBRANCH  19  22
ENDBRANCH  17  18
ENDBRANCH  16  17
ENDBRANCH   1  16
TORSDOF 14
ENDMDL
MODEL 3
REMARK VINA RESULT:     -11.0      1.697      2.870
REMARK SMILES O=C(COC[C@@H]1CCCCO1)NCCCCNC(=O)c1ccc(-c2c3nc(c(-c4c(F)c(F)c(F)c(F)c4F)c4ccc([nH]4)c(-c4c(F)c(F)c(F)c(F)c4F)c4nc(c(-c5c(F)c(F)c(F)c(F)c5F)c5ccc2[nH]5)C=C4)C=C3)cc1
REMARK SMILES IDX 14 1 13 2 12 3 1 4 2 5 3 7 4 8 5 9 6 10 7 11 11 12 8 13
REMARK SMILES IDX 10 14 9 15 15 16 16 17 17 18 18 19 19 21 20 22 21 23 82 24
REMARK SMILES IDX 22 25 81 26 23 27 24 28 25 29 75 30 26 31 80 32 74 33 76 34
REMARK SMILES IDX 27 35 79 36 73 37 72 38 28 40 60 41 40 42 59 43 41 44 44 45
REMARK SMILES IDX 58 46 77 47 42 48 43 49 57 51 78 52 45 53 29 54 30 55 38 56
REMARK SMILES IDX 31 57 32 58 36 59 39 60 33 61 34 62 37 63 35 64 61 65 62 66
REMARK SMILES IDX 70 67 63 68 64 69 68 70 71 71 65 72 66 73 69 74 67 75 46 76
REMARK SMILES IDX 47 77 55 78 48 79 49 80 53 81 56 82 50 83 51 84 54 85 52 86
REMARK H PARENT 12 6 17 20 76 39 44 50
REMARK Flexibility Score: inf
ROOT
ATOM      1  C   UNL A   1      31.703  30.612  26.107  1.00  0.00     0.023 C 
ENDROOT
BRANCH   1   2
ATOM      2  C   UNL A   1      31.021  30.212  24.800  1.00  0.00     0.116 C 
BRANCH   2   3
ATOM      3  N   UNL A   1      31.020  28.783  24.575  1.00  0.00    -0.354 N 
ATOM      4  O   UNL A   1      30.410  28.937  22.370  1.00  0.00    -0.272 OA
ATOM      5  C   UNL A   1      30.764  28.254  23.326  1.00  0.00     0.245 C 
ATOM      6  H   UNL A   1      31.206  28.176  25.327  1.00  0.00     0.163 HD
BRANCH   5   7
ATOM      7  C   UNL A   1      30.878  26.723  23.250  1.00  0.00     0.260 C 
BRANCH   7   8
ATOM      8  O   UNL A   1      30.156  25.918  24.166  1.00  0.00    -0.369 OA
BRANCH   8   9
ATOM      9  C   UNL A   1      30.871  24.902  24.883  1.00  0.00     0.192 C 
BRANCH   9  10
ATOM     10  C   UNL A   1      31.546  25.298  26.217  1.00  0.00     0.144 C 
ATOM     11  C   UNL A   1      33.038  25.618  26.070  1.00  0.00     0.034 C 
ATOM     12  O   UNL A   1      31.382  24.293  27.227  1.00  0.00    -0.376 OA
ATOM     13  C   UNL A   1      33.862  24.371  25.777  1.00  0.00     0.005 C 
ATOM     14  C   UNL A   1      32.080  23.070  26.990  1.00  0.00     0.160 C 
ATOM     15  C   UNL A   1      33.575  23.288  26.810  1.00  0.00     0.029 C 
ENDBRANCH   9  10
ENDBRANCH   8   9
ENDBRANCH   7   8
ENDBRANCH   5   7
ENDBRANCH   2   3
ENDBRANCH   1   2
BRANCH   1  16
ATOM     16  C   UNL A   1      31.445  32.052  26.550  1.00  0.00     0.023 C 
BRANCH  16  17
ATOM     17  C   UNL A   1      32.599  32.729  27.284  1.00  0.00     0.116 C 
BRANCH  17  18
ATOM     18  N   UNL A   1      32.333  34.120  27.613  1.00  0.00    -0.352 N 
ATOM     19  C   UNL A   1      32.952  34.936  28.533  1.00  0.00     0.251 C 
ATOM     20  H   UNL A   1      31.605  34.541  27.103  1.00  0.00     0.163 HD
ATOM     21  O   UNL A   1      32.510  36.054  28.760  1.00  0.00    -0.269 OA
BRANCH  19  22
ATOM     22  C   UNL A   1      34.137  34.450  29.277  1.00  0.00     0.039 A 
ATOM     23  C   UNL A   1      33.945  33.827  30.515  1.00  0.00     0.014 A 
ATOM     24  C   UNL A   1      35.428  34.601  28.766  1.00  0.00     0.014 A 
ATOM     25  C   UNL A   1      35.037  33.289  31.199  1.00  0.00     0.010 A 
ATOM     26  C   UNL A   1      36.506  33.995  29.411  1.00  0.00     0.010 A 
ATOM     27  C   UNL A   1      36.322  33.329  30.633  1.00  0.00    -0.014 A 
BRANCH  27  28
ATOM     28  C   UNL A   1      37.478  32.670  31.295  1.00  0.00     0.031 A 
ATOM     29  C   UNL A   1      38.192  31.529  30.624  1.00  0.00     0.074 A 
ATOM     30  C   UNL A   1      37.847  33.057  32.532  1.00  0.00     0.049 A 
ATOM     31  N   UNL A   1      39.175  30.787  31.071  1.00  0.00    -0.248 NA
ATOM     32  C   UNL A   1      37.722  31.154  29.282  1.00  0.00     0.031 C 
ATOM     33  C   UNL A   1      37.210  34.120  33.310  1.00  0.00     0.029 A 
ATOM     34  N   UNL A   1      38.842  32.593  33.358  1.00  0.00    -0.354 N 
ATOM     35  C   UNL A   1      39.430  29.856  30.074  1.00  0.00     0.074 A 
ATOM     36  C   UNL A   1      38.462  30.087  29.024  1.00  0.00     0.031 C 
ATOM     37  C   UNL A   1      37.841  34.242  34.489  1.00  0.00     0.029 A 
ATOM     38  C   UNL A   1      38.899  33.239  34.570  1.00  0.00     0.049 A 
ATOM     39  H   UNL A   1      39.457  31.867  33.106  1.00  0.00     0.167 HD
ATOM     40  C   UNL A   1      40.399  28.909  30.027  1.00  0.00     0.037 A 
ATOM     41  C   UNL A   1      39.705  33.040  35.630  1.00  0.00     0.037 A 
ATOM     42  C   UNL A   1      41.370  28.691  31.068  1.00  0.00     0.049 A 
ATOM     43  C   UNL A   1      40.758  31.967  35.563  1.00  0.00     0.074 A 
ATOM     44  C   UNL A   1      42.425  27.794  31.090  1.00  0.00     0.029 A 
ATOM     45  N   UNL A   1      41.401  29.371  32.277  1.00  0.00    -0.354 N 
ATOM     46  N   UNL A   1      41.035  31.139  34.585  1.00  0.00    -0.248 NA
ATOM     47  C   UNL A   1      41.614  31.805  36.746  1.00  0.00     0.031 C 
ATOM     48  C   UNL A   1      43.056  27.891  32.334  1.00  0.00     0.029 A 
ATOM     49  C   UNL A   1      42.438  28.895  33.064  1.00  0.00     0.049 A 
ATOM     50  H   UNL A   1      40.778  30.088  32.538  1.00  0.00     0.167 HD
ATOM     51  C   UNL A   1      42.115  30.381  35.021  1.00  0.00     0.074 A 
ATOM     52  C   UNL A   1      42.452  30.859  36.345  1.00  0.00     0.031 C 
ATOM     53  C   UNL A   1      42.768  29.381  34.379  1.00  0.00     0.037 A 
BRANCH  40  54
ATOM     54  C   UNL A   1      40.456  28.033  28.807  1.00  0.00     0.064 A 
ATOM     55  C   UNL A   1      41.208  28.388  27.676  1.00  0.00     0.173 A 
ATOM     56  C   UNL A   1      39.777  26.805  28.781  1.00  0.00     0.173 A 
ATOM     57  F   UNL A   1      41.870  29.555  27.646  1.00  0.00    -0.203 F 
ATOM     58  C   UNL A   1      41.249  27.565  26.554  1.00  0.00     0.198 A 
ATOM     59  C   UNL A   1      39.849  25.968  27.670  1.00  0.00     0.198 A 
ATOM     60  F   UNL A   1      39.048  26.411  29.836  1.00  0.00    -0.203 F 
ATOM     61  F   UNL A   1      41.929  27.953  25.466  1.00  0.00    -0.200 F 
ATOM     62  C   UNL A   1      40.576  26.353  26.554  1.00  0.00     0.200 A 
ATOM     63  F   UNL A   1      39.211  24.789  27.678  1.00  0.00    -0.200 F 
ATOM     64  F   UNL A   1      40.623  25.559  25.476  1.00  0.00    -0.200 F 
ENDBRANCH  40  54
BRANCH  41  65
ATOM     65  C   UNL A   1      39.558  33.888  36.844  1.00  0.00     0.064 A 
ATOM     66  C   UNL A   1      38.791  33.457  37.935  1.00  0.00     0.173 A 
ATOM     67  C   UNL A   1      40.172  35.145  36.936  1.00  0.00     0.173 A 
ATOM     68  F   UNL A   1      38.164  32.271  37.888  1.00  0.00    -0.203 F 
ATOM     69  C   UNL A   1      38.626  34.260  39.063  1.00  0.00     0.198 A 
ATOM     70  C   UNL A   1      40.033  35.933  38.076  1.00  0.00     0.198 A 
ATOM     71  F   UNL A   1      40.920  35.603  35.921  1.00  0.00    -0.203 F 
ATOM     72  F   UNL A   1      37.845  33.845  40.069  1.00  0.00    -0.200 F 
ATOM     73  C   UNL A   1      39.252  35.495  39.135  1.00  0.00     0.200 A 
ATOM     74  F   UNL A   1      40.654  37.119  38.148  1.00  0.00    -0.200 F 
ATOM     75  F   UNL A   1      39.098  36.265  40.220  1.00  0.00    -0.200 F 
ENDBRANCH  41  65
BRANCH  53  76
ATOM     76  C   UNL A   1      43.942  28.758  35.083  1.00  0.00     0.064 A 
ATOM     77  C   UNL A   1      43.799  27.628  35.902  1.00  0.00     0.173 A 
ATOM     78  C   UNL A   1      45.233  29.279  34.903  1.00  0.00     0.173 A 
ATOM     79  F   UNL A   1      42.586  27.100  36.119  1.00  0.00    -0.203 F 
ATOM     80  C   UNL A   1      44.902  27.062  36.537  1.00  0.00     0.198 A 
ATOM     81  C   UNL A   1      46.337  28.689  35.511  1.00  0.00     0.198 A 
ATOM     82  F   UNL A   1      45.426  30.355  34.124  1.00  0.00    -0.203 F 
ATOM     83  F   UNL A   1      44.735  26.014  37.356  1.00  0.00    -0.200 F 
ATOM     84  C   UNL A   1      46.170  27.585  36.334  1.00  0.00     0.200 A 
ATOM     85  F   UNL A   1      47.563  29.187  35.299  1.00  0.00    -0.200 F 
ATOM     86  F   UNL A   1      47.231  27.032  36.938  1.00  0.00    -0.200 F 
ENDBRANCH  53  76
ENDBRANCH  27  28
ENDBRANCH  19  22
ENDBRANCH  17  18
ENDBRANCH  16  17
ENDBRANCH   1  16
TORSDOF 14
ENDMDL
