MODEL 1
REMARK VINA RESULT:     -11.8      0.000      0.000
REMARK SMILES C[C@@](NC(=O)CCOC1CC[NH2+]CC1)(C(=O)NCCCCNC(=O)c1ccc(-c2c3nc(c(-c4c(F)c(F)c(F)c(F)c4F)c4ccc([nH]4)c(-c4c(F)c(F)c(F)c(F)c4F)c4nc(c(-c5c(F)c(F)c(F)c(F)c5F)c5ccc2[nH]5)C=C4)C=C3)cc1)C(F)(F)F
REMARK SMILES IDX 18 1 17 2 15 3 16 4 2 6 1 7 3 8 4 9 5 11 6 12 7 13 8 14 9 15
REMARK SMILES IDX 10 16 14 17 11 18 13 19 12 20 88 23 89 24 90 25 91 26 19 27
REMARK SMILES IDX 20 28 21 29 22 30 23 31 24 33 25 34 26 35 87 36 27 37 86 38
REMARK SMILES IDX 28 39 29 40 30 41 80 42 31 43 85 44 79 45 81 46 32 47 84 48
REMARK SMILES IDX 78 49 77 50 33 52 65 53 45 54 64 55 46 56 49 57 63 58 82 59
REMARK SMILES IDX 47 60 48 61 62 63 83 64 50 65 34 66 35 67 43 68 36 69 37 70
REMARK SMILES IDX 41 71 44 72 38 73 39 74 42 75 40 76 66 77 67 78 75 79 68 80
REMARK SMILES IDX 69 81 73 82 76 83 70 84 71 85 74 86 72 87 51 88 52 89 60 90
REMARK SMILES IDX 53 91 54 92 58 93 61 94 55 95 56 96 59 97 57 98
REMARK H PARENT 17 5 3 10 12 21 12 22 22 32 81 51 49 62
REMARK Flexibility Score: inf
ROOT
ATOM      1  C   UNL A   1      32.250  29.632  25.848  1.00  0.00     0.116 C 
ENDROOT
BRANCH   1   2
ATOM      2  N   UNL A   1      31.430  28.496  26.239  1.00  0.00    -0.354 N 
ATOM      3  C   UNL A   1      31.461  27.158  25.965  1.00  0.00     0.254 C 
ATOM      4  O   UNL A   1      30.769  26.491  26.747  1.00  0.00    -0.272 OA
ATOM      5  H   UNL A   1      30.685  28.748  26.831  1.00  0.00     0.163 HD
BRANCH   3   6
ATOM      6  C   UNL A   1      32.331  26.449  24.889  1.00  0.00     0.212 C 
ATOM      7  C   UNL A   1      31.731  25.087  24.485  1.00  0.00     0.056 C 
BRANCH   6   8
ATOM      8  N   UNL A   1      32.583  27.181  23.607  1.00  0.00    -0.334 N 
ATOM      9  C   UNL A   1      31.769  27.998  22.890  1.00  0.00     0.223 C 
ATOM     10  H   UNL A   1      33.480  27.050  23.224  1.00  0.00     0.164 HD
ATOM     11  O   UNL A   1      32.214  29.105  22.585  1.00  0.00    -0.275 OA
BRANCH   9  12
ATOM     12  C   UNL A   1      30.432  27.531  22.383  1.00  0.00     0.128 C 
BRANCH  12  13
ATOM     13  C   UNL A   1      29.197  27.959  23.176  1.00  0.00     0.170 C 
BRANCH  13  14
ATOM     14  O   UNL A   1      29.019  29.338  23.500  1.00  0.00    -0.377 OA
BRANCH  14  15
ATOM     15  C   UNL A   1      27.829  29.989  23.032  1.00  0.00     0.129 C 
ATOM     16  C   UNL A   1      27.928  30.147  21.518  1.00  0.00     0.093 C 
ATOM     17  C   UNL A   1      27.643  31.375  23.659  1.00  0.00     0.093 C 
ATOM     18  C   UNL A   1      29.047  31.118  21.163  1.00  0.00     0.263 C 
ATOM     19  C   UNL A   1      28.724  32.351  23.222  1.00  0.00     0.263 C 
ATOM     20  N   UNL A   1      28.814  32.434  21.764  1.00  0.00    -0.346 N 
ATOM     21  H   UNL A   1      27.940  32.814  21.399  1.00  0.00     0.346 HD
ATOM     22  H   UNL A   1      29.600  33.039  21.526  1.00  0.00     0.346 HD
ENDBRANCH  14  15
ENDBRANCH  13  14
ENDBRANCH  12  13
ENDBRANCH   9  12
ENDBRANCH   6   8
BRANCH   6  23
ATOM     23  C   UNL A   1      33.688  26.138  25.588  1.00  0.00     0.420 C 
ATOM     24  F   UNL A   1      34.143  27.187  26.309  1.00  0.00    -0.168 F 
ATOM     25  F   UNL A   1      33.519  25.112  26.470  1.00  0.00    -0.168 F 
ATOM     26  F   UNL A   1      34.655  25.745  24.734  1.00  0.00    -0.168 F 
ENDBRANCH   6  23
ENDBRANCH   3   6
ENDBRANCH   1   2
BRANCH   1  27
ATOM     27  C   UNL A   1      31.480  30.944  25.663  1.00  0.00     0.023 C 
BRANCH  27  28
ATOM     28  C   UNL A   1      31.403  31.902  26.862  1.00  0.00     0.023 C 
BRANCH  28  29
ATOM     29  C   UNL A   1      32.636  32.752  27.176  1.00  0.00     0.116 C 
BRANCH  29  30
ATOM     30  N   UNL A   1      32.338  34.104  27.625  1.00  0.00    -0.352 N 
ATOM     31  C   UNL A   1      32.967  34.910  28.548  1.00  0.00     0.251 C 
ATOM     32  H   UNL A   1      31.551  34.512  27.195  1.00  0.00     0.163 HD
ATOM     33  O   UNL A   1      32.506  36.024  28.788  1.00  0.00    -0.269 OA
BRANCH  31  34
ATOM     34  C   UNL A   1      34.152  34.439  29.303  1.00  0.00     0.039 A 
ATOM     35  C   UNL A   1      33.949  33.851  30.557  1.00  0.00     0.014 A 
ATOM     36  C   UNL A   1      35.448  34.562  28.801  1.00  0.00     0.014 A 
ATOM     37  C   UNL A   1      35.025  33.282  31.247  1.00  0.00     0.010 A 
ATOM     38  C   UNL A   1      36.511  33.938  29.457  1.00  0.00     0.010 A 
ATOM     39  C   UNL A   1      36.307  33.265  30.673  1.00  0.00    -0.014 A 
BRANCH  39  40
ATOM     40  C   UNL A   1      37.418  32.490  31.292  1.00  0.00     0.031 A 
ATOM     41  C   UNL A   1      37.941  32.842  32.656  1.00  0.00     0.074 A 
ATOM     42  C   UNL A   1      38.018  31.514  30.581  1.00  0.00     0.049 A 
ATOM     43  N   UNL A   1      38.955  32.330  33.311  1.00  0.00    -0.248 NA
ATOM     44  C   UNL A   1      37.252  33.926  33.370  1.00  0.00     0.031 C 
ATOM     45  C   UNL A   1      37.645  31.103  29.226  1.00  0.00     0.029 A 
ATOM     46  N   UNL A   1      39.079  30.696  30.892  1.00  0.00    -0.354 N 
ATOM     47  C   UNL A   1      39.036  33.042  34.501  1.00  0.00     0.074 A 
ATOM     48  C   UNL A   1      37.995  34.046  34.461  1.00  0.00     0.031 C 
ATOM     49  C   UNL A   1      38.447  30.101  28.832  1.00  0.00     0.029 A 
ATOM     50  C   UNL A   1      39.416  29.822  29.887  1.00  0.00     0.049 A 
ATOM     51  H   UNL A   1      39.552  30.734  31.755  1.00  0.00     0.167 HD
ATOM     52  C   UNL A   1      39.891  32.862  35.538  1.00  0.00     0.037 A 
ATOM     53  C   UNL A   1      40.399  28.905  29.817  1.00  0.00     0.037 A 
ATOM     54  C   UNL A   1      40.908  31.844  35.594  1.00  0.00     0.049 A 
ATOM     55  C   UNL A   1      41.330  28.725  30.984  1.00  0.00     0.074 A 
ATOM     56  C   UNL A   1      41.770  31.541  36.635  1.00  0.00     0.029 A 
ATOM     57  N   UNL A   1      41.203  30.963  34.565  1.00  0.00    -0.354 N 
ATOM     58  N   UNL A   1      41.347  29.355  32.132  1.00  0.00    -0.248 NA
ATOM     59  C   UNL A   1      42.376  27.701  30.845  1.00  0.00     0.031 C 
ATOM     60  C   UNL A   1      42.613  30.505  36.221  1.00  0.00     0.029 A 
ATOM     61  C   UNL A   1      42.248  30.131  34.939  1.00  0.00     0.049 A 
ATOM     62  H   UNL A   1      40.739  30.933  33.696  1.00  0.00     0.167 HD
ATOM     63  C   UNL A   1      42.383  28.787  32.864  1.00  0.00     0.074 A 
ATOM     64  C   UNL A   1      42.964  27.753  32.033  1.00  0.00     0.031 C 
ATOM     65  C   UNL A   1      42.812  29.097  34.110  1.00  0.00     0.037 A 
BRANCH  52  66
ATOM     66  C   UNL A   1      39.762  33.789  36.711  1.00  0.00     0.064 A 
ATOM     67  C   UNL A   1      40.422  35.027  36.744  1.00  0.00     0.173 A 
ATOM     68  C   UNL A   1      38.929  33.459  37.791  1.00  0.00     0.173 A 
ATOM     69  F   UNL A   1      41.235  35.385  35.740  1.00  0.00    -0.203 F 
ATOM     70  C   UNL A   1      40.275  35.888  37.829  1.00  0.00     0.198 A 
ATOM     71  C   UNL A   1      38.764  34.335  38.861  1.00  0.00     0.198 A 
ATOM     72  F   UNL A   1      38.268  32.293  37.805  1.00  0.00    -0.203 F 
ATOM     73  F   UNL A   1      40.951  37.045  37.860  1.00  0.00    -0.200 F 
ATOM     74  C   UNL A   1      39.442  35.544  38.883  1.00  0.00     0.200 A 
ATOM     75  F   UNL A   1      37.947  34.009  39.873  1.00  0.00    -0.200 F 
ATOM     76  F   UNL A   1      39.297  36.377  39.922  1.00  0.00    -0.200 F 
ENDBRANCH  52  66
BRANCH  53  77
ATOM     77  C   UNL A   1      40.541  28.060  28.603  1.00  0.00     0.064 A 
ATOM     78  C   UNL A   1      39.897  26.817  28.516  1.00  0.00     0.173 A 
ATOM     79  C   UNL A   1      41.327  28.464  27.515  1.00  0.00     0.173 A 
ATOM     80  F   UNL A   1      39.152  26.377  29.542  1.00  0.00    -0.203 F 
ATOM     81  C   UNL A   1      40.049  26.004  27.396  1.00  0.00     0.198 A 
ATOM     82  C   UNL A   1      41.458  27.662  26.384  1.00  0.00     0.198 A 
ATOM     83  F   UNL A   1      41.960  29.646  27.548  1.00  0.00    -0.203 F 
ATOM     84  F   UNL A   1      39.459  24.801  27.359  1.00  0.00    -0.200 F 
ATOM     85  C   UNL A   1      40.826  26.429  26.329  1.00  0.00     0.200 A 
ATOM     86  F   UNL A   1      42.199  28.081  25.349  1.00  0.00    -0.200 F 
ATOM     87  F   UNL A   1      40.971  25.647  25.250  1.00  0.00    -0.200 F 
ENDBRANCH  53  77
BRANCH  65  88
ATOM     88  C   UNL A   1      43.939  28.282  34.673  1.00  0.00     0.064 A 
ATOM     89  C   UNL A   1      43.709  27.080  35.356  1.00  0.00     0.173 A 
ATOM     90  C   UNL A   1      45.270  28.692  34.492  1.00  0.00     0.173 A 
ATOM     91  F   UNL A   1      42.455  26.655  35.571  1.00  0.00    -0.203 F 
ATOM     92  C   UNL A   1      44.768  26.328  35.858  1.00  0.00     0.198 A 
ATOM     93  C   UNL A   1      46.327  27.923  34.971  1.00  0.00     0.198 A 
ATOM     94  F   UNL A   1      45.543  29.832  33.841  1.00  0.00    -0.203 F 
ATOM     95  F   UNL A   1      44.523  25.204  36.547  1.00  0.00    -0.200 F 
ATOM     96  C   UNL A   1      46.075  26.746  35.659  1.00  0.00     0.200 A 
ATOM     97  F   UNL A   1      47.590  28.324  34.767  1.00  0.00    -0.200 F 
ATOM     98  F   UNL A   1      47.093  26.017  36.136  1.00  0.00    -0.200 F 
ENDBRANCH  65  88
ENDBRANCH  39  40
ENDBRANCH  31  34
ENDBRANCH  29  30
ENDBRANCH  28  29
ENDBRANCH  27  28
ENDBRANCH   1  27
TORSDOF 17
ENDMDL
MODEL 2
REMARK VINA RESULT:     -11.7      0.587      7.321
REMARK SMILES C[C@@](NC(=O)CCOC1CC[NH2+]CC1)(C(=O)NCCCCNC(=O)c1ccc(-c2c3nc(c(-c4c(F)c(F)c(F)c(F)c4F)c4ccc([nH]4)c(-c4c(F)c(F)c(F)c(F)c4F)c4nc(c(-c5c(F)c(F)c(F)c(F)c5F)c5ccc2[nH]5)C=C4)C=C3)cc1)C(F)(F)F
REMARK SMILES IDX 18 1 17 2 15 3 16 4 2 6 1 7 3 8 4 9 5 11 6 12 7 13 8 14 9 15
REMARK SMILES IDX 10 16 14 17 11 18 13 19 12 20 88 23 89 24 90 25 91 26 19 27
REMARK SMILES IDX 20 28 21 29 22 30 23 31 24 33 25 34 26 35 87 36 27 37 86 38
REMARK SMILES IDX 28 39 29 40 30 41 80 42 31 43 85 44 79 45 81 46 32 47 84 48
REMARK SMILES IDX 78 49 77 50 33 52 65 53 45 54 64 55 46 56 49 57 63 58 82 59
REMARK SMILES IDX 47 60 48 61 62 63 83 64 50 65 34 66 35 67 43 68 36 69 37 70
REMARK SMILES IDX 41 71 44 72 38 73 39 74 42 75 40 76 66 77 67 78 75 79 68 80
REMARK SMILES IDX 69 81 73 82 76 83 70 84 71 85 74 86 72 87 51 88 52 89 60 90
REMARK SMILES IDX 53 91 54 92 58 93 61 94 55 95 56 96 59 97 57 98
REMARK H PARENT 17 5 3 10 12 21 12 22 22 32 81 51 49 62
REMARK Flexibility Score: inf
ROOT
ATOM      1  C   UNL A   1      32.365  29.129  26.412  1.00  0.00     0.116 C 
ENDROOT
BRANCH   1   2
ATOM      2  N   UNL A   1      31.395  28.046  26.468  1.00  0.00    -0.354 N 
ATOM      3  C   UNL A   1      31.347  26.782  25.954  1.00  0.00     0.254 C 
ATOM      4  O   UNL A   1      30.487  26.075  26.497  1.00  0.00    -0.272 OA
ATOM      5  H   UNL A   1      30.595  28.276  26.993  1.00  0.00     0.163 HD
BRANCH   3   6
ATOM      6  C   UNL A   1      32.304  26.173  24.890  1.00  0.00     0.212 C 
ATOM      7  C   UNL A   1      31.748  24.853  24.320  1.00  0.00     0.056 C 
BRANCH   6   8
ATOM      8  N   UNL A   1      32.649  27.018  23.703  1.00  0.00    -0.334 N 
ATOM      9  C   UNL A   1      31.893  27.912  23.014  1.00  0.00     0.223 C 
ATOM     10  H   UNL A   1      33.569  26.909  23.369  1.00  0.00     0.164 HD
ATOM     11  O   UNL A   1      32.369  29.036  22.846  1.00  0.00    -0.275 OA
BRANCH   9  12
ATOM     12  C   UNL A   1      30.590  27.517  22.378  1.00  0.00     0.128 C 
BRANCH  12  13
ATOM     13  C   UNL A   1      29.308  27.869  23.134  1.00  0.00     0.170 C 
BRANCH  13  14
ATOM     14  O   UNL A   1      29.087  29.219  23.540  1.00  0.00    -0.377 OA
BRANCH  14  15
ATOM     15  C   UNL A   1      27.902  29.876  23.067  1.00  0.00     0.129 C 
ATOM     16  C   UNL A   1      28.028  30.074  21.561  1.00  0.00     0.093 C 
ATOM     17  C   UNL A   1      27.696  31.244  23.727  1.00  0.00     0.093 C 
ATOM     18  C   UNL A   1      29.147  31.061  21.252  1.00  0.00     0.263 C 
ATOM     19  C   UNL A   1      28.778  32.236  23.335  1.00  0.00     0.263 C 
ATOM     20  N   UNL A   1      28.894  32.359  21.882  1.00  0.00    -0.346 N 
ATOM     21  H   UNL A   1      28.025  32.744  21.511  1.00  0.00     0.346 HD
ATOM     22  H   UNL A   1      29.681  32.974  21.675  1.00  0.00     0.346 HD
ENDBRANCH  14  15
ENDBRANCH  13  14
ENDBRANCH  12  13
ENDBRANCH   9  12
ENDBRANCH   6   8
BRANCH   6  23
ATOM     23  C   UNL A   1      33.605  25.801  25.662  1.00  0.00     0.420 C 
ATOM     24  F   UNL A   1      34.356  26.887  25.949  1.00  0.00    -0.168 F 
ATOM     25  F   UNL A   1      33.276  25.237  26.859  1.00  0.00    -0.168 F 
ATOM     26  F   UNL A   1      34.372  24.899  25.019  1.00  0.00    -0.168 F 
ENDBRANCH   6  23
ENDBRANCH   3   6
ENDBRANCH   1   2
BRANCH   1  27
ATOM     27  C   UNL A   1      31.815  30.453  25.870  1.00  0.00     0.023 C 
BRANCH  27  28
ATOM     28  C   UNL A   1      31.573  31.589  26.876  1.00  0.00     0.023 C 
BRANCH  28  29
ATOM     29  C   UNL A   1      32.764  32.470  27.259  1.00  0.00     0.116 C 
BRANCH  29  30
ATOM     30  N   UNL A   1      32.416  33.841  27.598  1.00  0.00    -0.352 N 
ATOM     31  C   UNL A   1      33.011  34.740  28.456  1.00  0.00     0.251 C 
ATOM     32  H   UNL A   1      31.618  34.187  27.135  1.00  0.00     0.163 HD
ATOM     33  O   UNL A   1      32.510  35.852  28.606  1.00  0.00    -0.269 OA
BRANCH  31  34
ATOM     34  C   UNL A   1      34.207  34.372  29.250  1.00  0.00     0.039 A 
ATOM     35  C   UNL A   1      34.018  33.888  30.550  1.00  0.00     0.014 A 
ATOM     36  C   UNL A   1      35.500  34.492  28.740  1.00  0.00     0.014 A 
ATOM     37  C   UNL A   1      35.109  33.414  31.287  1.00  0.00     0.010 A 
ATOM     38  C   UNL A   1      36.580  33.960  29.449  1.00  0.00     0.010 A 
ATOM     39  C   UNL A   1      36.392  33.387  30.718  1.00  0.00    -0.014 A 
BRANCH  39  40
ATOM     40  C   UNL A   1      37.524  32.703  31.402  1.00  0.00     0.031 A 
ATOM     41  C   UNL A   1      38.216  31.529  30.768  1.00  0.00     0.074 A 
ATOM     42  C   UNL A   1      37.876  33.091  32.645  1.00  0.00     0.049 A 
ATOM     43  N   UNL A   1      39.162  30.763  31.256  1.00  0.00    -0.248 NA
ATOM     44  C   UNL A   1      37.774  31.149  29.419  1.00  0.00     0.031 C 
ATOM     45  C   UNL A   1      37.255  34.182  33.398  1.00  0.00     0.029 A 
ATOM     46  N   UNL A   1      38.834  32.603  33.502  1.00  0.00    -0.354 N 
ATOM     47  C   UNL A   1      39.411  29.802  30.285  1.00  0.00     0.074 A 
ATOM     48  C   UNL A   1      38.492  30.058  29.196  1.00  0.00     0.031 C 
ATOM     49  C   UNL A   1      37.858  34.293  34.592  1.00  0.00     0.029 A 
ATOM     50  C   UNL A   1      38.882  33.261  34.708  1.00  0.00     0.049 A 
ATOM     51  H   UNL A   1      39.429  31.853  33.273  1.00  0.00     0.167 HD
ATOM     52  C   UNL A   1      40.334  28.809  30.295  1.00  0.00     0.037 A 
ATOM     53  C   UNL A   1      39.657  33.052  35.789  1.00  0.00     0.037 A 
ATOM     54  C   UNL A   1      41.271  28.571  31.363  1.00  0.00     0.049 A 
ATOM     55  C   UNL A   1      40.675  31.944  35.770  1.00  0.00     0.074 A 
ATOM     56  C   UNL A   1      42.289  27.635  31.425  1.00  0.00     0.029 A 
ATOM     57  N   UNL A   1      41.303  29.274  32.557  1.00  0.00    -0.354 N 
ATOM     58  N   UNL A   1      40.950  31.092  34.815  1.00  0.00    -0.248 NA
ATOM     59  C   UNL A   1      41.493  31.776  36.979  1.00  0.00     0.031 C 
ATOM     60  C   UNL A   1      42.911  27.744  32.673  1.00  0.00     0.029 A 
ATOM     61  C   UNL A   1      42.310  28.777  33.371  1.00  0.00     0.049 A 
ATOM     62  H   UNL A   1      40.700  30.016  32.793  1.00  0.00     0.167 HD
ATOM     63  C   UNL A   1      41.990  30.305  35.294  1.00  0.00     0.074 A 
ATOM     64  C   UNL A   1      42.304  30.790  36.621  1.00  0.00     0.031 C 
ATOM     65  C   UNL A   1      42.624  29.274  34.686  1.00  0.00     0.037 A 
BRANCH  52  66
ATOM     66  C   UNL A   1      40.382  27.897  29.103  1.00  0.00     0.064 A 
ATOM     67  C   UNL A   1      39.642  26.707  29.060  1.00  0.00     0.173 A 
ATOM     68  C   UNL A   1      41.138  28.243  27.973  1.00  0.00     0.173 A 
ATOM     69  F   UNL A   1      38.909  26.329  30.118  1.00  0.00    -0.203 F 
ATOM     70  C   UNL A   1      39.678  25.881  27.939  1.00  0.00     0.198 A 
ATOM     71  C   UNL A   1      41.150  27.428  26.844  1.00  0.00     0.198 A 
ATOM     72  F   UNL A   1      41.857  29.374  27.959  1.00  0.00    -0.203 F 
ATOM     73  F   UNL A   1      38.997  24.726  27.937  1.00  0.00    -0.200 F 
ATOM     74  C   UNL A   1      40.427  26.245  26.830  1.00  0.00     0.200 A 
ATOM     75  F   UNL A   1      41.863  27.787  25.766  1.00  0.00    -0.200 F 
ATOM     76  F   UNL A   1      40.455  25.453  25.750  1.00  0.00    -0.200 F 
ENDBRANCH  52  66
BRANCH  53  77
ATOM     77  C   UNL A   1      39.522  33.930  36.981  1.00  0.00     0.064 A 
ATOM     78  C   UNL A   1      38.728  33.541  38.070  1.00  0.00     0.173 A 
ATOM     79  C   UNL A   1      40.166  35.172  37.054  1.00  0.00     0.173 A 
ATOM     80  F   UNL A   1      38.074  32.370  38.035  1.00  0.00    -0.203 F 
ATOM     81  C   UNL A   1      38.570  34.370  39.177  1.00  0.00     0.198 A 
ATOM     82  C   UNL A   1      40.028  35.990  38.173  1.00  0.00     0.198 A 
ATOM     83  F   UNL A   1      40.940  35.588  36.039  1.00  0.00    -0.203 F 
ATOM     84  F   UNL A   1      37.770  33.994  40.184  1.00  0.00    -0.200 F 
ATOM     85  C   UNL A   1      39.224  35.592  39.230  1.00  0.00     0.200 A 
ATOM     86  F   UNL A   1      40.672  37.164  38.226  1.00  0.00    -0.200 F 
ATOM     87  F   UNL A   1      39.073  36.389  40.297  1.00  0.00    -0.200 F 
ENDBRANCH  53  77
BRANCH  65  88
ATOM     88  C   UNL A   1      43.752  28.623  35.432  1.00  0.00     0.064 A 
ATOM     89  C   UNL A   1      45.076  29.062  35.294  1.00  0.00     0.173 A 
ATOM     90  C   UNL A   1      43.497  27.571  36.326  1.00  0.00     0.173 A 
ATOM     91  F   UNL A   1      45.372  30.053  34.438  1.00  0.00    -0.203 F 
ATOM     92  C   UNL A   1      46.108  28.458  36.007  1.00  0.00     0.198 A 
ATOM     93  C   UNL A   1      44.528  26.988  37.057  1.00  0.00     0.198 A 
ATOM     94  F   UNL A   1      42.247  27.118  36.498  1.00  0.00    -0.203 F 
ATOM     95  F   UNL A   1      47.373  28.865  35.826  1.00  0.00    -0.200 F 
ATOM     96  C   UNL A   1      45.833  27.427  36.892  1.00  0.00     0.200 A 
ATOM     97  F   UNL A   1      44.258  25.999  37.921  1.00  0.00    -0.200 F 
ATOM     98  F   UNL A   1      46.827  26.852  37.582  1.00  0.00    -0.200 F 
ENDBRANCH  65  88
ENDBRANCH  39  40
ENDBRANCH  31  34
ENDBRANCH  29  30
ENDBRANCH  28  29
ENDBRANCH  27  28
ENDBRANCH   1  27
TORSDOF 17
ENDMDL
MODEL 3
REMARK VINA RESULT:     -11.6      1.790      3.981
REMARK SMILES C[C@@](NC(=O)CCOC1CC[NH2+]CC1)(C(=O)NCCCCNC(=O)c1ccc(-c2c3nc(c(-c4c(F)c(F)c(F)c(F)c4F)c4ccc([nH]4)c(-c4c(F)c(F)c(F)c(F)c4F)c4nc(c(-c5c(F)c(F)c(F)c(F)c5F)c5ccc2[nH]5)C=C4)C=C3)cc1)C(F)(F)F
REMARK SMILES IDX 18 1 17 2 15 3 16 4 2 6 1 7 3 8 4 9 5 11 6 12 7 13 8 14 9 15
REMARK SMILES IDX 10 16 14 17 11 18 13 19 12 20 88 23 89 24 90 25 91 26 19 27
REMARK SMILES IDX 20 28 21 29 22 30 23 31 24 33 25 34 26 35 87 36 27 37 86 38
REMARK SMILES IDX 28 39 29 40 30 41 80 42 31 43 85 44 79 45 81 46 32 47 84 48
REMARK SMILES IDX 78 49 77 50 33 52 65 53 45 54 64 55 46 56 49 57 63 58 82 59
REMARK SMILES IDX 47 60 48 61 62 63 83 64 50 65 34 66 35 67 43 68 36 69 37 70
REMARK SMILES IDX 41 71 44 72 38 73 39 74 42 75 40 76 66 77 67 78 75 79 68 80
REMARK SMILES IDX 69 81 73 82 76 83 70 84 71 85 74 86 72 87 51 88 52 89 60 90
REMARK SMILES IDX 53 91 54 92 58 93 61 94 55 95 56 96 59 97 57 98
REMARK H PARENT 17 5 3 10 12 21 12 22 22 32 81 51 49 62
REMARK Flexibility Score: inf
ROOT
ATOM      1  C   UNL A   1      32.327  29.774  25.830  1.00  0.00     0.116 C 
ENDROOT
BRANCH   1   2
ATOM      2  N   UNL A   1      33.222  29.613  24.695  1.00  0.00    -0.354 N 
ATOM      3  C   UNL A   1      33.221  28.819  23.584  1.00  0.00     0.254 C 
ATOM      4  O   UNL A   1      34.003  29.214  22.709  1.00  0.00    -0.272 OA
ATOM      5  H   UNL A   1      34.005  30.208  24.738  1.00  0.00     0.163 HD
BRANCH   3   6
ATOM      6  C   UNL A   1      32.289  27.604  23.310  1.00  0.00     0.212 C 
ATOM      7  C   UNL A   1      32.721  26.834  22.046  1.00  0.00     0.056 C 
BRANCH   6   8
ATOM      8  N   UNL A   1      32.155  26.575  24.390  1.00  0.00    -0.334 N 
ATOM      9  C   UNL A   1      33.058  26.148  25.310  1.00  0.00     0.223 C 
ATOM     10  H   UNL A   1      31.274  26.139  24.441  1.00  0.00     0.164 HD
ATOM     11  O   UNL A   1      32.702  26.155  26.490  1.00  0.00    -0.275 OA
BRANCH   9  12
ATOM     12  C   UNL A   1      34.388  25.577  24.904  1.00  0.00     0.128 C 
BRANCH  12  13
ATOM     13  C   UNL A   1      34.819  24.270  25.570  1.00  0.00     0.170 C 
BRANCH  13  14
ATOM     14  O   UNL A   1      34.349  23.030  25.041  1.00  0.00    -0.377 OA
BRANCH  14  15
ATOM     15  C   UNL A   1      33.004  22.636  25.350  1.00  0.00     0.129 C 
ATOM     16  C   UNL A   1      32.872  22.516  26.864  1.00  0.00     0.093 C 
ATOM     17  C   UNL A   1      32.636  21.290  24.716  1.00  0.00     0.093 C 
ATOM     18  C   UNL A   1      33.724  21.361  27.376  1.00  0.00     0.263 C 
ATOM     19  C   UNL A   1      33.439  20.142  25.304  1.00  0.00     0.263 C 
ATOM     20  N   UNL A   1      33.320  20.094  26.762  1.00  0.00    -0.346 N 
ATOM     21  H   UNL A   1      32.348  19.901  27.009  1.00  0.00     0.346 HD
ATOM     22  H   UNL A   1      33.935  19.358  27.109  1.00  0.00     0.346 HD
ENDBRANCH  14  15
ENDBRANCH  13  14
ENDBRANCH  12  13
ENDBRANCH   9  12
ENDBRANCH   6   8
BRANCH   6  23
ATOM     23  C   UNL A   1      30.891  28.213  22.993  1.00  0.00     0.420 C 
ATOM     24  F   UNL A   1      30.212  27.483  22.080  1.00  0.00    -0.168 F 
ATOM     25  F   UNL A   1      30.130  28.217  24.124  1.00  0.00    -0.168 F 
ATOM     26  F   UNL A   1      30.946  29.493  22.571  1.00  0.00    -0.168 F 
ENDBRANCH   6  23
ENDBRANCH   3   6
ENDBRANCH   1   2
BRANCH   1  27
ATOM     27  C   UNL A   1      31.388  30.981  25.739  1.00  0.00     0.023 C 
BRANCH  27  28
ATOM     28  C   UNL A   1      31.362  31.956  26.926  1.00  0.00     0.023 C 
BRANCH  28  29
ATOM     29  C   UNL A   1      32.600  32.824  27.164  1.00  0.00     0.116 C 
BRANCH  29  30
ATOM     30  N   UNL A   1      32.311  34.179  27.607  1.00  0.00    -0.352 N 
ATOM     31  C   UNL A   1      32.946  34.986  28.525  1.00  0.00     0.251 C 
ATOM     32  H   UNL A   1      31.526  34.590  27.176  1.00  0.00     0.163 HD
ATOM     33  O   UNL A   1      32.492  36.103  28.761  1.00  0.00    -0.269 OA
BRANCH  31  34
ATOM     34  C   UNL A   1      34.129  34.511  29.281  1.00  0.00     0.039 A 
ATOM     35  C   UNL A   1      33.929  33.971  30.557  1.00  0.00     0.014 A 
ATOM     36  C   UNL A   1      35.420  34.585  28.758  1.00  0.00     0.014 A 
ATOM     37  C   UNL A   1      35.000  33.399  31.252  1.00  0.00     0.010 A 
ATOM     38  C   UNL A   1      36.477  33.958  29.422  1.00  0.00     0.010 A 
ATOM     39  C   UNL A   1      36.273  33.331  30.663  1.00  0.00    -0.014 A 
BRANCH  39  40
ATOM     40  C   UNL A   1      37.373  32.550  31.293  1.00  0.00     0.031 A 
ATOM     41  C   UNL A   1      37.885  32.900  32.662  1.00  0.00     0.074 A 
ATOM     42  C   UNL A   1      37.973  31.569  30.589  1.00  0.00     0.049 A 
ATOM     43  N   UNL A   1      38.889  32.383  33.328  1.00  0.00    -0.248 NA
ATOM     44  C   UNL A   1      37.196  33.990  33.367  1.00  0.00     0.031 C 
ATOM     45  C   UNL A   1      37.611  31.159  29.232  1.00  0.00     0.029 A 
ATOM     46  N   UNL A   1      39.026  30.745  30.912  1.00  0.00    -0.354 N 
ATOM     47  C   UNL A   1      38.964  33.096  34.517  1.00  0.00     0.074 A 
ATOM     48  C   UNL A   1      37.928  34.106  34.466  1.00  0.00     0.031 C 
ATOM     49  C   UNL A   1      38.411  30.151  28.847  1.00  0.00     0.029 A 
ATOM     50  C   UNL A   1      39.368  29.868  29.911  1.00  0.00     0.049 A 
ATOM     51  H   UNL A   1      39.491  30.781  31.779  1.00  0.00     0.167 HD
ATOM     52  C   UNL A   1      39.807  32.912  35.563  1.00  0.00     0.037 A 
ATOM     53  C   UNL A   1      40.345  28.944  29.852  1.00  0.00     0.037 A 
ATOM     54  C   UNL A   1      40.817  31.888  35.630  1.00  0.00     0.049 A 
ATOM     55  C   UNL A   1      41.264  28.760  31.029  1.00  0.00     0.074 A 
ATOM     56  C   UNL A   1      41.666  31.581  36.679  1.00  0.00     0.029 A 
ATOM     57  N   UNL A   1      41.116  31.004  34.605  1.00  0.00    -0.354 N 
ATOM     58  N   UNL A   1      41.274  29.391  32.176  1.00  0.00    -0.248 NA
ATOM     59  C   UNL A   1      42.305  27.729  30.901  1.00  0.00     0.031 C 
ATOM     60  C   UNL A   1      42.508  30.539  36.275  1.00  0.00     0.029 A 
ATOM     61  C   UNL A   1      42.152  30.166  34.990  1.00  0.00     0.049 A 
ATOM     62  H   UNL A   1      40.661  30.975  33.732  1.00  0.00     0.167 HD
ATOM     63  C   UNL A   1      42.299  28.818  32.918  1.00  0.00     0.074 A 
ATOM     64  C   UNL A   1      42.881  27.779  32.095  1.00  0.00     0.031 C 
ATOM     65  C   UNL A   1      42.717  29.127  34.169  1.00  0.00     0.037 A 
BRANCH  52  66
ATOM     66  C   UNL A   1      39.672  33.842  36.733  1.00  0.00     0.064 A 
ATOM     67  C   UNL A   1      38.880  33.515  37.843  1.00  0.00     0.173 A 
ATOM     68  C   UNL A   1      40.383  35.051  36.767  1.00  0.00     0.173 A 
ATOM     69  F   UNL A   1      38.174  32.374  37.856  1.00  0.00    -0.203 F 
ATOM     70  C   UNL A   1      38.781  34.377  38.932  1.00  0.00     0.198 A 
ATOM     71  C   UNL A   1      40.304  35.898  37.870  1.00  0.00     0.198 A 
ATOM     72  F   UNL A   1      41.162  35.408  35.736  1.00  0.00    -0.203 F 
ATOM     73  F   UNL A   1      37.982  34.064  39.963  1.00  0.00    -0.200 F 
ATOM     74  C   UNL A   1      39.498  35.564  38.948  1.00  0.00     0.200 A 
ATOM     75  F   UNL A   1      41.007  37.039  37.890  1.00  0.00    -0.200 F 
ATOM     76  F   UNL A   1      39.407  36.389  40.000  1.00  0.00    -0.200 F 
ENDBRANCH  52  66
BRANCH  53  77
ATOM     77  C   UNL A   1      40.494  28.096  28.641  1.00  0.00     0.064 A 
ATOM     78  C   UNL A   1      39.857  26.849  28.557  1.00  0.00     0.173 A 
ATOM     79  C   UNL A   1      41.279  28.502  27.553  1.00  0.00     0.173 A 
ATOM     80  F   UNL A   1      39.113  26.409  29.583  1.00  0.00    -0.203 F 
ATOM     81  C   UNL A   1      40.016  26.034  27.439  1.00  0.00     0.198 A 
ATOM     82  C   UNL A   1      41.416  27.697  26.425  1.00  0.00     0.198 A 
ATOM     83  F   UNL A   1      41.906  29.688  27.583  1.00  0.00    -0.203 F 
ATOM     84  F   UNL A   1      39.432  24.828  27.404  1.00  0.00    -0.200 F 
ATOM     85  C   UNL A   1      40.791  26.460  26.372  1.00  0.00     0.200 A 
ATOM     86  F   UNL A   1      42.156  28.118  25.390  1.00  0.00    -0.200 F 
ATOM     87  F   UNL A   1      40.942  25.676  25.296  1.00  0.00    -0.200 F 
ENDBRANCH  53  77
BRANCH  65  88
ATOM     88  C   UNL A   1      43.835  28.306  34.743  1.00  0.00     0.064 A 
ATOM     89  C   UNL A   1      45.174  28.703  34.628  1.00  0.00     0.173 A 
ATOM     90  C   UNL A   1      43.556  27.127  35.452  1.00  0.00     0.173 A 
ATOM     91  F   UNL A   1      45.493  29.813  33.944  1.00  0.00    -0.203 F 
ATOM     92  C   UNL A   1      46.197  27.937  35.181  1.00  0.00     0.198 A 
ATOM     93  C   UNL A   1      44.580  26.379  36.027  1.00  0.00     0.198 A 
ATOM     94  F   UNL A   1      42.291  26.707  35.595  1.00  0.00    -0.203 F 
ATOM     95  F   UNL A   1      47.475  28.312  35.020  1.00  0.00    -0.200 F 
ATOM     96  C   UNL A   1      45.899  26.781  35.886  1.00  0.00     0.200 A 
ATOM     97  F   UNL A   1      44.288  25.268  36.718  1.00  0.00    -0.200 F 
ATOM     98  F   UNL A   1      46.885  26.050  36.424  1.00  0.00    -0.200 F 
ENDBRANCH  65  88
ENDBRANCH  39  40
ENDBRANCH  31  34
ENDBRANCH  29  30
ENDBRANCH  28  29
ENDBRANCH  27  28
ENDBRANCH   1  27
TORSDOF 17
ENDMDL
