MODEL 1
REMARK VINA RESULT:     -13.0      0.000      0.000
REMARK SMILES CCc1noc(C[N@@H+]2CC[C@H](Cc3cccc(C(=O)NCCCCNC(=O)c4ccc(-c5c6nc(c(-c7c(F)c(F)c(F)c(F)c7F)c7ccc([nH]7)c(-c7c(F)c(F)c(F)c(F)c7F)c7nc(c(-c8c(F)c(F)c(F)c(F)c8F)c8ccc5[nH]8)C=C7)C=C6)cc4)c3)C2)n1
REMARK SMILES IDX 21 1 20 2 18 3 19 4 17 6 13 7 14 8 91 9 15 10 16 11 12 12
REMARK SMILES IDX 11 13 8 14 9 15 92 16 10 18 7 19 6 20 3 21 4 22 93 23 5 24
REMARK SMILES IDX 2 25 1 26 22 27 23 28 24 29 25 30 26 31 27 33 28 34 29 35
REMARK SMILES IDX 90 36 30 37 89 38 31 39 32 40 33 41 83 42 34 43 88 44 82 45
REMARK SMILES IDX 84 46 35 47 87 48 81 49 80 50 36 52 68 53 48 54 67 55 49 56
REMARK SMILES IDX 52 57 66 58 85 59 50 60 51 61 65 63 86 64 53 65 37 66 38 67
REMARK SMILES IDX 46 68 39 69 40 70 44 71 47 72 41 73 42 74 45 75 43 76 69 77
REMARK SMILES IDX 70 78 78 79 71 80 72 81 76 82 79 83 73 84 74 85 77 86 75 87
REMARK SMILES IDX 54 88 55 89 63 90 56 91 57 92 61 93 64 94 58 95 59 96 62 97
REMARK SMILES IDX 60 98
REMARK H PARENT 20 5 8 17 25 32 84 51 52 62
REMARK Flexibility Score: inf
ROOT
ATOM      1  C   UNL A   1      37.410  21.760  24.300  1.00  0.00     0.116 C 
ENDROOT
BRANCH   1   2
ATOM      2  N   UNL A   1      37.940  22.821  25.145  1.00  0.00    -0.352 N 
ATOM      3  C   UNL A   1      37.278  23.779  25.894  1.00  0.00     0.251 C 
ATOM      4  O   UNL A   1      37.931  24.596  26.537  1.00  0.00    -0.269 OA
ATOM      5  H   UNL A   1      38.922  22.866  25.190  1.00  0.00     0.163 HD
BRANCH   3   6
ATOM      6  C   UNL A   1      35.795  23.876  25.869  1.00  0.00     0.040 A 
ATOM      7  C   UNL A   1      33.828  25.193  25.359  1.00  0.00    -0.047 A 
ATOM      8  C   UNL A   1      33.090  24.387  26.232  1.00  0.00     0.004 A 
ATOM      9  C   UNL A   1      35.151  24.843  25.098  1.00  0.00     0.017 A 
ATOM     10  C   UNL A   1      33.677  23.287  26.863  1.00  0.00     0.001 A 
ATOM     11  C   UNL A   1      35.042  23.052  26.710  1.00  0.00     0.014 A 
BRANCH   7  12
ATOM     12  C   UNL A   1      33.254  26.508  24.880  1.00  0.00     0.045 C 
BRANCH  12  13
ATOM     13  C   UNL A   1      33.082  26.681  23.365  1.00  0.00     0.054 C 
ATOM     14  N   UNL A   1      31.163  27.585  22.210  1.00  0.00    -0.327 N 
ATOM     15  C   UNL A   1      31.413  26.238  21.697  1.00  0.00     0.263 C 
ATOM     16  C   UNL A   1      32.335  27.972  23.000  1.00  0.00     0.266 C 
ATOM     17  H   UNL A   1      31.045  28.225  21.426  1.00  0.00     0.348 HD
ATOM     18  C   UNL A   1      32.271  25.552  22.737  1.00  0.00     0.071 C 
BRANCH  14  19
ATOM     19  C   UNL A   1      29.878  27.747  22.918  1.00  0.00     0.364 C 
BRANCH  19  20
ATOM     20  C   UNL A   1      29.146  29.041  22.764  1.00  0.00     0.281 A 
ATOM     21  C   UNL A   1      28.459  30.989  22.411  1.00  0.00     0.171 A 
ATOM     22  N   UNL A   1      27.346  30.328  22.757  1.00  0.00    -0.062 NA
ATOM     23  N   UNL A   1      29.600  30.224  22.405  1.00  0.00    -0.191 NA
ATOM     24  O   UNL A   1      27.800  29.027  22.990  1.00  0.00    -0.333 OA
BRANCH  21  25
ATOM     25  C   UNL A   1      28.469  32.411  21.977  1.00  0.00     0.078 C 
ATOM     26  C   UNL A   1      28.889  33.407  23.046  1.00  0.00     0.012 C 
ENDBRANCH  21  25
ENDBRANCH  19  20
ENDBRANCH  14  19
ENDBRANCH  12  13
ENDBRANCH   7  12
ENDBRANCH   3   6
ENDBRANCH   1   2
BRANCH   1  27
ATOM     27  C   UNL A   1      37.119  20.445  25.007  1.00  0.00     0.023 C 
BRANCH  27  28
ATOM     28  C   UNL A   1      38.251  19.429  25.025  1.00  0.00     0.023 C 
BRANCH  28  29
ATOM     29  C   UNL A   1      39.528  19.868  25.727  1.00  0.00     0.116 C 
BRANCH  29  30
ATOM     30  N   UNL A   1      40.538  18.824  25.832  1.00  0.00    -0.352 N 
ATOM     31  C   UNL A   1      41.879  18.929  26.124  1.00  0.00     0.251 C 
ATOM     32  H   UNL A   1      40.214  17.908  25.672  1.00  0.00     0.163 HD
ATOM     33  O   UNL A   1      42.599  17.935  26.101  1.00  0.00    -0.269 OA
BRANCH  31  34
ATOM     34  C   UNL A   1      42.464  20.255  26.413  1.00  0.00     0.039 A 
ATOM     35  C   UNL A   1      43.101  20.951  25.383  1.00  0.00     0.014 A 
ATOM     36  C   UNL A   1      42.335  20.834  27.678  1.00  0.00     0.014 A 
ATOM     37  C   UNL A   1      43.515  22.268  25.593  1.00  0.00     0.010 A 
ATOM     38  C   UNL A   1      42.666  22.172  27.859  1.00  0.00     0.010 A 
ATOM     39  C   UNL A   1      43.251  22.907  26.816  1.00  0.00    -0.014 A 
BRANCH  39  40
ATOM     40  C   UNL A   1      43.562  24.344  27.023  1.00  0.00     0.031 A 
ATOM     41  C   UNL A   1      44.947  24.863  26.751  1.00  0.00     0.074 A 
ATOM     42  C   UNL A   1      42.624  25.164  27.538  1.00  0.00     0.049 A 
ATOM     43  N   UNL A   1      45.440  26.056  26.961  1.00  0.00    -0.248 NA
ATOM     44  C   UNL A   1      45.915  23.899  26.203  1.00  0.00     0.031 C 
ATOM     45  C   UNL A   1      41.261  24.770  27.900  1.00  0.00     0.029 A 
ATOM     46  N   UNL A   1      42.679  26.498  27.861  1.00  0.00    -0.354 N 
ATOM     47  C   UNL A   1      46.776  25.981  26.589  1.00  0.00     0.074 A 
ATOM     48  C   UNL A   1      47.030  24.613  26.194  1.00  0.00     0.031 C 
ATOM     49  C   UNL A   1      40.603  25.842  28.372  1.00  0.00     0.029 A 
ATOM     50  C   UNL A   1      41.507  26.988  28.382  1.00  0.00     0.049 A 
ATOM     51  H   UNL A   1      43.483  27.050  27.730  1.00  0.00     0.167 HD
ATOM     52  C   UNL A   1      47.701  26.970  26.557  1.00  0.00     0.037 A 
ATOM     53  C   UNL A   1      41.198  28.222  28.825  1.00  0.00     0.037 A 
ATOM     54  C   UNL A   1      47.437  28.338  26.918  1.00  0.00     0.049 A 
ATOM     55  C   UNL A   1      42.240  29.305  28.766  1.00  0.00     0.074 A 
ATOM     56  C   UNL A   1      48.288  29.427  26.853  1.00  0.00     0.029 A 
ATOM     57  N   UNL A   1      46.227  28.803  27.411  1.00  0.00    -0.354 N 
ATOM     58  N   UNL A   1      43.479  29.240  28.345  1.00  0.00    -0.248 NA
ATOM     59  C   UNL A   1      41.837  30.638  29.239  1.00  0.00     0.031 C 
ATOM     60  C   UNL A   1      47.606  30.545  27.344  1.00  0.00     0.029 A 
ATOM     61  C   UNL A   1      46.314  30.161  27.671  1.00  0.00     0.049 A 
ATOM     62  H   UNL A   1      45.424  28.251  27.553  1.00  0.00     0.167 HD
ATOM     63  C   UNL A   1      43.995  30.522  28.474  1.00  0.00     0.074 A 
ATOM     64  C   UNL A   1      42.930  31.349  29.002  1.00  0.00     0.031 C 
ATOM     65  C   UNL A   1      45.240  30.973  28.184  1.00  0.00     0.037 A 
BRANCH  52  66
ATOM     66  C   UNL A   1      49.085  26.607  26.106  1.00  0.00     0.064 A 
ATOM     67  C   UNL A   1      49.517  26.850  24.792  1.00  0.00     0.173 A 
ATOM     68  C   UNL A   1      50.003  26.039  27.002  1.00  0.00     0.173 A 
ATOM     69  F   UNL A   1      48.675  27.380  23.892  1.00  0.00    -0.203 F 
ATOM     70  C   UNL A   1      50.804  26.509  24.385  1.00  0.00     0.198 A 
ATOM     71  C   UNL A   1      51.299  25.727  26.600  1.00  0.00     0.198 A 
ATOM     72  F   UNL A   1      49.643  25.791  28.270  1.00  0.00    -0.203 F 
ATOM     73  F   UNL A   1      51.175  26.703  23.113  1.00  0.00    -0.200 F 
ATOM     74  C   UNL A   1      51.695  25.954  25.291  1.00  0.00     0.200 A 
ATOM     75  F   UNL A   1      52.163  25.202  27.479  1.00  0.00    -0.200 F 
ATOM     76  F   UNL A   1      52.936  25.632  24.899  1.00  0.00    -0.200 F 
ENDBRANCH  52  66
BRANCH  53  77
ATOM     77  C   UNL A   1      39.831  28.509  29.334  1.00  0.00     0.064 A 
ATOM     78  C   UNL A   1      39.504  28.282  30.678  1.00  0.00     0.173 A 
ATOM     79  C   UNL A   1      38.826  29.008  28.493  1.00  0.00     0.173 A 
ATOM     80  F   UNL A   1      40.426  27.785  31.516  1.00  0.00    -0.203 F 
ATOM     81  C   UNL A   1      38.219  28.522  31.158  1.00  0.00     0.198 A 
ATOM     82  C   UNL A   1      37.548  29.273  28.980  1.00  0.00     0.198 A 
ATOM     83  F   UNL A   1      39.089  29.247  27.200  1.00  0.00    -0.203 F 
ATOM     84  F   UNL A   1      37.921  28.253  32.436  1.00  0.00    -0.200 F 
ATOM     85  C   UNL A   1      37.242  29.023  30.310  1.00  0.00     0.200 A 
ATOM     86  F   UNL A   1      36.611  29.770  28.160  1.00  0.00    -0.200 F 
ATOM     87  F   UNL A   1      36.007  29.257  30.771  1.00  0.00    -0.200 F 
ENDBRANCH  53  77
BRANCH  65  88
ATOM     88  C   UNL A   1      45.509  32.434  28.394  1.00  0.00     0.064 A 
ATOM     89  C   UNL A   1      45.219  33.384  27.405  1.00  0.00     0.173 A 
ATOM     90  C   UNL A   1      46.024  32.891  29.617  1.00  0.00     0.173 A 
ATOM     91  F   UNL A   1      44.740  32.995  26.214  1.00  0.00    -0.203 F 
ATOM     92  C   UNL A   1      45.455  34.739  27.624  1.00  0.00     0.198 A 
ATOM     93  C   UNL A   1      46.232  34.249  29.842  1.00  0.00     0.198 A 
ATOM     94  F   UNL A   1      46.313  32.021  30.597  1.00  0.00    -0.203 F 
ATOM     95  F   UNL A   1      45.211  35.625  26.650  1.00  0.00    -0.200 F 
ATOM     96  C   UNL A   1      45.955  35.170  28.845  1.00  0.00     0.200 A 
ATOM     97  F   UNL A   1      46.702  34.665  31.027  1.00  0.00    -0.200 F 
ATOM     98  F   UNL A   1      46.173  36.475  29.057  1.00  0.00    -0.200 F 
ENDBRANCH  65  88
ENDBRANCH  39  40
ENDBRANCH  31  34
ENDBRANCH  29  30
ENDBRANCH  28  29
ENDBRANCH  27  28
ENDBRANCH   1  27
TORSDOF 16
ENDMDL
MODEL 2
REMARK VINA RESULT:     -12.9      1.554      7.330
REMARK SMILES CCc1noc(C[N@@H+]2CC[C@H](Cc3cccc(C(=O)NCCCCNC(=O)c4ccc(-c5c6nc(c(-c7c(F)c(F)c(F)c(F)c7F)c7ccc([nH]7)c(-c7c(F)c(F)c(F)c(F)c7F)c7nc(c(-c8c(F)c(F)c(F)c(F)c8F)c8ccc5[nH]8)C=C7)C=C6)cc4)c3)C2)n1
REMARK SMILES IDX 21 1 20 2 18 3 19 4 17 6 13 7 14 8 91 9 15 10 16 11 12 12
REMARK SMILES IDX 11 13 8 14 9 15 92 16 10 18 7 19 6 20 3 21 4 22 93 23 5 24
REMARK SMILES IDX 2 25 1 26 22 27 23 28 24 29 25 30 26 31 27 33 28 34 29 35
REMARK SMILES IDX 90 36 30 37 89 38 31 39 32 40 33 41 83 42 34 43 88 44 82 45
REMARK SMILES IDX 84 46 35 47 87 48 81 49 80 50 36 52 68 53 48 54 67 55 49 56
REMARK SMILES IDX 52 57 66 58 85 59 50 60 51 61 65 63 86 64 53 65 37 66 38 67
REMARK SMILES IDX 46 68 39 69 40 70 44 71 47 72 41 73 42 74 45 75 43 76 69 77
REMARK SMILES IDX 70 78 78 79 71 80 72 81 76 82 79 83 73 84 74 85 77 86 75 87
REMARK SMILES IDX 54 88 55 89 63 90 56 91 57 92 61 93 64 94 58 95 59 96 62 97
REMARK SMILES IDX 60 98
REMARK H PARENT 20 5 8 17 25 32 84 51 52 62
REMARK Flexibility Score: inf
ROOT
ATOM      1  C   UNL A   1      35.661  20.319  25.052  1.00  0.00     0.116 C 
ENDROOT
BRANCH   1   2
ATOM      2  N   UNL A   1      34.491  19.479  25.268  1.00  0.00    -0.352 N 
ATOM      3  C   UNL A   1      33.151  19.743  25.048  1.00  0.00     0.251 C 
ATOM      4  O   UNL A   1      32.317  18.881  25.310  1.00  0.00    -0.269 OA
ATOM      5  H   UNL A   1      34.684  18.583  25.628  1.00  0.00     0.163 HD
BRANCH   3   6
ATOM      6  C   UNL A   1      32.705  21.078  24.570  1.00  0.00     0.040 A 
ATOM      7  C   UNL A   1      31.665  23.204  25.082  1.00  0.00    -0.047 A 
ATOM      8  C   UNL A   1      31.385  23.369  23.721  1.00  0.00     0.004 A 
ATOM      9  C   UNL A   1      32.435  22.109  25.468  1.00  0.00     0.017 A 
ATOM     10  C   UNL A   1      31.825  22.435  22.780  1.00  0.00     0.001 A 
ATOM     11  C   UNL A   1      32.455  21.268  23.208  1.00  0.00     0.014 A 
BRANCH   7  12
ATOM     12  C   UNL A   1      30.981  24.084  26.104  1.00  0.00     0.045 C 
BRANCH  12  13
ATOM     13  C   UNL A   1      31.722  25.356  26.536  1.00  0.00     0.054 C 
ATOM     14  N   UNL A   1      31.989  27.391  25.263  1.00  0.00    -0.327 N 
ATOM     15  C   UNL A   1      33.319  26.891  25.611  1.00  0.00     0.263 C 
ATOM     16  C   UNL A   1      31.020  26.637  26.064  1.00  0.00     0.266 C 
ATOM     17  H   UNL A   1      31.933  28.382  25.492  1.00  0.00     0.348 HD
ATOM     18  C   UNL A   1      33.134  25.432  25.963  1.00  0.00     0.071 C 
BRANCH  14  19
ATOM     19  C   UNL A   1      31.695  27.406  23.817  1.00  0.00     0.364 C 
BRANCH  19  20
ATOM     20  C   UNL A   1      30.746  28.439  23.301  1.00  0.00     0.281 A 
ATOM     21  C   UNL A   1      29.512  30.085  22.899  1.00  0.00     0.171 A 
ATOM     22  N   UNL A   1      29.409  29.344  21.788  1.00  0.00    -0.062 NA
ATOM     23  N   UNL A   1      30.333  29.555  23.865  1.00  0.00    -0.191 NA
ATOM     24  O   UNL A   1      30.232  28.246  22.051  1.00  0.00    -0.333 OA
BRANCH  21  25
ATOM     25  C   UNL A   1      28.874  31.418  23.060  1.00  0.00     0.078 C 
ATOM     26  C   UNL A   1      27.444  31.389  23.575  1.00  0.00     0.012 C 
ENDBRANCH  21  25
ENDBRANCH  19  20
ENDBRANCH  14  19
ENDBRANCH  12  13
ENDBRANCH   7  12
ENDBRANCH   3   6
ENDBRANCH   1   2
BRANCH   1  27
ATOM     27  C   UNL A   1      36.991  19.584  24.985  1.00  0.00     0.023 C 
BRANCH  27  28
ATOM     28  C   UNL A   1      38.233  20.455  24.879  1.00  0.00     0.023 C 
BRANCH  28  29
ATOM     29  C   UNL A   1      39.211  20.363  26.041  1.00  0.00     0.116 C 
BRANCH  29  30
ATOM     30  N   UNL A   1      40.137  19.241  25.953  1.00  0.00    -0.352 N 
ATOM     31  C   UNL A   1      41.505  19.222  26.093  1.00  0.00     0.251 C 
ATOM     32  H   UNL A   1      39.721  18.368  25.767  1.00  0.00     0.163 HD
ATOM     33  O   UNL A   1      42.132  18.181  25.915  1.00  0.00    -0.269 OA
BRANCH  31  34
ATOM     34  C   UNL A   1      42.228  20.473  26.404  1.00  0.00     0.039 A 
ATOM     35  C   UNL A   1      42.743  21.234  25.353  1.00  0.00     0.014 A 
ATOM     36  C   UNL A   1      42.347  20.921  27.722  1.00  0.00     0.014 A 
ATOM     37  C   UNL A   1      43.284  22.495  25.615  1.00  0.00     0.010 A 
ATOM     38  C   UNL A   1      42.802  22.210  27.971  1.00  0.00     0.010 A 
ATOM     39  C   UNL A   1      43.267  23.016  26.919  1.00  0.00    -0.014 A 
BRANCH  39  40
ATOM     40  C   UNL A   1      43.715  24.402  27.207  1.00  0.00     0.031 A 
ATOM     41  C   UNL A   1      42.739  25.418  27.729  1.00  0.00     0.074 A 
ATOM     42  C   UNL A   1      44.980  24.770  26.916  1.00  0.00     0.049 A 
ATOM     43  N   UNL A   1      42.911  26.696  27.950  1.00  0.00    -0.248 NA
ATOM     44  C   UNL A   1      41.376  24.937  28.009  1.00  0.00     0.031 C 
ATOM     45  C   UNL A   1      46.007  23.895  26.349  1.00  0.00     0.029 A 
ATOM     46  N   UNL A   1      45.612  25.982  27.042  1.00  0.00    -0.354 N 
ATOM     47  C   UNL A   1      41.678  27.174  28.373  1.00  0.00     0.074 A 
ATOM     48  C   UNL A   1      40.753  26.062  28.326  1.00  0.00     0.031 C 
ATOM     49  C   UNL A   1      47.146  24.591  26.199  1.00  0.00     0.029 A 
ATOM     50  C   UNL A   1      46.919  25.969  26.622  1.00  0.00     0.049 A 
ATOM     51  H   UNL A   1      45.169  26.785  27.400  1.00  0.00     0.167 HD
ATOM     52  C   UNL A   1      41.352  28.421  28.787  1.00  0.00     0.037 A 
ATOM     53  C   UNL A   1      47.831  26.960  26.576  1.00  0.00     0.037 A 
ATOM     54  C   UNL A   1      42.281  29.517  28.866  1.00  0.00     0.049 A 
ATOM     55  C   UNL A   1      47.447  28.334  27.055  1.00  0.00     0.074 A 
ATOM     56  C   UNL A   1      42.065  30.799  29.337  1.00  0.00     0.029 A 
ATOM     57  N   UNL A   1      43.607  29.456  28.462  1.00  0.00    -0.354 N 
ATOM     58  N   UNL A   1      46.297  28.757  27.521  1.00  0.00    -0.248 NA
ATOM     59  C   UNL A   1      48.490  29.368  27.006  1.00  0.00     0.031 C 
ATOM     60  C   UNL A   1      43.250  31.528  29.183  1.00  0.00     0.029 A 
ATOM     61  C   UNL A   1      44.217  30.685  28.658  1.00  0.00     0.049 A 
ATOM     62  H   UNL A   1      44.050  28.658  28.093  1.00  0.00     0.167 HD
ATOM     63  C   UNL A   1      46.484  30.092  27.847  1.00  0.00     0.074 A 
ATOM     64  C   UNL A   1      47.864  30.408  27.537  1.00  0.00     0.031 C 
ATOM     65  C   UNL A   1      45.594  30.979  28.355  1.00  0.00     0.037 A 
BRANCH  52  66
ATOM     66  C   UNL A   1      39.929  28.664  29.197  1.00  0.00     0.064 A 
ATOM     67  C   UNL A   1      38.965  29.109  28.279  1.00  0.00     0.173 A 
ATOM     68  C   UNL A   1      39.515  28.421  30.516  1.00  0.00     0.173 A 
ATOM     69  F   UNL A   1      39.312  29.368  27.009  1.00  0.00    -0.203 F 
ATOM     70  C   UNL A   1      37.649  29.331  28.672  1.00  0.00     0.198 A 
ATOM     71  C   UNL A   1      38.190  28.616  30.898  1.00  0.00     0.198 A 
ATOM     72  F   UNL A   1      40.395  27.990  31.432  1.00  0.00    -0.203 F 
ATOM     73  F   UNL A   1      36.759  29.805  27.790  1.00  0.00    -0.200 F 
ATOM     74  C   UNL A   1      37.261  29.078  29.979  1.00  0.00     0.200 A 
ATOM     75  F   UNL A   1      37.814  28.359  32.159  1.00  0.00    -0.200 F 
ATOM     76  F   UNL A   1      35.991  29.287  30.355  1.00  0.00    -0.200 F 
ENDBRANCH  52  66
BRANCH  53  77
ATOM     77  C   UNL A   1      49.208  26.683  26.089  1.00  0.00     0.064 A 
ATOM     78  C   UNL A   1      50.183  26.163  26.952  1.00  0.00     0.173 A 
ATOM     79  C   UNL A   1      49.578  26.935  24.760  1.00  0.00     0.173 A 
ATOM     80  F   UNL A   1      49.882  25.926  28.237  1.00  0.00    -0.203 F 
ATOM     81  C   UNL A   1      51.483  25.926  26.510  1.00  0.00     0.198 A 
ATOM     82  C   UNL A   1      50.871  26.672  24.313  1.00  0.00     0.198 A 
ATOM     83  F   UNL A   1      48.681  27.428  23.894  1.00  0.00    -0.203 F 
ATOM     84  F   UNL A   1      52.407  25.472  27.367  1.00  0.00    -0.200 F 
ATOM     85  C   UNL A   1      51.825  26.176  25.189  1.00  0.00     0.200 A 
ATOM     86  F   UNL A   1      51.194  26.902  23.032  1.00  0.00    -0.200 F 
ATOM     87  F   UNL A   1      53.074  25.944  24.763  1.00  0.00    -0.200 F 
ENDBRANCH  53  77
BRANCH  65  88
ATOM     88  C   UNL A   1      46.091  32.364  28.645  1.00  0.00     0.064 A 
ATOM     89  C   UNL A   1      46.008  33.390  27.693  1.00  0.00     0.173 A 
ATOM     90  C   UNL A   1      46.619  32.678  29.907  1.00  0.00     0.173 A 
ATOM     91  F   UNL A   1      45.526  33.136  26.467  1.00  0.00    -0.203 F 
ATOM     92  C   UNL A   1      46.455  34.676  27.987  1.00  0.00     0.198 A 
ATOM     93  C   UNL A   1      47.038  33.971  30.206  1.00  0.00     0.198 A 
ATOM     94  F   UNL A   1      46.714  31.732  30.854  1.00  0.00    -0.203 F 
ATOM     95  F   UNL A   1      46.406  35.630  27.048  1.00  0.00    -0.200 F 
ATOM     96  C   UNL A   1      46.963  34.966  29.245  1.00  0.00     0.200 A 
ATOM     97  F   UNL A   1      47.516  34.253  31.427  1.00  0.00    -0.200 F 
ATOM     98  F   UNL A   1      47.385  36.206  29.528  1.00  0.00    -0.200 F 
ENDBRANCH  65  88
ENDBRANCH  39  40
ENDBRANCH  31  34
ENDBRANCH  29  30
ENDBRANCH  28  29
ENDBRANCH  27  28
ENDBRANCH   1  27
TORSDOF 16
ENDMDL
MODEL 3
REMARK VINA RESULT:     -12.8      3.667      9.287
REMARK SMILES CCc1noc(C[N@@H+]2CC[C@H](Cc3cccc(C(=O)NCCCCNC(=O)c4ccc(-c5c6nc(c(-c7c(F)c(F)c(F)c(F)c7F)c7ccc([nH]7)c(-c7c(F)c(F)c(F)c(F)c7F)c7nc(c(-c8c(F)c(F)c(F)c(F)c8F)c8ccc5[nH]8)C=C7)C=C6)cc4)c3)C2)n1
REMARK SMILES IDX 21 1 20 2 18 3 19 4 17 6 13 7 14 8 91 9 15 10 16 11 12 12
REMARK SMILES IDX 11 13 8 14 9 15 92 16 10 18 7 19 6 20 3 21 4 22 93 23 5 24
REMARK SMILES IDX 2 25 1 26 22 27 23 28 24 29 25 30 26 31 27 33 28 34 29 35
REMARK SMILES IDX 90 36 30 37 89 38 31 39 32 40 33 41 83 42 34 43 88 44 82 45
REMARK SMILES IDX 84 46 35 47 87 48 81 49 80 50 36 52 68 53 48 54 67 55 49 56
REMARK SMILES IDX 52 57 66 58 85 59 50 60 51 61 65 63 86 64 53 65 37 66 38 67
REMARK SMILES IDX 46 68 39 69 40 70 44 71 47 72 41 73 42 74 45 75 43 76 69 77
REMARK SMILES IDX 70 78 78 79 71 80 72 81 76 82 79 83 73 84 74 85 77 86 75 87
REMARK SMILES IDX 54 88 55 89 63 90 56 91 57 92 61 93 64 94 58 95 59 96 62 97
REMARK SMILES IDX 60 98
REMARK H PARENT 20 5 8 17 25 32 84 51 52 62
REMARK Flexibility Score: inf
ROOT
ATOM      1  C   UNL A   1      31.404  28.805  24.345  1.00  0.00     0.116 C 
ENDROOT
BRANCH   1   2
ATOM      2  N   UNL A   1      32.595  29.121  23.568  1.00  0.00    -0.352 N 
ATOM      3  C   UNL A   1      33.525  28.281  22.980  1.00  0.00     0.251 C 
ATOM      4  O   UNL A   1      34.471  28.767  22.367  1.00  0.00    -0.269 OA
ATOM      5  H   UNL A   1      32.765  30.082  23.441  1.00  0.00     0.163 HD
BRANCH   3   6
ATOM      6  C   UNL A   1      33.433  26.806  23.145  1.00  0.00     0.040 A 
ATOM      7  C   UNL A   1      34.239  24.806  24.246  1.00  0.00    -0.047 A 
ATOM      8  C   UNL A   1      33.721  24.045  23.192  1.00  0.00     0.004 A 
ATOM      9  C   UNL A   1      33.976  26.174  24.263  1.00  0.00     0.017 A 
ATOM     10  C   UNL A   1      32.999  24.648  22.159  1.00  0.00     0.001 A 
ATOM     11  C   UNL A   1      32.886  26.036  22.116  1.00  0.00     0.014 A 
BRANCH   7  12
ATOM     12  C   UNL A   1      35.217  24.182  25.217  1.00  0.00     0.045 C 
BRANCH  12  13
ATOM     13  C   UNL A   1      34.626  23.502  26.458  1.00  0.00     0.054 C 
ATOM     14  N   UNL A   1      33.367  21.442  26.532  1.00  0.00    -0.327 N 
ATOM     15  C   UNL A   1      32.550  22.500  27.126  1.00  0.00     0.263 C 
ATOM     16  C   UNL A   1      34.728  21.971  26.397  1.00  0.00     0.266 C 
ATOM     17  H   UNL A   1      33.369  20.632  27.151  1.00  0.00     0.348 HD
ATOM     18  C   UNL A   1      33.142  23.804  26.639  1.00  0.00     0.071 C 
BRANCH  14  19
ATOM     19  C   UNL A   1      32.819  20.861  25.291  1.00  0.00     0.364 C 
BRANCH  19  20
ATOM     20  C   UNL A   1      33.024  19.402  25.045  1.00  0.00     0.281 A 
ATOM     21  C   UNL A   1      33.678  17.457  24.617  1.00  0.00     0.171 A 
ATOM     22  N   UNL A   1      32.435  17.269  25.079  1.00  0.00    -0.062 NA
ATOM     23  N   UNL A   1      34.081  18.769  24.578  1.00  0.00    -0.191 NA
ATOM     24  O   UNL A   1      31.996  18.564  25.368  1.00  0.00    -0.333 OA
BRANCH  21  25
ATOM     25  C   UNL A   1      34.597  16.346  24.256  1.00  0.00     0.078 C 
ATOM     26  C   UNL A   1      35.513  15.878  25.376  1.00  0.00     0.012 C 
ENDBRANCH  21  25
ENDBRANCH  19  20
ENDBRANCH  14  19
ENDBRANCH  12  13
ENDBRANCH   7  12
ENDBRANCH   3   6
ENDBRANCH   1   2
BRANCH   1  27
ATOM     27  C   UNL A   1      31.492  29.117  25.831  1.00  0.00     0.023 C 
BRANCH  27  28
ATOM     28  C   UNL A   1      32.325  28.159  26.669  1.00  0.00     0.023 C 
BRANCH  28  29
ATOM     29  C   UNL A   1      33.705  28.656  27.073  1.00  0.00     0.116 C 
BRANCH  29  30
ATOM     30  N   UNL A   1      33.712  29.998  27.641  1.00  0.00    -0.352 N 
ATOM     31  C   UNL A   1      34.726  30.674  28.279  1.00  0.00     0.251 C 
ATOM     32  H   UNL A   1      32.866  30.495  27.554  1.00  0.00     0.163 HD
ATOM     33  O   UNL A   1      34.526  31.787  28.757  1.00  0.00    -0.269 OA
BRANCH  31  34
ATOM     34  C   UNL A   1      36.049  30.033  28.435  1.00  0.00     0.039 A 
ATOM     35  C   UNL A   1      36.985  30.157  27.406  1.00  0.00     0.014 A 
ATOM     36  C   UNL A   1      36.384  29.362  29.614  1.00  0.00     0.014 A 
ATOM     37  C   UNL A   1      38.290  29.700  27.602  1.00  0.00     0.010 A 
ATOM     38  C   UNL A   1      37.704  28.989  29.841  1.00  0.00     0.010 A 
ATOM     39  C   UNL A   1      38.674  29.163  28.842  1.00  0.00    -0.014 A 
BRANCH  39  40
ATOM     40  C   UNL A   1      40.083  28.789  29.122  1.00  0.00     0.031 A 
ATOM     41  C   UNL A   1      40.996  29.757  29.821  1.00  0.00     0.074 A 
ATOM     42  C   UNL A   1      40.566  27.613  28.671  1.00  0.00     0.049 A 
ATOM     43  N   UNL A   1      42.277  29.657  30.070  1.00  0.00    -0.248 NA
ATOM     44  C   UNL A   1      40.394  31.023  30.269  1.00  0.00     0.031 C 
ATOM     45  C   UNL A   1      39.799  26.612  27.928  1.00  0.00     0.029 A 
ATOM     46  N   UNL A   1      41.823  27.067  28.759  1.00  0.00    -0.354 N 
ATOM     47  C   UNL A   1      42.635  30.849  30.684  1.00  0.00     0.074 A 
ATOM     48  C   UNL A   1      41.452  31.680  30.720  1.00  0.00     0.031 C 
ATOM     49  C   UNL A   1      40.593  25.565  27.648  1.00  0.00     0.029 A 
ATOM     50  C   UNL A   1      41.933  25.837  28.158  1.00  0.00     0.049 A 
ATOM     51  H   UNL A   1      42.573  27.515  29.211  1.00  0.00     0.167 HD
ATOM     52  C   UNL A   1      43.837  31.210  31.193  1.00  0.00     0.037 A 
ATOM     53  C   UNL A   1      42.999  25.023  28.027  1.00  0.00     0.037 A 
ATOM     54  C   UNL A   1      45.005  30.369  31.186  1.00  0.00     0.049 A 
ATOM     55  C   UNL A   1      44.319  25.442  28.613  1.00  0.00     0.074 A 
ATOM     56  C   UNL A   1      46.249  30.615  31.738  1.00  0.00     0.029 A 
ATOM     57  N   UNL A   1      45.068  29.115  30.597  1.00  0.00    -0.354 N 
ATOM     58  N   UNL A   1      44.629  26.542  29.255  1.00  0.00    -0.248 NA
ATOM     59  C   UNL A   1      45.439  24.501  28.462  1.00  0.00     0.031 C 
ATOM     60  C   UNL A   1      47.079  29.527  31.449  1.00  0.00     0.029 A 
ATOM     61  C   UNL A   1      46.338  28.582  30.757  1.00  0.00     0.049 A 
ATOM     62  H   UNL A   1      44.323  28.668  30.134  1.00  0.00     0.167 HD
ATOM     63  C   UNL A   1      45.964  26.416  29.609  1.00  0.00     0.074 A 
ATOM     64  C   UNL A   1      46.405  25.125  29.121  1.00  0.00     0.031 C 
ATOM     65  C   UNL A   1      46.756  27.291  30.276  1.00  0.00     0.037 A 
BRANCH  52  66
ATOM     66  C   UNL A   1      43.946  32.573  31.810  1.00  0.00     0.064 A 
ATOM     67  C   UNL A   1      44.311  33.697  31.052  1.00  0.00     0.173 A 
ATOM     68  C   UNL A   1      43.652  32.767  33.168  1.00  0.00     0.173 A 
ATOM     69  F   UNL A   1      44.615  33.563  29.752  1.00  0.00    -0.203 F 
ATOM     70  C   UNL A   1      44.410  34.956  31.636  1.00  0.00     0.198 A 
ATOM     71  C   UNL A   1      43.722  34.034  33.743  1.00  0.00     0.198 A 
ATOM     72  F   UNL A   1      43.293  31.729  33.937  1.00  0.00    -0.203 F 
ATOM     73  F   UNL A   1      44.811  36.003  30.903  1.00  0.00    -0.200 F 
ATOM     74  C   UNL A   1      44.108  35.125  32.979  1.00  0.00     0.200 A 
ATOM     75  F   UNL A   1      43.419  34.198  35.038  1.00  0.00    -0.200 F 
ATOM     76  F   UNL A   1      44.197  36.339  33.539  1.00  0.00    -0.200 F 
ENDBRANCH  52  66
BRANCH  53  77
ATOM     77  C   UNL A   1      42.854  23.714  27.338  1.00  0.00     0.064 A 
ATOM     78  C   UNL A   1      43.235  23.563  25.998  1.00  0.00     0.173 A 
ATOM     79  C   UNL A   1      42.329  22.593  27.998  1.00  0.00     0.173 A 
ATOM     80  F   UNL A   1      43.722  24.612  25.318  1.00  0.00    -0.203 F 
ATOM     81  C   UNL A   1      43.077  22.348  25.336  1.00  0.00     0.198 A 
ATOM     82  C   UNL A   1      42.197  21.370  27.344  1.00  0.00     0.198 A 
ATOM     83  F   UNL A   1      41.955  22.684  29.282  1.00  0.00    -0.203 F 
ATOM     84  F   UNL A   1      43.407  22.243  24.042  1.00  0.00    -0.200 F 
ATOM     85  C   UNL A   1      42.563  21.250  26.011  1.00  0.00     0.200 A 
ATOM     86  F   UNL A   1      41.713  20.309  28.003  1.00  0.00    -0.200 F 
ATOM     87  F   UNL A   1      42.415  20.080  25.376  1.00  0.00    -0.200 F 
ENDBRANCH  53  77
BRANCH  65  88
ATOM     88  C   UNL A   1      48.169  26.868  30.552  1.00  0.00     0.064 A 
ATOM     89  C   UNL A   1      49.217  27.188  29.677  1.00  0.00     0.173 A 
ATOM     90  C   UNL A   1      48.483  26.171  31.729  1.00  0.00     0.173 A 
ATOM     91  F   UNL A   1      48.966  27.839  28.531  1.00  0.00    -0.203 F 
ATOM     92  C   UNL A   1      50.526  26.806  29.960  1.00  0.00     0.198 A 
ATOM     93  C   UNL A   1      49.796  25.816  32.021  1.00  0.00     0.198 A 
ATOM     94  F   UNL A   1      47.516  25.847  32.601  1.00  0.00    -0.203 F 
ATOM     95  F   UNL A   1      51.505  27.084  29.089  1.00  0.00    -0.200 F 
ATOM     96  C   UNL A   1      50.815  26.127  31.134  1.00  0.00     0.200 A 
ATOM     97  F   UNL A   1      50.076  25.172  33.163  1.00  0.00    -0.200 F 
ATOM     98  F   UNL A   1      52.077  25.768  31.409  1.00  0.00    -0.200 F 
ENDBRANCH  65  88
ENDBRANCH  39  40
ENDBRANCH  31  34
ENDBRANCH  29  30
ENDBRANCH  28  29
ENDBRANCH  27  28
ENDBRANCH   1  27
TORSDOF 16
ENDMDL
