MODEL 1
REMARK VINA RESULT:     -13.7      0.000      0.000
REMARK SMILES Cc1ccc2cc(C[N@H+]3CC[NH2+][C@H](C(=O)NCCCCNC(=O)c4ccc(-c5c6nc(c(-c7c(F)c(F)c(F)c(F)c7F)c7ccc([nH]7)c(-c7c(F)c(F)c(F)c(F)c7F)c7nc(c(-c8c(F)c(F)c(F)c(F)c8F)c8ccc5[nH]8)C=C7)C=C6)cc4)C3)c(N3CCOCC3)nc2c1
REMARK SMILES IDX 18 1 17 2 16 3 14 4 15 5 13 7 9 8 10 9 87 10 11 12 12 13
REMARK SMILES IDX 8 16 7 17 1 18 2 19 3 20 97 21 4 22 96 23 5 24 95 25 6 26
REMARK SMILES IDX 88 27 89 28 90 29 94 30 91 31 93 32 92 33 19 34 20 35 21 36
REMARK SMILES IDX 22 37 23 39 24 40 25 41 86 42 26 43 85 44 27 45 28 46 29 47
REMARK SMILES IDX 79 48 30 49 84 50 78 51 80 52 31 53 83 54 77 55 76 56 32 58
REMARK SMILES IDX 64 59 44 60 63 61 45 62 48 63 62 64 81 65 46 66 47 67 61 69
REMARK SMILES IDX 82 70 49 71 33 72 34 73 42 74 35 75 36 76 40 77 43 78 37 79
REMARK SMILES IDX 38 80 41 81 39 82 65 83 66 84 74 85 67 86 68 87 72 88 75 89
REMARK SMILES IDX 69 90 70 91 73 92 71 93 50 94 51 95 59 96 52 97 53 98 57 99
REMARK SMILES IDX 60 100 54 101 55 102 58 103 56 104
REMARK H PARENT 16 6 9 11 12 14 12 15 21 38 80 57 48 68
REMARK Flexibility Score: inf
ROOT
ATOM      1  C   UNL A   1      35.406  23.266  26.379  1.00  0.00     0.023 C 
ENDROOT
BRANCH   1   2
ATOM      2  C   UNL A   1      33.904  23.321  26.683  1.00  0.00     0.116 C 
BRANCH   2   3
ATOM      3  N   UNL A   1      33.120  22.189  26.177  1.00  0.00    -0.351 N 
ATOM      4  C   UNL A   1      32.369  22.133  25.006  1.00  0.00     0.284 C 
ATOM      5  O   UNL A   1      31.806  21.084  24.692  1.00  0.00    -0.268 OA
ATOM      6  H   UNL A   1      33.124  21.375  26.730  1.00  0.00     0.163 HD
BRANCH   4   7
ATOM      7  C   UNL A   1      32.300  23.404  24.148  1.00  0.00     0.328 C 
ATOM      8  N   UNL A   1      30.802  24.978  22.984  1.00  0.00    -0.321 N 
ATOM      9  C   UNL A   1      31.870  25.373  22.068  1.00  0.00     0.324 C 
ATOM     10  C   UNL A   1      30.957  23.597  23.450  1.00  0.00     0.339 C 
ATOM     11  H   UNL A   1      29.958  24.959  22.411  1.00  0.00     0.348 HD
ATOM     12  C   UNL A   1      33.295  24.788  22.343  1.00  0.00     0.323 C 
ATOM     13  N   UNL A   1      33.449  23.590  23.214  1.00  0.00    -0.327 N 
ATOM     14  H   UNL A   1      34.302  23.693  23.763  1.00  0.00     0.347 HD
ATOM     15  H   UNL A   1      33.487  22.771  22.606  1.00  0.00     0.347 HD
BRANCH   8  16
ATOM     16  C   UNL A   1      30.300  25.988  23.937  1.00  0.00     0.303 C 
BRANCH  16  17
ATOM     17  C   UNL A   1      31.074  27.223  24.372  1.00  0.00     0.049 A 
ATOM     18  C   UNL A   1      34.476  31.484  27.977  1.00  0.00     0.044 C 
ATOM     19  C   UNL A   1      33.852  30.353  27.215  1.00  0.00    -0.049 A 
ATOM     20  C   UNL A   1      34.235  29.054  27.537  1.00  0.00     0.004 A 
ATOM     21  C   UNL A   1      32.859  30.560  26.222  1.00  0.00     0.032 A 
ATOM     22  C   UNL A   1      33.703  28.001  26.824  1.00  0.00     0.010 A 
ATOM     23  C   UNL A   1      32.255  29.502  25.519  1.00  0.00     0.073 A 
ATOM     24  C   UNL A   1      32.746  28.240  25.826  1.00  0.00     0.001 A 
ATOM     25  N   UNL A   1      31.265  29.631  24.589  1.00  0.00    -0.230 NA
ATOM     26  C   UNL A   1      32.220  27.163  25.142  1.00  0.00     0.023 A 
ATOM     27  C   UNL A   1      30.667  28.520  24.045  1.00  0.00     0.138 A 
BRANCH  27  28
ATOM     28  N   UNL A   1      29.771  28.728  23.025  1.00  0.00    -0.352 N 
ATOM     29  C   UNL A   1      30.041  29.479  21.805  1.00  0.00     0.146 C 
ATOM     30  C   UNL A   1      28.391  28.292  23.233  1.00  0.00     0.146 C 
ATOM     31  C   UNL A   1      28.977  30.581  21.594  1.00  0.00     0.181 C 
ATOM     32  C   UNL A   1      27.455  29.499  23.057  1.00  0.00     0.181 C 
ATOM     33  O   UNL A   1      27.632  30.104  21.764  1.00  0.00    -0.378 OA
ENDBRANCH  27  28
ENDBRANCH  16  17
ENDBRANCH   8  16
ENDBRANCH   4   7
ENDBRANCH   2   3
ENDBRANCH   1   2
BRANCH   1  34
ATOM     34  C   UNL A   1      35.920  21.953  25.787  1.00  0.00     0.023 C 
BRANCH  34  35
ATOM     35  C   UNL A   1      37.176  22.063  24.916  1.00  0.00     0.116 C 
BRANCH  35  36
ATOM     36  N   UNL A   1      38.209  21.071  25.207  1.00  0.00    -0.352 N 
ATOM     37  C   UNL A   1      39.351  21.149  25.990  1.00  0.00     0.251 C 
ATOM     38  H   UNL A   1      38.071  20.198  24.773  1.00  0.00     0.163 HD
ATOM     39  O   UNL A   1      40.120  20.204  26.052  1.00  0.00    -0.269 OA
BRANCH  37  40
ATOM     40  C   UNL A   1      39.682  22.405  26.710  1.00  0.00     0.039 A 
ATOM     41  C   UNL A   1      39.118  23.621  26.337  1.00  0.00     0.014 A 
ATOM     42  C   UNL A   1      40.623  22.371  27.748  1.00  0.00     0.014 A 
ATOM     43  C   UNL A   1      39.687  24.808  26.789  1.00  0.00     0.010 A 
ATOM     44  C   UNL A   1      41.117  23.568  28.283  1.00  0.00     0.010 A 
ATOM     45  C   UNL A   1      40.726  24.798  27.736  1.00  0.00    -0.014 A 
BRANCH  45  46
ATOM     46  C   UNL A   1      41.434  26.073  28.054  1.00  0.00     0.031 A 
ATOM     47  C   UNL A   1      42.806  26.353  27.482  1.00  0.00     0.074 A 
ATOM     48  C   UNL A   1      40.809  27.031  28.768  1.00  0.00     0.049 A 
ATOM     49  N   UNL A   1      43.545  27.432  27.592  1.00  0.00    -0.248 NA
ATOM     50  C   UNL A   1      43.439  25.288  26.685  1.00  0.00     0.031 C 
ATOM     51  C   UNL A   1      39.484  26.898  29.374  1.00  0.00     0.029 A 
ATOM     52  N   UNL A   1      41.187  28.315  29.077  1.00  0.00    -0.354 N 
ATOM     53  C   UNL A   1      44.723  27.166  26.904  1.00  0.00     0.074 A 
ATOM     54  C   UNL A   1      44.623  25.815  26.402  1.00  0.00     0.031 C 
ATOM     55  C   UNL A   1      39.135  28.068  29.931  1.00  0.00     0.029 A 
ATOM     56  C   UNL A   1      40.233  29.017  29.777  1.00  0.00     0.049 A 
ATOM     57  H   UNL A   1      42.057  28.698  28.822  1.00  0.00     0.167 HD
ATOM     58  C   UNL A   1      45.783  27.980  26.689  1.00  0.00     0.037 A 
ATOM     59  C   UNL A   1      40.243  30.277  30.254  1.00  0.00     0.037 A 
ATOM     60  C   UNL A   1      45.866  29.347  27.132  1.00  0.00     0.049 A 
ATOM     61  C   UNL A   1      41.447  31.148  30.022  1.00  0.00     0.074 A 
ATOM     62  C   UNL A   1      46.879  30.263  26.901  1.00  0.00     0.029 A 
ATOM     63  N   UNL A   1      44.904  29.994  27.887  1.00  0.00    -0.354 N 
ATOM     64  N   UNL A   1      42.534  30.888  29.337  1.00  0.00    -0.248 NA
ATOM     65  C   UNL A   1      41.432  32.483  30.638  1.00  0.00     0.031 C 
ATOM     66  C   UNL A   1      46.551  31.451  27.558  1.00  0.00     0.029 A 
ATOM     67  C   UNL A   1      45.314  31.289  28.160  1.00  0.00     0.049 A 
ATOM     68  H   UNL A   1      44.054  29.595  28.185  1.00  0.00     0.167 HD
ATOM     69  C   UNL A   1      43.327  32.024  29.438  1.00  0.00     0.074 A 
ATOM     70  C   UNL A   1      42.585  32.988  30.221  1.00  0.00     0.031 C 
ATOM     71  C   UNL A   1      44.567  32.239  28.940  1.00  0.00     0.037 A 
BRANCH  58  72
ATOM     72  C   UNL A   1      46.957  27.440  25.925  1.00  0.00     0.064 A 
ATOM     73  C   UNL A   1      47.087  27.640  24.543  1.00  0.00     0.173 A 
ATOM     74  C   UNL A   1      48.024  26.834  26.605  1.00  0.00     0.173 A 
ATOM     75  F   UNL A   1      46.092  28.210  23.847  1.00  0.00    -0.203 F 
ATOM     76  C   UNL A   1      48.243  27.254  23.870  1.00  0.00     0.198 A 
ATOM     77  C   UNL A   1      49.188  26.469  25.934  1.00  0.00     0.198 A 
ATOM     78  F   UNL A   1      47.953  26.630  27.929  1.00  0.00    -0.203 F 
ATOM     79  F   UNL A   1      48.343  27.444  22.547  1.00  0.00    -0.200 F 
ATOM     80  C   UNL A   1      49.298  26.681  24.567  1.00  0.00     0.200 A 
ATOM     81  F   UNL A   1      50.212  25.932  26.612  1.00  0.00    -0.200 F 
ATOM     82  F   UNL A   1      50.422  26.338  23.923  1.00  0.00    -0.200 F 
ENDBRANCH  58  72
BRANCH  59  83
ATOM     83  C   UNL A   1      39.077  30.786  31.026  1.00  0.00     0.064 A 
ATOM     84  C   UNL A   1      38.959  30.550  32.402  1.00  0.00     0.173 A 
ATOM     85  C   UNL A   1      38.051  31.507  30.398  1.00  0.00     0.173 A 
ATOM     86  F   UNL A   1      39.901  29.843  33.045  1.00  0.00    -0.203 F 
ATOM     87  C   UNL A   1      37.851  31.004  33.117  1.00  0.00     0.198 A 
ATOM     88  C   UNL A   1      36.963  31.990  31.119  1.00  0.00     0.198 A 
ATOM     89  F   UNL A   1      38.115  31.759  29.082  1.00  0.00    -0.203 F 
ATOM     90  F   UNL A   1      37.740  30.724  34.423  1.00  0.00    -0.200 F 
ATOM     91  C   UNL A   1      36.859  31.730  32.477  1.00  0.00     0.200 A 
ATOM     92  F   UNL A   1      36.014  32.704  30.498  1.00  0.00    -0.200 F 
ATOM     93  F   UNL A   1      35.798  32.172  33.166  1.00  0.00    -0.200 F 
ENDBRANCH  59  83
BRANCH  71  94
ATOM     94  C   UNL A   1      45.215  33.561  29.228  1.00  0.00     0.064 A 
ATOM     95  C   UNL A   1      44.993  34.671  28.401  1.00  0.00     0.173 A 
ATOM     96  C   UNL A   1      45.991  33.744  30.383  1.00  0.00     0.173 A 
ATOM     97  F   UNL A   1      44.267  34.543  27.279  1.00  0.00    -0.203 F 
ATOM     98  C   UNL A   1      45.531  35.915  28.715  1.00  0.00     0.198 A 
ATOM     99  C   UNL A   1      46.505  34.996  30.708  1.00  0.00     0.198 A 
ATOM    100  F   UNL A   1      46.225  32.715  31.211  1.00  0.00    -0.203 F 
ATOM    101  F   UNL A   1      45.328  36.957  27.895  1.00  0.00    -0.200 F 
ATOM    102  C   UNL A   1      46.278  36.079  29.872  1.00  0.00     0.200 A 
ATOM    103  F   UNL A   1      47.212  35.156  31.834  1.00  0.00    -0.200 F 
ATOM    104  F   UNL A   1      46.777  37.283  30.183  1.00  0.00    -0.200 F 
ENDBRANCH  71  94
ENDBRANCH  45  46
ENDBRANCH  37  40
ENDBRANCH  35  36
ENDBRANCH  34  35
ENDBRANCH   1  34
TORSDOF 14
ENDMDL
MODEL 2
REMARK VINA RESULT:     -13.7      4.219      7.841
REMARK SMILES Cc1ccc2cc(C[N@H+]3CC[NH2+][C@H](C(=O)NCCCCNC(=O)c4ccc(-c5c6nc(c(-c7c(F)c(F)c(F)c(F)c7F)c7ccc([nH]7)c(-c7c(F)c(F)c(F)c(F)c7F)c7nc(c(-c8c(F)c(F)c(F)c(F)c8F)c8ccc5[nH]8)C=C7)C=C6)cc4)C3)c(N3CCOCC3)nc2c1
REMARK SMILES IDX 18 1 17 2 16 3 14 4 15 5 13 7 9 8 10 9 87 10 11 12 12 13
REMARK SMILES IDX 8 16 7 17 1 18 2 19 3 20 97 21 4 22 96 23 5 24 95 25 6 26
REMARK SMILES IDX 88 27 89 28 90 29 94 30 91 31 93 32 92 33 19 34 20 35 21 36
REMARK SMILES IDX 22 37 23 39 24 40 25 41 86 42 26 43 85 44 27 45 28 46 29 47
REMARK SMILES IDX 79 48 30 49 84 50 78 51 80 52 31 53 83 54 77 55 76 56 32 58
REMARK SMILES IDX 64 59 44 60 63 61 45 62 48 63 62 64 81 65 46 66 47 67 61 69
REMARK SMILES IDX 82 70 49 71 33 72 34 73 42 74 35 75 36 76 40 77 43 78 37 79
REMARK SMILES IDX 38 80 41 81 39 82 65 83 66 84 74 85 67 86 68 87 72 88 75 89
REMARK SMILES IDX 69 90 70 91 73 92 71 93 50 94 51 95 59 96 52 97 53 98 57 99
REMARK SMILES IDX 60 100 54 101 55 102 58 103 56 104
REMARK H PARENT 16 6 9 11 12 14 12 15 21 38 80 57 48 68
REMARK Flexibility Score: inf
ROOT
ATOM      1  C   UNL A   1      31.875  30.158  26.797  1.00  0.00     0.023 C 
ENDROOT
BRANCH   1   2
ATOM      2  C   UNL A   1      31.410  29.191  25.703  1.00  0.00     0.116 C 
BRANCH   2   3
ATOM      3  N   UNL A   1      30.895  29.825  24.483  1.00  0.00    -0.351 N 
ATOM      4  C   UNL A   1      30.962  29.338  23.181  1.00  0.00     0.284 C 
ATOM      5  O   UNL A   1      30.431  29.969  22.266  1.00  0.00    -0.268 OA
ATOM      6  H   UNL A   1      30.452  30.695  24.599  1.00  0.00     0.163 HD
BRANCH   4   7
ATOM      7  C   UNL A   1      31.694  28.008  22.959  1.00  0.00     0.328 C 
ATOM      8  N   UNL A   1      33.781  26.757  23.360  1.00  0.00    -0.321 N 
ATOM      9  C   UNL A   1      33.531  25.901  22.202  1.00  0.00     0.324 C 
ATOM     10  C   UNL A   1      33.200  28.093  23.194  1.00  0.00     0.339 C 
ATOM     11  H   UNL A   1      34.789  26.918  23.356  1.00  0.00     0.348 HD
ATOM     12  C   UNL A   1      32.162  26.079  21.467  1.00  0.00     0.323 C 
ATOM     13  N   UNL A   1      31.365  27.320  21.677  1.00  0.00    -0.327 N 
ATOM     14  H   UNL A   1      30.375  27.073  21.685  1.00  0.00     0.347 HD
ATOM     15  H   UNL A   1      31.589  27.962  20.917  1.00  0.00     0.347 HD
BRANCH   8  16
ATOM     16  C   UNL A   1      33.744  26.138  24.699  1.00  0.00     0.303 C 
BRANCH  16  17
ATOM     17  C   UNL A   1      34.199  24.719  25.006  1.00  0.00     0.049 A 
ATOM     18  C   UNL A   1      37.594  19.133  24.989  1.00  0.00     0.044 C 
ATOM     19  C   UNL A   1      37.015  20.516  25.033  1.00  0.00    -0.049 A 
ATOM     20  C   UNL A   1      37.888  21.596  24.926  1.00  0.00     0.004 A 
ATOM     21  C   UNL A   1      35.620  20.755  25.132  1.00  0.00     0.032 A 
ATOM     22  C   UNL A   1      37.383  22.877  25.003  1.00  0.00     0.010 A 
ATOM     23  C   UNL A   1      35.071  22.050  25.153  1.00  0.00     0.073 A 
ATOM     24  C   UNL A   1      36.000  23.081  25.132  1.00  0.00     0.001 A 
ATOM     25  N   UNL A   1      33.739  22.346  25.200  1.00  0.00    -0.230 NA
ATOM     26  C   UNL A   1      35.526  24.375  25.189  1.00  0.00     0.023 A 
ATOM     27  C   UNL A   1      33.307  23.647  25.102  1.00  0.00     0.138 A 
BRANCH  27  28
ATOM     28  N   UNL A   1      31.965  23.876  25.284  1.00  0.00    -0.352 N 
ATOM     29  C   UNL A   1      30.960  23.876  24.229  1.00  0.00     0.146 C 
ATOM     30  C   UNL A   1      31.521  24.297  26.611  1.00  0.00     0.146 C 
ATOM     31  C   UNL A   1      30.145  25.189  24.250  1.00  0.00     0.181 C 
ATOM     32  C   UNL A   1      30.788  25.642  26.487  1.00  0.00     0.181 C 
ATOM     33  O   UNL A   1      29.689  25.548  25.565  1.00  0.00    -0.378 OA
ENDBRANCH  27  28
ENDBRANCH  16  17
ENDBRANCH   8  16
ENDBRANCH   4   7
ENDBRANCH   2   3
ENDBRANCH   1   2
BRANCH   1  34
ATOM     34  C   UNL A   1      31.243  31.550  26.771  1.00  0.00     0.023 C 
BRANCH  34  35
ATOM     35  C   UNL A   1      32.180  32.698  26.379  1.00  0.00     0.116 C 
BRANCH  35  36
ATOM     36  N   UNL A   1      32.184  33.827  27.307  1.00  0.00    -0.352 N 
ATOM     37  C   UNL A   1      33.083  34.187  28.298  1.00  0.00     0.251 C 
ATOM     38  H   UNL A   1      31.416  34.436  27.212  1.00  0.00     0.163 HD
ATOM     39  O   UNL A   1      32.862  35.154  29.008  1.00  0.00    -0.269 OA
BRANCH  37  40
ATOM     40  C   UNL A   1      34.293  33.362  28.549  1.00  0.00     0.039 A 
ATOM     41  C   UNL A   1      34.201  31.988  28.743  1.00  0.00     0.014 A 
ATOM     42  C   UNL A   1      35.541  33.990  28.647  1.00  0.00     0.014 A 
ATOM     43  C   UNL A   1      35.273  31.301  29.303  1.00  0.00     0.010 A 
ATOM     44  C   UNL A   1      36.652  33.270  29.107  1.00  0.00     0.010 A 
ATOM     45  C   UNL A   1      36.503  31.943  29.535  1.00  0.00    -0.014 A 
BRANCH  45  46
ATOM     46  C   UNL A   1      37.564  31.231  30.306  1.00  0.00     0.031 A 
ATOM     47  C   UNL A   1      38.495  30.260  29.614  1.00  0.00     0.074 A 
ATOM     48  C   UNL A   1      37.768  31.530  31.605  1.00  0.00     0.049 A 
ATOM     49  N   UNL A   1      39.518  29.601  30.106  1.00  0.00    -0.248 NA
ATOM     50  C   UNL A   1      38.251  29.985  28.188  1.00  0.00     0.031 C 
ATOM     51  C   UNL A   1      36.951  32.451  32.394  1.00  0.00     0.029 A 
ATOM     52  N   UNL A   1      38.744  31.119  32.481  1.00  0.00    -0.354 N 
ATOM     53  C   UNL A   1      40.016  28.828  29.063  1.00  0.00     0.074 A 
ATOM     54  C   UNL A   1      39.171  29.069  27.917  1.00  0.00     0.031 C 
ATOM     55  C   UNL A   1      37.489  32.580  33.616  1.00  0.00     0.029 A 
ATOM     56  C   UNL A   1      38.653  31.707  33.721  1.00  0.00     0.049 A 
ATOM     57  H   UNL A   1      39.441  30.467  32.244  1.00  0.00     0.167 HD
ATOM     58  C   UNL A   1      41.094  28.008  29.054  1.00  0.00     0.037 A 
ATOM     59  C   UNL A   1      39.412  31.552  34.824  1.00  0.00     0.037 A 
ATOM     60  C   UNL A   1      41.977  27.808  30.172  1.00  0.00     0.049 A 
ATOM     61  C   UNL A   1      40.586  30.614  34.790  1.00  0.00     0.074 A 
ATOM     62  C   UNL A   1      43.130  27.043  30.228  1.00  0.00     0.029 A 
ATOM     63  N   UNL A   1      41.812  28.377  31.423  1.00  0.00    -0.354 N 
ATOM     64  N   UNL A   1      41.061  29.921  33.784  1.00  0.00    -0.248 NA
ATOM     65  C   UNL A   1      41.324  30.425  36.048  1.00  0.00     0.031 C 
ATOM     66  C   UNL A   1      43.637  27.111  31.528  1.00  0.00     0.029 A 
ATOM     67  C   UNL A   1      42.824  27.953  32.269  1.00  0.00     0.049 A 
ATOM     68  H   UNL A   1      41.085  28.992  31.675  1.00  0.00     0.167 HD
ATOM     69  C   UNL A   1      42.150  29.220  34.285  1.00  0.00     0.074 A 
ATOM     70  C   UNL A   1      42.289  29.594  35.675  1.00  0.00     0.031 C 
ATOM     71  C   UNL A   1      42.952  28.332  33.651  1.00  0.00     0.037 A 
BRANCH  58  72
ATOM     72  C   UNL A   1      41.413  27.258  27.793  1.00  0.00     0.064 A 
ATOM     73  C   UNL A   1      42.277  27.787  26.825  1.00  0.00     0.173 A 
ATOM     74  C   UNL A   1      40.952  25.945  27.618  1.00  0.00     0.173 A 
ATOM     75  F   UNL A   1      42.741  29.040  26.945  1.00  0.00    -0.203 F 
ATOM     76  C   UNL A   1      42.671  27.027  25.727  1.00  0.00     0.198 A 
ATOM     77  C   UNL A   1      41.365  25.179  26.530  1.00  0.00     0.198 A 
ATOM     78  F   UNL A   1      40.130  25.390  28.522  1.00  0.00    -0.203 F 
ATOM     79  F   UNL A   1      43.491  27.555  24.807  1.00  0.00    -0.200 F 
ATOM     80  C   UNL A   1      42.226  25.720  25.587  1.00  0.00     0.200 A 
ATOM     81  F   UNL A   1      40.947  23.911  26.407  1.00  0.00    -0.200 F 
ATOM     82  F   UNL A   1      42.631  24.979  24.545  1.00  0.00    -0.200 F 
ENDBRANCH  58  72
BRANCH  59  83
ATOM     83  C   UNL A   1      39.067  32.290  36.069  1.00  0.00     0.064 A 
ATOM     84  C   UNL A   1      38.232  31.723  37.041  1.00  0.00     0.173 A 
ATOM     85  C   UNL A   1      39.557  33.583  36.305  1.00  0.00     0.173 A 
ATOM     86  F   UNL A   1      37.716  30.499  36.851  1.00  0.00    -0.203 F 
ATOM     87  C   UNL A   1      37.888  32.428  38.194  1.00  0.00     0.198 A 
ATOM     88  C   UNL A   1      39.241  34.273  37.472  1.00  0.00     0.198 A 
ATOM     89  F   UNL A   1      40.359  34.172  35.406  1.00  0.00    -0.203 F 
ATOM     90  F   UNL A   1      37.049  31.881  39.085  1.00  0.00    -0.200 F 
ATOM     91  C   UNL A   1      38.398  33.698  38.411  1.00  0.00     0.200 A 
ATOM     92  F   UNL A   1      39.749  35.494  37.684  1.00  0.00    -0.200 F 
ATOM     93  F   UNL A   1      38.073  34.373  39.523  1.00  0.00    -0.200 F 
ENDBRANCH  59  83
BRANCH  71  94
ATOM     94  C   UNL A   1      44.049  27.690  34.447  1.00  0.00     0.064 A 
ATOM     95  C   UNL A   1      43.860  26.446  35.066  1.00  0.00     0.173 A 
ATOM     96  C   UNL A   1      45.321  28.276  34.519  1.00  0.00     0.173 A 
ATOM     97  F   UNL A   1      42.657  25.852  35.034  1.00  0.00    -0.203 F 
ATOM     98  C   UNL A   1      44.904  25.816  35.737  1.00  0.00     0.198 A 
ATOM     99  C   UNL A   1      46.370  27.630  35.168  1.00  0.00     0.198 A 
ATOM    100  F   UNL A   1      45.555  29.461  33.935  1.00  0.00    -0.203 F 
ATOM    101  F   UNL A   1      44.693  24.639  36.345  1.00  0.00    -0.200 F 
ATOM    102  C   UNL A   1      46.160  26.402  35.778  1.00  0.00     0.200 A 
ATOM    103  F   UNL A   1      47.587  28.191  35.193  1.00  0.00    -0.200 F 
ATOM    104  F   UNL A   1      47.168  25.784  36.406  1.00  0.00    -0.200 F 
ENDBRANCH  71  94
ENDBRANCH  45  46
ENDBRANCH  37  40
ENDBRANCH  35  36
ENDBRANCH  34  35
ENDBRANCH   1  34
TORSDOF 14
ENDMDL
MODEL 3
REMARK VINA RESULT:     -13.6      4.519     10.112
REMARK SMILES Cc1ccc2cc(C[N@H+]3CC[NH2+][C@H](C(=O)NCCCCNC(=O)c4ccc(-c5c6nc(c(-c7c(F)c(F)c(F)c(F)c7F)c7ccc([nH]7)c(-c7c(F)c(F)c(F)c(F)c7F)c7nc(c(-c8c(F)c(F)c(F)c(F)c8F)c8ccc5[nH]8)C=C7)C=C6)cc4)C3)c(N3CCOCC3)nc2c1
REMARK SMILES IDX 18 1 17 2 16 3 14 4 15 5 13 7 9 8 10 9 87 10 11 12 12 13
REMARK SMILES IDX 8 16 7 17 1 18 2 19 3 20 97 21 4 22 96 23 5 24 95 25 6 26
REMARK SMILES IDX 88 27 89 28 90 29 94 30 91 31 93 32 92 33 19 34 20 35 21 36
REMARK SMILES IDX 22 37 23 39 24 40 25 41 86 42 26 43 85 44 27 45 28 46 29 47
REMARK SMILES IDX 79 48 30 49 84 50 78 51 80 52 31 53 83 54 77 55 76 56 32 58
REMARK SMILES IDX 64 59 44 60 63 61 45 62 48 63 62 64 81 65 46 66 47 67 61 69
REMARK SMILES IDX 82 70 49 71 33 72 34 73 42 74 35 75 36 76 40 77 43 78 37 79
REMARK SMILES IDX 38 80 41 81 39 82 65 83 66 84 74 85 67 86 68 87 72 88 75 89
REMARK SMILES IDX 69 90 70 91 73 92 71 93 50 94 51 95 59 96 52 97 53 98 57 99
REMARK SMILES IDX 60 100 54 101 55 102 58 103 56 104
REMARK H PARENT 16 6 9 11 12 14 12 15 21 38 80 57 48 68
REMARK Flexibility Score: inf
ROOT
ATOM      1  C   UNL A   1      32.463  30.197  26.257  1.00  0.00     0.023 C 
ENDROOT
BRANCH   1   2
ATOM      2  C   UNL A   1      31.423  29.294  25.586  1.00  0.00     0.116 C 
BRANCH   2   3
ATOM      3  N   UNL A   1      30.807  29.840  24.371  1.00  0.00    -0.351 N 
ATOM      4  C   UNL A   1      30.827  29.295  23.091  1.00  0.00     0.284 C 
ATOM      5  O   UNL A   1      30.213  29.852  22.181  1.00  0.00    -0.268 OA
ATOM      6  H   UNL A   1      30.324  30.691  24.474  1.00  0.00     0.163 HD
BRANCH   4   7
ATOM      7  C   UNL A   1      31.616  27.995  22.887  1.00  0.00     0.328 C 
ATOM      8  N   UNL A   1      33.742  26.829  23.337  1.00  0.00    -0.321 N 
ATOM      9  C   UNL A   1      33.553  25.963  22.175  1.00  0.00     0.324 C 
ATOM     10  C   UNL A   1      33.112  28.140  23.156  1.00  0.00     0.339 C 
ATOM     11  H   UNL A   1      34.742  27.029  23.357  1.00  0.00     0.348 HD
ATOM     12  C   UNL A   1      32.195  26.086  21.408  1.00  0.00     0.323 C 
ATOM     13  N   UNL A   1      31.344  27.294  21.598  1.00  0.00    -0.327 N 
ATOM     14  H   UNL A   1      30.366  27.008  21.584  1.00  0.00     0.347 HD
ATOM     15  H   UNL A   1      31.561  27.944  20.843  1.00  0.00     0.347 HD
BRANCH   8  16
ATOM     16  C   UNL A   1      33.698  26.209  24.676  1.00  0.00     0.303 C 
BRANCH  16  17
ATOM     17  C   UNL A   1      34.154  24.791  24.985  1.00  0.00     0.049 A 
ATOM     18  C   UNL A   1      37.573  19.219  25.003  1.00  0.00     0.044 C 
ATOM     19  C   UNL A   1      36.988  20.599  25.044  1.00  0.00    -0.049 A 
ATOM     20  C   UNL A   1      37.857  21.684  24.957  1.00  0.00     0.004 A 
ATOM     21  C   UNL A   1      35.590  20.832  25.118  1.00  0.00     0.032 A 
ATOM     22  C   UNL A   1      37.345  22.962  25.032  1.00  0.00     0.010 A 
ATOM     23  C   UNL A   1      35.034  22.125  25.136  1.00  0.00     0.073 A 
ATOM     24  C   UNL A   1      35.960  23.159  25.136  1.00  0.00     0.001 A 
ATOM     25  N   UNL A   1      33.701  22.415  25.159  1.00  0.00    -0.230 NA
ATOM     26  C   UNL A   1      35.479  24.451  25.191  1.00  0.00     0.023 A 
ATOM     27  C   UNL A   1      33.266  23.714  25.059  1.00  0.00     0.138 A 
BRANCH  27  28
ATOM     28  N   UNL A   1      31.920  23.936  25.218  1.00  0.00    -0.352 N 
ATOM     29  C   UNL A   1      30.929  23.906  24.149  1.00  0.00     0.146 C 
ATOM     30  C   UNL A   1      31.454  24.382  26.529  1.00  0.00     0.146 C 
ATOM     31  C   UNL A   1      30.104  25.213  24.131  1.00  0.00     0.181 C 
ATOM     32  C   UNL A   1      30.713  25.718  26.368  1.00  0.00     0.181 C 
ATOM     33  O   UNL A   1      29.627  25.596  25.432  1.00  0.00    -0.378 OA
ENDBRANCH  27  28
ENDBRANCH  16  17
ENDBRANCH   8  16
ENDBRANCH   4   7
ENDBRANCH   2   3
ENDBRANCH   1   2
BRANCH   1  34
ATOM     34  C   UNL A   1      31.933  31.508  26.840  1.00  0.00     0.023 C 
BRANCH  34  35
ATOM     35  C   UNL A   1      32.991  32.460  27.406  1.00  0.00     0.116 C 
BRANCH  35  36
ATOM     36  N   UNL A   1      32.509  33.811  27.687  1.00  0.00    -0.352 N 
ATOM     37  C   UNL A   1      32.995  34.792  28.537  1.00  0.00     0.251 C 
ATOM     38  H   UNL A   1      31.701  34.068  27.187  1.00  0.00     0.163 HD
ATOM     39  O   UNL A   1      32.396  35.848  28.664  1.00  0.00    -0.269 OA
BRANCH  37  40
ATOM     40  C   UNL A   1      34.213  34.545  29.350  1.00  0.00     0.039 A 
ATOM     41  C   UNL A   1      35.483  34.789  28.838  1.00  0.00     0.014 A 
ATOM     42  C   UNL A   1      34.080  34.004  30.635  1.00  0.00     0.014 A 
ATOM     43  C   UNL A   1      36.595  34.243  29.471  1.00  0.00     0.010 A 
ATOM     44  C   UNL A   1      35.214  33.553  31.324  1.00  0.00     0.010 A 
ATOM     45  C   UNL A   1      36.471  33.577  30.704  1.00  0.00    -0.014 A 
BRANCH  45  46
ATOM     46  C   UNL A   1      37.647  32.844  31.258  1.00  0.00     0.031 A 
ATOM     47  C   UNL A   1      38.156  33.148  32.649  1.00  0.00     0.074 A 
ATOM     48  C   UNL A   1      38.198  31.829  30.561  1.00  0.00     0.049 A 
ATOM     49  N   UNL A   1      39.121  32.567  33.323  1.00  0.00    -0.248 NA
ATOM     50  C   UNL A   1      37.507  34.247  33.384  1.00  0.00     0.031 C 
ATOM     51  C   UNL A   1      37.803  31.424  29.212  1.00  0.00     0.029 A 
ATOM     52  N   UNL A   1      39.182  30.933  30.900  1.00  0.00    -0.354 N 
ATOM     53  C   UNL A   1      39.203  33.240  34.537  1.00  0.00     0.074 A 
ATOM     54  C   UNL A   1      38.216  34.294  34.504  1.00  0.00     0.031 C 
ATOM     55  C   UNL A   1      38.493  30.328  28.861  1.00  0.00     0.029 A 
ATOM     56  C   UNL A   1      39.424  29.987  29.932  1.00  0.00     0.049 A 
ATOM     57  H   UNL A   1      39.668  30.964  31.755  1.00  0.00     0.167 HD
ATOM     58  C   UNL A   1      40.012  32.989  35.594  1.00  0.00     0.037 A 
ATOM     59  C   UNL A   1      40.304  28.967  29.900  1.00  0.00     0.037 A 
ATOM     60  C   UNL A   1      40.956  31.905  35.660  1.00  0.00     0.049 A 
ATOM     61  C   UNL A   1      41.208  28.731  31.079  1.00  0.00     0.074 A 
ATOM     62  C   UNL A   1      41.770  31.541  36.719  1.00  0.00     0.029 A 
ATOM     63  N   UNL A   1      41.208  31.011  34.634  1.00  0.00    -0.354 N 
ATOM     64  N   UNL A   1      41.243  29.356  32.230  1.00  0.00    -0.248 NA
ATOM     65  C   UNL A   1      42.203  27.656  30.950  1.00  0.00     0.031 C 
ATOM     66  C   UNL A   1      42.551  30.455  36.317  1.00  0.00     0.029 A 
ATOM     67  C   UNL A   1      42.191  30.115  35.024  1.00  0.00     0.049 A 
ATOM     68  H   UNL A   1      40.757  31.010  33.759  1.00  0.00     0.167 HD
ATOM     69  C   UNL A   1      42.257  28.750  32.961  1.00  0.00     0.074 A 
ATOM     70  C   UNL A   1      42.791  27.686  32.139  1.00  0.00     0.031 C 
ATOM     71  C   UNL A   1      42.714  29.061  34.197  1.00  0.00     0.037 A 
BRANCH  58  72
ATOM     72  C   UNL A   1      39.922  33.886  36.794  1.00  0.00     0.064 A 
ATOM     73  C   UNL A   1      40.596  35.115  36.843  1.00  0.00     0.173 A 
ATOM     74  C   UNL A   1      39.048  33.573  37.846  1.00  0.00     0.173 A 
ATOM     75  F   UNL A   1      41.446  35.458  35.864  1.00  0.00    -0.203 F 
ATOM     76  C   UNL A   1      40.397  35.998  37.901  1.00  0.00     0.198 A 
ATOM     77  C   UNL A   1      38.835  34.467  38.891  1.00  0.00     0.198 A 
ATOM     78  F   UNL A   1      38.372  32.414  37.840  1.00  0.00    -0.203 F 
ATOM     79  F   UNL A   1      41.060  37.163  37.933  1.00  0.00    -0.200 F 
ATOM     80  C   UNL A   1      39.508  35.680  38.917  1.00  0.00     0.200 A 
ATOM     81  F   UNL A   1      37.961  34.166  39.863  1.00  0.00    -0.200 F 
ATOM     82  F   UNL A   1      39.294  36.544  39.919  1.00  0.00    -0.200 F 
ENDBRANCH  58  72
BRANCH  59  83
ATOM     83  C   UNL A   1      40.392  28.102  28.693  1.00  0.00     0.064 A 
ATOM     84  C   UNL A   1      39.729  26.868  28.635  1.00  0.00     0.173 A 
ATOM     85  C   UNL A   1      41.151  28.487  27.578  1.00  0.00     0.173 A 
ATOM     86  F   UNL A   1      39.010  26.442  29.684  1.00  0.00    -0.203 F 
ATOM     87  C   UNL A   1      39.836  26.047  27.512  1.00  0.00     0.198 A 
ATOM     88  C   UNL A   1      41.230  27.682  26.445  1.00  0.00     0.198 A 
ATOM     89  F   UNL A   1      41.806  29.657  27.584  1.00  0.00    -0.203 F 
ATOM     90  F   UNL A   1      39.231  24.851  27.501  1.00  0.00    -0.200 F 
ATOM     91  C   UNL A   1      40.579  26.458  26.417  1.00  0.00     0.200 A 
ATOM     92  F   UNL A   1      41.937  28.091  25.383  1.00  0.00    -0.200 F 
ATOM     93  F   UNL A   1      40.676  25.671  25.336  1.00  0.00    -0.200 F 
ENDBRANCH  59  83
BRANCH  71  94
ATOM     94  C   UNL A   1      43.855  28.254  34.742  1.00  0.00     0.064 A 
ATOM     95  C   UNL A   1      43.629  27.052  35.427  1.00  0.00     0.173 A 
ATOM     96  C   UNL A   1      45.184  28.637  34.503  1.00  0.00     0.173 A 
ATOM     97  F   UNL A   1      42.376  26.650  35.689  1.00  0.00    -0.203 F 
ATOM     98  C   UNL A   1      44.692  26.266  35.862  1.00  0.00     0.198 A 
ATOM     99  C   UNL A   1      46.244  27.835  34.916  1.00  0.00     0.198 A 
ATOM    100  F   UNL A   1      45.452  29.774  33.844  1.00  0.00    -0.203 F 
ATOM    101  F   UNL A   1      44.452  25.134  36.540  1.00  0.00    -0.200 F 
ATOM    102  C   UNL A   1      45.997  26.653  35.598  1.00  0.00     0.200 A 
ATOM    103  F   UNL A   1      47.504  28.202  34.646  1.00  0.00    -0.200 F 
ATOM    104  F   UNL A   1      47.019  25.884  35.999  1.00  0.00    -0.200 F 
ENDBRANCH  71  94
ENDBRANCH  45  46
ENDBRANCH  37  40
ENDBRANCH  35  36
ENDBRANCH  34  35
ENDBRANCH   1  34
TORSDOF 14
ENDMDL
