MODEL 1
REMARK VINA RESULT:     -11.7      0.000      0.000
REMARK SMILES COc1cc(C(C)C)cc([C@H]([NH3+])C(=O)NCCCCNC(=O)c2ccc(-c3c4nc(c(-c5c(F)c(F)c(F)c(F)c5F)c5ccc([nH]5)c(-c5c(F)c(F)c(F)c(F)c5F)c5nc(c(-c6c(F)c(F)c(F)c(F)c6F)c6ccc3[nH]6)C=C5)C=C4)cc2)c1O
REMARK SMILES IDX 17 1 16 2 15 3 13 4 14 5 11 7 10 8 3 9 4 10 86 11 5 12 9 13
REMARK SMILES IDX 2 14 1 15 87 16 6 18 7 19 8 20 12 21 18 25 19 26 20 27 21 28
REMARK SMILES IDX 22 30 23 31 24 32 85 33 25 34 84 35 26 36 27 37 28 38 78 39
REMARK SMILES IDX 29 40 83 41 77 42 79 43 30 44 82 45 76 46 75 47 31 49 63 50
REMARK SMILES IDX 43 51 62 52 44 53 47 54 61 55 80 56 45 57 46 58 60 60 81 61
REMARK SMILES IDX 48 62 32 63 33 64 41 65 34 66 35 67 39 68 42 69 36 70 37 71
REMARK SMILES IDX 40 72 38 73 64 74 65 75 73 76 66 77 67 78 71 79 74 80 68 81
REMARK SMILES IDX 69 82 72 83 70 84 49 85 50 86 58 87 51 88 52 89 56 90 59 91
REMARK SMILES IDX 53 92 54 93 57 94 55 95
REMARK H PARENT 15 6 87 17 12 22 12 23 12 24 20 29 79 48 47 59
REMARK Flexibility Score: inf
ROOT
ATOM      1  C   UNL A   1      37.429  21.328  24.470  1.00  0.00     0.023 C 
ENDROOT
BRANCH   1   2
ATOM      2  C   UNL A   1      37.275  22.457  25.485  1.00  0.00     0.116 C 
BRANCH   2   3
ATOM      3  N   UNL A   1      36.234  22.206  26.470  1.00  0.00    -0.351 N 
ATOM      4  C   UNL A   1      34.887  22.004  26.319  1.00  0.00     0.283 C 
ATOM      5  O   UNL A   1      34.286  21.563  27.307  1.00  0.00    -0.268 OA
ATOM      6  H   UNL A   1      36.551  22.176  27.403  1.00  0.00     0.163 HD
BRANCH   4   7
ATOM      7  C   UNL A   1      34.119  22.324  25.001  1.00  0.00     0.306 C 
BRANCH   7   8
ATOM      8  C   UNL A   1      34.055  23.796  24.598  1.00  0.00     0.065 A 
ATOM      9  C   UNL A   1      33.758  25.532  22.893  1.00  0.00     0.161 A 
ATOM     10  C   UNL A   1      33.524  26.475  23.900  1.00  0.00     0.054 A 
ATOM     11  C   UNL A   1      33.996  24.196  23.248  1.00  0.00     0.167 A 
ATOM     12  C   UNL A   1      33.600  26.120  25.249  1.00  0.00    -0.041 A 
ATOM     13  C   UNL A   1      33.953  24.805  25.568  1.00  0.00     0.018 A 
BRANCH   9  14
ATOM     14  O   UNL A   1      33.645  26.041  21.626  1.00  0.00    -0.493 OA
ATOM     15  C   UNL A   1      32.344  26.033  21.052  1.00  0.00     0.278 C 
ENDBRANCH   9  14
BRANCH  11  16
ATOM     16  O   UNL A   1      34.135  23.254  22.266  1.00  0.00    -0.504 OA
ATOM     17  H   UNL A   1      34.456  22.400  22.479  1.00  0.00     0.293 HD
ENDBRANCH  11  16
BRANCH  12  18
ATOM     18  C   UNL A   1      33.244  27.074  26.375  1.00  0.00     0.013 C 
ATOM     19  C   UNL A   1      34.053  28.366  26.302  1.00  0.00     0.012 C 
ATOM     20  C   UNL A   1      31.740  27.354  26.440  1.00  0.00     0.012 C 
ENDBRANCH  12  18
ENDBRANCH   7   8
BRANCH   7  21
ATOM     21  N   UNL A   1      32.784  21.688  25.021  1.00  0.00    -0.343 N 
ATOM     22  H   UNL A   1      32.676  21.150  25.881  1.00  0.00     0.345 HD
ATOM     23  H   UNL A   1      32.693  21.067  24.218  1.00  0.00     0.345 HD
ATOM     24  H   UNL A   1      32.064  22.409  24.978  1.00  0.00     0.345 HD
ENDBRANCH   7  21
ENDBRANCH   4   7
ENDBRANCH   2   3
ENDBRANCH   1   2
BRANCH   1  25
ATOM     25  C   UNL A   1      38.095  20.056  25.003  1.00  0.00     0.023 C 
BRANCH  25  26
ATOM     26  C   UNL A   1      39.224  20.259  26.013  1.00  0.00     0.116 C 
BRANCH  26  27
ATOM     27  N   UNL A   1      40.214  19.194  25.991  1.00  0.00    -0.352 N 
ATOM     28  C   UNL A   1      41.587  19.266  26.088  1.00  0.00     0.251 C 
ATOM     29  H   UNL A   1      39.849  18.285  25.893  1.00  0.00     0.163 HD
ATOM     30  O   UNL A   1      42.270  18.269  25.925  1.00  0.00    -0.269 OA
BRANCH  28  31
ATOM     31  C   UNL A   1      42.236  20.569  26.358  1.00  0.00     0.039 A 
ATOM     32  C   UNL A   1      42.597  21.379  25.278  1.00  0.00     0.014 A 
ATOM     33  C   UNL A   1      42.473  20.997  27.666  1.00  0.00     0.014 A 
ATOM     34  C   UNL A   1      43.116  22.655  25.512  1.00  0.00     0.010 A 
ATOM     35  C   UNL A   1      42.918  22.295  27.898  1.00  0.00     0.010 A 
ATOM     36  C   UNL A   1      43.239  23.140  26.824  1.00  0.00    -0.014 A 
BRANCH  36  37
ATOM     37  C   UNL A   1      43.684  24.532  27.094  1.00  0.00     0.031 A 
ATOM     38  C   UNL A   1      42.707  25.557  27.595  1.00  0.00     0.074 A 
ATOM     39  C   UNL A   1      44.952  24.892  26.817  1.00  0.00     0.049 A 
ATOM     40  N   UNL A   1      42.889  26.834  27.829  1.00  0.00    -0.248 NA
ATOM     41  C   UNL A   1      41.333  25.094  27.836  1.00  0.00     0.031 C 
ATOM     42  C   UNL A   1      45.986  24.004  26.282  1.00  0.00     0.029 A 
ATOM     43  N   UNL A   1      45.586  26.104  26.937  1.00  0.00    -0.354 N 
ATOM     44  C   UNL A   1      41.652  27.326  28.222  1.00  0.00     0.074 A 
ATOM     45  C   UNL A   1      40.717  26.226  28.145  1.00  0.00     0.031 C 
ATOM     46  C   UNL A   1      47.132  24.692  26.153  1.00  0.00     0.029 A 
ATOM     47  C   UNL A   1      46.906  26.075  26.556  1.00  0.00     0.049 A 
ATOM     48  H   UNL A   1      45.138  26.917  27.264  1.00  0.00     0.167 HD
ATOM     49  C   UNL A   1      41.331  28.577  28.630  1.00  0.00     0.037 A 
ATOM     50  C   UNL A   1      47.829  27.056  26.534  1.00  0.00     0.037 A 
ATOM     51  C   UNL A   1      42.271  29.663  28.732  1.00  0.00     0.049 A 
ATOM     52  C   UNL A   1      47.443  28.440  26.980  1.00  0.00     0.074 A 
ATOM     53  C   UNL A   1      42.063  30.943  29.215  1.00  0.00     0.029 A 
ATOM     54  N   UNL A   1      43.600  29.596  28.337  1.00  0.00    -0.354 N 
ATOM     55  N   UNL A   1      46.292  28.876  27.429  1.00  0.00    -0.248 NA
ATOM     56  C   UNL A   1      48.490  29.470  26.916  1.00  0.00     0.031 C 
ATOM     57  C   UNL A   1      43.249  31.668  29.059  1.00  0.00     0.029 A 
ATOM     58  C   UNL A   1      44.214  30.824  28.531  1.00  0.00     0.049 A 
ATOM     59  H   UNL A   1      44.041  28.796  27.970  1.00  0.00     0.167 HD
ATOM     60  C   UNL A   1      46.482  30.217  27.732  1.00  0.00     0.074 A 
ATOM     61  C   UNL A   1      47.865  30.522  27.423  1.00  0.00     0.031 C 
ATOM     62  C   UNL A   1      45.592  31.114  28.225  1.00  0.00     0.037 A 
BRANCH  49  63
ATOM     63  C   UNL A   1      39.895  28.840  28.985  1.00  0.00     0.064 A 
ATOM     64  C   UNL A   1      39.414  28.676  30.294  1.00  0.00     0.173 A 
ATOM     65  C   UNL A   1      38.987  29.272  28.005  1.00  0.00     0.173 A 
ATOM     66  F   UNL A   1      40.236  28.256  31.268  1.00  0.00    -0.203 F 
ATOM     67  C   UNL A   1      38.072  28.892  30.598  1.00  0.00     0.198 A 
ATOM     68  C   UNL A   1      37.654  29.520  28.320  1.00  0.00     0.198 A 
ATOM     69  F   UNL A   1      39.394  29.452  26.740  1.00  0.00    -0.203 F 
ATOM     70  F   UNL A   1      37.624  28.665  31.840  1.00  0.00    -0.200 F 
ATOM     71  C   UNL A   1      37.195  29.318  29.613  1.00  0.00     0.200 A 
ATOM     72  F   UNL A   1      36.810  29.944  27.370  1.00  0.00    -0.200 F 
ATOM     73  F   UNL A   1      35.904  29.524  29.907  1.00  0.00    -0.200 F 
ENDBRANCH  49  63
BRANCH  50  74
ATOM     74  C   UNL A   1      49.222  26.752  26.117  1.00  0.00     0.064 A 
ATOM     75  C   UNL A   1      49.628  26.951  24.790  1.00  0.00     0.173 A 
ATOM     76  C   UNL A   1      50.174  26.270  27.026  1.00  0.00     0.173 A 
ATOM     77  F   UNL A   1      48.747  27.391  23.880  1.00  0.00    -0.203 F 
ATOM     78  C   UNL A   1      50.931  26.669  24.385  1.00  0.00     0.198 A 
ATOM     79  C   UNL A   1      51.484  26.012  26.626  1.00  0.00     0.198 A 
ATOM     80  F   UNL A   1      49.836  26.066  28.308  1.00  0.00    -0.203 F 
ATOM     81  F   UNL A   1      51.281  26.834  23.103  1.00  0.00    -0.200 F 
ATOM     82  C   UNL A   1      51.859  26.206  25.305  1.00  0.00     0.200 A 
ATOM     83  F   UNL A   1      52.382  25.578  27.521  1.00  0.00    -0.200 F 
ATOM     84  F   UNL A   1      53.114  25.942  24.917  1.00  0.00    -0.200 F 
ENDBRANCH  50  74
BRANCH  62  85
ATOM     85  C   UNL A   1      46.094  32.503  28.499  1.00  0.00     0.064 A 
ATOM     86  C   UNL A   1      46.009  33.521  27.538  1.00  0.00     0.173 A 
ATOM     87  C   UNL A   1      46.632  32.827  29.754  1.00  0.00     0.173 A 
ATOM     88  F   UNL A   1      45.517  33.258  26.317  1.00  0.00    -0.203 F 
ATOM     89  C   UNL A   1      46.466  34.807  27.816  1.00  0.00     0.198 A 
ATOM     90  C   UNL A   1      47.059  34.121  30.038  1.00  0.00     0.198 A 
ATOM     91  F   UNL A   1      46.731  31.891  30.710  1.00  0.00    -0.203 F 
ATOM     92  F   UNL A   1      46.419  35.752  26.867  1.00  0.00    -0.200 F 
ATOM     93  C   UNL A   1      46.984  35.108  29.066  1.00  0.00     0.200 A 
ATOM     94  F   UNL A   1      47.546  34.413  31.252  1.00  0.00    -0.200 F 
ATOM     95  F   UNL A   1      47.416  36.347  29.334  1.00  0.00    -0.200 F 
ENDBRANCH  62  85
ENDBRANCH  36  37
ENDBRANCH  28  31
ENDBRANCH  26  27
ENDBRANCH  25  26
ENDBRANCH   1  25
TORSDOF 16
ENDMDL
MODEL 2
REMARK VINA RESULT:     -11.7      5.911     11.312
REMARK SMILES COc1cc(C(C)C)cc([C@H]([NH3+])C(=O)NCCCCNC(=O)c2ccc(-c3c4nc(c(-c5c(F)c(F)c(F)c(F)c5F)c5ccc([nH]5)c(-c5c(F)c(F)c(F)c(F)c5F)c5nc(c(-c6c(F)c(F)c(F)c(F)c6F)c6ccc3[nH]6)C=C5)C=C4)cc2)c1O
REMARK SMILES IDX 17 1 16 2 15 3 13 4 14 5 11 7 10 8 3 9 4 10 86 11 5 12 9 13
REMARK SMILES IDX 2 14 1 15 87 16 6 18 7 19 8 20 12 21 18 25 19 26 20 27 21 28
REMARK SMILES IDX 22 30 23 31 24 32 85 33 25 34 84 35 26 36 27 37 28 38 78 39
REMARK SMILES IDX 29 40 83 41 77 42 79 43 30 44 82 45 76 46 75 47 31 49 63 50
REMARK SMILES IDX 43 51 62 52 44 53 47 54 61 55 80 56 45 57 46 58 60 60 81 61
REMARK SMILES IDX 48 62 32 63 33 64 41 65 34 66 35 67 39 68 42 69 36 70 37 71
REMARK SMILES IDX 40 72 38 73 64 74 65 75 73 76 66 77 67 78 71 79 74 80 68 81
REMARK SMILES IDX 69 82 72 83 70 84 49 85 50 86 58 87 51 88 52 89 56 90 59 91
REMARK SMILES IDX 53 92 54 93 57 94 55 95
REMARK H PARENT 15 6 87 17 12 22 12 23 12 24 20 29 79 48 47 59
REMARK Flexibility Score: inf
ROOT
ATOM      1  C   UNL A   1      31.647  30.794  25.941  1.00  0.00     0.023 C 
ENDROOT
BRANCH   1   2
ATOM      2  C   UNL A   1      32.927  29.994  26.158  1.00  0.00     0.116 C 
BRANCH   2   3
ATOM      3  N   UNL A   1      33.638  29.702  24.923  1.00  0.00    -0.351 N 
ATOM      4  C   UNL A   1      33.353  28.822  23.910  1.00  0.00     0.283 C 
ATOM      5  O   UNL A   1      33.998  28.966  22.864  1.00  0.00    -0.268 OA
ATOM      6  H   UNL A   1      34.464  30.224  24.792  1.00  0.00     0.163 HD
BRANCH   4   7
ATOM      7  C   UNL A   1      32.302  27.680  24.044  1.00  0.00     0.306 C 
BRANCH   7   8
ATOM      8  C   UNL A   1      32.714  26.480  24.893  1.00  0.00     0.065 A 
ATOM      9  C   UNL A   1      32.144  24.638  26.407  1.00  0.00     0.161 A 
ATOM     10  C   UNL A   1      33.374  24.032  26.128  1.00  0.00     0.054 A 
ATOM     11  C   UNL A   1      31.813  25.842  25.769  1.00  0.00     0.167 A 
ATOM     12  C   UNL A   1      34.302  24.648  25.284  1.00  0.00    -0.041 A 
ATOM     13  C   UNL A   1      33.987  25.904  24.757  1.00  0.00     0.018 A 
BRANCH   9  14
ATOM     14  O   UNL A   1      31.350  23.906  27.250  1.00  0.00    -0.493 OA
ATOM     15  C   UNL A   1      30.487  22.953  26.642  1.00  0.00     0.278 C 
ENDBRANCH   9  14
BRANCH  11  16
ATOM     16  O   UNL A   1      30.576  26.391  25.969  1.00  0.00    -0.504 OA
ATOM     17  H   UNL A   1      29.851  26.116  25.442  1.00  0.00     0.293 HD
ENDBRANCH  11  16
BRANCH  12  18
ATOM     18  C   UNL A   1      35.600  23.982  24.860  1.00  0.00     0.013 C 
ATOM     19  C   UNL A   1      36.462  23.600  26.059  1.00  0.00     0.012 C 
ATOM     20  C   UNL A   1      35.358  22.785  23.936  1.00  0.00     0.012 C 
ENDBRANCH  12  18
ENDBRANCH   7   8
BRANCH   7  21
ATOM     21  N   UNL A   1      31.810  27.281  22.708  1.00  0.00    -0.343 N 
ATOM     22  H   UNL A   1      30.829  27.009  22.774  1.00  0.00     0.345 HD
ATOM     23  H   UNL A   1      32.359  26.493  22.365  1.00  0.00     0.345 HD
ATOM     24  H   UNL A   1      31.902  28.066  22.063  1.00  0.00     0.345 HD
ENDBRANCH   7  21
ENDBRANCH   4   7
ENDBRANCH   2   3
ENDBRANCH   1   2
BRANCH   1  25
ATOM     25  C   UNL A   1      31.429  31.957  26.914  1.00  0.00     0.023 C 
BRANCH  25  26
ATOM     26  C   UNL A   1      32.674  32.752  27.303  1.00  0.00     0.116 C 
BRANCH  26  27
ATOM     27  N   UNL A   1      32.394  34.145  27.614  1.00  0.00    -0.352 N 
ATOM     28  C   UNL A   1      32.980  34.974  28.545  1.00  0.00     0.251 C 
ATOM     29  H   UNL A   1      31.679  34.557  27.077  1.00  0.00     0.163 HD
ATOM     30  O   UNL A   1      32.527  36.088  28.751  1.00  0.00    -0.269 OA
BRANCH  28  31
ATOM     31  C   UNL A   1      34.145  34.496  29.323  1.00  0.00     0.039 A 
ATOM     32  C   UNL A   1      33.927  33.909  30.573  1.00  0.00     0.014 A 
ATOM     33  C   UNL A   1      35.443  34.610  28.818  1.00  0.00     0.014 A 
ATOM     34  C   UNL A   1      35.001  33.360  31.277  1.00  0.00     0.010 A 
ATOM     35  C   UNL A   1      36.499  33.996  29.485  1.00  0.00     0.010 A 
ATOM     36  C   UNL A   1      36.289  33.359  30.718  1.00  0.00    -0.014 A 
BRANCH  36  37
ATOM     37  C   UNL A   1      37.426  32.684  31.397  1.00  0.00     0.031 A 
ATOM     38  C   UNL A   1      38.143  31.547  30.726  1.00  0.00     0.074 A 
ATOM     39  C   UNL A   1      37.763  33.044  32.650  1.00  0.00     0.049 A 
ATOM     40  N   UNL A   1      39.114  30.794  31.181  1.00  0.00    -0.248 NA
ATOM     41  C   UNL A   1      37.690  31.189  29.374  1.00  0.00     0.031 C 
ATOM     42  C   UNL A   1      37.114  34.099  33.430  1.00  0.00     0.029 A 
ATOM     43  N   UNL A   1      38.730  32.556  33.494  1.00  0.00    -0.354 N 
ATOM     44  C   UNL A   1      39.370  29.863  30.183  1.00  0.00     0.074 A 
ATOM     45  C   UNL A   1      38.419  30.112  29.121  1.00  0.00     0.031 C 
ATOM     46  C   UNL A   1      37.723  34.202  34.622  1.00  0.00     0.029 A 
ATOM     47  C   UNL A   1      38.776  33.196  34.708  1.00  0.00     0.049 A 
ATOM     48  H   UNL A   1      39.333  31.817  33.251  1.00  0.00     0.167 HD
ATOM     49  C   UNL A   1      40.324  28.903  30.147  1.00  0.00     0.037 A 
ATOM     50  C   UNL A   1      39.577  32.993  35.772  1.00  0.00     0.037 A 
ATOM     51  C   UNL A   1      41.287  28.677  31.193  1.00  0.00     0.049 A 
ATOM     52  C   UNL A   1      40.620  31.911  35.711  1.00  0.00     0.074 A 
ATOM     53  C   UNL A   1      42.345  27.786  31.216  1.00  0.00     0.029 A 
ATOM     54  N   UNL A   1      41.301  29.344  32.410  1.00  0.00    -0.354 N 
ATOM     55  N   UNL A   1      40.909  31.092  34.730  1.00  0.00    -0.248 NA
ATOM     56  C   UNL A   1      41.451  31.728  36.910  1.00  0.00     0.031 C 
ATOM     57  C   UNL A   1      42.966  27.874  32.466  1.00  0.00     0.029 A 
ATOM     58  C   UNL A   1      42.329  28.860  33.204  1.00  0.00     0.049 A 
ATOM     59  H   UNL A   1      40.673  30.056  32.672  1.00  0.00     0.167 HD
ATOM     60  C   UNL A   1      41.973  30.319  35.177  1.00  0.00     0.074 A 
ATOM     61  C   UNL A   1      42.285  30.775  36.517  1.00  0.00     0.031 C 
ATOM     62  C   UNL A   1      42.634  29.325  34.534  1.00  0.00     0.037 A 
BRANCH  49  63
ATOM     63  C   UNL A   1      40.363  28.014  28.935  1.00  0.00     0.064 A 
ATOM     64  C   UNL A   1      41.118  28.346  27.799  1.00  0.00     0.173 A 
ATOM     65  C   UNL A   1      39.645  26.809  28.914  1.00  0.00     0.173 A 
ATOM     66  F   UNL A   1      41.815  29.491  27.761  1.00  0.00    -0.203 F 
ATOM     67  C   UNL A   1      41.115  27.526  26.672  1.00  0.00     0.198 A 
ATOM     68  C   UNL A   1      39.673  25.975  27.800  1.00  0.00     0.198 A 
ATOM     69  F   UNL A   1      38.914  26.439  29.977  1.00  0.00    -0.203 F 
ATOM     70  F   UNL A   1      41.790  27.897  25.576  1.00  0.00    -0.200 F 
ATOM     71  C   UNL A   1      40.398  26.341  26.675  1.00  0.00     0.200 A 
ATOM     72  F   UNL A   1      38.990  24.823  27.809  1.00  0.00    -0.200 F 
ATOM     73  F   UNL A   1      40.396  25.554  25.590  1.00  0.00    -0.200 F 
ENDBRANCH  49  63
BRANCH  50  74
ATOM     74  C   UNL A   1      39.455  33.865  36.968  1.00  0.00     0.064 A 
ATOM     75  C   UNL A   1      40.102  35.108  37.012  1.00  0.00     0.173 A 
ATOM     76  C   UNL A   1      38.689  33.488  38.080  1.00  0.00     0.173 A 
ATOM     77  F   UNL A   1      40.864  35.502  35.981  1.00  0.00    -0.203 F 
ATOM     78  C   UNL A   1      39.999  35.936  38.128  1.00  0.00     0.198 A 
ATOM     79  C   UNL A   1      38.565  34.328  39.185  1.00  0.00     0.198 A 
ATOM     80  F   UNL A   1      38.047  32.311  38.085  1.00  0.00    -0.203 F 
ATOM     81  F   UNL A   1      40.658  37.101  38.158  1.00  0.00    -0.200 F 
ATOM     82  C   UNL A   1      39.225  35.548  39.211  1.00  0.00     0.200 A 
ATOM     83  F   UNL A   1      37.804  33.956  40.224  1.00  0.00    -0.200 F 
ATOM     84  F   UNL A   1      39.118  36.347  40.281  1.00  0.00    -0.200 F 
ENDBRANCH  50  74
BRANCH  62  85
ATOM     85  C   UNL A   1      43.786  28.686  35.254  1.00  0.00     0.064 A 
ATOM     86  C   UNL A   1      43.617  27.543  36.049  1.00  0.00     0.173 A 
ATOM     87  C   UNL A   1      45.083  29.202  35.114  1.00  0.00     0.173 A 
ATOM     88  F   UNL A   1      42.394  27.019  36.228  1.00  0.00    -0.203 F 
ATOM     89  C   UNL A   1      44.700  26.956  36.697  1.00  0.00     0.198 A 
ATOM     90  C   UNL A   1      46.169  28.594  35.738  1.00  0.00     0.198 A 
ATOM     91  F   UNL A   1      45.301  30.291  34.360  1.00  0.00    -0.203 F 
ATOM     92  F   UNL A   1      44.508  25.893  37.491  1.00  0.00    -0.200 F 
ATOM     93  C   UNL A   1      45.975  27.476  36.536  1.00  0.00     0.200 A 
ATOM     94  F   UNL A   1      47.402  29.091  35.569  1.00  0.00    -0.200 F 
ATOM     95  F   UNL A   1      47.018  26.905  37.153  1.00  0.00    -0.200 F 
ENDBRANCH  62  85
ENDBRANCH  36  37
ENDBRANCH  28  31
ENDBRANCH  26  27
ENDBRANCH  25  26
ENDBRANCH   1  25
TORSDOF 16
ENDMDL
MODEL 3
REMARK VINA RESULT:     -11.7      5.956     11.310
REMARK SMILES COc1cc(C(C)C)cc([C@H]([NH3+])C(=O)NCCCCNC(=O)c2ccc(-c3c4nc(c(-c5c(F)c(F)c(F)c(F)c5F)c5ccc([nH]5)c(-c5c(F)c(F)c(F)c(F)c5F)c5nc(c(-c6c(F)c(F)c(F)c(F)c6F)c6ccc3[nH]6)C=C5)C=C4)cc2)c1O
REMARK SMILES IDX 17 1 16 2 15 3 13 4 14 5 11 7 10 8 3 9 4 10 86 11 5 12 9 13
REMARK SMILES IDX 2 14 1 15 87 16 6 18 7 19 8 20 12 21 18 25 19 26 20 27 21 28
REMARK SMILES IDX 22 30 23 31 24 32 85 33 25 34 84 35 26 36 27 37 28 38 78 39
REMARK SMILES IDX 29 40 83 41 77 42 79 43 30 44 82 45 76 46 75 47 31 49 63 50
REMARK SMILES IDX 43 51 62 52 44 53 47 54 61 55 80 56 45 57 46 58 60 60 81 61
REMARK SMILES IDX 48 62 32 63 33 64 41 65 34 66 35 67 39 68 42 69 36 70 37 71
REMARK SMILES IDX 40 72 38 73 64 74 65 75 73 76 66 77 67 78 71 79 74 80 68 81
REMARK SMILES IDX 69 82 72 83 70 84 49 85 50 86 58 87 51 88 52 89 56 90 59 91
REMARK SMILES IDX 53 92 54 93 57 94 55 95
REMARK H PARENT 15 6 87 17 12 22 12 23 12 24 20 29 79 48 47 59
REMARK Flexibility Score: inf
ROOT
ATOM      1  C   UNL A   1      31.939  30.463  26.786  1.00  0.00     0.023 C 
ENDROOT
BRANCH   1   2
ATOM      2  C   UNL A   1      31.731  29.857  25.401  1.00  0.00     0.116 C 
BRANCH   2   3
ATOM      3  N   UNL A   1      32.971  29.678  24.661  1.00  0.00    -0.351 N 
ATOM      4  C   UNL A   1      33.338  28.728  23.743  1.00  0.00     0.283 C 
ATOM      5  O   UNL A   1      34.360  28.968  23.087  1.00  0.00    -0.268 OA
ATOM      6  H   UNL A   1      33.663  30.353  24.852  1.00  0.00     0.163 HD
BRANCH   4   7
ATOM      7  C   UNL A   1      32.551  27.400  23.529  1.00  0.00     0.306 C 
BRANCH   7   8
ATOM      8  C   UNL A   1      32.811  26.291  24.546  1.00  0.00     0.065 A 
ATOM      9  C   UNL A   1      32.012  24.756  26.284  1.00  0.00     0.161 A 
ATOM     10  C   UNL A   1      33.165  23.981  26.123  1.00  0.00     0.054 A 
ATOM     11  C   UNL A   1      31.831  25.890  25.477  1.00  0.00     0.167 A 
ATOM     12  C   UNL A   1      34.168  24.361  25.228  1.00  0.00    -0.041 A 
ATOM     13  C   UNL A   1      34.008  25.559  24.524  1.00  0.00     0.018 A 
BRANCH   9  14
ATOM     14  O   UNL A   1      31.129  24.246  27.198  1.00  0.00    -0.493 OA
ATOM     15  C   UNL A   1      30.387  23.102  26.793  1.00  0.00     0.278 C 
ENDBRANCH   9  14
BRANCH  11  16
ATOM     16  O   UNL A   1      30.666  26.599  25.566  1.00  0.00    -0.504 OA
ATOM     17  H   UNL A   1      29.871  26.166  25.811  1.00  0.00     0.293 HD
ENDBRANCH  11  16
BRANCH  12  18
ATOM     18  C   UNL A   1      35.383  23.499  24.934  1.00  0.00     0.013 C 
ATOM     19  C   UNL A   1      35.619  23.339  23.435  1.00  0.00     0.012 C 
ATOM     20  C   UNL A   1      36.638  24.007  25.651  1.00  0.00     0.012 C 
ENDBRANCH  12  18
ENDBRANCH   7   8
BRANCH   7  21
ATOM     21  N   UNL A   1      32.709  26.933  22.135  1.00  0.00    -0.343 N 
ATOM     22  H   UNL A   1      33.193  27.646  21.590  1.00  0.00     0.345 HD
ATOM     23  H   UNL A   1      31.789  26.761  21.729  1.00  0.00     0.345 HD
ATOM     24  H   UNL A   1      33.251  26.070  22.125  1.00  0.00     0.345 HD
ENDBRANCH   7  21
ENDBRANCH   4   7
ENDBRANCH   2   3
ENDBRANCH   1   2
BRANCH   1  25
ATOM     25  C   UNL A   1      31.668  31.967  26.890  1.00  0.00     0.023 C 
BRANCH  25  26
ATOM     26  C   UNL A   1      32.876  32.848  27.206  1.00  0.00     0.116 C 
BRANCH  26  27
ATOM     27  N   UNL A   1      32.513  34.199  27.606  1.00  0.00    -0.352 N 
ATOM     28  C   UNL A   1      33.023  34.984  28.619  1.00  0.00     0.251 C 
ATOM     29  H   UNL A   1      31.798  34.615  27.074  1.00  0.00     0.163 HD
ATOM     30  O   UNL A   1      32.506  36.055  28.887  1.00  0.00    -0.269 OA
BRANCH  28  31
ATOM     31  C   UNL A   1      34.182  34.506  29.405  1.00  0.00     0.039 A 
ATOM     32  C   UNL A   1      33.951  33.842  30.613  1.00  0.00     0.014 A 
ATOM     33  C   UNL A   1      35.488  34.696  28.947  1.00  0.00     0.014 A 
ATOM     34  C   UNL A   1      35.024  33.294  31.319  1.00  0.00     0.010 A 
ATOM     35  C   UNL A   1      36.548  34.084  29.611  1.00  0.00     0.010 A 
ATOM     36  C   UNL A   1      36.327  33.372  30.801  1.00  0.00    -0.014 A 
BRANCH  36  37
ATOM     37  C   UNL A   1      37.469  32.702  31.476  1.00  0.00     0.031 A 
ATOM     38  C   UNL A   1      38.161  31.540  30.823  1.00  0.00     0.074 A 
ATOM     39  C   UNL A   1      37.833  33.092  32.713  1.00  0.00     0.049 A 
ATOM     40  N   UNL A   1      39.132  30.788  31.280  1.00  0.00    -0.248 NA
ATOM     41  C   UNL A   1      37.678  31.151  29.490  1.00  0.00     0.031 C 
ATOM     42  C   UNL A   1      37.211  34.175  33.476  1.00  0.00     0.029 A 
ATOM     43  N   UNL A   1      38.811  32.616  33.551  1.00  0.00    -0.354 N 
ATOM     44  C   UNL A   1      39.358  29.828  30.303  1.00  0.00     0.074 A 
ATOM     45  C   UNL A   1      38.391  30.059  29.253  1.00  0.00     0.031 C 
ATOM     46  C   UNL A   1      37.843  34.303  34.653  1.00  0.00     0.029 A 
ATOM     47  C   UNL A   1      38.886  33.287  34.747  1.00  0.00     0.049 A 
ATOM     48  H   UNL A   1      39.401  31.864  33.317  1.00  0.00     0.167 HD
ATOM     49  C   UNL A   1      40.301  28.856  30.275  1.00  0.00     0.037 A 
ATOM     50  C   UNL A   1      39.705  33.104  35.801  1.00  0.00     0.037 A 
ATOM     51  C   UNL A   1      41.280  28.647  31.309  1.00  0.00     0.049 A 
ATOM     52  C   UNL A   1      40.735  32.008  35.750  1.00  0.00     0.074 A 
ATOM     53  C   UNL A   1      42.330  27.745  31.336  1.00  0.00     0.029 A 
ATOM     54  N   UNL A   1      41.325  29.346  32.507  1.00  0.00    -0.354 N 
ATOM     55  N   UNL A   1      40.997  31.160  34.786  1.00  0.00    -0.248 NA
ATOM     56  C   UNL A   1      41.587  31.848  36.938  1.00  0.00     0.031 C 
ATOM     57  C   UNL A   1      42.975  27.859  32.572  1.00  0.00     0.029 A 
ATOM     58  C   UNL A   1      42.363  28.872  33.294  1.00  0.00     0.049 A 
ATOM     59  H   UNL A   1      40.710  30.072  32.761  1.00  0.00     0.167 HD
ATOM     60  C   UNL A   1      42.060  30.387  35.234  1.00  0.00     0.074 A 
ATOM     61  C   UNL A   1      42.402  30.875  36.555  1.00  0.00     0.031 C 
ATOM     62  C   UNL A   1      42.697  29.369  34.605  1.00  0.00     0.037 A 
BRANCH  49  63
ATOM     63  C   UNL A   1      40.307  27.935  29.088  1.00  0.00     0.064 A 
ATOM     64  C   UNL A   1      41.041  28.228  27.928  1.00  0.00     0.173 A 
ATOM     65  C   UNL A   1      39.578  26.736  29.114  1.00  0.00     0.173 A 
ATOM     66  F   UNL A   1      41.748  29.365  27.845  1.00  0.00    -0.203 F 
ATOM     67  C   UNL A   1      41.008  27.379  26.824  1.00  0.00     0.198 A 
ATOM     68  C   UNL A   1      39.576  25.873  28.022  1.00  0.00     0.198 A 
ATOM     69  F   UNL A   1      38.866  26.402  30.200  1.00  0.00    -0.203 F 
ATOM     70  F   UNL A   1      41.664  27.714  25.704  1.00  0.00    -0.200 F 
ATOM     71  C   UNL A   1      40.281  26.201  26.873  1.00  0.00     0.200 A 
ATOM     72  F   UNL A   1      38.882  24.728  28.076  1.00  0.00    -0.200 F 
ATOM     73  F   UNL A   1      40.250  25.385  25.810  1.00  0.00    -0.200 F 
ENDBRANCH  49  63
BRANCH  50  74
ATOM     74  C   UNL A   1      39.616  34.009  36.975  1.00  0.00     0.064 A 
ATOM     75  C   UNL A   1      38.872  33.639  38.104  1.00  0.00     0.173 A 
ATOM     76  C   UNL A   1      40.272  35.248  37.002  1.00  0.00     0.173 A 
ATOM     77  F   UNL A   1      38.210  32.473  38.116  1.00  0.00    -0.203 F 
ATOM     78  C   UNL A   1      38.777  34.479  39.212  1.00  0.00     0.198 A 
ATOM     79  C   UNL A   1      40.197  36.076  38.120  1.00  0.00     0.198 A 
ATOM     80  F   UNL A   1      40.999  35.646  35.948  1.00  0.00    -0.203 F 
ATOM     81  F   UNL A   1      38.030  34.116  40.262  1.00  0.00    -0.200 F 
ATOM     82  C   UNL A   1      39.446  35.694  39.221  1.00  0.00     0.200 A 
ATOM     83  F   UNL A   1      40.856  37.243  38.132  1.00  0.00    -0.200 F 
ATOM     84  F   UNL A   1      39.361  36.498  40.289  1.00  0.00    -0.200 F 
ENDBRANCH  50  74
BRANCH  62  85
ATOM     85  C   UNL A   1      43.856  28.736  35.321  1.00  0.00     0.064 A 
ATOM     86  C   UNL A   1      45.173  29.177  35.128  1.00  0.00     0.173 A 
ATOM     87  C   UNL A   1      43.639  27.697  36.240  1.00  0.00     0.173 A 
ATOM     88  F   UNL A   1      45.436  30.156  34.248  1.00  0.00    -0.203 F 
ATOM     89  C   UNL A   1      46.233  28.586  35.812  1.00  0.00     0.198 A 
ATOM     90  C   UNL A   1      44.697  27.131  36.945  1.00  0.00     0.198 A 
ATOM     91  F   UNL A   1      42.398  27.241  36.465  1.00  0.00    -0.203 F 
ATOM     92  F   UNL A   1      47.488  28.992  35.577  1.00  0.00    -0.200 F 
ATOM     93  C   UNL A   1      45.994  27.570  36.725  1.00  0.00     0.200 A 
ATOM     94  F   UNL A   1      44.462  26.158  37.837  1.00  0.00    -0.200 F 
ATOM     95  F   UNL A   1      47.014  27.009  37.388  1.00  0.00    -0.200 F 
ENDBRANCH  62  85
ENDBRANCH  36  37
ENDBRANCH  28  31
ENDBRANCH  26  27
ENDBRANCH  25  26
ENDBRANCH   1  25
TORSDOF 16
ENDMDL
