MODEL 1
REMARK VINA RESULT:     -10.9      0.000      0.000
REMARK SMILES O=C(C[C@@H]1C=CS(=O)(=O)C1)NCCCCNC(=O)c1ccc(-c2c3nc(c(-c4c(F)c(F)c(F)c(F)c4F)c4ccc([nH]4)c(-c4c(F)c(F)c(F)c(F)c4F)c4nc(c(-c5c(F)c(F)c(F)c(F)c5F)c5ccc2[nH]5)C=C4)C=C3)cc1
REMARK SMILES IDX 14 1 13 2 12 3 11 4 1 5 2 6 3 8 4 9 5 10 10 11 6 12 7 13
REMARK SMILES IDX 8 14 9 15 15 16 16 17 17 18 18 20 19 21 20 22 81 23 21 24
REMARK SMILES IDX 80 25 22 26 23 27 24 28 74 29 25 30 79 31 73 32 75 33 26 34
REMARK SMILES IDX 78 35 72 36 71 37 27 39 59 40 39 41 58 42 40 43 43 44 57 45
REMARK SMILES IDX 76 46 41 47 42 48 56 50 77 51 44 52 28 53 29 54 37 55 30 56
REMARK SMILES IDX 31 57 35 58 38 59 32 60 33 61 36 62 34 63 60 64 61 65 69 66
REMARK SMILES IDX 62 67 63 68 67 69 70 70 64 71 65 72 68 73 66 74 45 75 46 76
REMARK SMILES IDX 54 77 47 78 48 79 52 80 55 81 49 82 50 83 53 84 51 85
REMARK H PARENT 11 7 16 19 75 38 43 49
REMARK Flexibility Score: inf
ROOT
ATOM      1  C   UNL A   1      33.534  33.834  28.145  1.00  0.00     0.023 C 
ENDROOT
BRANCH   1   2
ATOM      2  C   UNL A   1      34.078  35.112  28.794  1.00  0.00     0.023 C 
BRANCH   2   3
ATOM      3  C   UNL A   1      33.158  35.768  29.825  1.00  0.00     0.116 C 
BRANCH   3   4
ATOM      4  N   UNL A   1      33.851  36.047  31.066  1.00  0.00    -0.356 N 
ATOM      5  O   UNL A   1      32.305  35.104  32.490  1.00  0.00    -0.275 OA
ATOM      6  C   UNL A   1      33.388  35.639  32.296  1.00  0.00     0.220 C 
ATOM      7  H   UNL A   1      34.696  36.551  31.028  1.00  0.00     0.163 HD
BRANCH   6   8
ATOM      8  C   UNL A   1      34.350  35.928  33.435  1.00  0.00     0.108 C 
BRANCH   8   9
ATOM      9  C   UNL A   1      35.438  34.867  33.672  1.00  0.00     0.037 C 
ATOM     10  C   UNL A   1      36.513  34.818  32.611  1.00  0.00    -0.010 C 
ATOM     11  C   UNL A   1      34.883  33.441  33.814  1.00  0.00     0.150 C 
ATOM     12  C   UNL A   1      36.546  33.718  31.846  1.00  0.00     0.102 C 
ATOM     13  S   UNL A   1      35.326  32.577  32.306  1.00  0.00     0.171 S 
ATOM     14  O   UNL A   1      35.962  31.322  32.652  1.00  0.00    -0.224 OA
ATOM     15  O   UNL A   1      34.235  32.648  31.362  1.00  0.00    -0.224 OA
ENDBRANCH   8   9
ENDBRANCH   6   8
ENDBRANCH   3   4
ENDBRANCH   2   3
ENDBRANCH   1   2
BRANCH   1  16
ATOM     16  C   UNL A   1      34.537  32.695  27.991  1.00  0.00     0.116 C 
BRANCH  16  17
ATOM     17  N   UNL A   1      33.897  31.410  27.764  1.00  0.00    -0.352 N 
ATOM     18  C   UNL A   1      34.433  30.144  27.757  1.00  0.00     0.251 C 
ATOM     19  H   UNL A   1      32.929  31.452  27.587  1.00  0.00     0.163 HD
ATOM     20  O   UNL A   1      33.755  29.196  27.374  1.00  0.00    -0.269 OA
BRANCH  18  21
ATOM     21  C   UNL A   1      35.834  29.913  28.182  1.00  0.00     0.039 A 
ATOM     22  C   UNL A   1      36.080  29.530  29.504  1.00  0.00     0.014 A 
ATOM     23  C   UNL A   1      36.903  30.093  27.301  1.00  0.00     0.014 A 
ATOM     24  C   UNL A   1      37.386  29.259  29.921  1.00  0.00     0.010 A 
ATOM     25  C   UNL A   1      38.197  29.749  27.696  1.00  0.00     0.010 A 
ATOM     26  C   UNL A   1      38.453  29.324  29.009  1.00  0.00    -0.014 A 
BRANCH  26  27
ATOM     27  C   UNL A   1      39.834  28.941  29.410  1.00  0.00     0.031 A 
ATOM     28  C   UNL A   1      40.656  29.848  30.285  1.00  0.00     0.074 A 
ATOM     29  C   UNL A   1      40.374  27.801  28.934  1.00  0.00     0.049 A 
ATOM     30  N   UNL A   1      41.898  29.715  30.681  1.00  0.00    -0.248 NA
ATOM     31  C   UNL A   1      40.005  31.079  30.759  1.00  0.00     0.031 C 
ATOM     32  C   UNL A   1      39.698  26.854  28.046  1.00  0.00     0.029 A 
ATOM     33  N   UNL A   1      41.617  27.249  29.123  1.00  0.00    -0.354 N 
ATOM     34  C   UNL A   1      42.177  30.847  31.438  1.00  0.00     0.074 A 
ATOM     35  C   UNL A   1      40.996  31.681  31.398  1.00  0.00     0.031 C 
ATOM     36  C   UNL A   1      40.524  25.829  27.786  1.00  0.00     0.029 A 
ATOM     37  C   UNL A   1      41.802  26.066  28.449  1.00  0.00     0.049 A 
ATOM     38  H   UNL A   1      42.310  27.661  29.687  1.00  0.00     0.167 HD
ATOM     39  C   UNL A   1      43.307  31.149  32.123  1.00  0.00     0.037 A 
ATOM     40  C   UNL A   1      42.885  25.266  28.365  1.00  0.00     0.037 A 
ATOM     41  C   UNL A   1      44.476  30.309  32.174  1.00  0.00     0.049 A 
ATOM     42  C   UNL A   1      44.136  25.641  29.113  1.00  0.00     0.074 A 
ATOM     43  C   UNL A   1      45.649  30.505  32.883  1.00  0.00     0.029 A 
ATOM     44  N   UNL A   1      44.624  29.116  31.481  1.00  0.00    -0.354 N 
ATOM     45  N   UNL A   1      44.364  26.680  29.879  1.00  0.00    -0.248 NA
ATOM     46  C   UNL A   1      45.281  24.728  28.986  1.00  0.00     0.031 C 
ATOM     47  C   UNL A   1      46.528  29.463  32.572  1.00  0.00     0.029 A 
ATOM     48  C   UNL A   1      45.881  28.582  31.723  1.00  0.00     0.049 A 
ATOM     49  H   UNL A   1      43.939  28.709  30.904  1.00  0.00     0.167 HD
ATOM     50  C   UNL A   1      45.661  26.528  30.352  1.00  0.00     0.074 A 
ATOM     51  C   UNL A   1      46.165  25.289  29.798  1.00  0.00     0.031 C 
ATOM     52  C   UNL A   1      46.370  27.343  31.173  1.00  0.00     0.037 A 
BRANCH  39  53
ATOM     53  C   UNL A   1      43.338  32.452  32.873  1.00  0.00     0.064 A 
ATOM     54  C   UNL A   1      42.898  32.550  34.202  1.00  0.00     0.173 A 
ATOM     55  C   UNL A   1      43.856  33.609  32.270  1.00  0.00     0.173 A 
ATOM     56  F   UNL A   1      42.387  31.477  34.824  1.00  0.00    -0.203 F 
ATOM     57  C   UNL A   1      42.944  33.762  34.887  1.00  0.00     0.198 A 
ATOM     58  C   UNL A   1      43.933  34.811  32.969  1.00  0.00     0.198 A 
ATOM     59  F   UNL A   1      44.299  33.572  31.005  1.00  0.00    -0.203 F 
ATOM     60  F   UNL A   1      42.467  33.842  36.137  1.00  0.00    -0.200 F 
ATOM     61  C   UNL A   1      43.468  34.888  34.273  1.00  0.00     0.200 A 
ATOM     62  F   UNL A   1      44.457  35.895  32.379  1.00  0.00    -0.200 F 
ATOM     63  F   UNL A   1      43.521  36.052  34.936  1.00  0.00    -0.200 F 
ENDBRANCH  39  53
BRANCH  40  64
ATOM     64  C   UNL A   1      42.830  24.023  27.549  1.00  0.00     0.064 A 
ATOM     65  C   UNL A   1      42.471  22.796  28.127  1.00  0.00     0.173 A 
ATOM     66  C   UNL A   1      43.150  24.030  26.184  1.00  0.00     0.173 A 
ATOM     67  F   UNL A   1      42.177  22.733  29.435  1.00  0.00    -0.203 F 
ATOM     68  C   UNL A   1      42.459  21.622  27.378  1.00  0.00     0.198 A 
ATOM     69  C   UNL A   1      43.105  22.861  25.428  1.00  0.00     0.198 A 
ATOM     70  F   UNL A   1      43.496  25.176  25.580  1.00  0.00    -0.203 F 
ATOM     71  F   UNL A   1      42.166  20.456  27.969  1.00  0.00    -0.200 F 
ATOM     72  C   UNL A   1      42.770  21.656  26.027  1.00  0.00     0.200 A 
ATOM     73  F   UNL A   1      43.390  22.901  24.119  1.00  0.00    -0.200 F 
ATOM     74  F   UNL A   1      42.756  20.527  25.305  1.00  0.00    -0.200 F 
ENDBRANCH  40  64
BRANCH  52  75
ATOM     75  C   UNL A   1      47.754  26.902  31.559  1.00  0.00     0.064 A 
ATOM     76  C   UNL A   1      47.981  26.026  32.630  1.00  0.00     0.173 A 
ATOM     77  C   UNL A   1      48.867  27.333  30.818  1.00  0.00     0.173 A 
ATOM     78  F   UNL A   1      46.956  25.595  33.380  1.00  0.00    -0.203 F 
ATOM     79  C   UNL A   1      49.272  25.622  32.965  1.00  0.00     0.198 A 
ATOM     80  C   UNL A   1      50.151  26.898  31.133  1.00  0.00     0.198 A 
ATOM     81  F   UNL A   1      48.705  28.165  29.778  1.00  0.00    -0.203 F 
ATOM     82  F   UNL A   1      49.470  24.828  34.026  1.00  0.00    -0.200 F 
ATOM     83  C   UNL A   1      50.354  26.052  32.211  1.00  0.00     0.200 A 
ATOM     84  F   UNL A   1      51.193  27.300  30.391  1.00  0.00    -0.200 F 
ATOM     85  F   UNL A   1      51.594  25.654  32.528  1.00  0.00    -0.200 F 
ENDBRANCH  52  75
ENDBRANCH  26  27
ENDBRANCH  18  21
ENDBRANCH  16  17
ENDBRANCH   1  16
TORSDOF 12
ENDMDL
MODEL 2
REMARK VINA RESULT:     -10.9      3.872      9.990
REMARK SMILES O=C(C[C@@H]1C=CS(=O)(=O)C1)NCCCCNC(=O)c1ccc(-c2c3nc(c(-c4c(F)c(F)c(F)c(F)c4F)c4ccc([nH]4)c(-c4c(F)c(F)c(F)c(F)c4F)c4nc(c(-c5c(F)c(F)c(F)c(F)c5F)c5ccc2[nH]5)C=C4)C=C3)cc1
REMARK SMILES IDX 14 1 13 2 12 3 11 4 1 5 2 6 3 8 4 9 5 10 10 11 6 12 7 13
REMARK SMILES IDX 8 14 9 15 15 16 16 17 17 18 18 20 19 21 20 22 81 23 21 24
REMARK SMILES IDX 80 25 22 26 23 27 24 28 74 29 25 30 79 31 73 32 75 33 26 34
REMARK SMILES IDX 78 35 72 36 71 37 27 39 59 40 39 41 58 42 40 43 43 44 57 45
REMARK SMILES IDX 76 46 41 47 42 48 56 50 77 51 44 52 28 53 29 54 37 55 30 56
REMARK SMILES IDX 31 57 35 58 38 59 32 60 33 61 36 62 34 63 60 64 61 65 69 66
REMARK SMILES IDX 62 67 63 68 67 69 70 70 64 71 65 72 68 73 66 74 45 75 46 76
REMARK SMILES IDX 54 77 47 78 48 79 52 80 55 81 49 82 50 83 53 84 51 85
REMARK H PARENT 11 7 16 19 75 38 43 49
REMARK Flexibility Score: inf
ROOT
ATOM      1  C   UNL A   1      31.368  32.272  26.513  1.00  0.00     0.023 C 
ENDROOT
BRANCH   1   2
ATOM      2  C   UNL A   1      31.510  30.801  26.104  1.00  0.00     0.023 C 
BRANCH   2   3
ATOM      3  C   UNL A   1      32.630  30.030  26.804  1.00  0.00     0.116 C 
BRANCH   3   4
ATOM      4  N   UNL A   1      32.685  28.648  26.372  1.00  0.00    -0.356 N 
ATOM      5  O   UNL A   1      31.148  27.806  27.867  1.00  0.00    -0.275 OA
ATOM      6  C   UNL A   1      31.894  27.659  26.908  1.00  0.00     0.220 C 
ATOM      7  H   UNL A   1      33.319  28.405  25.660  1.00  0.00     0.163 HD
BRANCH   6   8
ATOM      8  C   UNL A   1      32.032  26.320  26.205  1.00  0.00     0.108 C 
BRANCH   8   9
ATOM      9  C   UNL A   1      31.129  26.118  24.976  1.00  0.00     0.037 C 
ATOM     10  C   UNL A   1      31.827  25.534  23.770  1.00  0.00    -0.010 C 
ATOM     11  C   UNL A   1      30.431  27.405  24.511  1.00  0.00     0.150 C 
ATOM     12  C   UNL A   1      31.959  26.341  22.708  1.00  0.00     0.102 C 
ATOM     13  S   UNL A   1      31.241  27.894  22.987  1.00  0.00     0.171 S 
ATOM     14  O   UNL A   1      30.233  28.135  21.974  1.00  0.00    -0.224 OA
ATOM     15  O   UNL A   1      32.285  28.850  23.272  1.00  0.00    -0.224 OA
ENDBRANCH   8   9
ENDBRANCH   6   8
ENDBRANCH   3   4
ENDBRANCH   2   3
ENDBRANCH   1   2
BRANCH   1  16
ATOM     16  C   UNL A   1      32.562  32.869  27.251  1.00  0.00     0.116 C 
BRANCH  16  17
ATOM     17  N   UNL A   1      32.350  34.255  27.632  1.00  0.00    -0.352 N 
ATOM     18  C   UNL A   1      32.968  35.010  28.601  1.00  0.00     0.251 C 
ATOM     19  H   UNL A   1      31.656  34.728  27.117  1.00  0.00     0.163 HD
ATOM     20  O   UNL A   1      32.527  36.119  28.885  1.00  0.00    -0.269 OA
BRANCH  18  21
ATOM     21  C   UNL A   1      34.149  34.488  29.328  1.00  0.00     0.039 A 
ATOM     22  C   UNL A   1      33.957  33.879  30.571  1.00  0.00     0.014 A 
ATOM     23  C   UNL A   1      35.440  34.615  28.810  1.00  0.00     0.014 A 
ATOM     24  C   UNL A   1      35.046  33.335  31.260  1.00  0.00     0.010 A 
ATOM     25  C   UNL A   1      36.515  34.006  29.459  1.00  0.00     0.010 A 
ATOM     26  C   UNL A   1      36.330  33.356  30.689  1.00  0.00    -0.014 A 
BRANCH  26  27
ATOM     27  C   UNL A   1      37.482  32.694  31.359  1.00  0.00     0.031 A 
ATOM     28  C   UNL A   1      38.180  31.531  30.709  1.00  0.00     0.074 A 
ATOM     29  C   UNL A   1      37.863  33.102  32.587  1.00  0.00     0.049 A 
ATOM     30  N   UNL A   1      39.156  30.786  31.169  1.00  0.00    -0.248 NA
ATOM     31  C   UNL A   1      37.705  31.135  29.374  1.00  0.00     0.031 C 
ATOM     32  C   UNL A   1      37.244  34.190  33.344  1.00  0.00     0.029 A 
ATOM     33  N   UNL A   1      38.855  32.642  33.418  1.00  0.00    -0.354 N 
ATOM     34  C   UNL A   1      39.400  29.833  30.188  1.00  0.00     0.074 A 
ATOM     35  C   UNL A   1      38.435  30.056  29.135  1.00  0.00     0.031 C 
ATOM     36  C   UNL A   1      37.884  34.331  34.515  1.00  0.00     0.029 A 
ATOM     37  C   UNL A   1      38.927  33.315  34.614  1.00  0.00     0.049 A 
ATOM     38  H   UNL A   1      39.459  31.902  33.179  1.00  0.00     0.167 HD
ATOM     39  C   UNL A   1      40.358  28.875  30.160  1.00  0.00     0.037 A 
ATOM     40  C   UNL A   1      39.735  33.127  35.677  1.00  0.00     0.037 A 
ATOM     41  C   UNL A   1      41.329  28.664  31.203  1.00  0.00     0.049 A 
ATOM     42  C   UNL A   1      40.771  32.036  35.630  1.00  0.00     0.074 A 
ATOM     43  C   UNL A   1      42.372  27.754  31.241  1.00  0.00     0.029 A 
ATOM     44  N   UNL A   1      41.371  29.368  32.398  1.00  0.00    -0.354 N 
ATOM     45  N   UNL A   1      41.036  31.185  34.668  1.00  0.00    -0.248 NA
ATOM     46  C   UNL A   1      41.625  31.883  36.816  1.00  0.00     0.031 C 
ATOM     47  C   UNL A   1      43.006  27.865  32.481  1.00  0.00     0.029 A 
ATOM     48  C   UNL A   1      42.404  28.891  33.191  1.00  0.00     0.049 A 
ATOM     49  H   UNL A   1      40.760  30.099  32.646  1.00  0.00     0.167 HD
ATOM     50  C   UNL A   1      42.106  30.422  35.118  1.00  0.00     0.074 A 
ATOM     51  C   UNL A   1      42.450  30.919  36.433  1.00  0.00     0.031 C 
ATOM     52  C   UNL A   1      42.744  29.399  34.496  1.00  0.00     0.037 A 
BRANCH  39  53
ATOM     53  C   UNL A   1      40.403  27.971  28.958  1.00  0.00     0.064 A 
ATOM     54  C   UNL A   1      41.176  28.281  27.829  1.00  0.00     0.173 A 
ATOM     55  C   UNL A   1      39.698  26.757  28.954  1.00  0.00     0.173 A 
ATOM     56  F   UNL A   1      41.863  29.432  27.777  1.00  0.00    -0.203 F 
ATOM     57  C   UNL A   1      41.215  27.428  26.729  1.00  0.00     0.198 A 
ATOM     58  C   UNL A   1      39.768  25.890  27.866  1.00  0.00     0.198 A 
ATOM     59  F   UNL A   1      38.950  26.405  30.010  1.00  0.00    -0.203 F 
ATOM     60  F   UNL A   1      41.918  27.773  25.641  1.00  0.00    -0.200 F 
ATOM     61  C   UNL A   1      40.519  26.231  26.752  1.00  0.00     0.200 A 
ATOM     62  F   UNL A   1      39.107  24.724  27.898  1.00  0.00    -0.200 F 
ATOM     63  F   UNL A   1      40.565  25.406  25.696  1.00  0.00    -0.200 F 
ENDBRANCH  39  53
BRANCH  40  64
ATOM     64  C   UNL A   1      39.604  34.000  36.874  1.00  0.00     0.064 A 
ATOM     65  C   UNL A   1      40.275  35.229  36.948  1.00  0.00     0.173 A 
ATOM     66  C   UNL A   1      38.822  33.619  37.975  1.00  0.00     0.173 A 
ATOM     67  F   UNL A   1      41.054  35.628  35.930  1.00  0.00    -0.203 F 
ATOM     68  C   UNL A   1      40.190  36.031  38.084  1.00  0.00     0.198 A 
ATOM     69  C   UNL A   1      38.710  34.437  39.097  1.00  0.00     0.198 A 
ATOM     70  F   UNL A   1      38.155  32.456  37.955  1.00  0.00    -0.203 F 
ATOM     71  F   UNL A   1      40.886  37.174  38.149  1.00  0.00    -0.200 F 
ATOM     72  C   UNL A   1      39.403  35.637  39.155  1.00  0.00     0.200 A 
ATOM     73  F   UNL A   1      37.935  34.061  40.123  1.00  0.00    -0.200 F 
ATOM     74  F   UNL A   1      39.318  36.409  40.247  1.00  0.00    -0.200 F 
ENDBRANCH  40  64
BRANCH  52  75
ATOM     75  C   UNL A   1      43.910  28.776  35.210  1.00  0.00     0.064 A 
ATOM     76  C   UNL A   1      45.221  29.244  35.038  1.00  0.00     0.173 A 
ATOM     77  C   UNL A   1      43.706  27.718  36.112  1.00  0.00     0.173 A 
ATOM     78  F   UNL A   1      45.475  30.242  34.178  1.00  0.00    -0.203 F 
ATOM     79  C   UNL A   1      46.287  28.657  35.717  1.00  0.00     0.198 A 
ATOM     80  C   UNL A   1      44.768  27.159  36.816  1.00  0.00     0.198 A 
ATOM     81  F   UNL A   1      42.471  27.238  36.320  1.00  0.00    -0.203 F 
ATOM     82  F   UNL A   1      47.538  29.084  35.495  1.00  0.00    -0.200 F 
ATOM     83  C   UNL A   1      46.058  27.621  36.611  1.00  0.00     0.200 A 
ATOM     84  F   UNL A   1      44.542  26.171  37.693  1.00  0.00    -0.200 F 
ATOM     85  F   UNL A   1      47.083  27.065  37.271  1.00  0.00    -0.200 F 
ENDBRANCH  52  75
ENDBRANCH  26  27
ENDBRANCH  18  21
ENDBRANCH  16  17
ENDBRANCH   1  16
TORSDOF 12
ENDMDL
MODEL 3
REMARK VINA RESULT:     -10.9      5.294      9.545
REMARK SMILES O=C(C[C@@H]1C=CS(=O)(=O)C1)NCCCCNC(=O)c1ccc(-c2c3nc(c(-c4c(F)c(F)c(F)c(F)c4F)c4ccc([nH]4)c(-c4c(F)c(F)c(F)c(F)c4F)c4nc(c(-c5c(F)c(F)c(F)c(F)c5F)c5ccc2[nH]5)C=C4)C=C3)cc1
REMARK SMILES IDX 14 1 13 2 12 3 11 4 1 5 2 6 3 8 4 9 5 10 10 11 6 12 7 13
REMARK SMILES IDX 8 14 9 15 15 16 16 17 17 18 18 20 19 21 20 22 81 23 21 24
REMARK SMILES IDX 80 25 22 26 23 27 24 28 74 29 25 30 79 31 73 32 75 33 26 34
REMARK SMILES IDX 78 35 72 36 71 37 27 39 59 40 39 41 58 42 40 43 43 44 57 45
REMARK SMILES IDX 76 46 41 47 42 48 56 50 77 51 44 52 28 53 29 54 37 55 30 56
REMARK SMILES IDX 31 57 35 58 38 59 32 60 33 61 36 62 34 63 60 64 61 65 69 66
REMARK SMILES IDX 62 67 63 68 67 69 70 70 64 71 65 72 68 73 66 74 45 75 46 76
REMARK SMILES IDX 54 77 47 78 48 79 52 80 55 81 49 82 50 83 53 84 51 85
REMARK H PARENT 11 7 16 19 75 38 43 49
REMARK Flexibility Score: inf
ROOT
ATOM      1  C   UNL A   1      38.000  19.559  24.998  1.00  0.00     0.023 C 
ENDROOT
BRANCH   1   2
ATOM      2  C   UNL A   1      36.789  20.499  24.966  1.00  0.00     0.023 C 
BRANCH   2   3
ATOM      3  C   UNL A   1      37.022  21.849  24.287  1.00  0.00     0.116 C 
BRANCH   3   4
ATOM      4  N   UNL A   1      35.925  22.767  24.518  1.00  0.00    -0.356 N 
ATOM      5  O   UNL A   1      36.950  24.056  26.130  1.00  0.00    -0.275 OA
ATOM      6  C   UNL A   1      36.004  23.832  25.386  1.00  0.00     0.220 C 
ATOM      7  H   UNL A   1      35.083  22.623  24.030  1.00  0.00     0.163 HD
BRANCH   6   8
ATOM      8  C   UNL A   1      34.780  24.730  25.361  1.00  0.00     0.108 C 
BRANCH   8   9
ATOM      9  C   UNL A   1      33.551  24.200  26.120  1.00  0.00     0.037 C 
ATOM     10  C   UNL A   1      33.846  23.089  27.100  1.00  0.00    -0.010 C 
ATOM     11  C   UNL A   1      32.431  23.697  25.197  1.00  0.00     0.150 C 
ATOM     12  C   UNL A   1      33.350  21.881  26.800  1.00  0.00     0.102 C 
ATOM     13  S   UNL A   1      32.435  21.909  25.328  1.00  0.00     0.171 S 
ATOM     14  O   UNL A   1      31.087  21.453  25.603  1.00  0.00    -0.224 OA
ATOM     15  O   UNL A   1      33.233  21.341  24.267  1.00  0.00    -0.224 OA
ENDBRANCH   8   9
ENDBRANCH   6   8
ENDBRANCH   3   4
ENDBRANCH   2   3
ENDBRANCH   1   2
BRANCH   1  16
ATOM     16  C   UNL A   1      39.198  20.055  25.802  1.00  0.00     0.116 C 
BRANCH  16  17
ATOM     17  N   UNL A   1      40.242  19.053  25.929  1.00  0.00    -0.352 N 
ATOM     18  C   UNL A   1      41.594  19.206  26.127  1.00  0.00     0.251 C 
ATOM     19  H   UNL A   1      39.934  18.120  25.862  1.00  0.00     0.163 HD
ATOM     20  O   UNL A   1      42.338  18.234  26.036  1.00  0.00    -0.269 OA
BRANCH  18  21
ATOM     21  C   UNL A   1      42.170  20.538  26.425  1.00  0.00     0.039 A 
ATOM     22  C   UNL A   1      42.586  21.343  25.361  1.00  0.00     0.014 A 
ATOM     23  C   UNL A   1      42.325  20.990  27.738  1.00  0.00     0.014 A 
ATOM     24  C   UNL A   1      43.090  22.623  25.608  1.00  0.00     0.010 A 
ATOM     25  C   UNL A   1      42.755  22.295  27.980  1.00  0.00     0.010 A 
ATOM     26  C   UNL A   1      43.139  23.128  26.918  1.00  0.00    -0.014 A 
BRANCH  26  27
ATOM     27  C   UNL A   1      43.576  24.524  27.190  1.00  0.00     0.031 A 
ATOM     28  C   UNL A   1      42.601  25.544  27.709  1.00  0.00     0.074 A 
ATOM     29  C   UNL A   1      44.843  24.892  26.912  1.00  0.00     0.049 A 
ATOM     30  N   UNL A   1      42.781  26.822  27.941  1.00  0.00    -0.248 NA
ATOM     31  C   UNL A   1      41.233  25.074  27.981  1.00  0.00     0.031 C 
ATOM     32  C   UNL A   1      45.878  24.011  26.368  1.00  0.00     0.029 A 
ATOM     33  N   UNL A   1      45.475  26.105  27.038  1.00  0.00    -0.354 N 
ATOM     34  C   UNL A   1      41.552  27.305  28.374  1.00  0.00     0.074 A 
ATOM     35  C   UNL A   1      40.621  26.199  28.318  1.00  0.00     0.031 C 
ATOM     36  C   UNL A   1      47.019  24.704  26.230  1.00  0.00     0.029 A 
ATOM     37  C   UNL A   1      46.787  26.088  26.630  1.00  0.00     0.049 A 
ATOM     38  H   UNL A   1      45.031  26.910  27.389  1.00  0.00     0.167 HD
ATOM     39  C   UNL A   1      41.236  28.552  28.802  1.00  0.00     0.037 A 
ATOM     40  C   UNL A   1      47.699  27.079  26.573  1.00  0.00     0.037 A 
ATOM     41  C   UNL A   1      42.168  29.647  28.872  1.00  0.00     0.049 A 
ATOM     42  C   UNL A   1      47.313  28.461  27.028  1.00  0.00     0.074 A 
ATOM     43  C   UNL A   1      41.956  30.933  29.341  1.00  0.00     0.029 A 
ATOM     44  N   UNL A   1      43.490  29.590  28.452  1.00  0.00    -0.354 N 
ATOM     45  N   UNL A   1      46.167  28.889  27.498  1.00  0.00    -0.248 NA
ATOM     46  C   UNL A   1      48.351  29.498  26.946  1.00  0.00     0.031 C 
ATOM     47  C   UNL A   1      43.129  31.669  29.150  1.00  0.00     0.029 A 
ATOM     48  C   UNL A   1      44.094  30.826  28.625  1.00  0.00     0.049 A 
ATOM     49  H   UNL A   1      43.933  28.790  28.088  1.00  0.00     0.167 HD
ATOM     50  C   UNL A   1      46.356  30.232  27.801  1.00  0.00     0.074 A 
ATOM     51  C   UNL A   1      47.731  30.544  27.474  1.00  0.00     0.031 C 
ATOM     52  C   UNL A   1      45.467  31.125  28.304  1.00  0.00     0.037 A 
BRANCH  39  53
ATOM     53  C   UNL A   1      39.815  28.804  29.225  1.00  0.00     0.064 A 
ATOM     54  C   UNL A   1      39.397  28.623  30.553  1.00  0.00     0.173 A 
ATOM     55  C   UNL A   1      38.869  29.272  28.301  1.00  0.00     0.173 A 
ATOM     56  F   UNL A   1      40.259  28.170  31.476  1.00  0.00    -0.203 F 
ATOM     57  C   UNL A   1      38.080  28.871  30.931  1.00  0.00     0.198 A 
ATOM     58  C   UNL A   1      37.561  29.553  28.691  1.00  0.00     0.198 A 
ATOM     59  F   UNL A   1      39.214  29.470  27.020  1.00  0.00    -0.203 F 
ATOM     60  F   UNL A   1      37.693  28.640  32.194  1.00  0.00    -0.200 F 
ATOM     61  C   UNL A   1      37.166  29.343  30.003  1.00  0.00     0.200 A 
ATOM     62  F   UNL A   1      36.684  30.026  27.794  1.00  0.00    -0.200 F 
ATOM     63  F   UNL A   1      35.901  29.591  30.370  1.00  0.00    -0.200 F 
ENDBRANCH  39  53
BRANCH  40  64
ATOM     64  C   UNL A   1      49.073  26.798  26.077  1.00  0.00     0.064 A 
ATOM     65  C   UNL A   1      49.411  27.006  24.731  1.00  0.00     0.173 A 
ATOM     66  C   UNL A   1      50.071  26.302  26.928  1.00  0.00     0.173 A 
ATOM     67  F   UNL A   1      48.485  27.458  23.871  1.00  0.00    -0.203 F 
ATOM     68  C   UNL A   1      50.684  26.704  24.252  1.00  0.00     0.198 A 
ATOM     69  C   UNL A   1      51.353  26.033  26.456  1.00  0.00     0.198 A 
ATOM     70  F   UNL A   1      49.803  26.089  28.225  1.00  0.00    -0.203 F 
ATOM     71  F   UNL A   1      50.962  26.860  22.951  1.00  0.00    -0.200 F 
ATOM     72  C   UNL A   1      51.656  26.223  25.116  1.00  0.00     0.200 A 
ATOM     73  F   UNL A   1      52.295  25.584  27.297  1.00  0.00    -0.200 F 
ATOM     74  F   UNL A   1      52.881  25.936  24.656  1.00  0.00    -0.200 F 
ENDBRANCH  40  64
BRANCH  52  75
ATOM     75  C   UNL A   1      45.965  32.517  28.575  1.00  0.00     0.064 A 
ATOM     76  C   UNL A   1      46.559  32.867  29.797  1.00  0.00     0.173 A 
ATOM     77  C   UNL A   1      45.882  33.505  27.580  1.00  0.00     0.173 A 
ATOM     78  F   UNL A   1      46.651  31.967  30.787  1.00  0.00    -0.203 F 
ATOM     79  C   UNL A   1      47.021  34.161  30.024  1.00  0.00     0.198 A 
ATOM     80  C   UNL A   1      46.379  34.787  27.798  1.00  0.00     0.198 A 
ATOM     81  F   UNL A   1      45.331  33.221  26.391  1.00  0.00    -0.203 F 
ATOM     82  F   UNL A   1      47.535  34.488  31.218  1.00  0.00    -0.200 F 
ATOM     83  C   UNL A   1      46.939  35.117  29.022  1.00  0.00     0.200 A 
ATOM     84  F   UNL A   1      46.314  35.703  26.821  1.00  0.00    -0.200 F 
ATOM     85  F   UNL A   1      47.394  36.359  29.238  1.00  0.00    -0.200 F 
ENDBRANCH  52  75
ENDBRANCH  26  27
ENDBRANCH  18  21
ENDBRANCH  16  17
ENDBRANCH   1  16
TORSDOF 12
ENDMDL
