MODEL 1
REMARK VINA RESULT:     -10.1      0.000      0.000
REMARK SMILES O=C(CCCN1C(=O)/C(=C/c2ccccc2Cl)SC1=S)Nc1cccc(C(=O)NCCCCNC(=O)c2ccc(-c3c4nc(c(-c5c(F)c(F)c(F)c(F)c5F)c5ccc([nH]5)c(-c5c(F)c(F)c(F)c(F)c5F)c5nc(c(-c6c(F)c(F)c(F)c(F)c6F)c6ccc3[nH]6)C=C5)C=C4)cc2)c1
REMARK SMILES IDX 27 1 28 2 29 3 26 5 22 6 23 7 100 8 24 9 25 10 21 11 1 12
REMARK SMILES IDX 2 13 3 15 4 16 5 17 6 18 7 19 19 20 8 21 9 22 18 23 20 24
REMARK SMILES IDX 10 25 11 26 12 27 16 28 13 29 15 30 17 31 14 32 30 33 31 34
REMARK SMILES IDX 32 35 33 36 34 37 35 38 36 40 37 41 38 42 99 43 39 44 98 45
REMARK SMILES IDX 40 46 41 47 42 48 92 49 43 50 97 51 91 52 93 53 44 54 96 55
REMARK SMILES IDX 90 56 89 57 45 59 77 60 57 61 76 62 58 63 61 64 75 65 94 66
REMARK SMILES IDX 59 67 60 68 74 70 95 71 62 72 46 73 47 74 55 75 48 76 49 77
REMARK SMILES IDX 53 78 56 79 50 80 51 81 54 82 52 83 78 84 79 85 87 86 80 87
REMARK SMILES IDX 81 88 85 89 88 90 82 91 83 92 86 93 84 94 63 95 64 96 72 97
REMARK SMILES IDX 65 98 66 99 70 100 73 101 67 102 68 103 71 104 69 105
REMARK H PARENT 29 4 21 14 34 39 93 58 61 69
REMARK Flexibility Score: inf
ROOT
ATOM      1  C   UNL A   1      37.662  33.851  33.785  1.00  0.00     0.251 C 
ATOM      2  O   UNL A   1      37.947  35.017  34.047  1.00  0.00    -0.269 OA
ATOM      3  N   UNL A   1      36.658  33.575  32.881  1.00  0.00    -0.352 N 
ATOM      4  H   UNL A   1      36.236  34.360  32.465  1.00  0.00     0.163 HD
ENDROOT
BRANCH   1   5
ATOM      5  C   UNL A   1      38.348  32.747  34.501  1.00  0.00     0.041 A 
ATOM      6  C   UNL A   1      39.964  30.941  34.489  1.00  0.00     0.041 A 
ATOM      7  C   UNL A   1      39.365  30.429  35.649  1.00  0.00     0.026 A 
ATOM      8  C   UNL A   1      39.501  32.151  33.979  1.00  0.00     0.040 A 
ATOM      9  C   UNL A   1      38.292  31.095  36.254  1.00  0.00     0.003 A 
ATOM     10  C   UNL A   1      37.771  32.248  35.670  1.00  0.00     0.014 A 
BRANCH   6  11
ATOM     11  N   UNL A   1      40.909  30.126  33.817  1.00  0.00    -0.326 N 
ATOM     12  O   UNL A   1      39.596  28.378  33.063  1.00  0.00    -0.275 OA
ATOM     13  C   UNL A   1      40.698  28.843  33.355  1.00  0.00     0.224 C 
ATOM     14  H   UNL A   1      41.802  30.512  33.664  1.00  0.00     0.169 HD
BRANCH  13  15
ATOM     15  C   UNL A   1      41.910  27.903  33.319  1.00  0.00     0.102 C 
BRANCH  15  16
ATOM     16  C   UNL A   1      43.260  28.263  33.938  1.00  0.00     0.032 C 
BRANCH  16  17
ATOM     17  C   UNL A   1      43.772  27.583  35.226  1.00  0.00     0.128 C 
BRANCH  17  18
ATOM     18  N   UNL A   1      43.845  26.119  35.289  1.00  0.00    -0.293 N 
ATOM     19  C   UNL A   1      45.109  25.543  35.401  1.00  0.00     0.266 C 
ATOM     20  C   UNL A   1      42.799  25.260  35.564  1.00  0.00     0.148 C 
ATOM     21  O   UNL A   1      46.177  26.141  35.440  1.00  0.00    -0.268 OA
ATOM     22  C   UNL A   1      45.004  24.075  35.600  1.00  0.00     0.081 C 
ATOM     23  S   UNL A   1      43.358  23.598  35.537  1.00  0.00    -0.054 SA
ATOM     24  S   UNL A   1      41.226  25.600  35.988  1.00  0.00    -0.052 S 
ATOM     25  C   UNL A   1      46.062  23.286  35.837  1.00  0.00     0.031 C 
BRANCH  25  26
ATOM     26  C   UNL A   1      45.947  21.827  35.972  1.00  0.00    -0.006 A 
ATOM     27  C   UNL A   1      45.868  21.038  34.815  1.00  0.00     0.010 A 
ATOM     28  C   UNL A   1      46.007  21.194  37.228  1.00  0.00     0.048 A 
ATOM     29  C   UNL A   1      45.880  19.644  34.911  1.00  0.00     0.001 A 
ATOM     30  C   UNL A   1      46.026  19.802  37.316  1.00  0.00     0.021 A 
ATOM     31  Cl  UNL A   1      46.078  22.099  38.702  1.00  0.00    -0.084 Cl
ATOM     32  C   UNL A   1      45.969  19.027  36.159  1.00  0.00     0.002 A 
ENDBRANCH  25  26
ENDBRANCH  17  18
ENDBRANCH  16  17
ENDBRANCH  15  16
ENDBRANCH  13  15
ENDBRANCH   6  11
ENDBRANCH   1   5
BRANCH   3  33
ATOM     33  C   UNL A   1      36.134  32.283  32.457  1.00  0.00     0.116 C 
BRANCH  33  34
ATOM     34  C   UNL A   1      34.870  32.362  31.611  1.00  0.00     0.023 C 
BRANCH  34  35
ATOM     35  C   UNL A   1      34.860  33.431  30.527  1.00  0.00     0.023 C 
BRANCH  35  36
ATOM     36  C   UNL A   1      35.291  32.970  29.141  1.00  0.00     0.116 C 
BRANCH  36  37
ATOM     37  N   UNL A   1      34.399  31.985  28.545  1.00  0.00    -0.352 N 
ATOM     38  C   UNL A   1      34.663  30.699  28.137  1.00  0.00     0.251 C 
ATOM     39  H   UNL A   1      33.470  32.284  28.415  1.00  0.00     0.163 HD
ATOM     40  O   UNL A   1      33.802  30.038  27.563  1.00  0.00    -0.269 OA
BRANCH  38  41
ATOM     41  C   UNL A   1      36.008  30.119  28.351  1.00  0.00     0.039 A 
ATOM     42  C   UNL A   1      36.954  30.209  27.325  1.00  0.00     0.014 A 
ATOM     43  C   UNL A   1      36.348  29.520  29.565  1.00  0.00     0.014 A 
ATOM     44  C   UNL A   1      38.263  29.779  27.551  1.00  0.00     0.010 A 
ATOM     45  C   UNL A   1      37.672  29.174  29.818  1.00  0.00     0.010 A 
ATOM     46  C   UNL A   1      38.645  29.303  28.815  1.00  0.00    -0.014 A 
BRANCH  46  47
ATOM     47  C   UNL A   1      40.052  28.927  29.112  1.00  0.00     0.031 A 
ATOM     48  C   UNL A   1      40.940  29.879  29.865  1.00  0.00     0.074 A 
ATOM     49  C   UNL A   1      40.551  27.764  28.648  1.00  0.00     0.049 A 
ATOM     50  N   UNL A   1      42.217  29.782  30.140  1.00  0.00    -0.248 NA
ATOM     51  C   UNL A   1      40.316  31.121  30.349  1.00  0.00     0.031 C 
ATOM     52  C   UNL A   1      39.807  26.773  27.869  1.00  0.00     0.029 A 
ATOM     53  N   UNL A   1      41.809  27.222  28.756  1.00  0.00    -0.354 N 
ATOM     54  C   UNL A   1      42.547  30.950  30.815  1.00  0.00     0.074 A 
ATOM     55  C   UNL A   1      41.356  31.768  30.855  1.00  0.00     0.031 C 
ATOM     56  C   UNL A   1      40.613  25.735  27.590  1.00  0.00     0.029 A 
ATOM     57  C   UNL A   1      41.941  26.003  28.135  1.00  0.00     0.049 A 
ATOM     58  H   UNL A   1      42.547  27.666  29.232  1.00  0.00     0.167 HD
ATOM     59  C   UNL A   1      43.729  31.297  31.376  1.00  0.00     0.037 A 
ATOM     60  C   UNL A   1      43.013  25.199  28.014  1.00  0.00     0.037 A 
ATOM     61  C   UNL A   1      44.908  30.473  31.359  1.00  0.00     0.049 A 
ATOM     62  C   UNL A   1      44.320  25.618  28.633  1.00  0.00     0.074 A 
ATOM     63  C   UNL A   1      46.145  30.721  31.929  1.00  0.00     0.029 A 
ATOM     64  N   UNL A   1      44.994  29.234  30.740  1.00  0.00    -0.354 N 
ATOM     65  N   UNL A   1      44.604  26.700  29.317  1.00  0.00    -0.248 NA
ATOM     66  C   UNL A   1      45.455  24.698  28.471  1.00  0.00     0.031 C 
ATOM     67  C   UNL A   1      46.990  29.648  31.627  1.00  0.00     0.029 A 
ATOM     68  C   UNL A   1      46.266  28.711  30.908  1.00  0.00     0.049 A 
ATOM     69  H   UNL A   1      44.261  28.792  30.254  1.00  0.00     0.167 HD
ATOM     70  C   UNL A   1      45.934  26.573  29.696  1.00  0.00     0.074 A 
ATOM     71  C   UNL A   1      46.397  25.304  29.179  1.00  0.00     0.031 C 
ATOM     72  C   UNL A   1      46.703  27.433  30.409  1.00  0.00     0.037 A 
BRANCH  59  73
ATOM     73  C   UNL A   1      43.801  32.624  32.076  1.00  0.00     0.064 A 
ATOM     74  C   UNL A   1      44.020  33.813  31.363  1.00  0.00     0.173 A 
ATOM     75  C   UNL A   1      43.609  32.715  33.462  1.00  0.00     0.173 A 
ATOM     76  F   UNL A   1      44.220  33.780  30.037  1.00  0.00    -0.203 F 
ATOM     77  C   UNL A   1      44.069  35.041  32.017  1.00  0.00     0.198 A 
ATOM     78  C   UNL A   1      43.629  33.948  34.108  1.00  0.00     0.198 A 
ATOM     79  F   UNL A   1      43.390  31.610  34.189  1.00  0.00    -0.203 F 
ATOM     80  F   UNL A   1      44.326  36.159  31.322  1.00  0.00    -0.200 F 
ATOM     81  C   UNL A   1      43.866  35.109  33.387  1.00  0.00     0.200 A 
ATOM     82  F   UNL A   1      43.419  34.014  35.430  1.00  0.00    -0.200 F 
ATOM     83  F   UNL A   1      43.903  36.293  34.013  1.00  0.00    -0.200 F 
ENDBRANCH  59  73
BRANCH  60  84
ATOM     84  C   UNL A   1      42.901  23.898  27.300  1.00  0.00     0.064 A 
ATOM     85  C   UNL A   1      42.463  22.747  27.971  1.00  0.00     0.173 A 
ATOM     86  C   UNL A   1      43.262  23.768  25.951  1.00  0.00     0.173 A 
ATOM     87  F   UNL A   1      42.129  22.815  29.268  1.00  0.00    -0.203 F 
ATOM     88  C   UNL A   1      42.419  21.511  27.329  1.00  0.00     0.198 A 
ATOM     89  C   UNL A   1      43.188  22.537  25.301  1.00  0.00     0.198 A 
ATOM     90  F   UNL A   1      43.686  24.838  25.262  1.00  0.00    -0.203 F 
ATOM     91  F   UNL A   1      42.053  20.418  28.012  1.00  0.00    -0.200 F 
ATOM     92  C   UNL A   1      42.778  21.407  25.995  1.00  0.00     0.200 A 
ATOM     93  F   UNL A   1      43.524  22.443  24.009  1.00  0.00    -0.200 F 
ATOM     94  F   UNL A   1      42.741  20.218  25.380  1.00  0.00    -0.200 F 
ENDBRANCH  60  84
BRANCH  72  95
ATOM     95  C   UNL A   1      48.106  27.004  30.723  1.00  0.00     0.064 A 
ATOM     96  C   UNL A   1      49.204  27.471  29.985  1.00  0.00     0.173 A 
ATOM     97  C   UNL A   1      48.357  26.146  31.805  1.00  0.00     0.173 A 
ATOM     98  F   UNL A   1      49.015  28.280  28.933  1.00  0.00    -0.203 F 
ATOM     99  C   UNL A   1      50.499  27.072  30.303  1.00  0.00     0.198 A 
ATOM    100  C   UNL A   1      49.656  25.775  32.138  1.00  0.00     0.198 A 
ATOM    101  F   UNL A   1      47.342  25.677  32.546  1.00  0.00    -0.203 F 
ATOM    102  F   UNL A   1      51.529  27.492  29.554  1.00  0.00    -0.200 F 
ATOM    103  C   UNL A   1      50.725  26.232  31.383  1.00  0.00     0.200 A 
ATOM    104  F   UNL A   1      49.874  24.973  33.190  1.00  0.00    -0.200 F 
ATOM    105  F   UNL A   1      51.974  25.856  31.691  1.00  0.00    -0.200 F 
ENDBRANCH  72  95
ENDBRANCH  46  47
ENDBRANCH  38  41
ENDBRANCH  36  37
ENDBRANCH  35  36
ENDBRANCH  34  35
ENDBRANCH  33  34
ENDBRANCH   3  33
TORSDOF 17
ENDMDL
MODEL 2
REMARK VINA RESULT:     -10.1      5.163      8.480
REMARK SMILES O=C(CCCN1C(=O)/C(=C/c2ccccc2Cl)SC1=S)Nc1cccc(C(=O)NCCCCNC(=O)c2ccc(-c3c4nc(c(-c5c(F)c(F)c(F)c(F)c5F)c5ccc([nH]5)c(-c5c(F)c(F)c(F)c(F)c5F)c5nc(c(-c6c(F)c(F)c(F)c(F)c6F)c6ccc3[nH]6)C=C5)C=C4)cc2)c1
REMARK SMILES IDX 27 1 28 2 29 3 26 5 22 6 23 7 100 8 24 9 25 10 21 11 1 12
REMARK SMILES IDX 2 13 3 15 4 16 5 17 6 18 7 19 19 20 8 21 9 22 18 23 20 24
REMARK SMILES IDX 10 25 11 26 12 27 16 28 13 29 15 30 17 31 14 32 30 33 31 34
REMARK SMILES IDX 32 35 33 36 34 37 35 38 36 40 37 41 38 42 99 43 39 44 98 45
REMARK SMILES IDX 40 46 41 47 42 48 92 49 43 50 97 51 91 52 93 53 44 54 96 55
REMARK SMILES IDX 90 56 89 57 45 59 77 60 57 61 76 62 58 63 61 64 75 65 94 66
REMARK SMILES IDX 59 67 60 68 74 70 95 71 62 72 46 73 47 74 55 75 48 76 49 77
REMARK SMILES IDX 53 78 56 79 50 80 51 81 54 82 52 83 78 84 79 85 87 86 80 87
REMARK SMILES IDX 81 88 85 89 88 90 82 91 83 92 86 93 84 94 63 95 64 96 72 97
REMARK SMILES IDX 65 98 66 99 70 100 73 101 67 102 68 103 71 104 69 105
REMARK H PARENT 29 4 21 14 34 39 93 58 61 69
REMARK Flexibility Score: inf
ROOT
ATOM      1  C   UNL A   1      34.844  34.008  28.285  1.00  0.00     0.251 C 
ATOM      2  O   UNL A   1      34.413  34.538  27.263  1.00  0.00    -0.269 OA
ATOM      3  N   UNL A   1      34.869  34.717  29.468  1.00  0.00    -0.352 N 
ATOM      4  H   UNL A   1      34.499  35.627  29.424  1.00  0.00     0.163 HD
ENDROOT
BRANCH   1   5
ATOM      5  C   UNL A   1      35.404  32.636  28.222  1.00  0.00     0.041 A 
ATOM      6  C   UNL A   1      35.054  30.249  27.995  1.00  0.00     0.041 A 
ATOM      7  C   UNL A   1      36.343  30.035  28.504  1.00  0.00     0.026 A 
ATOM      8  C   UNL A   1      34.634  31.557  27.775  1.00  0.00     0.040 A 
ATOM      9  C   UNL A   1      37.172  31.116  28.829  1.00  0.00     0.003 A 
ATOM     10  C   UNL A   1      36.697  32.420  28.704  1.00  0.00     0.014 A 
BRANCH   6  11
ATOM     11  N   UNL A   1      34.197  29.127  27.871  1.00  0.00    -0.326 N 
ATOM     12  O   UNL A   1      34.280  28.697  25.601  1.00  0.00    -0.275 OA
ATOM     13  C   UNL A   1      33.723  28.588  26.694  1.00  0.00     0.224 C 
ATOM     14  H   UNL A   1      33.913  28.689  28.706  1.00  0.00     0.169 HD
BRANCH  13  15
ATOM     15  C   UNL A   1      32.349  27.907  26.737  1.00  0.00     0.102 C 
BRANCH  15  16
ATOM     16  C   UNL A   1      31.316  28.048  25.620  1.00  0.00     0.032 C 
BRANCH  16  17
ATOM     17  C   UNL A   1      30.642  26.819  24.973  1.00  0.00     0.128 C 
BRANCH  17  18
ATOM     18  N   UNL A   1      31.434  25.610  24.723  1.00  0.00    -0.293 N 
ATOM     19  C   UNL A   1      31.372  24.592  25.675  1.00  0.00     0.266 C 
ATOM     20  C   UNL A   1      31.986  25.230  23.516  1.00  0.00     0.148 C 
ATOM     21  O   UNL A   1      30.726  24.612  26.715  1.00  0.00    -0.268 OA
ATOM     22  C   UNL A   1      32.106  23.389  25.208  1.00  0.00     0.081 C 
ATOM     23  S   UNL A   1      32.843  23.709  23.694  1.00  0.00    -0.054 SA
ATOM     24  S   UNL A   1      31.850  25.935  22.015  1.00  0.00    -0.052 S 
ATOM     25  C   UNL A   1      32.123  22.230  25.883  1.00  0.00     0.031 C 
BRANCH  25  26
ATOM     26  C   UNL A   1      32.904  21.067  25.437  1.00  0.00    -0.006 A 
ATOM     27  C   UNL A   1      32.247  20.013  24.785  1.00  0.00     0.010 A 
ATOM     28  C   UNL A   1      34.305  21.026  25.563  1.00  0.00     0.048 A 
ATOM     29  C   UNL A   1      32.981  18.953  24.245  1.00  0.00     0.001 A 
ATOM     30  C   UNL A   1      35.033  19.969  25.014  1.00  0.00     0.021 A 
ATOM     31  Cl  UNL A   1      35.185  22.275  26.378  1.00  0.00    -0.084 Cl
ATOM     32  C   UNL A   1      34.372  18.936  24.350  1.00  0.00     0.002 A 
ENDBRANCH  25  26
ENDBRANCH  17  18
ENDBRANCH  16  17
ENDBRANCH  15  16
ENDBRANCH  13  15
ENDBRANCH   6  11
ENDBRANCH   1   5
BRANCH   3  33
ATOM     33  C   UNL A   1      35.367  34.305  30.774  1.00  0.00     0.116 C 
BRANCH  33  34
ATOM     34  C   UNL A   1      34.288  34.137  31.836  1.00  0.00     0.023 C 
BRANCH  34  35
ATOM     35  C   UNL A   1      34.394  32.888  32.700  1.00  0.00     0.023 C 
BRANCH  35  36
ATOM     36  C   UNL A   1      35.794  32.535  33.182  1.00  0.00     0.116 C 
BRANCH  36  37
ATOM     37  N   UNL A   1      36.503  33.649  33.796  1.00  0.00    -0.352 N 
ATOM     38  C   UNL A   1      37.827  34.005  33.697  1.00  0.00     0.251 C 
ATOM     39  H   UNL A   1      35.952  34.234  34.367  1.00  0.00     0.163 HD
ATOM     40  O   UNL A   1      38.275  34.932  34.367  1.00  0.00    -0.269 OA
BRANCH  38  41
ATOM     41  C   UNL A   1      38.731  33.241  32.810  1.00  0.00     0.039 A 
ATOM     42  C   UNL A   1      38.840  33.619  31.468  1.00  0.00     0.014 A 
ATOM     43  C   UNL A   1      39.492  32.179  33.301  1.00  0.00     0.014 A 
ATOM     44  C   UNL A   1      39.778  32.991  30.645  1.00  0.00     0.010 A 
ATOM     45  C   UNL A   1      40.486  31.615  32.506  1.00  0.00     0.010 A 
ATOM     46  C   UNL A   1      40.642  32.017  31.171  1.00  0.00    -0.014 A 
BRANCH  46  47
ATOM     47  C   UNL A   1      41.711  31.399  30.344  1.00  0.00     0.031 A 
ATOM     48  C   UNL A   1      42.935  32.195  29.982  1.00  0.00     0.074 A 
ATOM     49  C   UNL A   1      41.554  30.150  29.862  1.00  0.00     0.049 A 
ATOM     50  N   UNL A   1      43.932  31.874  29.196  1.00  0.00    -0.248 NA
ATOM     51  C   UNL A   1      43.038  33.545  30.559  1.00  0.00     0.031 C 
ATOM     52  C   UNL A   1      40.395  29.288  30.104  1.00  0.00     0.029 A 
ATOM     53  N   UNL A   1      42.368  29.390  29.058  1.00  0.00    -0.354 N 
ATOM     54  C   UNL A   1      44.768  32.983  29.176  1.00  0.00     0.074 A 
ATOM     55  C   UNL A   1      44.135  34.006  29.977  1.00  0.00     0.031 C 
ATOM     56  C   UNL A   1      40.584  28.111  29.484  1.00  0.00     0.029 A 
ATOM     57  C   UNL A   1      41.855  28.148  28.768  1.00  0.00     0.049 A 
ATOM     58  H   UNL A   1      43.237  29.706  28.721  1.00  0.00     0.167 HD
ATOM     59  C   UNL A   1      45.970  33.125  28.569  1.00  0.00     0.037 A 
ATOM     60  C   UNL A   1      42.353  27.157  28.005  1.00  0.00     0.037 A 
ATOM     61  C   UNL A   1      46.613  32.098  27.793  1.00  0.00     0.049 A 
ATOM     62  C   UNL A   1      43.684  27.349  27.327  1.00  0.00     0.074 A 
ATOM     63  C   UNL A   1      47.846  32.133  27.165  1.00  0.00     0.029 A 
ATOM     64  N   UNL A   1      46.071  30.845  27.541  1.00  0.00    -0.354 N 
ATOM     65  N   UNL A   1      44.491  28.382  27.361  1.00  0.00    -0.248 NA
ATOM     66  C   UNL A   1      44.178  26.231  26.509  1.00  0.00     0.031 C 
ATOM     67  C   UNL A   1      48.037  30.914  26.506  1.00  0.00     0.029 A 
ATOM     68  C   UNL A   1      46.943  30.103  26.761  1.00  0.00     0.049 A 
ATOM     69  H   UNL A   1      45.198  30.530  27.869  1.00  0.00     0.167 HD
ATOM     70  C   UNL A   1      45.599  28.025  26.605  1.00  0.00     0.074 A 
ATOM     71  C   UNL A   1      45.368  26.677  26.134  1.00  0.00     0.031 C 
ATOM     72  C   UNL A   1      46.709  28.751  26.324  1.00  0.00     0.037 A 
BRANCH  59  73
ATOM     73  C   UNL A   1      46.680  34.438  28.735  1.00  0.00     0.064 A 
ATOM     74  C   UNL A   1      46.477  35.496  27.836  1.00  0.00     0.173 A 
ATOM     75  C   UNL A   1      47.537  34.656  29.823  1.00  0.00     0.173 A 
ATOM     76  F   UNL A   1      45.676  35.335  26.772  1.00  0.00    -0.203 F 
ATOM     77  C   UNL A   1      47.126  36.715  28.007  1.00  0.00     0.198 A 
ATOM     78  C   UNL A   1      48.161  35.887  30.007  1.00  0.00     0.198 A 
ATOM     79  F   UNL A   1      47.760  33.680  30.716  1.00  0.00    -0.203 F 
ATOM     80  F   UNL A   1      46.953  37.696  27.109  1.00  0.00    -0.200 F 
ATOM     81  C   UNL A   1      47.961  36.913  29.095  1.00  0.00     0.200 A 
ATOM     82  F   UNL A   1      48.957  36.082  31.068  1.00  0.00    -0.200 F 
ATOM     83  F   UNL A   1      48.577  38.091  29.264  1.00  0.00    -0.200 F 
ENDBRANCH  59  73
BRANCH  60  84
ATOM     84  C   UNL A   1      41.610  25.877  27.856  1.00  0.00     0.064 A 
ATOM     85  C   UNL A   1      42.037  24.718  28.520  1.00  0.00     0.173 A 
ATOM     86  C   UNL A   1      40.486  25.774  27.023  1.00  0.00     0.173 A 
ATOM     87  F   UNL A   1      43.121  24.760  29.308  1.00  0.00    -0.203 F 
ATOM     88  C   UNL A   1      41.387  23.499  28.333  1.00  0.00     0.198 A 
ATOM     89  C   UNL A   1      39.818  24.561  26.861  1.00  0.00     0.198 A 
ATOM     90  F   UNL A   1      40.034  26.853  26.366  1.00  0.00    -0.203 F 
ATOM     91  F   UNL A   1      41.854  22.396  28.935  1.00  0.00    -0.200 F 
ATOM     92  C   UNL A   1      40.277  23.422  27.507  1.00  0.00     0.200 A 
ATOM     93  F   UNL A   1      38.738  24.493  26.072  1.00  0.00    -0.200 F 
ATOM     94  F   UNL A   1      39.656  22.249  27.324  1.00  0.00    -0.200 F 
ENDBRANCH  60  84
BRANCH  72  95
ATOM     95  C   UNL A   1      47.785  28.083  25.519  1.00  0.00     0.064 A 
ATOM     96  C   UNL A   1      47.693  27.954  24.126  1.00  0.00     0.173 A 
ATOM     97  C   UNL A   1      48.943  27.602  26.150  1.00  0.00     0.173 A 
ATOM     98  F   UNL A   1      46.600  28.384  23.479  1.00  0.00    -0.203 F 
ATOM     99  C   UNL A   1      48.710  27.343  23.397  1.00  0.00     0.198 A 
ATOM    100  C   UNL A   1      49.970  27.020  25.414  1.00  0.00     0.198 A 
ATOM    101  F   UNL A   1      49.082  27.707  27.480  1.00  0.00    -0.203 F 
ATOM    102  F   UNL A   1      48.580  27.187  22.072  1.00  0.00    -0.200 F 
ATOM    103  C   UNL A   1      49.850  26.884  24.040  1.00  0.00     0.200 A 
ATOM    104  F   UNL A   1      51.077  26.589  26.035  1.00  0.00    -0.200 F 
ATOM    105  F   UNL A   1      50.831  26.304  23.334  1.00  0.00    -0.200 F 
ENDBRANCH  72  95
ENDBRANCH  46  47
ENDBRANCH  38  41
ENDBRANCH  36  37
ENDBRANCH  35  36
ENDBRANCH  34  35
ENDBRANCH  33  34
ENDBRANCH   3  33
TORSDOF 17
ENDMDL
MODEL 3
REMARK VINA RESULT:     -10.1      5.036     10.529
REMARK SMILES O=C(CCCN1C(=O)/C(=C/c2ccccc2Cl)SC1=S)Nc1cccc(C(=O)NCCCCNC(=O)c2ccc(-c3c4nc(c(-c5c(F)c(F)c(F)c(F)c5F)c5ccc([nH]5)c(-c5c(F)c(F)c(F)c(F)c5F)c5nc(c(-c6c(F)c(F)c(F)c(F)c6F)c6ccc3[nH]6)C=C5)C=C4)cc2)c1
REMARK SMILES IDX 27 1 28 2 29 3 26 5 22 6 23 7 100 8 24 9 25 10 21 11 1 12
REMARK SMILES IDX 2 13 3 15 4 16 5 17 6 18 7 19 19 20 8 21 9 22 18 23 20 24
REMARK SMILES IDX 10 25 11 26 12 27 16 28 13 29 15 30 17 31 14 32 30 33 31 34
REMARK SMILES IDX 32 35 33 36 34 37 35 38 36 40 37 41 38 42 99 43 39 44 98 45
REMARK SMILES IDX 40 46 41 47 42 48 92 49 43 50 97 51 91 52 93 53 44 54 96 55
REMARK SMILES IDX 90 56 89 57 45 59 77 60 57 61 76 62 58 63 61 64 75 65 94 66
REMARK SMILES IDX 59 67 60 68 74 70 95 71 62 72 46 73 47 74 55 75 48 76 49 77
REMARK SMILES IDX 53 78 56 79 50 80 51 81 54 82 52 83 78 84 79 85 87 86 80 87
REMARK SMILES IDX 81 88 85 89 88 90 82 91 83 92 86 93 84 94 63 95 64 96 72 97
REMARK SMILES IDX 65 98 66 99 70 100 73 101 67 102 68 103 71 104 69 105
REMARK H PARENT 29 4 21 14 34 39 93 58 61 69
REMARK Flexibility Score: inf
ROOT
ATOM      1  C   UNL A   1      37.009  33.649  29.595  1.00  0.00     0.251 C 
ATOM      2  O   UNL A   1      38.054  34.271  29.416  1.00  0.00    -0.269 OA
ATOM      3  N   UNL A   1      36.002  34.203  30.357  1.00  0.00    -0.352 N 
ATOM      4  H   UNL A   1      36.179  35.108  30.700  1.00  0.00     0.163 HD
ENDROOT
BRANCH   1   5
ATOM      5  C   UNL A   1      36.868  32.276  29.052  1.00  0.00     0.041 A 
ATOM      6  C   UNL A   1      35.635  30.682  27.706  1.00  0.00     0.041 A 
ATOM      7  C   UNL A   1      36.330  29.643  28.342  1.00  0.00     0.026 A 
ATOM      8  C   UNL A   1      35.980  31.996  28.008  1.00  0.00     0.040 A 
ATOM      9  C   UNL A   1      37.318  29.921  29.295  1.00  0.00     0.003 A 
ATOM     10  C   UNL A   1      37.576  31.240  29.664  1.00  0.00     0.014 A 
BRANCH   6  11
ATOM     11  N   UNL A   1      34.520  30.337  26.903  1.00  0.00    -0.326 N 
ATOM     12  O   UNL A   1      32.911  31.829  27.634  1.00  0.00    -0.275 OA
ATOM     13  C   UNL A   1      33.224  30.778  27.072  1.00  0.00     0.224 C 
ATOM     14  H   UNL A   1      34.685  29.724  26.151  1.00  0.00     0.169 HD
BRANCH  13  15
ATOM     15  C   UNL A   1      32.098  29.834  26.631  1.00  0.00     0.102 C 
BRANCH  15  16
ATOM     16  C   UNL A   1      32.026  29.225  25.232  1.00  0.00     0.032 C 
BRANCH  16  17
ATOM     17  C   UNL A   1      31.152  27.989  24.925  1.00  0.00     0.128 C 
BRANCH  17  18
ATOM     18  N   UNL A   1      31.794  26.690  24.701  1.00  0.00    -0.293 N 
ATOM     19  C   UNL A   1      31.793  25.781  25.759  1.00  0.00     0.266 C 
ATOM     20  C   UNL A   1      32.124  26.141  23.477  1.00  0.00     0.148 C 
ATOM     21  O   UNL A   1      31.316  25.966  26.871  1.00  0.00    -0.268 OA
ATOM     22  C   UNL A   1      32.346  24.471  25.329  1.00  0.00     0.081 C 
ATOM     23  S   UNL A   1      32.869  24.569  23.699  1.00  0.00    -0.054 SA
ATOM     24  S   UNL A   1      31.821  26.706  21.942  1.00  0.00    -0.052 S 
ATOM     25  C   UNL A   1      32.369  23.388  26.118  1.00  0.00     0.031 C 
BRANCH  25  26
ATOM     26  C   UNL A   1      32.974  22.116  25.698  1.00  0.00    -0.006 A 
ATOM     27  C   UNL A   1      32.158  21.126  25.130  1.00  0.00     0.010 A 
ATOM     28  C   UNL A   1      34.364  21.901  25.765  1.00  0.00     0.048 A 
ATOM     29  C   UNL A   1      32.725  19.959  24.612  1.00  0.00     0.001 A 
ATOM     30  C   UNL A   1      34.924  20.736  25.239  1.00  0.00     0.021 A 
ATOM     31  Cl  UNL A   1      35.433  23.063  26.476  1.00  0.00    -0.084 Cl
ATOM     32  C   UNL A   1      34.106  19.769  24.657  1.00  0.00     0.002 A 
ENDBRANCH  25  26
ENDBRANCH  17  18
ENDBRANCH  16  17
ENDBRANCH  15  16
ENDBRANCH  13  15
ENDBRANCH   6  11
ENDBRANCH   1   5
BRANCH   3  33
ATOM     33  C   UNL A   1      34.713  33.634  30.727  1.00  0.00     0.116 C 
BRANCH  33  34
ATOM     34  C   UNL A   1      34.750  32.729  31.951  1.00  0.00     0.023 C 
BRANCH  34  35
ATOM     35  C   UNL A   1      35.816  33.054  32.988  1.00  0.00     0.023 C 
BRANCH  35  36
ATOM     36  C   UNL A   1      36.601  31.865  33.524  1.00  0.00     0.116 C 
BRANCH  36  37
ATOM     37  N   UNL A   1      37.445  32.184  34.668  1.00  0.00    -0.352 N 
ATOM     38  C   UNL A   1      38.793  31.983  34.844  1.00  0.00     0.251 C 
ATOM     39  H   UNL A   1      36.981  32.607  35.427  1.00  0.00     0.163 HD
ATOM     40  O   UNL A   1      39.325  32.231  35.923  1.00  0.00    -0.269 OA
BRANCH  38  41
ATOM     41  C   UNL A   1      39.605  31.421  33.741  1.00  0.00     0.039 A 
ATOM     42  C   UNL A   1      39.561  32.038  32.487  1.00  0.00     0.014 A 
ATOM     43  C   UNL A   1      40.429  30.314  33.947  1.00  0.00     0.014 A 
ATOM     44  C   UNL A   1      40.411  31.600  31.470  1.00  0.00     0.010 A 
ATOM     45  C   UNL A   1      41.337  29.936  32.962  1.00  0.00     0.010 A 
ATOM     46  C   UNL A   1      41.340  30.576  31.714  1.00  0.00    -0.014 A 
BRANCH  46  47
ATOM     47  C   UNL A   1      42.321  30.154  30.680  1.00  0.00     0.031 A 
ATOM     48  C   UNL A   1      42.085  28.894  29.892  1.00  0.00     0.074 A 
ATOM     49  C   UNL A   1      43.453  30.862  30.496  1.00  0.00     0.049 A 
ATOM     50  N   UNL A   1      42.862  28.305  29.017  1.00  0.00    -0.248 NA
ATOM     51  C   UNL A   1      40.820  28.186  30.142  1.00  0.00     0.031 C 
ATOM     52  C   UNL A   1      43.821  32.077  31.224  1.00  0.00     0.029 A 
ATOM     53  N   UNL A   1      44.511  30.655  29.645  1.00  0.00    -0.354 N 
ATOM     54  C   UNL A   1      42.185  27.157  28.626  1.00  0.00     0.074 A 
ATOM     55  C   UNL A   1      40.966  27.099  29.400  1.00  0.00     0.031 C 
ATOM     56  C   UNL A   1      45.006  32.521  30.773  1.00  0.00     0.029 A 
ATOM     57  C   UNL A   1      45.501  31.602  29.753  1.00  0.00     0.049 A 
ATOM     58  H   UNL A   1      44.556  29.899  29.017  1.00  0.00     0.167 HD
ATOM     59  C   UNL A   1      42.535  26.249  27.684  1.00  0.00     0.037 A 
ATOM     60  C   UNL A   1      46.677  31.710  29.107  1.00  0.00     0.037 A 
ATOM     61  C   UNL A   1      43.736  26.320  26.896  1.00  0.00     0.049 A 
ATOM     62  C   UNL A   1      47.048  30.676  28.078  1.00  0.00     0.074 A 
ATOM     63  C   UNL A   1      44.163  25.467  25.893  1.00  0.00     0.029 A 
ATOM     64  N   UNL A   1      44.702  27.308  27.019  1.00  0.00    -0.354 N 
ATOM     65  N   UNL A   1      46.374  29.625  27.677  1.00  0.00    -0.248 NA
ATOM     66  C   UNL A   1      48.344  30.848  27.403  1.00  0.00     0.031 C 
ATOM     67  C   UNL A   1      45.405  25.918  25.433  1.00  0.00     0.029 A 
ATOM     68  C   UNL A   1      45.728  27.079  26.116  1.00  0.00     0.049 A 
ATOM     69  H   UNL A   1      44.665  28.059  27.654  1.00  0.00     0.167 HD
ATOM     70  C   UNL A   1      47.142  29.036  26.682  1.00  0.00     0.074 A 
ATOM     71  C   UNL A   1      48.328  29.851  26.530  1.00  0.00     0.031 C 
ATOM     72  C   UNL A   1      46.889  27.917  25.960  1.00  0.00     0.037 A 
BRANCH  59  73
ATOM     73  C   UNL A   1      41.593  25.104  27.443  1.00  0.00     0.064 A 
ATOM     74  C   UNL A   1      41.827  23.837  27.998  1.00  0.00     0.173 A 
ATOM     75  C   UNL A   1      40.427  25.283  26.686  1.00  0.00     0.173 A 
ATOM     76  F   UNL A   1      42.934  23.609  28.721  1.00  0.00    -0.203 F 
ATOM     77  C   UNL A   1      40.941  22.785  27.782  1.00  0.00     0.198 A 
ATOM     78  C   UNL A   1      39.527  24.237  26.497  1.00  0.00     0.198 A 
ATOM     79  F   UNL A   1      40.152  26.477  26.138  1.00  0.00    -0.203 F 
ATOM     80  F   UNL A   1      41.210  21.571  28.284  1.00  0.00    -0.200 F 
ATOM     81  C   UNL A   1      39.788  22.988  27.039  1.00  0.00     0.200 A 
ATOM     82  F   UNL A   1      38.406  24.438  25.790  1.00  0.00    -0.200 F 
ATOM     83  F   UNL A   1      38.931  21.977  26.841  1.00  0.00    -0.200 F 
ENDBRANCH  59  73
BRANCH  60  84
ATOM     84  C   UNL A   1      47.587  32.853  29.388  1.00  0.00     0.064 A 
ATOM     85  C   UNL A   1      47.405  34.089  28.750  1.00  0.00     0.173 A 
ATOM     86  C   UNL A   1      48.674  32.727  30.265  1.00  0.00     0.173 A 
ATOM     87  F   UNL A   1      46.394  34.251  27.884  1.00  0.00    -0.203 F 
ATOM     88  C   UNL A   1      48.291  35.144  28.955  1.00  0.00     0.198 A 
ATOM     89  C   UNL A   1      49.542  33.794  30.494  1.00  0.00     0.198 A 
ATOM     90  F   UNL A   1      48.893  31.568  30.904  1.00  0.00    -0.203 F 
ATOM     91  F   UNL A   1      48.126  36.294  28.286  1.00  0.00    -0.200 F 
ATOM     92  C   UNL A   1      49.357  34.997  29.829  1.00  0.00     0.200 A 
ATOM     93  F   UNL A   1      50.564  33.652  31.348  1.00  0.00    -0.200 F 
ATOM     94  F   UNL A   1      50.212  36.010  30.022  1.00  0.00    -0.200 F 
ENDBRANCH  60  84
BRANCH  72  95
ATOM     95  C   UNL A   1      47.881  27.541  24.899  1.00  0.00     0.064 A 
ATOM     96  C   UNL A   1      47.660  27.831  23.545  1.00  0.00     0.173 A 
ATOM     97  C   UNL A   1      49.089  26.920  25.250  1.00  0.00     0.173 A 
ATOM     98  F   UNL A   1      46.515  28.411  23.157  1.00  0.00    -0.203 F 
ATOM     99  C   UNL A   1      48.602  27.488  22.578  1.00  0.00     0.198 A 
ATOM    100  C   UNL A   1      50.041  26.606  24.285  1.00  0.00     0.198 A 
ATOM    101  F   UNL A   1      49.352  26.627  26.533  1.00  0.00    -0.203 F 
ATOM    102  F   UNL A   1      48.348  27.730  21.284  1.00  0.00    -0.200 F 
ATOM    103  C   UNL A   1      49.793  26.883  22.949  1.00  0.00     0.200 A 
ATOM    104  F   UNL A   1      51.198  26.034  24.646  1.00  0.00    -0.200 F 
ATOM    105  F   UNL A   1      50.701  26.560  22.018  1.00  0.00    -0.200 F 
ENDBRANCH  72  95
ENDBRANCH  46  47
ENDBRANCH  38  41
ENDBRANCH  36  37
ENDBRANCH  35  36
ENDBRANCH  34  35
ENDBRANCH  33  34
ENDBRANCH   3  33
TORSDOF 17
ENDMDL
