MODEL 1
REMARK VINA RESULT:     -14.4      0.000      0.000
REMARK SMILES C[NH2+][C@@]1(C(=O)NCCCCNC(=O)c2ccc(-c3c4nc(c(-c5c(F)c(F)c(F)c(F)c5F)c5ccc([nH]5)c(-c5c(F)c(F)c(F)c(F)c5F)c5nc(c(-c6c(F)c(F)c(F)c(F)c6F)c6ccc3[nH]6)C=C5)C=C4)cc2)CC[C@H]([NH+]2CC[NH+](C)CC2)C1
REMARK SMILES IDX 9 1 8 2 7 3 6 4 4 5 5 6 3 8 77 9 87 10 78 11 79 12 2 13 1 14
REMARK SMILES IDX 80 17 81 18 86 19 82 21 85 22 83 23 84 24 10 26 11 27 12 28
REMARK SMILES IDX 13 30 14 31 15 32 76 33 16 34 75 35 17 36 18 37 19 38 69 39
REMARK SMILES IDX 20 40 74 41 68 42 70 43 21 44 73 45 67 46 66 47 22 49 54 50
REMARK SMILES IDX 34 51 53 52 35 53 38 54 52 55 71 56 36 57 37 58 51 60 72 61
REMARK SMILES IDX 39 62 23 63 24 64 32 65 25 66 26 67 30 68 33 69 27 70 28 71
REMARK SMILES IDX 31 72 29 73 55 74 56 75 64 76 57 77 58 78 62 79 65 80 59 81
REMARK SMILES IDX 60 82 63 83 61 84 40 85 41 86 49 87 42 88 43 89 47 90 50 91
REMARK SMILES IDX 44 92 45 93 48 94 46 95
REMARK H PARENT 6 7 2 15 2 16 80 20 83 25 11 29 70 48 38 59
REMARK Flexibility Score: inf
ROOT
ATOM      1  C   UNL A   1      31.825  32.015  26.963  1.00  0.00     0.023 C 
ENDROOT
BRANCH   1   2
ATOM      2  C   UNL A   1      32.171  30.363  26.775  1.00  0.00     0.023 C 
BRANCH   2   3
ATOM      3  C   UNL A   1      33.488  29.097  25.707  1.00  0.00     0.116 C 
BRANCH   3   4
ATOM      4  N   UNL A   1      33.816  28.924  24.150  1.00  0.00    -0.351 N 
ATOM      5  C   UNL A   1      33.194  28.633  22.978  1.00  0.00     0.281 C 
ATOM      6  O   UNL A   1      33.982  28.488  22.031  1.00  0.00    -0.268 OA
ATOM      7  H   UNL A   1      34.776  29.076  23.990  1.00  0.00     0.163 HD
BRANCH   5   8
ATOM      8  C   UNL A   1      31.653  28.467  22.803  1.00  0.00     0.181 C 
ATOM      9  C   UNL A   1      31.004  28.364  24.194  1.00  0.00     0.085 C 
ATOM     10  C   UNL A   1      31.301  27.150  22.083  1.00  0.00     0.144 C 
ATOM     11  C   UNL A   1      30.438  26.949  24.255  1.00  0.00     0.072 C 
ATOM     12  C   UNL A   1      31.188  26.108  23.190  1.00  0.00     0.191 C 
BRANCH   8  13
ATOM     13  N   UNL A   1      31.209  29.601  21.958  1.00  0.00    -0.336 N 
ATOM     14  C   UNL A   1      29.819  29.990  21.965  1.00  0.00     0.331 C 
ATOM     15  H   UNL A   1      31.746  30.417  22.250  1.00  0.00     0.346 HD
ATOM     16  H   UNL A   1      31.358  29.266  21.006  1.00  0.00     0.346 HD
ENDBRANCH   8  13
BRANCH  12  17
ATOM     17  N   UNL A   1      32.432  25.441  23.582  1.00  0.00    -0.323 N 
ATOM     18  C   UNL A   1      32.815  23.929  22.604  1.00  0.00     0.324 C 
ATOM     19  C   UNL A   1      33.116  25.589  25.317  1.00  0.00     0.324 C 
ATOM     20  H   UNL A   1      33.105  26.140  23.266  1.00  0.00     0.348 HD
ATOM     21  C   UNL A   1      33.440  22.320  23.512  1.00  0.00     0.324 C 
ATOM     22  C   UNL A   1      33.802  23.956  26.220  1.00  0.00     0.324 C 
ATOM     23  N   UNL A   1      34.122  22.434  25.216  1.00  0.00    -0.328 N 
ATOM     24  C   UNL A   1      33.872  21.196  25.953  1.00  0.00     0.333 C 
ATOM     25  H   UNL A   1      35.122  22.553  25.050  1.00  0.00     0.348 HD
ENDBRANCH  12  17
ENDBRANCH   5   8
ENDBRANCH   3   4
ENDBRANCH   2   3
ENDBRANCH   1   2
BRANCH   1  26
ATOM     26  C   UNL A   1      32.944  32.986  27.367  1.00  0.00     0.116 C 
BRANCH  26  27
ATOM     27  N   UNL A   1      32.465  34.281  27.842  1.00  0.00    -0.352 N 
ATOM     28  C   UNL A   1      33.040  35.113  28.763  1.00  0.00     0.251 C 
ATOM     29  H   UNL A   1      31.618  34.594  27.449  1.00  0.00     0.163 HD
ATOM     30  O   UNL A   1      32.557  36.202  29.047  1.00  0.00    -0.269 OA
BRANCH  28  31
ATOM     31  C   UNL A   1      34.227  34.616  29.468  1.00  0.00     0.039 A 
ATOM     32  C   UNL A   1      34.035  33.871  30.631  1.00  0.00     0.014 A 
ATOM     33  C   UNL A   1      35.494  34.782  28.907  1.00  0.00     0.014 A 
ATOM     34  C   UNL A   1      35.124  33.229  31.206  1.00  0.00     0.010 A 
ATOM     35  C   UNL A   1      36.564  34.078  29.437  1.00  0.00     0.010 A 
ATOM     36  C   UNL A   1      36.386  33.302  30.592  1.00  0.00    -0.014 A 
BRANCH  36  37
ATOM     37  C   UNL A   1      37.536  32.577  31.170  1.00  0.00     0.031 A 
ATOM     38  C   UNL A   1      38.018  32.941  32.541  1.00  0.00     0.074 A 
ATOM     39  C   UNL A   1      38.147  31.627  30.441  1.00  0.00     0.049 A 
ATOM     40  N   UNL A   1      39.000  32.426  33.234  1.00  0.00    -0.248 NA
ATOM     41  C   UNL A   1      37.325  34.051  33.213  1.00  0.00     0.031 C 
ATOM     42  C   UNL A   1      37.788  31.250  29.072  1.00  0.00     0.029 A 
ATOM     43  N   UNL A   1      39.197  30.801  30.747  1.00  0.00    -0.354 N 
ATOM     44  C   UNL A   1      39.044  33.155  34.414  1.00  0.00     0.074 A 
ATOM     45  C   UNL A   1      38.041  34.191  34.317  1.00  0.00     0.031 C 
ATOM     46  C   UNL A   1      38.581  30.242  28.669  1.00  0.00     0.029 A 
ATOM     47  C   UNL A   1      39.516  29.921  29.742  1.00  0.00     0.049 A 
ATOM     48  H   UNL A   1      39.676  30.834  31.607  1.00  0.00     0.167 HD
ATOM     49  C   UNL A   1      39.832  32.954  35.495  1.00  0.00     0.037 A 
ATOM     50  C   UNL A   1      40.456  28.958  29.704  1.00  0.00     0.037 A 
ATOM     51  C   UNL A   1      40.807  31.900  35.580  1.00  0.00     0.049 A 
ATOM     52  C   UNL A   1      41.305  28.740  30.928  1.00  0.00     0.074 A 
ATOM     53  C   UNL A   1      41.626  31.562  36.641  1.00  0.00     0.029 A 
ATOM     54  N   UNL A   1      41.091  31.011  34.551  1.00  0.00    -0.354 N 
ATOM     55  N   UNL A   1      41.287  29.382  32.073  1.00  0.00    -0.248 NA
ATOM     56  C   UNL A   1      42.296  27.659  30.861  1.00  0.00     0.031 C 
ATOM     57  C   UNL A   1      42.435  30.494  36.239  1.00  0.00     0.029 A 
ATOM     58  C   UNL A   1      42.085  30.133  34.946  1.00  0.00     0.049 A 
ATOM     59  H   UNL A   1      40.649  31.005  33.672  1.00  0.00     0.167 HD
ATOM     60  C   UNL A   1      42.241  28.768  32.871  1.00  0.00     0.074 A 
ATOM     61  C   UNL A   1      42.807  27.690  32.084  1.00  0.00     0.031 C 
ATOM     62  C   UNL A   1      42.621  29.066  34.138  1.00  0.00     0.037 A 
BRANCH  49  63
ATOM     63  C   UNL A   1      39.662  33.886  36.658  1.00  0.00     0.064 A 
ATOM     64  C   UNL A   1      40.305  35.133  36.702  1.00  0.00     0.173 A 
ATOM     65  C   UNL A   1      38.845  33.533  37.742  1.00  0.00     0.173 A 
ATOM     66  F   UNL A   1      41.113  35.512  35.699  1.00  0.00    -0.203 F 
ATOM     67  C   UNL A   1      40.166  35.975  37.803  1.00  0.00     0.198 A 
ATOM     68  C   UNL A   1      38.682  34.391  38.826  1.00  0.00     0.198 A 
ATOM     69  F   UNL A   1      38.207  32.353  37.753  1.00  0.00    -0.203 F 
ATOM     70  F   UNL A   1      40.839  37.134  37.847  1.00  0.00    -0.200 F 
ATOM     71  C   UNL A   1      39.349  35.607  38.860  1.00  0.00     0.200 A 
ATOM     72  F   UNL A   1      37.884  34.039  39.844  1.00  0.00    -0.200 F 
ATOM     73  F   UNL A   1      39.214  36.418  39.918  1.00  0.00    -0.200 F 
ENDBRANCH  49  63
BRANCH  50  74
ATOM     74  C   UNL A   1      40.606  28.108  28.495  1.00  0.00     0.064 A 
ATOM     75  C   UNL A   1      39.932  26.883  28.387  1.00  0.00     0.173 A 
ATOM     76  C   UNL A   1      41.417  28.500  27.421  1.00  0.00     0.173 A 
ATOM     77  F   UNL A   1      39.154  26.456  29.392  1.00  0.00    -0.203 F 
ATOM     78  C   UNL A   1      40.081  26.074  27.262  1.00  0.00     0.198 A 
ATOM     79  C   UNL A   1      41.545  27.703  26.284  1.00  0.00     0.198 A 
ATOM     80  F   UNL A   1      42.077  29.667  27.468  1.00  0.00    -0.203 F 
ATOM     81  F   UNL A   1      39.459  24.888  27.204  1.00  0.00    -0.200 F 
ATOM     82  C   UNL A   1      40.883  26.487  26.209  1.00  0.00     0.200 A 
ATOM     83  F   UNL A   1      42.308  28.114  25.262  1.00  0.00    -0.200 F 
ATOM     84  F   UNL A   1      41.024  25.711  25.125  1.00  0.00    -0.200 F 
ENDBRANCH  50  74
BRANCH  62  85
ATOM     85  C   UNL A   1      43.676  28.199  34.756  1.00  0.00     0.064 A 
ATOM     86  C   UNL A   1      45.034  28.539  34.693  1.00  0.00     0.173 A 
ATOM     87  C   UNL A   1      43.316  27.040  35.461  1.00  0.00     0.173 A 
ATOM     88  F   UNL A   1      45.427  29.630  34.018  1.00  0.00    -0.203 F 
ATOM     89  C   UNL A   1      45.998  27.735  35.293  1.00  0.00     0.198 A 
ATOM     90  C   UNL A   1      44.280  26.256  36.086  1.00  0.00     0.198 A 
ATOM     91  F   UNL A   1      42.028  26.678  35.555  1.00  0.00    -0.203 F 
ATOM     92  F   UNL A   1      47.295  28.052  35.181  1.00  0.00    -0.200 F 
ATOM     93  C   UNL A   1      45.620  26.600  35.996  1.00  0.00     0.200 A 
ATOM     94  F   UNL A   1      43.912  25.169  36.777  1.00  0.00    -0.200 F 
ATOM     95  F   UNL A   1      46.549  25.833  36.581  1.00  0.00    -0.200 F 
ENDBRANCH  62  85
ENDBRANCH  36  37
ENDBRANCH  28  31
ENDBRANCH  26  27
ENDBRANCH   1  26
TORSDOF 13
ENDMDL
MODEL 2
REMARK VINA RESULT:     -14.4      0.129      1.147
REMARK SMILES C[NH2+][C@@]1(C(=O)NCCCCNC(=O)c2ccc(-c3c4nc(c(-c5c(F)c(F)c(F)c(F)c5F)c5ccc([nH]5)c(-c5c(F)c(F)c(F)c(F)c5F)c5nc(c(-c6c(F)c(F)c(F)c(F)c6F)c6ccc3[nH]6)C=C5)C=C4)cc2)CC[C@H]([NH+]2CC[NH+](C)CC2)C1
REMARK SMILES IDX 9 1 8 2 7 3 6 4 4 5 5 6 3 8 77 9 87 10 78 11 79 12 2 13 1 14
REMARK SMILES IDX 80 17 81 18 86 19 82 21 85 22 83 23 84 24 10 26 11 27 12 28
REMARK SMILES IDX 13 30 14 31 15 32 76 33 16 34 75 35 17 36 18 37 19 38 69 39
REMARK SMILES IDX 20 40 74 41 68 42 70 43 21 44 73 45 67 46 66 47 22 49 54 50
REMARK SMILES IDX 34 51 53 52 35 53 38 54 52 55 71 56 36 57 37 58 51 60 72 61
REMARK SMILES IDX 39 62 23 63 24 64 32 65 25 66 26 67 30 68 33 69 27 70 28 71
REMARK SMILES IDX 31 72 29 73 55 74 56 75 64 76 57 77 58 78 62 79 65 80 59 81
REMARK SMILES IDX 60 82 63 83 61 84 40 85 41 86 49 87 42 88 43 89 47 90 50 91
REMARK SMILES IDX 44 92 45 93 48 94 46 95
REMARK H PARENT 6 7 2 15 2 16 80 20 83 25 11 29 70 48 38 59
REMARK Flexibility Score: inf
ROOT
ATOM      1  C   UNL A   1      31.739  32.070  26.848  1.00  0.00     0.023 C 
ENDROOT
BRANCH   1   2
ATOM      2  C   UNL A   1      32.076  30.467  26.397  1.00  0.00     0.023 C 
BRANCH   2   3
ATOM      3  C   UNL A   1      33.612  29.334  25.484  1.00  0.00     0.116 C 
BRANCH   3   4
ATOM      4  N   UNL A   1      33.920  28.934  23.964  1.00  0.00    -0.351 N 
ATOM      5  C   UNL A   1      33.279  28.501  22.848  1.00  0.00     0.281 C 
ATOM      6  O   UNL A   1      34.054  28.201  21.927  1.00  0.00    -0.268 OA
ATOM      7  H   UNL A   1      34.883  29.034  23.780  1.00  0.00     0.163 HD
BRANCH   5   8
ATOM      8  C   UNL A   1      31.733  28.356  22.706  1.00  0.00     0.181 C 
ATOM      9  C   UNL A   1      31.115  28.237  24.109  1.00  0.00     0.085 C 
ATOM     10  C   UNL A   1      31.347  27.056  21.972  1.00  0.00     0.144 C 
ATOM     11  C   UNL A   1      30.532  26.829  24.160  1.00  0.00     0.072 C 
ATOM     12  C   UNL A   1      31.246  25.997  23.064  1.00  0.00     0.191 C 
BRANCH   8  13
ATOM     13  N   UNL A   1      31.284  29.510  21.891  1.00  0.00    -0.336 N 
ATOM     14  C   UNL A   1      29.904  29.929  21.952  1.00  0.00     0.331 C 
ATOM     15  H   UNL A   1      31.849  30.311  22.173  1.00  0.00     0.346 HD
ATOM     16  H   UNL A   1      31.391  29.183  20.930  1.00  0.00     0.346 HD
ENDBRANCH   8  13
BRANCH  12  17
ATOM     17  N   UNL A   1      32.491  25.308  23.415  1.00  0.00    -0.323 N 
ATOM     18  C   UNL A   1      32.692  23.663  22.614  1.00  0.00     0.324 C 
ATOM     19  C   UNL A   1      33.362  25.632  25.039  1.00  0.00     0.324 C 
ATOM     20  H   UNL A   1      33.160  25.918  22.945  1.00  0.00     0.348 HD
ATOM     21  C   UNL A   1      33.330  22.146  23.661  1.00  0.00     0.324 C 
ATOM     22  C   UNL A   1      34.058  24.087  26.078  1.00  0.00     0.324 C 
ATOM     23  N   UNL A   1      34.195  22.432  25.259  1.00  0.00    -0.328 N 
ATOM     24  C   UNL A   1      33.963  21.316  26.174  1.00  0.00     0.333 C 
ATOM     25  H   UNL A   1      35.175  22.466  24.980  1.00  0.00     0.348 HD
ENDBRANCH  12  17
ENDBRANCH   5   8
ENDBRANCH   3   4
ENDBRANCH   2   3
ENDBRANCH   1   2
BRANCH   1  26
ATOM     26  C   UNL A   1      32.860  32.955  27.413  1.00  0.00     0.116 C 
BRANCH  26  27
ATOM     27  N   UNL A   1      32.411  34.269  27.861  1.00  0.00    -0.352 N 
ATOM     28  C   UNL A   1      33.016  35.115  28.750  1.00  0.00     0.251 C 
ATOM     29  H   UNL A   1      31.564  34.587  27.474  1.00  0.00     0.163 HD
ATOM     30  O   UNL A   1      32.556  36.219  29.013  1.00  0.00    -0.269 OA
BRANCH  28  31
ATOM     31  C   UNL A   1      34.205  34.616  29.449  1.00  0.00     0.039 A 
ATOM     32  C   UNL A   1      34.019  33.892  30.626  1.00  0.00     0.014 A 
ATOM     33  C   UNL A   1      35.467  34.758  28.870  1.00  0.00     0.014 A 
ATOM     34  C   UNL A   1      35.108  33.247  31.199  1.00  0.00     0.010 A 
ATOM     35  C   UNL A   1      36.535  34.051  29.399  1.00  0.00     0.010 A 
ATOM     36  C   UNL A   1      36.362  33.295  30.568  1.00  0.00    -0.014 A 
BRANCH  36  37
ATOM     37  C   UNL A   1      37.511  32.566  31.144  1.00  0.00     0.031 A 
ATOM     38  C   UNL A   1      37.991  32.922  32.518  1.00  0.00     0.074 A 
ATOM     39  C   UNL A   1      38.123  31.620  30.410  1.00  0.00     0.049 A 
ATOM     40  N   UNL A   1      38.972  32.403  33.210  1.00  0.00    -0.248 NA
ATOM     41  C   UNL A   1      37.298  34.030  33.194  1.00  0.00     0.031 C 
ATOM     42  C   UNL A   1      37.766  31.250  29.039  1.00  0.00     0.029 A 
ATOM     43  N   UNL A   1      39.172  30.792  30.714  1.00  0.00    -0.354 N 
ATOM     44  C   UNL A   1      39.015  33.126  34.394  1.00  0.00     0.074 A 
ATOM     45  C   UNL A   1      38.012  34.163  34.300  1.00  0.00     0.031 C 
ATOM     46  C   UNL A   1      38.559  30.245  28.633  1.00  0.00     0.029 A 
ATOM     47  C   UNL A   1      39.492  29.917  29.705  1.00  0.00     0.049 A 
ATOM     48  H   UNL A   1      39.650  30.820  31.575  1.00  0.00     0.167 HD
ATOM     49  C   UNL A   1      39.801  32.918  35.475  1.00  0.00     0.037 A 
ATOM     50  C   UNL A   1      40.432  28.954  29.664  1.00  0.00     0.037 A 
ATOM     51  C   UNL A   1      40.775  31.863  35.555  1.00  0.00     0.049 A 
ATOM     52  C   UNL A   1      41.279  28.729  30.888  1.00  0.00     0.074 A 
ATOM     53  C   UNL A   1      41.592  31.519  36.616  1.00  0.00     0.029 A 
ATOM     54  N   UNL A   1      41.059  30.979  34.522  1.00  0.00    -0.354 N 
ATOM     55  N   UNL A   1      41.259  29.364  32.035  1.00  0.00    -0.248 NA
ATOM     56  C   UNL A   1      42.269  27.647  30.816  1.00  0.00     0.031 C 
ATOM     57  C   UNL A   1      42.401  30.452  36.209  1.00  0.00     0.029 A 
ATOM     58  C   UNL A   1      42.053  30.099  34.915  1.00  0.00     0.049 A 
ATOM     59  H   UNL A   1      40.619  30.978  33.642  1.00  0.00     0.167 HD
ATOM     60  C   UNL A   1      42.211  28.745  32.832  1.00  0.00     0.074 A 
ATOM     61  C   UNL A   1      42.778  27.671  32.040  1.00  0.00     0.031 C 
ATOM     62  C   UNL A   1      42.589  29.036  34.101  1.00  0.00     0.037 A 
BRANCH  49  63
ATOM     63  C   UNL A   1      39.630  33.844  36.642  1.00  0.00     0.064 A 
ATOM     64  C   UNL A   1      38.825  33.503  37.741  1.00  0.00     0.173 A 
ATOM     65  C   UNL A   1      40.278  35.088  36.668  1.00  0.00     0.173 A 
ATOM     66  F   UNL A   1      38.169  32.332  37.759  1.00  0.00    -0.203 F 
ATOM     67  C   UNL A   1      38.647  34.385  38.804  1.00  0.00     0.198 A 
ATOM     68  C   UNL A   1      40.124  35.955  37.747  1.00  0.00     0.198 A 
ATOM     69  F   UNL A   1      41.058  35.466  35.644  1.00  0.00    -0.203 F 
ATOM     70  F   UNL A   1      37.826  34.060  39.812  1.00  0.00    -0.200 F 
ATOM     71  C   UNL A   1      39.302  35.607  38.809  1.00  0.00     0.200 A 
ATOM     72  F   UNL A   1      40.765  37.131  37.756  1.00  0.00    -0.200 F 
ATOM     73  F   UNL A   1      39.133  36.455  39.833  1.00  0.00    -0.200 F 
ENDBRANCH  49  63
BRANCH  50  74
ATOM     74  C   UNL A   1      40.583  28.110  28.450  1.00  0.00     0.064 A 
ATOM     75  C   UNL A   1      39.931  26.872  28.346  1.00  0.00     0.173 A 
ATOM     76  C   UNL A   1      41.373  28.521  27.367  1.00  0.00     0.173 A 
ATOM     77  F   UNL A   1      39.174  26.428  29.359  1.00  0.00    -0.203 F 
ATOM     78  C   UNL A   1      40.082  26.070  27.217  1.00  0.00     0.198 A 
ATOM     79  C   UNL A   1      41.502  27.730  26.226  1.00  0.00     0.198 A 
ATOM     80  F   UNL A   1      42.012  29.699  27.410  1.00  0.00    -0.203 F 
ATOM     81  F   UNL A   1      39.482  24.873  27.163  1.00  0.00    -0.200 F 
ATOM     82  C   UNL A   1      40.863  26.501  26.156  1.00  0.00     0.200 A 
ATOM     83  F   UNL A   1      42.245  28.157  25.197  1.00  0.00    -0.200 F 
ATOM     84  F   UNL A   1      41.005  25.731  25.068  1.00  0.00    -0.200 F 
ENDBRANCH  50  74
BRANCH  62  85
ATOM     85  C   UNL A   1      43.643  28.165  34.716  1.00  0.00     0.064 A 
ATOM     86  C   UNL A   1      45.001  28.506  34.661  1.00  0.00     0.173 A 
ATOM     87  C   UNL A   1      43.281  27.000  35.410  1.00  0.00     0.173 A 
ATOM     88  F   UNL A   1      45.396  29.604  33.996  1.00  0.00    -0.203 F 
ATOM     89  C   UNL A   1      45.963  27.698  35.258  1.00  0.00     0.198 A 
ATOM     90  C   UNL A   1      44.243  26.212  36.033  1.00  0.00     0.198 A 
ATOM     91  F   UNL A   1      41.993  26.636  35.496  1.00  0.00    -0.203 F 
ATOM     92  F   UNL A   1      47.261  28.017  35.154  1.00  0.00    -0.200 F 
ATOM     93  C   UNL A   1      45.584  26.558  35.950  1.00  0.00     0.200 A 
ATOM     94  F   UNL A   1      43.874  25.119  36.713  1.00  0.00    -0.200 F 
ATOM     95  F   UNL A   1      46.511  25.786  36.533  1.00  0.00    -0.200 F 
ENDBRANCH  62  85
ENDBRANCH  36  37
ENDBRANCH  28  31
ENDBRANCH  26  27
ENDBRANCH   1  26
TORSDOF 13
ENDMDL
MODEL 3
REMARK VINA RESULT:     -14.3      0.667      7.367
REMARK SMILES C[NH2+][C@@]1(C(=O)NCCCCNC(=O)c2ccc(-c3c4nc(c(-c5c(F)c(F)c(F)c(F)c5F)c5ccc([nH]5)c(-c5c(F)c(F)c(F)c(F)c5F)c5nc(c(-c6c(F)c(F)c(F)c(F)c6F)c6ccc3[nH]6)C=C5)C=C4)cc2)CC[C@H]([NH+]2CC[NH+](C)CC2)C1
REMARK SMILES IDX 9 1 8 2 7 3 6 4 4 5 5 6 3 8 77 9 87 10 78 11 79 12 2 13 1 14
REMARK SMILES IDX 80 17 81 18 86 19 82 21 85 22 83 23 84 24 10 26 11 27 12 28
REMARK SMILES IDX 13 30 14 31 15 32 76 33 16 34 75 35 17 36 18 37 19 38 69 39
REMARK SMILES IDX 20 40 74 41 68 42 70 43 21 44 73 45 67 46 66 47 22 49 54 50
REMARK SMILES IDX 34 51 53 52 35 53 38 54 52 55 71 56 36 57 37 58 51 60 72 61
REMARK SMILES IDX 39 62 23 63 24 64 32 65 25 66 26 67 30 68 33 69 27 70 28 71
REMARK SMILES IDX 31 72 29 73 55 74 56 75 64 76 57 77 58 78 62 79 65 80 59 81
REMARK SMILES IDX 60 82 63 83 61 84 40 85 41 86 49 87 42 88 43 89 47 90 50 91
REMARK SMILES IDX 44 92 45 93 48 94 46 95
REMARK H PARENT 6 7 2 15 2 16 80 20 83 25 11 29 70 48 38 59
REMARK Flexibility Score: inf
ROOT
ATOM      1  C   UNL A   1      31.797  32.071  26.952  1.00  0.00     0.023 C 
ENDROOT
BRANCH   1   2
ATOM      2  C   UNL A   1      32.088  30.433  26.607  1.00  0.00     0.023 C 
BRANCH   2   3
ATOM      3  C   UNL A   1      33.531  29.214  25.653  1.00  0.00     0.116 C 
BRANCH   3   4
ATOM      4  N   UNL A   1      33.857  28.902  24.117  1.00  0.00    -0.351 N 
ATOM      5  C   UNL A   1      33.230  28.519  22.975  1.00  0.00     0.281 C 
ATOM      6  O   UNL A   1      34.017  28.283  22.045  1.00  0.00    -0.268 OA
ATOM      7  H   UNL A   1      34.818  29.028  23.946  1.00  0.00     0.163 HD
BRANCH   5   8
ATOM      8  C   UNL A   1      31.688  28.358  22.812  1.00  0.00     0.181 C 
ATOM      9  C   UNL A   1      31.052  28.243  24.208  1.00  0.00     0.085 C 
ATOM     10  C   UNL A   1      31.325  27.049  22.083  1.00  0.00     0.144 C 
ATOM     11  C   UNL A   1      30.483  26.829  24.261  1.00  0.00     0.072 C 
ATOM     12  C   UNL A   1      31.220  25.997  23.181  1.00  0.00     0.191 C 
BRANCH   8  13
ATOM     13  N   UNL A   1      31.238  29.502  21.982  1.00  0.00    -0.336 N 
ATOM     14  C   UNL A   1      29.845  29.880  21.989  1.00  0.00     0.331 C 
ATOM     15  H   UNL A   1      31.768  30.318  22.289  1.00  0.00     0.346 HD
ATOM     16  H   UNL A   1      31.394  29.182  21.027  1.00  0.00     0.346 HD
ENDBRANCH   8  13
BRANCH  12  17
ATOM     17  N   UNL A   1      32.467  25.323  23.554  1.00  0.00    -0.323 N 
ATOM     18  C   UNL A   1      32.782  23.760  22.633  1.00  0.00     0.324 C 
ATOM     19  C   UNL A   1      33.222  25.536  25.252  1.00  0.00     0.324 C 
ATOM     20  H   UNL A   1      33.139  25.993  23.181  1.00  0.00     0.348 HD
ATOM     21  C   UNL A   1      33.413  22.182  23.590  1.00  0.00     0.324 C 
ATOM     22  C   UNL A   1      33.913  23.932  26.203  1.00  0.00     0.324 C 
ATOM     23  N   UNL A   1      34.165  22.360  25.259  1.00  0.00    -0.328 N 
ATOM     24  C   UNL A   1      33.920  21.163  26.061  1.00  0.00     0.333 C 
ATOM     25  H   UNL A   1      35.158  22.451  25.048  1.00  0.00     0.348 HD
ENDBRANCH  12  17
ENDBRANCH   5   8
ENDBRANCH   3   4
ENDBRANCH   2   3
ENDBRANCH   1   2
BRANCH   1  26
ATOM     26  C   UNL A   1      32.898  32.921  27.602  1.00  0.00     0.116 C 
BRANCH  26  27
ATOM     27  N   UNL A   1      32.497  34.293  27.893  1.00  0.00    -0.352 N 
ATOM     28  C   UNL A   1      33.107  35.199  28.715  1.00  0.00     0.251 C 
ATOM     29  H   UNL A   1      31.681  34.606  27.439  1.00  0.00     0.163 HD
ATOM     30  O   UNL A   1      32.692  36.345  28.844  1.00  0.00    -0.269 OA
BRANCH  28  31
ATOM     31  C   UNL A   1      34.244  34.725  29.512  1.00  0.00     0.039 A 
ATOM     32  C   UNL A   1      33.987  34.227  30.790  1.00  0.00     0.014 A 
ATOM     33  C   UNL A   1      35.517  34.658  28.945  1.00  0.00     0.014 A 
ATOM     34  C   UNL A   1      35.011  33.596  31.484  1.00  0.00     0.010 A 
ATOM     35  C   UNL A   1      36.515  33.960  29.606  1.00  0.00     0.010 A 
ATOM     36  C   UNL A   1      36.269  33.429  30.881  1.00  0.00    -0.014 A 
BRANCH  36  37
ATOM     37  C   UNL A   1      37.345  32.711  31.594  1.00  0.00     0.031 A 
ATOM     38  C   UNL A   1      38.028  31.559  30.921  1.00  0.00     0.074 A 
ATOM     39  C   UNL A   1      37.668  33.084  32.845  1.00  0.00     0.049 A 
ATOM     40  N   UNL A   1      38.998  30.802  31.363  1.00  0.00    -0.248 NA
ATOM     41  C   UNL A   1      37.536  31.187  29.585  1.00  0.00     0.031 C 
ATOM     42  C   UNL A   1      37.014  34.152  33.604  1.00  0.00     0.029 A 
ATOM     43  N   UNL A   1      38.630  32.612  33.698  1.00  0.00    -0.354 N 
ATOM     44  C   UNL A   1      39.223  29.865  30.364  1.00  0.00     0.074 A 
ATOM     45  C   UNL A   1      38.246  30.101  29.326  1.00  0.00     0.031 C 
ATOM     46  C   UNL A   1      37.617  34.277  34.798  1.00  0.00     0.029 A 
ATOM     47  C   UNL A   1      38.682  33.285  34.895  1.00  0.00     0.049 A 
ATOM     48  H   UNL A   1      39.229  31.862  33.475  1.00  0.00     0.167 HD
ATOM     49  C   UNL A   1      40.183  28.914  30.309  1.00  0.00     0.037 A 
ATOM     50  C   UNL A   1      39.508  33.117  35.944  1.00  0.00     0.037 A 
ATOM     51  C   UNL A   1      41.161  28.714  31.343  1.00  0.00     0.049 A 
ATOM     52  C   UNL A   1      40.582  32.066  35.847  1.00  0.00     0.074 A 
ATOM     53  C   UNL A   1      42.215  27.820  31.376  1.00  0.00     0.029 A 
ATOM     54  N   UNL A   1      41.200  29.428  32.534  1.00  0.00    -0.354 N 
ATOM     55  N   UNL A   1      40.840  31.236  34.865  1.00  0.00    -0.248 NA
ATOM     56  C   UNL A   1      41.485  31.936  36.998  1.00  0.00     0.031 C 
ATOM     57  C   UNL A   1      42.866  27.964  32.606  1.00  0.00     0.029 A 
ATOM     58  C   UNL A   1      42.250  28.983  33.317  1.00  0.00     0.049 A 
ATOM     59  H   UNL A   1      40.574  30.145  32.783  1.00  0.00     0.167 HD
ATOM     60  C   UNL A   1      41.949  30.504  35.264  1.00  0.00     0.074 A 
ATOM     61  C   UNL A   1      42.325  31.003  36.573  1.00  0.00     0.031 C 
ATOM     62  C   UNL A   1      42.599  29.507  34.614  1.00  0.00     0.037 A 
BRANCH  49  63
ATOM     63  C   UNL A   1      40.215  28.035  29.093  1.00  0.00     0.064 A 
ATOM     64  C   UNL A   1      40.933  28.396  27.942  1.00  0.00     0.173 A 
ATOM     65  C   UNL A   1      39.523  26.815  29.076  1.00  0.00     0.173 A 
ATOM     66  F   UNL A   1      41.598  29.561  27.898  1.00  0.00    -0.203 F 
ATOM     67  C   UNL A   1      40.927  27.587  26.808  1.00  0.00     0.198 A 
ATOM     68  C   UNL A   1      39.546  25.993  27.953  1.00  0.00     0.198 A 
ATOM     69  F   UNL A   1      38.820  26.421  30.149  1.00  0.00    -0.203 F 
ATOM     70  F   UNL A   1      41.571  27.983  25.701  1.00  0.00    -0.200 F 
ATOM     71  C   UNL A   1      40.240  26.383  26.817  1.00  0.00     0.200 A 
ATOM     72  F   UNL A   1      38.889  24.825  27.965  1.00  0.00    -0.200 F 
ATOM     73  F   UNL A   1      40.237  25.604  25.726  1.00  0.00    -0.200 F 
ENDBRANCH  49  63
BRANCH  50  74
ATOM     74  C   UNL A   1      39.382  33.989  37.141  1.00  0.00     0.064 A 
ATOM     75  C   UNL A   1      38.690  33.554  38.280  1.00  0.00     0.173 A 
ATOM     76  C   UNL A   1      39.954  35.268  37.177  1.00  0.00     0.173 A 
ATOM     77  F   UNL A   1      38.113  32.344  38.292  1.00  0.00    -0.203 F 
ATOM     78  C   UNL A   1      38.555  34.374  39.399  1.00  0.00     0.198 A 
ATOM     79  C   UNL A   1      39.842  36.078  38.307  1.00  0.00     0.198 A 
ATOM     80  F   UNL A   1      40.635  35.730  36.117  1.00  0.00    -0.203 F 
ATOM     81  F   UNL A   1      37.851  33.950  40.458  1.00  0.00    -0.200 F 
ATOM     82  C   UNL A   1      39.136  35.632  39.414  1.00  0.00     0.200 A 
ATOM     83  F   UNL A   1      40.418  37.287  38.322  1.00  0.00    -0.200 F 
ATOM     84  F   UNL A   1      39.010  36.420  40.491  1.00  0.00    -0.200 F 
ENDBRANCH  50  74
BRANCH  62  85
ATOM     85  C   UNL A   1      43.795  28.914  35.296  1.00  0.00     0.064 A 
ATOM     86  C   UNL A   1      45.089  29.396  35.057  1.00  0.00     0.173 A 
ATOM     87  C   UNL A   1      43.636  27.886  36.237  1.00  0.00     0.173 A 
ATOM     88  F   UNL A   1      45.293  30.370  34.156  1.00  0.00    -0.203 F 
ATOM     89  C   UNL A   1      46.186  28.851  35.717  1.00  0.00     0.198 A 
ATOM     90  C   UNL A   1      44.731  27.364  36.918  1.00  0.00     0.198 A 
ATOM     91  F   UNL A   1      42.416  27.397  36.505  1.00  0.00    -0.203 F 
ATOM     92  F   UNL A   1      47.420  29.293  35.439  1.00  0.00    -0.200 F 
ATOM     93  C   UNL A   1      46.006  27.842  36.652  1.00  0.00     0.200 A 
ATOM     94  F   UNL A   1      44.554  26.401  37.832  1.00  0.00    -0.200 F 
ATOM     95  F   UNL A   1      47.062  27.325  37.294  1.00  0.00    -0.200 F 
ENDBRANCH  62  85
ENDBRANCH  36  37
ENDBRANCH  28  31
ENDBRANCH  26  27
ENDBRANCH   1  26
TORSDOF 13
ENDMDL
