MODEL 1
REMARK VINA RESULT:     -12.5      0.000      0.000
REMARK SMILES C=CCn1c(=S)[nH]c2cc(C(=O)NCCCCNC(=O)c3ccc(-c4c5nc(c(-c6c(F)c(F)c(F)c(F)c6F)c6ccc([nH]6)c(-c6c(F)c(F)c(F)c(F)c6F)c6nc(c(-c7c(F)c(F)c(F)c(F)c7F)c7ccc4[nH]7)C=C6)C=C5)cc3)ccc2c1=O
REMARK SMILES IDX 15 1 14 2 13 3 11 4 12 5 10 7 4 8 5 9 87 10 6 11 7 12 86 13
REMARK SMILES IDX 88 14 8 15 85 17 9 18 84 19 3 20 2 21 1 22 16 23 17 24 18 25
REMARK SMILES IDX 19 26 20 28 21 29 22 30 83 31 23 32 82 33 24 34 25 35 26 36
REMARK SMILES IDX 76 37 27 38 81 39 75 40 77 41 28 42 80 43 74 44 73 45 29 47
REMARK SMILES IDX 61 48 41 49 60 50 42 51 45 52 59 53 78 54 43 55 44 56 58 58
REMARK SMILES IDX 79 59 46 60 30 61 31 62 39 63 32 64 33 65 37 66 40 67 34 68
REMARK SMILES IDX 35 69 38 70 36 71 62 72 63 73 71 74 64 75 65 76 69 77 72 78
REMARK SMILES IDX 66 79 67 80 70 81 68 82 47 83 48 84 56 85 49 86 50 87 54 88
REMARK SMILES IDX 57 89 51 90 52 91 55 92 53 93
REMARK H PARENT 13 6 7 16 18 27 77 46 45 57
REMARK Flexibility Score: inf
ROOT
ATOM      1  C   UNL A   1      32.234  30.347  26.695  1.00  0.00     0.023 C 
ENDROOT
BRANCH   1   2
ATOM      2  C   UNL A   1      31.836  29.685  25.372  1.00  0.00     0.116 C 
BRANCH   2   3
ATOM      3  N   UNL A   1      32.960  29.638  24.458  1.00  0.00    -0.352 N 
ATOM      4  C   UNL A   1      33.545  28.611  23.761  1.00  0.00     0.251 C 
ATOM      5  O   UNL A   1      34.499  28.901  23.036  1.00  0.00    -0.269 OA
ATOM      6  H   UNL A   1      33.385  30.513  24.308  1.00  0.00     0.163 HD
BRANCH   4   7
ATOM      7  C   UNL A   1      33.074  27.193  23.794  1.00  0.00     0.041 A 
ATOM      8  N   UNL A   1      32.495  22.344  25.127  1.00  0.00    -0.281 N 
ATOM      9  C   UNL A   1      33.336  22.910  26.096  1.00  0.00     0.180 A 
ATOM     10  C   UNL A   1      32.189  23.024  23.943  1.00  0.00     0.262 A 
ATOM     11  S   UNL A   1      33.949  22.163  27.471  1.00  0.00    -0.040 S 
ATOM     12  N   UNL A   1      33.722  24.213  25.910  1.00  0.00    -0.332 N 
ATOM     13  C   UNL A   1      32.415  24.473  23.932  1.00  0.00     0.064 A 
ATOM     14  O   UNL A   1      31.800  22.521  22.893  1.00  0.00    -0.269 OA
ATOM     15  C   UNL A   1      33.257  25.021  24.877  1.00  0.00     0.054 A 
ATOM     16  H   UNL A   1      34.366  24.601  26.547  1.00  0.00     0.169 HD
ATOM     17  C   UNL A   1      31.822  25.279  22.966  1.00  0.00     0.017 A 
ATOM     18  C   UNL A   1      33.616  26.368  24.799  1.00  0.00     0.040 A 
ATOM     19  C   UNL A   1      32.127  26.638  22.927  1.00  0.00     0.015 A 
BRANCH   8  20
ATOM     20  C   UNL A   1      32.142  20.916  25.215  1.00  0.00     0.155 C 
BRANCH  20  21
ATOM     21  C   UNL A   1      33.035  20.001  24.426  1.00  0.00    -0.013 C 
ATOM     22  C   UNL A   1      32.584  18.942  23.736  1.00  0.00     0.006 C 
ENDBRANCH  20  21
ENDBRANCH   8  20
ENDBRANCH   4   7
ENDBRANCH   2   3
ENDBRANCH   1   2
BRANCH   1  23
ATOM     23  C   UNL A   1      31.832  31.817  26.811  1.00  0.00     0.023 C 
BRANCH  23  24
ATOM     24  C   UNL A   1      32.896  32.708  27.436  1.00  0.00     0.116 C 
BRANCH  24  25
ATOM     25  N   UNL A   1      32.446  34.066  27.697  1.00  0.00    -0.352 N 
ATOM     26  C   UNL A   1      32.977  34.969  28.594  1.00  0.00     0.251 C 
ATOM     27  H   UNL A   1      31.672  34.377  27.173  1.00  0.00     0.163 HD
ATOM     28  O   UNL A   1      32.454  36.054  28.786  1.00  0.00    -0.269 OA
BRANCH  26  29
ATOM     29  C   UNL A   1      34.167  34.558  29.367  1.00  0.00     0.039 A 
ATOM     30  C   UNL A   1      35.444  34.745  28.838  1.00  0.00     0.014 A 
ATOM     31  C   UNL A   1      33.987  33.884  30.577  1.00  0.00     0.014 A 
ATOM     32  C   UNL A   1      36.526  34.106  29.428  1.00  0.00     0.010 A 
ATOM     33  C   UNL A   1      35.090  33.312  31.214  1.00  0.00     0.010 A 
ATOM     34  C   UNL A   1      36.357  33.372  30.615  1.00  0.00    -0.014 A 
BRANCH  34  35
ATOM     35  C   UNL A   1      37.524  32.665  31.198  1.00  0.00     0.031 A 
ATOM     36  C   UNL A   1      37.997  32.983  32.590  1.00  0.00     0.074 A 
ATOM     37  C   UNL A   1      38.111  31.683  30.491  1.00  0.00     0.049 A 
ATOM     38  N   UNL A   1      38.984  32.450  33.267  1.00  0.00    -0.248 NA
ATOM     39  C   UNL A   1      37.272  34.035  33.319  1.00  0.00     0.031 C 
ATOM     40  C   UNL A   1      37.720  31.274  29.141  1.00  0.00     0.029 A 
ATOM     41  N   UNL A   1      39.133  30.830  30.816  1.00  0.00    -0.354 N 
ATOM     42  C   UNL A   1      39.011  33.112  34.486  1.00  0.00     0.074 A 
ATOM     43  C   UNL A   1      37.957  34.102  34.453  1.00  0.00     0.031 C 
ATOM     44  C   UNL A   1      38.451  30.210  28.778  1.00  0.00     0.029 A 
ATOM     45  C   UNL A   1      39.402  29.903  29.840  1.00  0.00     0.049 A 
ATOM     46  H   UNL A   1      39.626  30.878  31.667  1.00  0.00     0.167 HD
ATOM     47  C   UNL A   1      39.835  32.903  35.541  1.00  0.00     0.037 A 
ATOM     48  C   UNL A   1      40.320  28.920  29.801  1.00  0.00     0.037 A 
ATOM     49  C   UNL A   1      40.866  31.898  35.579  1.00  0.00     0.049 A 
ATOM     50  C   UNL A   1      41.245  28.736  30.968  1.00  0.00     0.074 A 
ATOM     51  C   UNL A   1      41.742  31.600  36.607  1.00  0.00     0.029 A 
ATOM     52  N   UNL A   1      41.153  31.022  34.542  1.00  0.00    -0.354 N 
ATOM     53  N   UNL A   1      41.271  29.379  32.109  1.00  0.00    -0.248 NA
ATOM     54  C   UNL A   1      42.279  27.700  30.835  1.00  0.00     0.031 C 
ATOM     55  C   UNL A   1      42.585  30.569  36.180  1.00  0.00     0.029 A 
ATOM     56  C   UNL A   1      42.207  30.196  34.901  1.00  0.00     0.049 A 
ATOM     57  H   UNL A   1      40.680  30.993  33.680  1.00  0.00     0.167 HD
ATOM     58  C   UNL A   1      42.317  28.828  32.833  1.00  0.00     0.074 A 
ATOM     59  C   UNL A   1      42.889  27.781  32.010  1.00  0.00     0.031 C 
ATOM     60  C   UNL A   1      42.767  29.165  34.066  1.00  0.00     0.037 A 
BRANCH  47  61
ATOM     61  C   UNL A   1      39.668  33.783  36.745  1.00  0.00     0.064 A 
ATOM     62  C   UNL A   1      40.265  35.050  36.817  1.00  0.00     0.173 A 
ATOM     63  C   UNL A   1      38.851  33.379  37.812  1.00  0.00     0.173 A 
ATOM     64  F   UNL A   1      41.065  35.476  35.829  1.00  0.00    -0.203 F 
ATOM     65  C   UNL A   1      40.062  35.875  37.921  1.00  0.00     0.198 A 
ATOM     66  C   UNL A   1      38.632  34.216  38.903  1.00  0.00     0.198 A 
ATOM     67  F   UNL A   1      38.253  32.178  37.789  1.00  0.00    -0.203 F 
ATOM     68  F   UNL A   1      40.668  37.069  37.985  1.00  0.00    -0.200 F 
ATOM     69  C   UNL A   1      39.239  35.461  38.959  1.00  0.00     0.200 A 
ATOM     70  F   UNL A   1      37.827  33.819  39.900  1.00  0.00    -0.200 F 
ATOM     71  F   UNL A   1      39.036  36.261  40.015  1.00  0.00    -0.200 F 
ENDBRANCH  47  61
BRANCH  48  72
ATOM     72  C   UNL A   1      40.388  28.037  28.610  1.00  0.00     0.064 A 
ATOM     73  C   UNL A   1      41.143  28.406  27.489  1.00  0.00     0.173 A 
ATOM     74  C   UNL A   1      39.749  26.789  28.591  1.00  0.00     0.173 A 
ATOM     75  F   UNL A   1      41.758  29.598  27.457  1.00  0.00    -0.203 F 
ATOM     76  C   UNL A   1      41.260  27.554  26.393  1.00  0.00     0.198 A 
ATOM     77  C   UNL A   1      39.886  25.929  27.505  1.00  0.00     0.198 A 
ATOM     78  F   UNL A   1      39.020  26.393  29.644  1.00  0.00    -0.203 F 
ATOM     79  F   UNL A   1      41.973  27.935  25.325  1.00  0.00    -0.200 F 
ATOM     80  C   UNL A   1      40.641  26.313  26.406  1.00  0.00     0.200 A 
ATOM     81  F   UNL A   1      39.302  24.724  27.530  1.00  0.00    -0.200 F 
ATOM     82  F   UNL A   1      40.771  25.486  25.361  1.00  0.00    -0.200 F 
ENDBRANCH  48  72
BRANCH  60  83
ATOM     83  C   UNL A   1      43.935  28.394  34.604  1.00  0.00     0.064 A 
ATOM     84  C   UNL A   1      45.246  28.870  34.466  1.00  0.00     0.173 A 
ATOM     85  C   UNL A   1      43.735  27.200  35.311  1.00  0.00     0.173 A 
ATOM     86  F   UNL A   1      45.486  30.000  33.784  1.00  0.00    -0.203 F 
ATOM     87  C   UNL A   1      46.320  28.170  35.009  1.00  0.00     0.198 A 
ATOM     88  C   UNL A   1      44.809  26.515  35.873  1.00  0.00     0.198 A 
ATOM     89  F   UNL A   1      42.498  26.709  35.473  1.00  0.00    -0.203 F 
ATOM     90  F   UNL A   1      47.568  28.626  34.841  1.00  0.00    -0.200 F 
ATOM     91  C   UNL A   1      46.100  26.999  35.719  1.00  0.00     0.200 A 
ATOM     92  F   UNL A   1      44.594  25.389  36.567  1.00  0.00    -0.200 F 
ATOM     93  F   UNL A   1      47.134  26.332  36.250  1.00  0.00    -0.200 F 
ENDBRANCH  60  83
ENDBRANCH  34  35
ENDBRANCH  26  29
ENDBRANCH  24  25
ENDBRANCH  23  24
ENDBRANCH   1  23
TORSDOF 13
ENDMDL
MODEL 2
REMARK VINA RESULT:     -12.5      0.265      1.623
REMARK SMILES C=CCn1c(=S)[nH]c2cc(C(=O)NCCCCNC(=O)c3ccc(-c4c5nc(c(-c6c(F)c(F)c(F)c(F)c6F)c6ccc([nH]6)c(-c6c(F)c(F)c(F)c(F)c6F)c6nc(c(-c7c(F)c(F)c(F)c(F)c7F)c7ccc4[nH]7)C=C6)C=C5)cc3)ccc2c1=O
REMARK SMILES IDX 15 1 14 2 13 3 11 4 12 5 10 7 4 8 5 9 87 10 6 11 7 12 86 13
REMARK SMILES IDX 88 14 8 15 85 17 9 18 84 19 3 20 2 21 1 22 16 23 17 24 18 25
REMARK SMILES IDX 19 26 20 28 21 29 22 30 83 31 23 32 82 33 24 34 25 35 26 36
REMARK SMILES IDX 76 37 27 38 81 39 75 40 77 41 28 42 80 43 74 44 73 45 29 47
REMARK SMILES IDX 61 48 41 49 60 50 42 51 45 52 59 53 78 54 43 55 44 56 58 58
REMARK SMILES IDX 79 59 46 60 30 61 31 62 39 63 32 64 33 65 37 66 40 67 34 68
REMARK SMILES IDX 35 69 38 70 36 71 62 72 63 73 71 74 64 75 65 76 69 77 72 78
REMARK SMILES IDX 66 79 67 80 70 81 68 82 47 83 48 84 56 85 49 86 50 87 54 88
REMARK SMILES IDX 57 89 51 90 52 91 55 92 53 93
REMARK H PARENT 13 6 7 16 18 27 77 46 45 57
REMARK Flexibility Score: inf
ROOT
ATOM      1  C   UNL A   1      32.319  30.331  26.654  1.00  0.00     0.023 C 
ENDROOT
BRANCH   1   2
ATOM      2  C   UNL A   1      31.856  29.702  25.335  1.00  0.00     0.116 C 
BRANCH   2   3
ATOM      3  N   UNL A   1      32.937  29.669  24.370  1.00  0.00    -0.352 N 
ATOM      4  C   UNL A   1      33.491  28.654  23.633  1.00  0.00     0.251 C 
ATOM      5  O   UNL A   1      34.410  28.955  22.869  1.00  0.00    -0.269 OA
ATOM      6  H   UNL A   1      33.353  30.547  24.211  1.00  0.00     0.163 HD
BRANCH   4   7
ATOM      7  C   UNL A   1      33.026  27.233  23.671  1.00  0.00     0.041 A 
ATOM      8  N   UNL A   1      32.505  22.372  24.980  1.00  0.00    -0.281 N 
ATOM      9  C   UNL A   1      33.377  22.931  25.924  1.00  0.00     0.180 A 
ATOM     10  C   UNL A   1      32.157  23.061  23.813  1.00  0.00     0.262 A 
ATOM     11  S   UNL A   1      34.038  22.175  27.271  1.00  0.00    -0.040 S 
ATOM     12  N   UNL A   1      33.753  24.237  25.737  1.00  0.00    -0.332 N 
ATOM     13  C   UNL A   1      32.378  24.510  23.807  1.00  0.00     0.064 A 
ATOM     14  O   UNL A   1      31.733  22.566  22.772  1.00  0.00    -0.269 OA
ATOM     15  C   UNL A   1      33.251  25.053  24.727  1.00  0.00     0.054 A 
ATOM     16  H   UNL A   1      34.417  24.622  26.354  1.00  0.00     0.169 HD
ATOM     17  C   UNL A   1      31.751  25.323  22.868  1.00  0.00     0.017 A 
ATOM     18  C   UNL A   1      33.604  26.401  24.649  1.00  0.00     0.040 A 
ATOM     19  C   UNL A   1      32.051  26.684  22.831  1.00  0.00     0.015 A 
BRANCH   8  20
ATOM     20  C   UNL A   1      32.159  20.942  25.067  1.00  0.00     0.155 C 
BRANCH  20  21
ATOM     21  C   UNL A   1      33.118  20.021  24.367  1.00  0.00    -0.013 C 
ATOM     22  C   UNL A   1      33.025  18.684  24.412  1.00  0.00     0.006 C 
ENDBRANCH  20  21
ENDBRANCH   8  20
ENDBRANCH   4   7
ENDBRANCH   2   3
ENDBRANCH   1   2
BRANCH   1  23
ATOM     23  C   UNL A   1      31.868  31.777  26.856  1.00  0.00     0.023 C 
BRANCH  23  24
ATOM     24  C   UNL A   1      32.931  32.684  27.457  1.00  0.00     0.116 C 
BRANCH  24  25
ATOM     25  N   UNL A   1      32.476  34.045  27.695  1.00  0.00    -0.352 N 
ATOM     26  C   UNL A   1      33.000  34.963  28.581  1.00  0.00     0.251 C 
ATOM     27  H   UNL A   1      31.704  34.346  27.163  1.00  0.00     0.163 HD
ATOM     28  O   UNL A   1      32.473  36.050  28.753  1.00  0.00    -0.269 OA
BRANCH  26  29
ATOM     29  C   UNL A   1      34.188  34.568  29.366  1.00  0.00     0.039 A 
ATOM     30  C   UNL A   1      35.458  34.636  28.795  1.00  0.00     0.014 A 
ATOM     31  C   UNL A   1      34.005  34.023  30.639  1.00  0.00     0.014 A 
ATOM     32  C   UNL A   1      36.522  34.002  29.422  1.00  0.00     0.010 A 
ATOM     33  C   UNL A   1      35.094  33.459  31.306  1.00  0.00     0.010 A 
ATOM     34  C   UNL A   1      36.348  33.395  30.678  1.00  0.00    -0.014 A 
BRANCH  34  35
ATOM     35  C   UNL A   1      37.492  32.689  31.304  1.00  0.00     0.031 A 
ATOM     36  C   UNL A   1      37.929  33.024  32.703  1.00  0.00     0.074 A 
ATOM     37  C   UNL A   1      38.090  31.691  30.628  1.00  0.00     0.049 A 
ATOM     38  N   UNL A   1      38.893  32.494  33.415  1.00  0.00    -0.248 NA
ATOM     39  C   UNL A   1      37.194  34.092  33.396  1.00  0.00     0.031 C 
ATOM     40  C   UNL A   1      37.733  31.265  29.274  1.00  0.00     0.029 A 
ATOM     41  N   UNL A   1      39.096  30.836  30.994  1.00  0.00    -0.354 N 
ATOM     42  C   UNL A   1      38.892  33.174  34.625  1.00  0.00     0.074 A 
ATOM     43  C   UNL A   1      37.848  34.172  34.547  1.00  0.00     0.031 C 
ATOM     44  C   UNL A   1      38.465  30.190  28.946  1.00  0.00     0.029 A 
ATOM     45  C   UNL A   1      39.384  29.893  30.039  1.00  0.00     0.049 A 
ATOM     46  H   UNL A   1      39.566  30.892  31.857  1.00  0.00     0.167 HD
ATOM     47  C   UNL A   1      39.686  32.975  35.705  1.00  0.00     0.037 A 
ATOM     48  C   UNL A   1      40.295  28.902  30.040  1.00  0.00     0.037 A 
ATOM     49  C   UNL A   1      40.706  31.963  35.786  1.00  0.00     0.049 A 
ATOM     50  C   UNL A   1      41.186  28.728  31.234  1.00  0.00     0.074 A 
ATOM     51  C   UNL A   1      41.552  31.674  36.842  1.00  0.00     0.029 A 
ATOM     52  N   UNL A   1      41.015  31.069  34.770  1.00  0.00    -0.354 N 
ATOM     53  N   UNL A   1      41.186  29.389  32.366  1.00  0.00    -0.248 NA
ATOM     54  C   UNL A   1      42.215  27.683  31.145  1.00  0.00     0.031 C 
ATOM     55  C   UNL A   1      42.398  30.629  36.453  1.00  0.00     0.029 A 
ATOM     56  C   UNL A   1      42.052  30.240  35.170  1.00  0.00     0.049 A 
ATOM     57  H   UNL A   1      40.566  31.030  33.896  1.00  0.00     0.167 HD
ATOM     58  C   UNL A   1      42.208  28.840  33.126  1.00  0.00     0.074 A 
ATOM     59  C   UNL A   1      42.793  27.776  32.335  1.00  0.00     0.031 C 
ATOM     60  C   UNL A   1      42.627  29.192  34.366  1.00  0.00     0.037 A 
BRANCH  47  61
ATOM     61  C   UNL A   1      39.493  33.874  36.890  1.00  0.00     0.064 A 
ATOM     62  C   UNL A   1      38.712  33.486  37.988  1.00  0.00     0.173 A 
ATOM     63  C   UNL A   1      40.147  35.114  36.954  1.00  0.00     0.173 A 
ATOM     64  F   UNL A   1      38.056  32.317  37.969  1.00  0.00    -0.203 F 
ATOM     65  C   UNL A   1      38.581  34.313  39.101  1.00  0.00     0.198 A 
ATOM     66  C   UNL A   1      40.033  35.928  38.078  1.00  0.00     0.198 A 
ATOM     67  F   UNL A   1      40.910  35.529  35.931  1.00  0.00    -0.203 F 
ATOM     68  F   UNL A   1      37.804  33.936  40.126  1.00  0.00    -0.200 F 
ATOM     69  C   UNL A   1      39.248  35.528  39.149  1.00  0.00     0.200 A 
ATOM     70  F   UNL A   1      40.687  37.097  38.127  1.00  0.00    -0.200 F 
ATOM     71  F   UNL A   1      39.130  36.317  40.226  1.00  0.00    -0.200 F 
ENDBRANCH  47  61
BRANCH  48  72
ATOM     72  C   UNL A   1      40.388  28.001  28.864  1.00  0.00     0.064 A 
ATOM     73  C   UNL A   1      39.662  26.803  28.821  1.00  0.00     0.173 A 
ATOM     74  C   UNL A   1      41.156  28.344  27.743  1.00  0.00     0.173 A 
ATOM     75  F   UNL A   1      38.927  26.428  29.878  1.00  0.00    -0.203 F 
ATOM     76  C   UNL A   1      39.697  25.985  27.695  1.00  0.00     0.198 A 
ATOM     77  C   UNL A   1      41.172  27.537  26.608  1.00  0.00     0.198 A 
ATOM     78  F   UNL A   1      41.864  29.483  27.737  1.00  0.00    -0.203 F 
ATOM     79  F   UNL A   1      39.008  24.836  27.684  1.00  0.00    -0.200 F 
ATOM     80  C   UNL A   1      40.443  26.357  26.586  1.00  0.00     0.200 A 
ATOM     81  F   UNL A   1      41.879  27.909  25.534  1.00  0.00    -0.200 F 
ATOM     82  F   UNL A   1      40.460  25.579  25.496  1.00  0.00    -0.200 F 
ENDBRANCH  48  72
BRANCH  60  83
ATOM     83  C   UNL A   1      43.773  28.421  34.947  1.00  0.00     0.064 A 
ATOM     84  C   UNL A   1      45.095  28.866  34.806  1.00  0.00     0.173 A 
ATOM     85  C   UNL A   1      43.542  27.260  35.698  1.00  0.00     0.173 A 
ATOM     86  F   UNL A   1      45.365  29.963  34.084  1.00  0.00    -0.203 F 
ATOM     87  C   UNL A   1      46.149  28.168  35.389  1.00  0.00     0.198 A 
ATOM     88  C   UNL A   1      44.596  26.577  36.298  1.00  0.00     0.198 A 
ATOM     89  F   UNL A   1      42.294  26.799  35.864  1.00  0.00    -0.203 F 
ATOM     90  F   UNL A   1      47.408  28.592  35.218  1.00  0.00    -0.200 F 
ATOM     91  C   UNL A   1      45.898  27.029  36.141  1.00  0.00     0.200 A 
ATOM     92  F   UNL A   1      44.352  25.483  37.033  1.00  0.00    -0.200 F 
ATOM     93  F   UNL A   1      46.912  26.364  36.709  1.00  0.00    -0.200 F 
ENDBRANCH  60  83
ENDBRANCH  34  35
ENDBRANCH  26  29
ENDBRANCH  24  25
ENDBRANCH  23  24
ENDBRANCH   1  23
TORSDOF 13
ENDMDL
MODEL 3
REMARK VINA RESULT:     -12.4      0.511      7.535
REMARK SMILES C=CCn1c(=S)[nH]c2cc(C(=O)NCCCCNC(=O)c3ccc(-c4c5nc(c(-c6c(F)c(F)c(F)c(F)c6F)c6ccc([nH]6)c(-c6c(F)c(F)c(F)c(F)c6F)c6nc(c(-c7c(F)c(F)c(F)c(F)c7F)c7ccc4[nH]7)C=C6)C=C5)cc3)ccc2c1=O
REMARK SMILES IDX 15 1 14 2 13 3 11 4 12 5 10 7 4 8 5 9 87 10 6 11 7 12 86 13
REMARK SMILES IDX 88 14 8 15 85 17 9 18 84 19 3 20 2 21 1 22 16 23 17 24 18 25
REMARK SMILES IDX 19 26 20 28 21 29 22 30 83 31 23 32 82 33 24 34 25 35 26 36
REMARK SMILES IDX 76 37 27 38 81 39 75 40 77 41 28 42 80 43 74 44 73 45 29 47
REMARK SMILES IDX 61 48 41 49 60 50 42 51 45 52 59 53 78 54 43 55 44 56 58 58
REMARK SMILES IDX 79 59 46 60 30 61 31 62 39 63 32 64 33 65 37 66 40 67 34 68
REMARK SMILES IDX 35 69 38 70 36 71 62 72 63 73 71 74 64 75 65 76 69 77 72 78
REMARK SMILES IDX 66 79 67 80 70 81 68 82 47 83 48 84 56 85 49 86 50 87 54 88
REMARK SMILES IDX 57 89 51 90 52 91 55 92 53 93
REMARK H PARENT 13 6 7 16 18 27 77 46 45 57
REMARK Flexibility Score: inf
ROOT
ATOM      1  C   UNL A   1      32.304  30.357  26.646  1.00  0.00     0.023 C 
ENDROOT
BRANCH   1   2
ATOM      2  C   UNL A   1      31.828  29.723  25.333  1.00  0.00     0.116 C 
BRANCH   2   3
ATOM      3  N   UNL A   1      32.901  29.682  24.360  1.00  0.00    -0.352 N 
ATOM      4  C   UNL A   1      33.453  28.659  23.631  1.00  0.00     0.251 C 
ATOM      5  O   UNL A   1      34.365  28.954  22.856  1.00  0.00    -0.269 OA
ATOM      6  H   UNL A   1      33.314  30.559  24.188  1.00  0.00     0.163 HD
BRANCH   4   7
ATOM      7  C   UNL A   1      32.992  27.238  23.689  1.00  0.00     0.041 A 
ATOM      8  N   UNL A   1      32.492  22.392  25.063  1.00  0.00    -0.281 N 
ATOM      9  C   UNL A   1      33.365  22.967  25.997  1.00  0.00     0.180 A 
ATOM     10  C   UNL A   1      32.137  23.065  23.888  1.00  0.00     0.262 A 
ATOM     11  S   UNL A   1      34.033  22.230  27.351  1.00  0.00    -0.040 S 
ATOM     12  N   UNL A   1      33.736  24.271  25.792  1.00  0.00    -0.332 N 
ATOM     13  C   UNL A   1      32.354  24.515  23.863  1.00  0.00     0.064 A 
ATOM     14  O   UNL A   1      31.712  22.556  22.856  1.00  0.00    -0.269 OA
ATOM     15  C   UNL A   1      33.228  25.072  24.773  1.00  0.00     0.054 A 
ATOM     16  H   UNL A   1      34.401  24.666  26.402  1.00  0.00     0.169 HD
ATOM     17  C   UNL A   1      31.721  25.314  22.916  1.00  0.00     0.017 A 
ATOM     18  C   UNL A   1      33.577  26.421  24.676  1.00  0.00     0.040 A 
ATOM     19  C   UNL A   1      32.016  26.674  22.860  1.00  0.00     0.015 A 
BRANCH   8  20
ATOM     20  C   UNL A   1      32.150  20.963  25.170  1.00  0.00     0.155 C 
BRANCH  20  21
ATOM     21  C   UNL A   1      33.016  20.049  24.350  1.00  0.00    -0.013 C 
ATOM     22  C   UNL A   1      32.528  19.086  23.553  1.00  0.00     0.006 C 
ENDBRANCH  20  21
ENDBRANCH   8  20
ENDBRANCH   4   7
ENDBRANCH   2   3
ENDBRANCH   1   2
BRANCH   1  23
ATOM     23  C   UNL A   1      31.887  31.815  26.829  1.00  0.00     0.023 C 
BRANCH  23  24
ATOM     24  C   UNL A   1      32.938  32.685  27.501  1.00  0.00     0.116 C 
BRANCH  24  25
ATOM     25  N   UNL A   1      32.517  34.063  27.706  1.00  0.00    -0.352 N 
ATOM     26  C   UNL A   1      33.026  34.970  28.612  1.00  0.00     0.251 C 
ATOM     27  H   UNL A   1      31.785  34.385  27.132  1.00  0.00     0.163 HD
ATOM     28  O   UNL A   1      32.528  36.075  28.749  1.00  0.00    -0.269 OA
BRANCH  26  29
ATOM     29  C   UNL A   1      34.156  34.542  29.461  1.00  0.00     0.039 A 
ATOM     30  C   UNL A   1      35.455  34.550  28.953  1.00  0.00     0.014 A 
ATOM     31  C   UNL A   1      33.889  34.026  30.732  1.00  0.00     0.014 A 
ATOM     32  C   UNL A   1      36.460  33.885  29.642  1.00  0.00     0.010 A 
ATOM     33  C   UNL A   1      34.920  33.431  31.461  1.00  0.00     0.010 A 
ATOM     34  C   UNL A   1      36.200  33.307  30.897  1.00  0.00    -0.014 A 
BRANCH  34  35
ATOM     35  C   UNL A   1      37.283  32.567  31.590  1.00  0.00     0.031 A 
ATOM     36  C   UNL A   1      38.018  31.454  30.896  1.00  0.00     0.074 A 
ATOM     37  C   UNL A   1      37.648  32.953  32.826  1.00  0.00     0.049 A 
ATOM     38  N   UNL A   1      39.004  30.715  31.340  1.00  0.00    -0.248 NA
ATOM     39  C   UNL A   1      37.594  31.123  29.527  1.00  0.00     0.031 C 
ATOM     40  C   UNL A   1      37.020  34.035  33.585  1.00  0.00     0.029 A 
ATOM     41  N   UNL A   1      38.651  32.507  33.645  1.00  0.00    -0.354 N 
ATOM     42  C   UNL A   1      39.303  29.824  30.319  1.00  0.00     0.074 A 
ATOM     43  C   UNL A   1      38.381  30.096  29.238  1.00  0.00     0.031 C 
ATOM     44  C   UNL A   1      37.691  34.210  34.733  1.00  0.00     0.029 A 
ATOM     45  C   UNL A   1      38.752  33.213  34.818  1.00  0.00     0.049 A 
ATOM     46  H   UNL A   1      39.241  31.753  33.416  1.00  0.00     0.167 HD
ATOM     47  C   UNL A   1      40.267  28.872  30.285  1.00  0.00     0.037 A 
ATOM     48  C   UNL A   1      39.602  33.068  35.853  1.00  0.00     0.037 A 
ATOM     49  C   UNL A   1      41.199  28.623  31.354  1.00  0.00     0.049 A 
ATOM     50  C   UNL A   1      40.634  31.982  35.804  1.00  0.00     0.074 A 
ATOM     51  C   UNL A   1      42.220  27.691  31.408  1.00  0.00     0.029 A 
ATOM     52  N   UNL A   1      41.226  29.315  32.556  1.00  0.00    -0.354 N 
ATOM     53  N   UNL A   1      40.896  31.135  34.839  1.00  0.00    -0.248 NA
ATOM     54  C   UNL A   1      41.479  31.820  36.996  1.00  0.00     0.031 C 
ATOM     55  C   UNL A   1      42.842  27.794  32.656  1.00  0.00     0.029 A 
ATOM     56  C   UNL A   1      42.235  28.817  33.365  1.00  0.00     0.049 A 
ATOM     57  H   UNL A   1      40.618  30.050  32.798  1.00  0.00     0.167 HD
ATOM     58  C   UNL A   1      41.935  30.342  35.301  1.00  0.00     0.074 A 
ATOM     59  C   UNL A   1      42.273  30.823  36.625  1.00  0.00     0.031 C 
ATOM     60  C   UNL A   1      42.550  29.304  34.684  1.00  0.00     0.037 A 
BRANCH  47  61
ATOM     61  C   UNL A   1      40.363  28.017  29.056  1.00  0.00     0.064 A 
ATOM     62  C   UNL A   1      39.645  26.818  28.937  1.00  0.00     0.173 A 
ATOM     63  C   UNL A   1      41.134  28.433  27.960  1.00  0.00     0.173 A 
ATOM     64  F   UNL A   1      38.904  26.371  29.962  1.00  0.00    -0.203 F 
ATOM     65  C   UNL A   1      39.708  26.059  27.771  1.00  0.00     0.198 A 
ATOM     66  C   UNL A   1      41.176  27.683  26.787  1.00  0.00     0.198 A 
ATOM     67  F   UNL A   1      41.836  29.575  28.022  1.00  0.00    -0.203 F 
ATOM     68  F   UNL A   1      39.040  24.900  27.691  1.00  0.00    -0.200 F 
ATOM     69  C   UNL A   1      40.466  26.496  26.695  1.00  0.00     0.200 A 
ATOM     70  F   UNL A   1      41.901  28.113  25.744  1.00  0.00    -0.200 F 
ATOM     71  F   UNL A   1      40.516  25.770  25.570  1.00  0.00    -0.200 F 
ENDBRANCH  47  61
BRANCH  48  72
ATOM     72  C   UNL A   1      39.500  33.993  37.009  1.00  0.00     0.064 A 
ATOM     73  C   UNL A   1      38.774  33.632  38.152  1.00  0.00     0.173 A 
ATOM     74  C   UNL A   1      40.170  35.225  37.018  1.00  0.00     0.173 A 
ATOM     75  F   UNL A   1      38.105  32.470  38.181  1.00  0.00    -0.203 F 
ATOM     76  C   UNL A   1      38.727  34.469  39.264  1.00  0.00     0.198 A 
ATOM     77  C   UNL A   1      40.142  36.050  38.139  1.00  0.00     0.198 A 
ATOM     78  F   UNL A   1      40.882  35.609  35.948  1.00  0.00    -0.203 F 
ATOM     79  F   UNL A   1      38.012  34.110  40.339  1.00  0.00    -0.200 F 
ATOM     80  C   UNL A   1      39.419  35.671  39.261  1.00  0.00     0.200 A 
ATOM     81  F   UNL A   1      40.826  37.200  38.138  1.00  0.00    -0.200 F 
ATOM     82  F   UNL A   1      39.389  36.466  40.339  1.00  0.00    -0.200 F 
ENDBRANCH  48  72
BRANCH  60  83
ATOM     83  C   UNL A   1      43.651  28.616  35.432  1.00  0.00     0.064 A 
ATOM     84  C   UNL A   1      43.381  27.569  36.325  1.00  0.00     0.173 A 
ATOM     85  C   UNL A   1      44.991  28.968  35.212  1.00  0.00     0.173 A 
ATOM     86  F   UNL A   1      42.114  27.209  36.578  1.00  0.00    -0.203 F 
ATOM     87  C   UNL A   1      44.414  26.906  36.981  1.00  0.00     0.198 A 
ATOM     88  C   UNL A   1      46.022  28.287  35.852  1.00  0.00     0.198 A 
ATOM     89  F   UNL A   1      45.298  29.960  34.363  1.00  0.00    -0.203 F 
ATOM     90  F   UNL A   1      44.133  25.929  37.853  1.00  0.00    -0.200 F 
ATOM     91  C   UNL A   1      45.734  27.259  36.738  1.00  0.00     0.200 A 
ATOM     92  F   UNL A   1      47.297  28.622  35.608  1.00  0.00    -0.200 F 
ATOM     93  F   UNL A   1      46.727  26.613  37.362  1.00  0.00    -0.200 F 
ENDBRANCH  60  83
ENDBRANCH  34  35
ENDBRANCH  26  29
ENDBRANCH  24  25
ENDBRANCH  23  24
ENDBRANCH   1  23
TORSDOF 13
ENDMDL
