MODEL 1
REMARK VINA RESULT:     -11.7      0.000      0.000
REMARK SMILES C[C@@]([NH2+]Cc1ccccc1Br)(C(=O)NCCCCNC(=O)c1ccc(-c2c3nc(c(-c4c(F)c(F)c(F)c(F)c4F)c4ccc([nH]4)c(-c4c(F)c(F)c(F)c(F)c4F)c4nc(c(-c5c(F)c(F)c(F)c(F)c5F)c5ccc2[nH]5)C=C4)C=C3)cc1)C(F)(F)F
REMARK SMILES IDX 16 1 15 2 14 3 12 4 13 5 2 7 1 8 3 9 4 12 5 13 6 14 10 15
REMARK SMILES IDX 7 16 9 17 11 18 8 19 85 20 86 21 87 22 88 23 17 24 18 25
REMARK SMILES IDX 19 26 20 27 21 29 22 30 23 31 84 32 24 33 83 34 25 35 26 36
REMARK SMILES IDX 27 37 77 38 28 39 82 40 76 41 78 42 29 43 81 44 75 45 74 46
REMARK SMILES IDX 30 48 62 49 42 50 61 51 43 52 46 53 60 54 79 55 44 56 45 57
REMARK SMILES IDX 59 59 80 60 47 61 31 62 32 63 40 64 33 65 34 66 38 67 41 68
REMARK SMILES IDX 35 69 36 70 39 71 37 72 63 73 64 74 72 75 65 76 66 77 70 78
REMARK SMILES IDX 73 79 67 80 68 81 71 82 69 83 48 84 49 85 57 86 50 87 51 88
REMARK SMILES IDX 55 89 58 90 52 91 53 92 56 93 54 94
REMARK H PARENT 14 6 3 10 3 11 19 28 78 47 46 58
REMARK Flexibility Score: inf
ROOT
ATOM      1  C   UNL A   1      37.349  21.356  24.473  1.00  0.00     0.023 C 
ENDROOT
BRANCH   1   2
ATOM      2  C   UNL A   1      36.802  22.283  25.558  1.00  0.00     0.116 C 
BRANCH   2   3
ATOM      3  N   UNL A   1      35.798  21.608  26.356  1.00  0.00    -0.350 N 
ATOM      4  C   UNL A   1      34.447  21.790  26.448  1.00  0.00     0.290 C 
ATOM      5  O   UNL A   1      33.883  21.076  27.282  1.00  0.00    -0.267 OA
ATOM      6  H   UNL A   1      36.150  20.894  26.933  1.00  0.00     0.163 HD
BRANCH   4   7
ATOM      7  C   UNL A   1      33.679  22.780  25.545  1.00  0.00     0.268 C 
ATOM      8  C   UNL A   1      32.197  22.891  25.974  1.00  0.00     0.101 C 
BRANCH   7   9
ATOM      9  N   UNL A   1      34.230  24.177  25.705  1.00  0.00    -0.322 N 
ATOM     10  H   UNL A   1      34.907  24.326  24.956  1.00  0.00     0.347 HD
ATOM     11  H   UNL A   1      34.612  24.199  26.650  1.00  0.00     0.347 HD
BRANCH   9  12
ATOM     12  C   UNL A   1      33.275  25.291  25.662  1.00  0.00     0.299 C 
BRANCH  12  13
ATOM     13  C   UNL A   1      33.496  26.291  24.553  1.00  0.00     0.020 A 
ATOM     14  C   UNL A   1      33.487  25.817  23.227  1.00  0.00     0.011 A 
ATOM     15  C   UNL A   1      33.687  27.669  24.760  1.00  0.00     0.026 A 
ATOM     16  C   UNL A   1      33.555  26.698  22.147  1.00  0.00     0.001 A 
ATOM     17  C   UNL A   1      33.735  28.551  23.675  1.00  0.00     0.016 A 
ATOM     18  Br  UNL A   1      33.883  28.433  26.491  1.00  0.00    -0.050 Br
ATOM     19  C   UNL A   1      33.651  28.066  22.371  1.00  0.00     0.001 A 
ENDBRANCH  12  13
ENDBRANCH   9  12
ENDBRANCH   7   9
BRANCH   7  20
ATOM     20  C   UNL A   1      33.629  22.141  24.121  1.00  0.00     0.453 C 
ATOM     21  F   UNL A   1      33.822  20.798  24.170  1.00  0.00    -0.164 F 
ATOM     22  F   UNL A   1      32.392  22.319  23.580  1.00  0.00    -0.164 F 
ATOM     23  F   UNL A   1      34.517  22.640  23.244  1.00  0.00    -0.164 F 
ENDBRANCH   7  20
ENDBRANCH   4   7
ENDBRANCH   2   3
ENDBRANCH   1   2
BRANCH   1  24
ATOM     24  C   UNL A   1      37.994  20.073  25.001  1.00  0.00     0.023 C 
BRANCH  24  25
ATOM     25  C   UNL A   1      39.118  20.282  26.008  1.00  0.00     0.116 C 
BRANCH  25  26
ATOM     26  N   UNL A   1      40.095  19.204  25.999  1.00  0.00    -0.352 N 
ATOM     27  C   UNL A   1      41.462  19.282  26.107  1.00  0.00     0.251 C 
ATOM     28  H   UNL A   1      39.727  18.297  25.902  1.00  0.00     0.163 HD
ATOM     29  O   UNL A   1      42.156  18.282  25.949  1.00  0.00    -0.269 OA
BRANCH  27  30
ATOM     30  C   UNL A   1      42.096  20.586  26.383  1.00  0.00     0.039 A 
ATOM     31  C   UNL A   1      42.478  21.390  25.306  1.00  0.00     0.014 A 
ATOM     32  C   UNL A   1      42.286  21.024  27.696  1.00  0.00     0.014 A 
ATOM     33  C   UNL A   1      42.992  22.666  25.548  1.00  0.00     0.010 A 
ATOM     34  C   UNL A   1      42.730  22.321  27.933  1.00  0.00     0.010 A 
ATOM     35  C   UNL A   1      43.087  23.154  26.861  1.00  0.00    -0.014 A 
BRANCH  35  36
ATOM     36  C   UNL A   1      43.554  24.537  27.134  1.00  0.00     0.031 A 
ATOM     37  C   UNL A   1      42.591  25.570  27.644  1.00  0.00     0.074 A 
ATOM     38  C   UNL A   1      44.828  24.876  26.858  1.00  0.00     0.049 A 
ATOM     39  N   UNL A   1      42.787  26.844  27.873  1.00  0.00    -0.248 NA
ATOM     40  C   UNL A   1      41.214  25.119  27.905  1.00  0.00     0.031 C 
ATOM     41  C   UNL A   1      45.844  23.974  26.313  1.00  0.00     0.029 A 
ATOM     42  N   UNL A   1      45.483  26.075  26.985  1.00  0.00    -0.354 N 
ATOM     43  C   UNL A   1      41.561  27.346  28.289  1.00  0.00     0.074 A 
ATOM     44  C   UNL A   1      40.615  26.255  28.229  1.00  0.00     0.031 C 
ATOM     45  C   UNL A   1      46.999  24.645  26.173  1.00  0.00     0.029 A 
ATOM     46  C   UNL A   1      46.794  26.032  26.582  1.00  0.00     0.049 A 
ATOM     47  H   UNL A   1      45.053  26.889  27.334  1.00  0.00     0.167 HD
ATOM     48  C   UNL A   1      41.260  28.599  28.705  1.00  0.00     0.037 A 
ATOM     49  C   UNL A   1      47.726  27.004  26.539  1.00  0.00     0.037 A 
ATOM     50  C   UNL A   1      42.211  29.675  28.787  1.00  0.00     0.049 A 
ATOM     51  C   UNL A   1      47.363  28.389  27.005  1.00  0.00     0.074 A 
ATOM     52  C   UNL A   1      42.019  30.964  29.254  1.00  0.00     0.029 A 
ATOM     53  N   UNL A   1      43.537  29.589  28.390  1.00  0.00    -0.354 N 
ATOM     54  N   UNL A   1      46.218  28.834  27.464  1.00  0.00    -0.248 NA
ATOM     55  C   UNL A   1      48.424  29.404  26.953  1.00  0.00     0.031 C 
ATOM     56  C   UNL A   1      43.216  31.669  29.097  1.00  0.00     0.029 A 
ATOM     57  C   UNL A   1      44.169  30.807  28.581  1.00  0.00     0.049 A 
ATOM     58  H   UNL A   1      43.967  28.781  28.025  1.00  0.00     0.167 HD
ATOM     59  C   UNL A   1      46.429  30.169  27.783  1.00  0.00     0.074 A 
ATOM     60  C   UNL A   1      47.815  30.457  27.478  1.00  0.00     0.031 C 
ATOM     61  C   UNL A   1      45.552  31.075  28.282  1.00  0.00     0.037 A 
BRANCH  48  62
ATOM     62  C   UNL A   1      39.840  28.874  29.110  1.00  0.00     0.064 A 
ATOM     63  C   UNL A   1      38.887  29.329  28.185  1.00  0.00     0.173 A 
ATOM     64  C   UNL A   1      39.417  28.643  30.428  1.00  0.00     0.173 A 
ATOM     65  F   UNL A   1      39.243  29.576  26.916  1.00  0.00    -0.203 F 
ATOM     66  C   UNL A   1      37.571  29.570  28.572  1.00  0.00     0.198 A 
ATOM     67  C   UNL A   1      38.094  28.855  30.803  1.00  0.00     0.198 A 
ATOM     68  F   UNL A   1      40.286  28.203  31.350  1.00  0.00    -0.203 F 
ATOM     69  F   UNL A   1      36.691  30.052  27.683  1.00  0.00    -0.200 F 
ATOM     70  C   UNL A   1      37.174  29.326  29.878  1.00  0.00     0.200 A 
ATOM     71  F   UNL A   1      37.707  28.608  32.063  1.00  0.00    -0.200 F 
ATOM     72  F   UNL A   1      35.904  29.551  30.246  1.00  0.00    -0.200 F 
ENDBRANCH  48  62
BRANCH  49  73
ATOM     73  C   UNL A   1      49.099  26.698  26.060  1.00  0.00     0.064 A 
ATOM     74  C   UNL A   1      49.472  26.957  24.733  1.00  0.00     0.173 A 
ATOM     75  C   UNL A   1      50.061  26.135  26.910  1.00  0.00     0.173 A 
ATOM     76  F   UNL A   1      48.580  27.476  23.877  1.00  0.00    -0.203 F 
ATOM     77  C   UNL A   1      50.748  26.642  24.269  1.00  0.00     0.198 A 
ATOM     78  C   UNL A   1      51.346  25.847  26.453  1.00  0.00     0.198 A 
ATOM     79  F   UNL A   1      49.757  25.872  28.190  1.00  0.00    -0.203 F 
ATOM     80  F   UNL A   1      51.061  26.855  22.984  1.00  0.00    -0.200 F 
ATOM     81  C   UNL A   1      51.686  26.093  25.131  1.00  0.00     0.200 A 
ATOM     82  F   UNL A   1      52.254  25.330  27.292  1.00  0.00    -0.200 F 
ATOM     83  F   UNL A   1      52.912  25.793  24.685  1.00  0.00    -0.200 F 
ENDBRANCH  49  73
BRANCH  61  84
ATOM     84  C   UNL A   1      46.074  32.453  28.567  1.00  0.00     0.064 A 
ATOM     85  C   UNL A   1      46.652  32.782  29.801  1.00  0.00     0.173 A 
ATOM     86  C   UNL A   1      46.031  33.445  27.575  1.00  0.00     0.173 A 
ATOM     87  F   UNL A   1      46.703  31.874  30.786  1.00  0.00    -0.203 F 
ATOM     88  C   UNL A   1      47.146  34.061  30.041  1.00  0.00     0.198 A 
ATOM     89  C   UNL A   1      46.553  34.714  27.808  1.00  0.00     0.198 A 
ATOM     90  F   UNL A   1      45.494  33.179  26.375  1.00  0.00    -0.203 F 
ATOM     91  F   UNL A   1      47.650  34.367  31.245  1.00  0.00    -0.200 F 
ATOM     92  C   UNL A   1      47.103  35.023  29.043  1.00  0.00     0.200 A 
ATOM     93  F   UNL A   1      46.523  35.637  26.838  1.00  0.00    -0.200 F 
ATOM     94  F   UNL A   1      47.586  36.252  29.273  1.00  0.00    -0.200 F 
ENDBRANCH  61  84
ENDBRANCH  35  36
ENDBRANCH  27  30
ENDBRANCH  25  26
ENDBRANCH  24  25
ENDBRANCH   1  24
TORSDOF 15
ENDMDL
MODEL 2
REMARK VINA RESULT:     -11.6      5.923     11.136
REMARK SMILES C[C@@]([NH2+]Cc1ccccc1Br)(C(=O)NCCCCNC(=O)c1ccc(-c2c3nc(c(-c4c(F)c(F)c(F)c(F)c4F)c4ccc([nH]4)c(-c4c(F)c(F)c(F)c(F)c4F)c4nc(c(-c5c(F)c(F)c(F)c(F)c5F)c5ccc2[nH]5)C=C4)C=C3)cc1)C(F)(F)F
REMARK SMILES IDX 16 1 15 2 14 3 12 4 13 5 2 7 1 8 3 9 4 12 5 13 6 14 10 15
REMARK SMILES IDX 7 16 9 17 11 18 8 19 85 20 86 21 87 22 88 23 17 24 18 25
REMARK SMILES IDX 19 26 20 27 21 29 22 30 23 31 84 32 24 33 83 34 25 35 26 36
REMARK SMILES IDX 27 37 77 38 28 39 82 40 76 41 78 42 29 43 81 44 75 45 74 46
REMARK SMILES IDX 30 48 62 49 42 50 61 51 43 52 46 53 60 54 79 55 44 56 45 57
REMARK SMILES IDX 59 59 80 60 47 61 31 62 32 63 40 64 33 65 34 66 38 67 41 68
REMARK SMILES IDX 35 69 36 70 39 71 37 72 63 73 64 74 72 75 65 76 66 77 70 78
REMARK SMILES IDX 73 79 67 80 68 81 71 82 69 83 48 84 49 85 57 86 50 87 51 88
REMARK SMILES IDX 55 89 58 90 52 91 53 92 56 93 54 94
REMARK H PARENT 14 6 3 10 3 11 19 28 78 47 46 58
REMARK Flexibility Score: inf
ROOT
ATOM      1  C   UNL A   1      31.766  30.383  26.751  1.00  0.00     0.023 C 
ENDROOT
BRANCH   1   2
ATOM      2  C   UNL A   1      33.050  29.824  26.138  1.00  0.00     0.116 C 
BRANCH   2   3
ATOM      3  N   UNL A   1      32.982  29.840  24.691  1.00  0.00    -0.350 N 
ATOM      4  C   UNL A   1      32.793  28.834  23.786  1.00  0.00     0.290 C 
ATOM      5  O   UNL A   1      32.849  29.182  22.604  1.00  0.00    -0.267 OA
ATOM      6  H   UNL A   1      33.091  30.730  24.289  1.00  0.00     0.163 HD
BRANCH   4   7
ATOM      7  C   UNL A   1      32.487  27.380  24.212  1.00  0.00     0.268 C 
ATOM      8  C   UNL A   1      32.516  26.426  22.995  1.00  0.00     0.101 C 
BRANCH   7   9
ATOM      9  N   UNL A   1      33.567  26.861  25.132  1.00  0.00    -0.322 N 
ATOM     10  H   UNL A   1      33.164  26.792  26.066  1.00  0.00     0.347 HD
ATOM     11  H   UNL A   1      34.333  27.526  25.033  1.00  0.00     0.347 HD
BRANCH   9  12
ATOM     12  C   UNL A   1      34.160  25.558  24.811  1.00  0.00     0.299 C 
BRANCH  12  13
ATOM     13  C   UNL A   1      33.887  24.459  25.810  1.00  0.00     0.020 A 
ATOM     14  C   UNL A   1      32.582  24.348  26.326  1.00  0.00     0.011 A 
ATOM     15  C   UNL A   1      34.848  23.527  26.239  1.00  0.00     0.026 A 
ATOM     16  C   UNL A   1      32.223  23.281  27.151  1.00  0.00     0.001 A 
ATOM     17  C   UNL A   1      34.480  22.448  27.051  1.00  0.00     0.016 A 
ATOM     18  Br  UNL A   1      36.685  23.645  25.756  1.00  0.00    -0.050 Br
ATOM     19  C   UNL A   1      33.164  22.317  27.491  1.00  0.00     0.001 A 
ENDBRANCH  12  13
ENDBRANCH   9  12
ENDBRANCH   7   9
BRANCH   7  20
ATOM     20  C   UNL A   1      31.002  27.359  24.693  1.00  0.00     0.453 C 
ATOM     21  F   UNL A   1      30.351  26.251  24.255  1.00  0.00    -0.164 F 
ATOM     22  F   UNL A   1      30.960  27.301  26.054  1.00  0.00    -0.164 F 
ATOM     23  F   UNL A   1      30.271  28.424  24.323  1.00  0.00    -0.164 F 
ENDBRANCH   7  20
ENDBRANCH   4   7
ENDBRANCH   2   3
ENDBRANCH   1   2
BRANCH   1  24
ATOM     24  C   UNL A   1      31.633  31.905  26.666  1.00  0.00     0.023 C 
BRANCH  24  25
ATOM     25  C   UNL A   1      32.809  32.688  27.235  1.00  0.00     0.116 C 
BRANCH  25  26
ATOM     26  N   UNL A   1      32.460  34.054  27.593  1.00  0.00    -0.352 N 
ATOM     27  C   UNL A   1      33.002  34.853  28.570  1.00  0.00     0.251 C 
ATOM     28  H   UNL A   1      31.737  34.461  27.064  1.00  0.00     0.163 HD
ATOM     29  O   UNL A   1      32.502  35.942  28.832  1.00  0.00    -0.269 OA
BRANCH  27  30
ATOM     30  C   UNL A   1      34.174  34.376  29.330  1.00  0.00     0.039 A 
ATOM     31  C   UNL A   1      33.967  33.705  30.537  1.00  0.00     0.014 A 
ATOM     32  C   UNL A   1      35.469  34.565  28.838  1.00  0.00     0.014 A 
ATOM     33  C   UNL A   1      35.058  33.165  31.222  1.00  0.00     0.010 A 
ATOM     34  C   UNL A   1      36.546  33.965  29.483  1.00  0.00     0.010 A 
ATOM     35  C   UNL A   1      36.351  33.259  30.680  1.00  0.00    -0.014 A 
BRANCH  35  36
ATOM     36  C   UNL A   1      37.512  32.621  31.351  1.00  0.00     0.031 A 
ATOM     37  C   UNL A   1      38.221  31.471  30.695  1.00  0.00     0.074 A 
ATOM     38  C   UNL A   1      37.882  33.035  32.577  1.00  0.00     0.049 A 
ATOM     39  N   UNL A   1      39.204  30.736  31.150  1.00  0.00    -0.248 NA
ATOM     40  C   UNL A   1      37.742  31.072  29.362  1.00  0.00     0.031 C 
ATOM     41  C   UNL A   1      37.241  34.109  33.338  1.00  0.00     0.029 A 
ATOM     42  N   UNL A   1      38.881  32.593  33.408  1.00  0.00    -0.354 N 
ATOM     43  C   UNL A   1      39.451  29.785  30.169  1.00  0.00     0.074 A 
ATOM     44  C   UNL A   1      38.480  29.999  29.119  1.00  0.00     0.031 C 
ATOM     45  C   UNL A   1      37.875  34.257  34.512  1.00  0.00     0.029 A 
ATOM     46  C   UNL A   1      38.942  33.265  34.604  1.00  0.00     0.049 A 
ATOM     47  H   UNL A   1      39.498  31.863  33.168  1.00  0.00     0.167 HD
ATOM     48  C   UNL A   1      40.415  28.835  30.138  1.00  0.00     0.037 A 
ATOM     49  C   UNL A   1      39.761  33.094  35.660  1.00  0.00     0.037 A 
ATOM     50  C   UNL A   1      41.395  28.642  31.174  1.00  0.00     0.049 A 
ATOM     51  C   UNL A   1      40.822  32.028  35.599  1.00  0.00     0.074 A 
ATOM     52  C   UNL A   1      42.451  27.749  31.208  1.00  0.00     0.029 A 
ATOM     53  N   UNL A   1      41.438  29.357  32.363  1.00  0.00    -0.354 N 
ATOM     54  N   UNL A   1      41.091  31.181  34.635  1.00  0.00    -0.248 NA
ATOM     55  C   UNL A   1      41.698  31.900  36.772  1.00  0.00     0.031 C 
ATOM     56  C   UNL A   1      43.106  27.891  32.436  1.00  0.00     0.029 A 
ATOM     57  C   UNL A   1      42.490  28.908  33.146  1.00  0.00     0.049 A 
ATOM     58  H   UNL A   1      40.814  30.076  32.613  1.00  0.00     0.167 HD
ATOM     59  C   UNL A   1      42.183  30.442  35.071  1.00  0.00     0.074 A 
ATOM     60  C   UNL A   1      42.535  30.950  36.381  1.00  0.00     0.031 C 
ATOM     61  C   UNL A   1      42.834  29.432  34.443  1.00  0.00     0.037 A 
BRANCH  48  62
ATOM     62  C   UNL A   1      40.461  27.931  28.940  1.00  0.00     0.064 A 
ATOM     63  C   UNL A   1      41.242  28.239  27.816  1.00  0.00     0.173 A 
ATOM     64  C   UNL A   1      39.746  26.723  28.931  1.00  0.00     0.173 A 
ATOM     65  F   UNL A   1      41.935  29.387  27.770  1.00  0.00    -0.203 F 
ATOM     66  C   UNL A   1      41.283  27.387  26.716  1.00  0.00     0.198 A 
ATOM     67  C   UNL A   1      39.814  25.859  27.842  1.00  0.00     0.198 A 
ATOM     68  F   UNL A   1      38.987  26.378  29.982  1.00  0.00    -0.203 F 
ATOM     69  F   UNL A   1      41.997  27.726  25.633  1.00  0.00    -0.200 F 
ATOM     70  C   UNL A   1      40.575  26.194  26.733  1.00  0.00     0.200 A 
ATOM     71  F   UNL A   1      39.140  24.700  27.864  1.00  0.00    -0.200 F 
ATOM     72  F   UNL A   1      40.623  25.370  25.676  1.00  0.00    -0.200 F 
ENDBRANCH  48  62
BRANCH  49  73
ATOM     73  C   UNL A   1      39.627  33.968  36.854  1.00  0.00     0.064 A 
ATOM     74  C   UNL A   1      40.285  35.205  36.916  1.00  0.00     0.173 A 
ATOM     75  C   UNL A   1      38.852  33.586  37.957  1.00  0.00     0.173 A 
ATOM     76  F   UNL A   1      41.055  35.606  35.893  1.00  0.00    -0.203 F 
ATOM     77  C   UNL A   1      40.189  36.016  38.045  1.00  0.00     0.198 A 
ATOM     78  C   UNL A   1      38.734  34.410  39.075  1.00  0.00     0.198 A 
ATOM     79  F   UNL A   1      38.198  32.414  37.945  1.00  0.00    -0.203 F 
ATOM     80  F   UNL A   1      40.867  37.170  38.097  1.00  0.00    -0.200 F 
ATOM     81  C   UNL A   1      39.409  35.620  39.122  1.00  0.00     0.200 A 
ATOM     82  F   UNL A   1      37.967  34.031  40.106  1.00  0.00    -0.200 F 
ATOM     83  F   UNL A   1      39.316  36.400  40.207  1.00  0.00    -0.200 F 
ENDBRANCH  49  73
BRANCH  61  84
ATOM     84  C   UNL A   1      44.017  28.834  35.146  1.00  0.00     0.064 A 
ATOM     85  C   UNL A   1      43.886  27.737  36.010  1.00  0.00     0.173 A 
ATOM     86  C   UNL A   1      45.306  29.341  34.919  1.00  0.00     0.173 A 
ATOM     87  F   UNL A   1      42.674  27.226  36.271  1.00  0.00    -0.203 F 
ATOM     88  C   UNL A   1      44.997  27.186  36.640  1.00  0.00     0.198 A 
ATOM     89  C   UNL A   1      46.419  28.768  35.527  1.00  0.00     0.198 A 
ATOM     90  F   UNL A   1      45.487  30.385  34.096  1.00  0.00    -0.203 F 
ATOM     91  F   UNL A   1      44.842  26.168  37.499  1.00  0.00    -0.200 F 
ATOM     92  C   UNL A   1      46.263  27.696  36.393  1.00  0.00     0.200 A 
ATOM     93  F   UNL A   1      47.642  29.253  35.275  1.00  0.00    -0.200 F 
ATOM     94  F   UNL A   1      47.333  27.158  36.994  1.00  0.00    -0.200 F 
ENDBRANCH  61  84
ENDBRANCH  35  36
ENDBRANCH  27  30
ENDBRANCH  25  26
ENDBRANCH  24  25
ENDBRANCH   1  24
TORSDOF 15
ENDMDL
MODEL 3
REMARK VINA RESULT:     -11.6      0.178      1.211
REMARK SMILES C[C@@]([NH2+]Cc1ccccc1Br)(C(=O)NCCCCNC(=O)c1ccc(-c2c3nc(c(-c4c(F)c(F)c(F)c(F)c4F)c4ccc([nH]4)c(-c4c(F)c(F)c(F)c(F)c4F)c4nc(c(-c5c(F)c(F)c(F)c(F)c5F)c5ccc2[nH]5)C=C4)C=C3)cc1)C(F)(F)F
REMARK SMILES IDX 16 1 15 2 14 3 12 4 13 5 2 7 1 8 3 9 4 12 5 13 6 14 10 15
REMARK SMILES IDX 7 16 9 17 11 18 8 19 85 20 86 21 87 22 88 23 17 24 18 25
REMARK SMILES IDX 19 26 20 27 21 29 22 30 23 31 84 32 24 33 83 34 25 35 26 36
REMARK SMILES IDX 27 37 77 38 28 39 82 40 76 41 78 42 29 43 81 44 75 45 74 46
REMARK SMILES IDX 30 48 62 49 42 50 61 51 43 52 46 53 60 54 79 55 44 56 45 57
REMARK SMILES IDX 59 59 80 60 47 61 31 62 32 63 40 64 33 65 34 66 38 67 41 68
REMARK SMILES IDX 35 69 36 70 39 71 37 72 63 73 64 74 72 75 65 76 66 77 70 78
REMARK SMILES IDX 73 79 67 80 68 81 71 82 69 83 48 84 49 85 57 86 50 87 51 88
REMARK SMILES IDX 55 89 58 90 52 91 53 92 56 93 54 94
REMARK H PARENT 14 6 3 10 3 11 19 28 78 47 46 58
REMARK Flexibility Score: inf
ROOT
ATOM      1  C   UNL A   1      37.160  21.129  24.458  1.00  0.00     0.023 C 
ENDROOT
BRANCH   1   2
ATOM      2  C   UNL A   1      36.830  22.210  25.487  1.00  0.00     0.116 C 
BRANCH   2   3
ATOM      3  N   UNL A   1      35.873  21.724  26.460  1.00  0.00    -0.350 N 
ATOM      4  C   UNL A   1      34.547  21.998  26.636  1.00  0.00     0.290 C 
ATOM      5  O   UNL A   1      34.029  21.452  27.614  1.00  0.00    -0.267 OA
ATOM      6  H   UNL A   1      36.243  21.083  27.109  1.00  0.00     0.163 HD
BRANCH   4   7
ATOM      7  C   UNL A   1      33.745  22.887  25.658  1.00  0.00     0.268 C 
ATOM      8  C   UNL A   1      32.325  23.171  26.201  1.00  0.00     0.101 C 
BRANCH   7   9
ATOM      9  N   UNL A   1      34.388  24.247  25.535  1.00  0.00    -0.322 N 
ATOM     10  H   UNL A   1      34.749  24.330  24.584  1.00  0.00     0.347 HD
ATOM     11  H   UNL A   1      35.091  24.271  26.273  1.00  0.00     0.347 HD
BRANCH   9  12
ATOM     12  C   UNL A   1      33.543  25.421  25.787  1.00  0.00     0.299 C 
BRANCH  12  13
ATOM     13  C   UNL A   1      33.626  26.513  24.749  1.00  0.00     0.020 A 
ATOM     14  C   UNL A   1      33.653  26.134  23.394  1.00  0.00     0.011 A 
ATOM     15  C   UNL A   1      33.656  27.887  25.050  1.00  0.00     0.026 A 
ATOM     16  C   UNL A   1      33.599  27.089  22.377  1.00  0.00     0.001 A 
ATOM     17  C   UNL A   1      33.581  28.841  24.029  1.00  0.00     0.016 A 
ATOM     18  Br  UNL A   1      33.786  28.548  26.829  1.00  0.00    -0.050 Br
ATOM     19  C   UNL A   1      33.535  28.440  22.695  1.00  0.00     0.001 A 
ENDBRANCH  12  13
ENDBRANCH   9  12
ENDBRANCH   7   9
BRANCH   7  20
ATOM     20  C   UNL A   1      33.512  22.036  24.370  1.00  0.00     0.453 C 
ATOM     21  F   UNL A   1      32.227  22.122  23.941  1.00  0.00    -0.164 F 
ATOM     22  F   UNL A   1      34.276  22.522  23.353  1.00  0.00    -0.164 F 
ATOM     23  F   UNL A   1      33.805  20.730  24.492  1.00  0.00    -0.164 F 
ENDBRANCH   7  20
ENDBRANCH   4   7
ENDBRANCH   2   3
ENDBRANCH   1   2
BRANCH   1  24
ATOM     24  C   UNL A   1      37.943  19.939  25.018  1.00  0.00     0.023 C 
BRANCH  24  25
ATOM     25  C   UNL A   1      39.172  20.305  25.840  1.00  0.00     0.116 C 
BRANCH  25  26
ATOM     26  N   UNL A   1      40.134  19.218  25.934  1.00  0.00    -0.352 N 
ATOM     27  C   UNL A   1      41.491  19.286  26.135  1.00  0.00     0.251 C 
ATOM     28  H   UNL A   1      39.763  18.311  25.840  1.00  0.00     0.163 HD
ATOM     29  O   UNL A   1      42.183  18.275  26.057  1.00  0.00    -0.269 OA
BRANCH  27  30
ATOM     30  C   UNL A   1      42.120  20.593  26.412  1.00  0.00     0.039 A 
ATOM     31  C   UNL A   1      42.522  21.388  25.337  1.00  0.00     0.014 A 
ATOM     32  C   UNL A   1      42.284  21.041  27.726  1.00  0.00     0.014 A 
ATOM     33  C   UNL A   1      43.031  22.666  25.578  1.00  0.00     0.010 A 
ATOM     34  C   UNL A   1      42.724  22.340  27.960  1.00  0.00     0.010 A 
ATOM     35  C   UNL A   1      43.101  23.165  26.889  1.00  0.00    -0.014 A 
BRANCH  35  36
ATOM     36  C   UNL A   1      43.563  24.550  27.160  1.00  0.00     0.031 A 
ATOM     37  C   UNL A   1      42.597  25.578  27.676  1.00  0.00     0.074 A 
ATOM     38  C   UNL A   1      44.833  24.896  26.877  1.00  0.00     0.049 A 
ATOM     39  N   UNL A   1      42.787  26.853  27.904  1.00  0.00    -0.248 NA
ATOM     40  C   UNL A   1      41.224  25.120  27.944  1.00  0.00     0.031 C 
ATOM     41  C   UNL A   1      45.851  23.999  26.326  1.00  0.00     0.029 A 
ATOM     42  N   UNL A   1      45.482  26.098  27.001  1.00  0.00    -0.354 N 
ATOM     43  C   UNL A   1      41.561  27.349  28.327  1.00  0.00     0.074 A 
ATOM     44  C   UNL A   1      40.620  26.252  28.273  1.00  0.00     0.031 C 
ATOM     45  C   UNL A   1      47.001  24.677  26.180  1.00  0.00     0.029 A 
ATOM     46  C   UNL A   1      46.792  26.062  26.591  1.00  0.00     0.049 A 
ATOM     47  H   UNL A   1      45.050  26.910  27.353  1.00  0.00     0.167 HD
ATOM     48  C   UNL A   1      41.256  28.600  28.746  1.00  0.00     0.037 A 
ATOM     49  C   UNL A   1      47.719  27.039  26.544  1.00  0.00     0.037 A 
ATOM     50  C   UNL A   1      42.202  29.681  28.822  1.00  0.00     0.049 A 
ATOM     51  C   UNL A   1      47.351  28.421  27.012  1.00  0.00     0.074 A 
ATOM     52  C   UNL A   1      42.006  30.968  29.292  1.00  0.00     0.029 A 
ATOM     53  N   UNL A   1      43.527  29.601  28.418  1.00  0.00    -0.354 N 
ATOM     54  N   UNL A   1      46.206  28.861  27.477  1.00  0.00    -0.248 NA
ATOM     55  C   UNL A   1      48.406  29.442  26.954  1.00  0.00     0.031 C 
ATOM     56  C   UNL A   1      43.198  31.680  29.128  1.00  0.00     0.029 A 
ATOM     57  C   UNL A   1      44.153  30.823  28.606  1.00  0.00     0.049 A 
ATOM     58  H   UNL A   1      43.958  28.796  28.050  1.00  0.00     0.167 HD
ATOM     59  C   UNL A   1      46.412  30.197  27.796  1.00  0.00     0.074 A 
ATOM     60  C   UNL A   1      47.795  30.492  27.483  1.00  0.00     0.031 C 
ATOM     61  C   UNL A   1      45.533  31.098  28.300  1.00  0.00     0.037 A 
BRANCH  48  62
ATOM     62  C   UNL A   1      39.837  28.867  29.158  1.00  0.00     0.064 A 
ATOM     63  C   UNL A   1      39.407  28.675  30.480  1.00  0.00     0.173 A 
ATOM     64  C   UNL A   1      38.905  29.357  28.230  1.00  0.00     0.173 A 
ATOM     65  F   UNL A   1      40.255  28.197  31.403  1.00  0.00    -0.203 F 
ATOM     66  C   UNL A   1      38.091  28.936  30.851  1.00  0.00     0.198 A 
ATOM     67  C   UNL A   1      37.598  29.646  28.612  1.00  0.00     0.198 A 
ATOM     68  F   UNL A   1      39.265  29.563  26.954  1.00  0.00    -0.203 F 
ATOM     69  F   UNL A   1      37.691  28.698  32.108  1.00  0.00    -0.200 F 
ATOM     70  C   UNL A   1      37.189  29.429  29.919  1.00  0.00     0.200 A 
ATOM     71  F   UNL A   1      36.731  30.134  27.713  1.00  0.00    -0.200 F 
ATOM     72  F   UNL A   1      35.925  29.687  30.280  1.00  0.00    -0.200 F 
ENDBRANCH  48  62
BRANCH  49  73
ATOM     73  C   UNL A   1      49.090  26.740  26.057  1.00  0.00     0.064 A 
ATOM     74  C   UNL A   1      49.458  27.012  24.731  1.00  0.00     0.173 A 
ATOM     75  C   UNL A   1      50.057  26.171  26.898  1.00  0.00     0.173 A 
ATOM     76  F   UNL A   1      48.561  27.537  23.883  1.00  0.00    -0.203 F 
ATOM     77  C   UNL A   1      50.733  26.704  24.260  1.00  0.00     0.198 A 
ATOM     78  C   UNL A   1      51.340  25.890  26.434  1.00  0.00     0.198 A 
ATOM     79  F   UNL A   1      49.757  25.896  28.177  1.00  0.00    -0.203 F 
ATOM     80  F   UNL A   1      51.041  26.930  22.976  1.00  0.00    -0.200 F 
ATOM     81  C   UNL A   1      51.675  26.149  25.113  1.00  0.00     0.200 A 
ATOM     82  F   UNL A   1      52.252  25.368  27.264  1.00  0.00    -0.200 F 
ATOM     83  F   UNL A   1      52.901  25.855  24.660  1.00  0.00    -0.200 F 
ENDBRANCH  49  73
BRANCH  61  84
ATOM     84  C   UNL A   1      46.050  32.478  28.582  1.00  0.00     0.064 A 
ATOM     85  C   UNL A   1      46.641  32.808  29.810  1.00  0.00     0.173 A 
ATOM     86  C   UNL A   1      45.988  33.473  27.595  1.00  0.00     0.173 A 
ATOM     87  F   UNL A   1      46.711  31.896  30.792  1.00  0.00    -0.203 F 
ATOM     88  C   UNL A   1      47.129  34.089  30.048  1.00  0.00     0.198 A 
ATOM     89  C   UNL A   1      46.504  34.745  27.825  1.00  0.00     0.198 A 
ATOM     90  F   UNL A   1      45.437  33.208  26.400  1.00  0.00    -0.203 F 
ATOM     91  F   UNL A   1      47.647  34.395  31.246  1.00  0.00    -0.200 F 
ATOM     92  C   UNL A   1      47.067  35.054  29.054  1.00  0.00     0.200 A 
ATOM     93  F   UNL A   1      46.456  35.671  26.858  1.00  0.00    -0.200 F 
ATOM     94  F   UNL A   1      47.545  36.285  29.282  1.00  0.00    -0.200 F 
ENDBRANCH  61  84
ENDBRANCH  35  36
ENDBRANCH  27  30
ENDBRANCH  25  26
ENDBRANCH  24  25
ENDBRANCH   1  24
TORSDOF 15
ENDMDL
