MODEL 1
REMARK VINA RESULT:     -14.5      0.000      0.000
REMARK SMILES C[C@H]1CCc2sc3ncn4nc(/C=C\C(=O)NCCCCNC(=O)c5ccc(-c6c7nc(c(-c8c(F)c(F)c(F)c(F)c8F)c8ccc([nH]8)c(-c8c(F)c(F)c(F)c(F)c8F)c8nc(c(-c9c(F)c(F)c(F)c(F)c9F)c9ccc6[nH]9)C=C8)C=C7)cc5)nc4c3c2C1
REMARK SMILES IDX 20 1 19 2 18 3 17 4 15 5 16 6 14 8 13 9 12 10 1 11 2 12 3 13
REMARK SMILES IDX 92 14 4 15 91 16 5 17 90 18 6 19 7 20 89 21 8 22 10 23 88 24
REMARK SMILES IDX 9 25 11 26 21 27 22 28 23 29 24 31 25 32 26 33 87 34 27 35
REMARK SMILES IDX 86 36 28 37 29 38 30 39 80 40 31 41 85 42 79 43 81 44 32 45
REMARK SMILES IDX 84 46 78 47 77 48 33 50 65 51 45 52 64 53 46 54 49 55 63 56
REMARK SMILES IDX 82 57 47 58 48 59 62 61 83 62 50 63 34 64 35 65 43 66 36 67
REMARK SMILES IDX 37 68 41 69 44 70 38 71 39 72 42 73 40 74 66 75 67 76 75 77
REMARK SMILES IDX 68 78 69 79 73 80 76 81 70 82 71 83 74 84 72 85 51 86 52 87
REMARK SMILES IDX 60 88 53 89 54 90 58 91 61 92 55 93 56 94 59 95 57 96
REMARK H PARENT 17 7 22 30 81 49 49 60
REMARK Flexibility Score: inf
ROOT
ATOM      1  C   UNL A   1      37.546  22.726  25.893  1.00  0.00     0.023 C 
ENDROOT
BRANCH   1   2
ATOM      2  C   UNL A   1      35.993  22.679  25.552  1.00  0.00     0.023 C 
BRANCH   2   3
ATOM      3  C   UNL A   1      35.107  21.703  26.351  1.00  0.00     0.116 C 
BRANCH   3   4
ATOM      4  N   UNL A   1      34.628  20.495  25.669  1.00  0.00    -0.353 N 
ATOM      5  C   UNL A   1      33.506  20.275  24.901  1.00  0.00     0.244 C 
ATOM      6  O   UNL A   1      33.514  19.374  24.071  1.00  0.00    -0.270 OA
ATOM      7  H   UNL A   1      35.206  19.706  25.780  1.00  0.00     0.163 HD
BRANCH   5   8
ATOM      8  C   UNL A   1      32.214  20.968  25.169  1.00  0.00     0.075 C 
ATOM      9  C   UNL A   1      31.864  22.219  24.835  1.00  0.00     0.057 C 
BRANCH   9  10
ATOM     10  C   UNL A   1      32.710  23.160  24.204  1.00  0.00     0.175 A 
ATOM     11  C   UNL A   1      34.655  29.100  26.875  1.00  0.00     0.008 C 
ATOM     12  C   UNL A   1      33.229  28.666  27.257  1.00  0.00    -0.009 C 
ATOM     13  C   UNL A   1      32.177  29.745  26.881  1.00  0.00     0.009 C 
ATOM     14  C   UNL A   1      32.885  27.297  26.604  1.00  0.00     0.041 C 
ATOM     15  C   UNL A   1      31.861  29.861  25.392  1.00  0.00     0.047 C 
ATOM     16  C   UNL A   1      32.843  27.483  25.134  1.00  0.00    -0.020 A 
ATOM     17  C   UNL A   1      32.370  28.682  24.640  1.00  0.00     0.011 A 
ATOM     18  C   UNL A   1      33.177  26.596  24.069  1.00  0.00     0.060 A 
ATOM     19  S   UNL A   1      32.484  28.747  22.994  1.00  0.00    -0.120 S 
ATOM     20  C   UNL A   1      33.045  27.157  22.820  1.00  0.00     0.129 A 
ATOM     21  C   UNL A   1      33.336  25.129  24.000  1.00  0.00     0.168 A 
ATOM     22  N   UNL A   1      33.109  26.534  21.596  1.00  0.00    -0.225 NA
ATOM     23  N   UNL A   1      33.252  24.527  22.770  1.00  0.00    -0.201 N 
ATOM     24  N   UNL A   1      33.112  24.251  24.934  1.00  0.00    -0.207 NA
ATOM     25  C   UNL A   1      33.148  25.233  21.584  1.00  0.00     0.227 A 
ATOM     26  N   UNL A   1      32.908  23.234  22.879  1.00  0.00    -0.145 NA
ENDBRANCH   9  10
ENDBRANCH   5   8
ENDBRANCH   3   4
ENDBRANCH   2   3
ENDBRANCH   1   2
BRANCH   1  27
ATOM     27  C   UNL A   1      38.488  21.499  25.586  1.00  0.00     0.116 C 
BRANCH  27  28
ATOM     28  N   UNL A   1      39.874  21.521  26.250  1.00  0.00    -0.352 N 
ATOM     29  C   UNL A   1      40.459  22.168  27.380  1.00  0.00     0.251 C 
ATOM     30  H   UNL A   1      40.519  20.946  25.779  1.00  0.00     0.163 HD
ATOM     31  O   UNL A   1      40.902  21.428  28.266  1.00  0.00    -0.269 OA
BRANCH  29  32
ATOM     32  C   UNL A   1      40.907  23.628  27.481  1.00  0.00     0.039 A 
ATOM     33  C   UNL A   1      40.484  24.608  26.570  1.00  0.00     0.014 A 
ATOM     34  C   UNL A   1      41.793  24.089  28.454  1.00  0.00     0.014 A 
ATOM     35  C   UNL A   1      40.654  26.006  26.845  1.00  0.00     0.010 A 
ATOM     36  C   UNL A   1      41.881  25.486  28.778  1.00  0.00     0.010 A 
ATOM     37  C   UNL A   1      41.214  26.485  28.054  1.00  0.00    -0.014 A 
BRANCH  37  38
ATOM     38  C   UNL A   1      40.986  27.937  28.514  1.00  0.00     0.031 A 
ATOM     39  C   UNL A   1      42.020  28.966  28.048  1.00  0.00     0.074 A 
ATOM     40  C   UNL A   1      39.891  28.548  29.074  1.00  0.00     0.049 A 
ATOM     41  N   UNL A   1      42.858  29.681  28.737  1.00  0.00    -0.248 NA
ATOM     42  C   UNL A   1      42.123  29.236  26.609  1.00  0.00     0.031 C 
ATOM     43  C   UNL A   1      38.544  28.023  29.340  1.00  0.00     0.029 A 
ATOM     44  N   UNL A   1      39.746  29.869  29.501  1.00  0.00    -0.354 N 
ATOM     45  C   UNL A   1      43.505  30.555  27.841  1.00  0.00     0.074 A 
ATOM     46  C   UNL A   1      43.059  30.185  26.529  1.00  0.00     0.031 C 
ATOM     47  C   UNL A   1      37.695  29.017  29.702  1.00  0.00     0.029 A 
ATOM     48  C   UNL A   1      38.449  30.241  29.874  1.00  0.00     0.049 A 
ATOM     49  H   UNL A   1      40.504  30.496  29.536  1.00  0.00     0.167 HD
ATOM     50  C   UNL A   1      44.247  31.625  28.261  1.00  0.00     0.037 A 
ATOM     51  C   UNL A   1      38.000  31.424  30.376  1.00  0.00     0.037 A 
ATOM     52  C   UNL A   1      44.476  31.554  29.672  1.00  0.00     0.049 A 
ATOM     53  C   UNL A   1      39.140  32.112  31.006  1.00  0.00     0.074 A 
ATOM     54  C   UNL A   1      45.286  30.846  30.529  1.00  0.00     0.029 A 
ATOM     55  N   UNL A   1      43.475  32.108  30.414  1.00  0.00    -0.354 N 
ATOM     56  N   UNL A   1      39.759  31.678  32.066  1.00  0.00    -0.248 NA
ATOM     57  C   UNL A   1      39.755  33.251  30.336  1.00  0.00     0.031 C 
ATOM     58  C   UNL A   1      44.565  30.765  31.759  1.00  0.00     0.029 A 
ATOM     59  C   UNL A   1      43.374  31.474  31.621  1.00  0.00     0.049 A 
ATOM     60  H   UNL A   1      42.907  32.857  30.121  1.00  0.00     0.167 HD
ATOM     61  C   UNL A   1      41.032  32.177  31.930  1.00  0.00     0.074 A 
ATOM     62  C   UNL A   1      40.916  33.285  30.991  1.00  0.00     0.031 C 
ATOM     63  C   UNL A   1      42.107  31.434  32.312  1.00  0.00     0.037 A 
BRANCH  50  64
ATOM     64  C   UNL A   1      44.461  32.951  27.542  1.00  0.00     0.064 A 
ATOM     65  C   UNL A   1      45.661  33.176  26.822  1.00  0.00     0.173 A 
ATOM     66  C   UNL A   1      43.702  34.106  27.811  1.00  0.00     0.173 A 
ATOM     67  F   UNL A   1      46.485  32.158  26.529  1.00  0.00    -0.203 F 
ATOM     68  C   UNL A   1      46.087  34.460  26.454  1.00  0.00     0.198 A 
ATOM     69  C   UNL A   1      44.111  35.384  27.407  1.00  0.00     0.198 A 
ATOM     70  F   UNL A   1      42.598  34.054  28.566  1.00  0.00    -0.203 F 
ATOM     71  F   UNL A   1      47.281  34.629  25.867  1.00  0.00    -0.200 F 
ATOM     72  C   UNL A   1      45.313  35.564  26.751  1.00  0.00     0.200 A 
ATOM     73  F   UNL A   1      43.362  36.449  27.727  1.00  0.00    -0.200 F 
ATOM     74  F   UNL A   1      45.741  36.799  26.453  1.00  0.00    -0.200 F 
ENDBRANCH  50  64
BRANCH  51  75
ATOM     75  C   UNL A   1      36.682  32.120  30.299  1.00  0.00     0.064 A 
ATOM     76  C   UNL A   1      35.794  32.139  31.397  1.00  0.00     0.173 A 
ATOM     77  C   UNL A   1      36.443  33.074  29.296  1.00  0.00     0.173 A 
ATOM     78  F   UNL A   1      35.947  31.272  32.409  1.00  0.00    -0.203 F 
ATOM     79  C   UNL A   1      34.791  33.108  31.523  1.00  0.00     0.198 A 
ATOM     80  C   UNL A   1      35.438  34.041  29.423  1.00  0.00     0.198 A 
ATOM     81  F   UNL A   1      37.252  33.153  28.230  1.00  0.00    -0.203 F 
ATOM     82  F   UNL A   1      34.033  33.151  32.630  1.00  0.00    -0.200 F 
ATOM     83  C   UNL A   1      34.631  34.075  30.548  1.00  0.00     0.200 A 
ATOM     84  F   UNL A   1      35.309  34.991  28.486  1.00  0.00    -0.200 F 
ATOM     85  F   UNL A   1      33.737  35.061  30.710  1.00  0.00    -0.200 F 
ENDBRANCH  51  75
BRANCH  63  86
ATOM     86  C   UNL A   1      41.900  30.384  33.359  1.00  0.00     0.064 A 
ATOM     87  C   UNL A   1      41.605  29.035  33.104  1.00  0.00     0.173 A 
ATOM     88  C   UNL A   1      42.091  30.762  34.695  1.00  0.00     0.173 A 
ATOM     89  F   UNL A   1      41.474  28.577  31.853  1.00  0.00    -0.203 F 
ATOM     90  C   UNL A   1      41.477  28.118  34.144  1.00  0.00     0.198 A 
ATOM     91  C   UNL A   1      42.003  29.836  35.727  1.00  0.00     0.198 A 
ATOM     92  F   UNL A   1      42.405  32.033  34.994  1.00  0.00    -0.203 F 
ATOM     93  F   UNL A   1      41.174  26.837  33.879  1.00  0.00    -0.200 F 
ATOM     94  C   UNL A   1      41.685  28.517  35.454  1.00  0.00     0.200 A 
ATOM     95  F   UNL A   1      42.244  30.223  36.987  1.00  0.00    -0.200 F 
ATOM     96  F   UNL A   1      41.600  27.627  36.452  1.00  0.00    -0.200 F 
ENDBRANCH  63  86
ENDBRANCH  37  38
ENDBRANCH  29  32
ENDBRANCH  27  28
ENDBRANCH   1  27
TORSDOF 12
ENDMDL
MODEL 2
REMARK VINA RESULT:     -14.2      2.940      4.595
REMARK SMILES C[C@H]1CCc2sc3ncn4nc(/C=C\C(=O)NCCCCNC(=O)c5ccc(-c6c7nc(c(-c8c(F)c(F)c(F)c(F)c8F)c8ccc([nH]8)c(-c8c(F)c(F)c(F)c(F)c8F)c8nc(c(-c9c(F)c(F)c(F)c(F)c9F)c9ccc6[nH]9)C=C8)C=C7)cc5)nc4c3c2C1
REMARK SMILES IDX 20 1 19 2 18 3 17 4 15 5 16 6 14 8 13 9 12 10 1 11 2 12 3 13
REMARK SMILES IDX 92 14 4 15 91 16 5 17 90 18 6 19 7 20 89 21 8 22 10 23 88 24
REMARK SMILES IDX 9 25 11 26 21 27 22 28 23 29 24 31 25 32 26 33 87 34 27 35
REMARK SMILES IDX 86 36 28 37 29 38 30 39 80 40 31 41 85 42 79 43 81 44 32 45
REMARK SMILES IDX 84 46 78 47 77 48 33 50 65 51 45 52 64 53 46 54 49 55 63 56
REMARK SMILES IDX 82 57 47 58 48 59 62 61 83 62 50 63 34 64 35 65 43 66 36 67
REMARK SMILES IDX 37 68 41 69 44 70 38 71 39 72 42 73 40 74 66 75 67 76 75 77
REMARK SMILES IDX 68 78 69 79 73 80 76 81 70 82 71 83 74 84 72 85 51 86 52 87
REMARK SMILES IDX 60 88 53 89 54 90 58 91 61 92 55 93 56 94 59 95 57 96
REMARK H PARENT 17 7 22 30 81 49 49 60
REMARK Flexibility Score: inf
ROOT
ATOM      1  C   UNL A   1      41.857  19.197  27.071  1.00  0.00     0.023 C 
ENDROOT
BRANCH   1   2
ATOM      2  C   UNL A   1      41.888  20.777  27.251  1.00  0.00     0.023 C 
BRANCH   2   3
ATOM      3  C   UNL A   1      41.026  21.630  26.299  1.00  0.00     0.116 C 
BRANCH   3   4
ATOM      4  N   UNL A   1      39.624  21.240  26.105  1.00  0.00    -0.353 N 
ATOM      5  C   UNL A   1      38.523  21.979  25.733  1.00  0.00     0.244 C 
ATOM      6  O   UNL A   1      37.576  21.417  25.197  1.00  0.00    -0.270 OA
ATOM      7  H   UNL A   1      39.438  20.287  26.271  1.00  0.00     0.163 HD
BRANCH   5   8
ATOM      8  C   UNL A   1      38.359  23.407  26.126  1.00  0.00     0.075 C 
ATOM      9  C   UNL A   1      37.217  24.090  26.296  1.00  0.00     0.057 C 
BRANCH   9  10
ATOM     10  C   UNL A   1      35.920  23.579  26.061  1.00  0.00     0.175 A 
ATOM     11  C   UNL A   1      31.412  26.174  21.686  1.00  0.00     0.008 C 
ATOM     12  C   UNL A   1      32.305  27.220  22.376  1.00  0.00    -0.009 C 
ATOM     13  C   UNL A   1      31.466  28.300  23.113  1.00  0.00     0.009 C 
ATOM     14  C   UNL A   1      33.302  26.527  23.346  1.00  0.00     0.041 C 
ATOM     15  C   UNL A   1      30.808  27.844  24.412  1.00  0.00     0.047 C 
ATOM     16  C   UNL A   1      32.523  25.910  24.446  1.00  0.00    -0.020 A 
ATOM     17  C   UNL A   1      31.387  26.557  24.886  1.00  0.00     0.011 A 
ATOM     18  C   UNL A   1      32.758  24.729  25.211  1.00  0.00     0.060 A 
ATOM     19  S   UNL A   1      30.599  25.682  26.045  1.00  0.00    -0.120 S 
ATOM     20  C   UNL A   1      31.770  24.458  26.129  1.00  0.00     0.129 A 
ATOM     21  C   UNL A   1      33.965  23.910  25.445  1.00  0.00     0.168 A 
ATOM     22  N   UNL A   1      31.774  23.518  27.131  1.00  0.00    -0.225 NA
ATOM     23  N   UNL A   1      33.985  23.085  26.541  1.00  0.00    -0.201 N 
ATOM     24  N   UNL A   1      35.184  24.142  25.048  1.00  0.00    -0.207 NA
ATOM     25  C   UNL A   1      32.890  22.892  27.366  1.00  0.00     0.227 A 
ATOM     26  N   UNL A   1      35.241  22.806  26.921  1.00  0.00    -0.145 NA
ENDBRANCH   9  10
ENDBRANCH   5   8
ENDBRANCH   3   4
ENDBRANCH   2   3
ENDBRANCH   1   2
BRANCH   1  27
ATOM     27  C   UNL A   1      42.929  18.454  26.184  1.00  0.00     0.116 C 
BRANCH  27  28
ATOM     28  N   UNL A   1      43.460  19.225  24.966  1.00  0.00    -0.352 N 
ATOM     29  C   UNL A   1      44.560  20.097  24.705  1.00  0.00     0.251 C 
ATOM     30  H   UNL A   1      42.905  19.083  24.166  1.00  0.00     0.163 HD
ATOM     31  O   UNL A   1      45.365  19.722  23.845  1.00  0.00    -0.269 OA
BRANCH  29  32
ATOM     32  C   UNL A   1      44.688  21.570  25.103  1.00  0.00     0.039 A 
ATOM     33  C   UNL A   1      43.986  22.590  24.440  1.00  0.00     0.014 A 
ATOM     34  C   UNL A   1      45.532  22.017  26.118  1.00  0.00     0.014 A 
ATOM     35  C   UNL A   1      43.872  23.905  25.003  1.00  0.00     0.010 A 
ATOM     36  C   UNL A   1      45.342  23.301  26.733  1.00  0.00     0.010 A 
ATOM     37  C   UNL A   1      44.415  24.245  26.266  1.00  0.00    -0.014 A 
BRANCH  37  38
ATOM     38  C   UNL A   1      43.918  25.483  27.036  1.00  0.00     0.031 A 
ATOM     39  C   UNL A   1      44.768  26.750  26.904  1.00  0.00     0.074 A 
ATOM     40  C   UNL A   1      42.714  25.750  27.639  1.00  0.00     0.049 A 
ATOM     41  N   UNL A   1      45.442  27.403  27.803  1.00  0.00    -0.248 NA
ATOM     42  C   UNL A   1      44.869  27.377  25.581  1.00  0.00     0.031 C 
ATOM     43  C   UNL A   1      41.474  24.962  27.673  1.00  0.00     0.029 A 
ATOM     44  N   UNL A   1      42.323  26.884  28.353  1.00  0.00    -0.354 N 
ATOM     45  C   UNL A   1      45.954  28.564  27.189  1.00  0.00     0.074 A 
ATOM     46  C   UNL A   1      45.624  28.457  25.797  1.00  0.00     0.031 C 
ATOM     47  C   UNL A   1      40.451  25.684  28.193  1.00  0.00     0.029 A 
ATOM     48  C   UNL A   1      40.969  26.935  28.704  1.00  0.00     0.049 A 
ATOM     49  H   UNL A   1      42.956  27.599  28.592  1.00  0.00     0.167 HD
ATOM     50  C   UNL A   1      46.479  29.605  27.903  1.00  0.00     0.037 A 
ATOM     51  C   UNL A   1      40.300  27.869  29.435  1.00  0.00     0.037 A 
ATOM     52  C   UNL A   1      46.670  29.229  29.272  1.00  0.00     0.049 A 
ATOM     53  C   UNL A   1      41.279  28.560  30.294  1.00  0.00     0.074 A 
ATOM     54  C   UNL A   1      47.563  28.476  29.996  1.00  0.00     0.029 A 
ATOM     55  N   UNL A   1      45.563  29.413  30.045  1.00  0.00    -0.354 N 
ATOM     56  N   UNL A   1      41.929  27.987  31.265  1.00  0.00    -0.248 NA
ATOM     57  C   UNL A   1      41.703  29.913  29.958  1.00  0.00     0.031 C 
ATOM     58  C   UNL A   1      46.828  27.979  31.115  1.00  0.00     0.029 A 
ATOM     59  C   UNL A   1      45.535  28.495  31.058  1.00  0.00     0.049 A 
ATOM     60  H   UNL A   1      44.880  30.107  29.895  1.00  0.00     0.167 HD
ATOM     61  C   UNL A   1      43.097  28.707  31.346  1.00  0.00     0.074 A 
ATOM     62  C   UNL A   1      42.817  29.976  30.688  1.00  0.00     0.031 C 
ATOM     63  C   UNL A   1      44.273  28.080  31.623  1.00  0.00     0.037 A 
BRANCH  50  64
ATOM     64  C   UNL A   1      46.479  31.083  27.535  1.00  0.00     0.064 A 
ATOM     65  C   UNL A   1      45.257  31.732  27.228  1.00  0.00     0.173 A 
ATOM     66  C   UNL A   1      47.639  31.782  27.149  1.00  0.00     0.173 A 
ATOM     67  F   UNL A   1      44.082  31.153  27.520  1.00  0.00    -0.203 F 
ATOM     68  C   UNL A   1      45.206  32.953  26.541  1.00  0.00     0.198 A 
ATOM     69  C   UNL A   1      47.586  33.022  26.498  1.00  0.00     0.198 A 
ATOM     70  F   UNL A   1      48.856  31.243  27.288  1.00  0.00    -0.203 F 
ATOM     71  F   UNL A   1      44.024  33.472  26.181  1.00  0.00    -0.200 F 
ATOM     72  C   UNL A   1      46.372  33.595  26.172  1.00  0.00     0.200 A 
ATOM     73  F   UNL A   1      48.725  33.620  26.122  1.00  0.00    -0.200 F 
ATOM     74  F   UNL A   1      46.330  34.733  25.466  1.00  0.00    -0.200 F 
ENDBRANCH  50  64
BRANCH  51  75
ATOM     75  C   UNL A   1      38.882  28.337  29.425  1.00  0.00     0.064 A 
ATOM     76  C   UNL A   1      38.154  28.503  30.623  1.00  0.00     0.173 A 
ATOM     77  C   UNL A   1      38.356  28.972  28.289  1.00  0.00     0.173 A 
ATOM     78  F   UNL A   1      38.584  27.942  31.763  1.00  0.00    -0.203 F 
ATOM     79  C   UNL A   1      37.023  29.326  30.695  1.00  0.00     0.198 A 
ATOM     80  C   UNL A   1      37.223  29.793  28.362  1.00  0.00     0.198 A 
ATOM     81  F   UNL A   1      38.995  28.896  27.113  1.00  0.00    -0.203 F 
ATOM     82  F   UNL A   1      36.418  29.535  31.874  1.00  0.00    -0.200 F 
ATOM     83  C   UNL A   1      36.574  29.991  29.569  1.00  0.00     0.200 A 
ATOM     84  F   UNL A   1      36.812  30.455  27.271  1.00  0.00    -0.200 F 
ATOM     85  F   UNL A   1      35.551  30.854  29.654  1.00  0.00    -0.200 F 
ENDBRANCH  51  75
BRANCH  63  86
ATOM     86  C   UNL A   1      44.221  26.786  32.375  1.00  0.00     0.064 A 
ATOM     87  C   UNL A   1      43.968  26.659  33.750  1.00  0.00     0.173 A 
ATOM     88  C   UNL A   1      44.360  25.606  31.632  1.00  0.00     0.173 A 
ATOM     89  F   UNL A   1      43.755  27.733  34.519  1.00  0.00    -0.203 F 
ATOM     90  C   UNL A   1      43.891  25.406  34.355  1.00  0.00     0.198 A 
ATOM     91  C   UNL A   1      44.243  24.358  32.230  1.00  0.00     0.198 A 
ATOM     92  F   UNL A   1      44.573  25.668  30.308  1.00  0.00    -0.203 F 
ATOM     93  F   UNL A   1      43.669  25.309  35.675  1.00  0.00    -0.200 F 
ATOM     94  C   UNL A   1      44.019  24.257  33.593  1.00  0.00     0.200 A 
ATOM     95  F   UNL A   1      44.329  23.251  31.480  1.00  0.00    -0.200 F 
ATOM     96  F   UNL A   1      43.907  23.051  34.167  1.00  0.00    -0.200 F 
ENDBRANCH  63  86
ENDBRANCH  37  38
ENDBRANCH  29  32
ENDBRANCH  27  28
ENDBRANCH   1  27
TORSDOF 12
ENDMDL
MODEL 3
REMARK VINA RESULT:     -14.1      3.996      9.295
REMARK SMILES C[C@H]1CCc2sc3ncn4nc(/C=C\C(=O)NCCCCNC(=O)c5ccc(-c6c7nc(c(-c8c(F)c(F)c(F)c(F)c8F)c8ccc([nH]8)c(-c8c(F)c(F)c(F)c(F)c8F)c8nc(c(-c9c(F)c(F)c(F)c(F)c9F)c9ccc6[nH]9)C=C8)C=C7)cc5)nc4c3c2C1
REMARK SMILES IDX 20 1 19 2 18 3 17 4 15 5 16 6 14 8 13 9 12 10 1 11 2 12 3 13
REMARK SMILES IDX 92 14 4 15 91 16 5 17 90 18 6 19 7 20 89 21 8 22 10 23 88 24
REMARK SMILES IDX 9 25 11 26 21 27 22 28 23 29 24 31 25 32 26 33 87 34 27 35
REMARK SMILES IDX 86 36 28 37 29 38 30 39 80 40 31 41 85 42 79 43 81 44 32 45
REMARK SMILES IDX 84 46 78 47 77 48 33 50 65 51 45 52 64 53 46 54 49 55 63 56
REMARK SMILES IDX 82 57 47 58 48 59 62 61 83 62 50 63 34 64 35 65 43 66 36 67
REMARK SMILES IDX 37 68 41 69 44 70 38 71 39 72 42 73 40 74 66 75 67 76 75 77
REMARK SMILES IDX 68 78 69 79 73 80 76 81 70 82 71 83 74 84 72 85 51 86 52 87
REMARK SMILES IDX 60 88 53 89 54 90 58 91 61 92 55 93 56 94 59 95 57 96
REMARK H PARENT 17 7 22 30 81 49 49 60
REMARK Flexibility Score: inf
ROOT
ATOM      1  C   UNL A   1      32.894  29.906  27.237  1.00  0.00     0.023 C 
ENDROOT
BRANCH   1   2
ATOM      2  C   UNL A   1      33.536  28.933  26.157  1.00  0.00     0.023 C 
BRANCH   2   3
ATOM      3  C   UNL A   1      33.295  29.247  24.667  1.00  0.00     0.116 C 
BRANCH   3   4
ATOM      4  N   UNL A   1      31.955  29.692  24.266  1.00  0.00    -0.353 N 
ATOM      5  C   UNL A   1      30.887  28.994  23.748  1.00  0.00     0.244 C 
ATOM      6  O   UNL A   1      29.753  29.427  23.906  1.00  0.00    -0.270 OA
ATOM      7  H   UNL A   1      31.790  30.655  24.389  1.00  0.00     0.163 HD
BRANCH   5   8
ATOM      8  C   UNL A   1      31.071  27.827  22.838  1.00  0.00     0.075 C 
ATOM      9  C   UNL A   1      31.404  26.570  23.165  1.00  0.00     0.057 C 
BRANCH   9  10
ATOM     10  C   UNL A   1      31.716  26.124  24.470  1.00  0.00     0.175 A 
ATOM     11  C   UNL A   1      37.751  23.707  26.455  1.00  0.00     0.008 C 
ATOM     12  C   UNL A   1      37.371  23.360  25.005  1.00  0.00    -0.009 C 
ATOM     13  C   UNL A   1      37.397  21.827  24.752  1.00  0.00     0.009 C 
ATOM     14  C   UNL A   1      35.983  23.962  24.648  1.00  0.00     0.041 C 
ATOM     15  C   UNL A   1      36.237  21.044  25.361  1.00  0.00     0.047 C 
ATOM     16  C   UNL A   1      34.959  23.288  25.480  1.00  0.00    -0.020 A 
ATOM     17  C   UNL A   1      35.134  21.952  25.777  1.00  0.00     0.011 A 
ATOM     18  C   UNL A   1      33.734  23.769  26.029  1.00  0.00     0.060 A 
ATOM     19  S   UNL A   1      33.951  21.394  26.786  1.00  0.00    -0.120 S 
ATOM     20  C   UNL A   1      33.067  22.840  26.793  1.00  0.00     0.129 A 
ATOM     21  C   UNL A   1      32.881  24.933  25.709  1.00  0.00     0.168 A 
ATOM     22  N   UNL A   1      31.794  22.917  27.307  1.00  0.00    -0.225 NA
ATOM     23  N   UNL A   1      31.572  24.908  26.119  1.00  0.00    -0.201 N 
ATOM     24  N   UNL A   1      33.020  25.789  24.738  1.00  0.00    -0.207 NA
ATOM     25  C   UNL A   1      31.046  23.908  26.918  1.00  0.00     0.227 A 
ATOM     26  N   UNL A   1      30.809  25.719  25.371  1.00  0.00    -0.145 NA
ENDBRANCH   9  10
ENDBRANCH   5   8
ENDBRANCH   3   4
ENDBRANCH   2   3
ENDBRANCH   1   2
BRANCH   1  27
ATOM     27  C   UNL A   1      33.543  31.305  27.568  1.00  0.00     0.116 C 
BRANCH  27  28
ATOM     28  N   UNL A   1      34.381  31.382  28.854  1.00  0.00    -0.352 N 
ATOM     29  C   UNL A   1      35.690  31.835  29.198  1.00  0.00     0.251 C 
ATOM     30  H   UNL A   1      33.894  31.033  29.634  1.00  0.00     0.163 HD
ATOM     31  O   UNL A   1      35.753  32.752  30.024  1.00  0.00    -0.269 OA
BRANCH  29  32
ATOM     32  C   UNL A   1      37.016  31.116  28.937  1.00  0.00     0.039 A 
ATOM     33  C   UNL A   1      38.217  31.513  29.546  1.00  0.00     0.014 A 
ATOM     34  C   UNL A   1      37.144  30.046  28.053  1.00  0.00     0.014 A 
ATOM     35  C   UNL A   1      39.373  30.663  29.540  1.00  0.00     0.010 A 
ATOM     36  C   UNL A   1      38.265  29.151  28.125  1.00  0.00     0.010 A 
ATOM     37  C   UNL A   1      39.368  29.370  28.964  1.00  0.00    -0.014 A 
BRANCH  37  38
ATOM     38  C   UNL A   1      40.436  28.327  29.346  1.00  0.00     0.031 A 
ATOM     39  C   UNL A   1      40.784  28.225  30.833  1.00  0.00     0.074 A 
ATOM     40  C   UNL A   1      40.980  27.287  28.633  1.00  0.00     0.049 A 
ATOM     41  N   UNL A   1      41.899  28.476  31.451  1.00  0.00    -0.248 NA
ATOM     42  C   UNL A   1      39.736  27.770  31.756  1.00  0.00     0.031 C 
ATOM     43  C   UNL A   1      40.653  26.781  27.293  1.00  0.00     0.029 A 
ATOM     44  N   UNL A   1      41.972  26.384  29.019  1.00  0.00    -0.354 N 
ATOM     45  C   UNL A   1      41.726  28.112  32.802  1.00  0.00     0.074 A 
ATOM     46  C   UNL A   1      40.346  27.747  32.943  1.00  0.00     0.031 C 
ATOM     47  C   UNL A   1      41.276  25.601  27.050  1.00  0.00     0.029 A 
ATOM     48  C   UNL A   1      42.196  25.324  28.133  1.00  0.00     0.049 A 
ATOM     49  H   UNL A   1      42.478  26.485  29.857  1.00  0.00     0.167 HD
ATOM     50  C   UNL A   1      42.774  27.991  33.673  1.00  0.00     0.037 A 
ATOM     51  C   UNL A   1      43.117  24.323  28.198  1.00  0.00     0.037 A 
ATOM     52  C   UNL A   1      43.969  28.531  33.098  1.00  0.00     0.049 A 
ATOM     53  C   UNL A   1      44.234  24.787  29.040  1.00  0.00     0.074 A 
ATOM     54  C   UNL A   1      44.501  29.777  32.864  1.00  0.00     0.029 A 
ATOM     55  N   UNL A   1      44.656  27.638  32.332  1.00  0.00    -0.354 N 
ATOM     56  N   UNL A   1      45.033  25.762  28.718  1.00  0.00    -0.248 NA
ATOM     57  C   UNL A   1      44.376  24.272  30.396  1.00  0.00     0.031 C 
ATOM     58  C   UNL A   1      45.338  29.627  31.716  1.00  0.00     0.029 A 
ATOM     59  C   UNL A   1      45.326  28.288  31.333  1.00  0.00     0.049 A 
ATOM     60  H   UNL A   1      44.668  26.664  32.477  1.00  0.00     0.167 HD
ATOM     61  C   UNL A   1      45.442  26.266  29.930  1.00  0.00     0.074 A 
ATOM     62  C   UNL A   1      45.188  25.204  30.895  1.00  0.00     0.031 C 
ATOM     63  C   UNL A   1      45.616  27.605  30.094  1.00  0.00     0.037 A 
BRANCH  50  64
ATOM     64  C   UNL A   1      42.885  27.060  34.874  1.00  0.00     0.064 A 
ATOM     65  C   UNL A   1      43.261  27.582  36.137  1.00  0.00     0.173 A 
ATOM     66  C   UNL A   1      42.966  25.659  34.759  1.00  0.00     0.173 A 
ATOM     67  F   UNL A   1      43.253  28.905  36.360  1.00  0.00    -0.203 F 
ATOM     68  C   UNL A   1      43.733  26.768  37.176  1.00  0.00     0.198 A 
ATOM     69  C   UNL A   1      43.400  24.844  35.813  1.00  0.00     0.198 A 
ATOM     70  F   UNL A   1      42.735  25.040  33.595  1.00  0.00    -0.203 F 
ATOM     71  F   UNL A   1      44.176  27.321  38.313  1.00  0.00    -0.200 F 
ATOM     72  C   UNL A   1      43.807  25.399  37.011  1.00  0.00     0.200 A 
ATOM     73  F   UNL A   1      43.492  23.519  35.629  1.00  0.00    -0.200 F 
ATOM     74  F   UNL A   1      44.310  24.621  37.980  1.00  0.00    -0.200 F 
ENDBRANCH  50  64
BRANCH  51  75
ATOM     75  C   UNL A   1      43.123  22.919  27.689  1.00  0.00     0.064 A 
ATOM     76  C   UNL A   1      42.117  21.999  28.056  1.00  0.00     0.173 A 
ATOM     77  C   UNL A   1      43.891  22.578  26.564  1.00  0.00     0.173 A 
ATOM     78  F   UNL A   1      41.326  22.243  29.112  1.00  0.00    -0.203 F 
ATOM     79  C   UNL A   1      41.841  20.859  27.292  1.00  0.00     0.198 A 
ATOM     80  C   UNL A   1      43.614  21.436  25.802  1.00  0.00     0.198 A 
ATOM     81  F   UNL A   1      44.849  23.405  26.122  1.00  0.00    -0.203 F 
ATOM     82  F   UNL A   1      40.811  20.063  27.620  1.00  0.00    -0.200 F 
ATOM     83  C   UNL A   1      42.573  20.593  26.149  1.00  0.00     0.200 A 
ATOM     84  F   UNL A   1      44.312  21.201  24.681  1.00  0.00    -0.200 F 
ATOM     85  F   UNL A   1      42.250  19.556  25.363  1.00  0.00    -0.200 F 
ENDBRANCH  51  75
BRANCH  63  86
ATOM     86  C   UNL A   1      45.919  28.430  28.882  1.00  0.00     0.064 A 
ATOM     87  C   UNL A   1      47.173  28.517  28.256  1.00  0.00     0.173 A 
ATOM     88  C   UNL A   1      44.849  29.106  28.281  1.00  0.00     0.173 A 
ATOM     89  F   UNL A   1      48.233  27.848  28.726  1.00  0.00    -0.203 F 
ATOM     90  C   UNL A   1      47.350  29.275  27.100  1.00  0.00     0.198 A 
ATOM     91  C   UNL A   1      45.019  29.827  27.106  1.00  0.00     0.198 A 
ATOM     92  F   UNL A   1      43.621  29.032  28.819  1.00  0.00    -0.203 F 
ATOM     93  F   UNL A   1      48.562  29.362  26.531  1.00  0.00    -0.200 F 
ATOM     94  C   UNL A   1      46.271  29.921  26.521  1.00  0.00     0.200 A 
ATOM     95  F   UNL A   1      43.963  30.418  26.531  1.00  0.00    -0.200 F 
ATOM     96  F   UNL A   1      46.431  30.619  25.388  1.00  0.00    -0.200 F 
ENDBRANCH  63  86
ENDBRANCH  37  38
ENDBRANCH  29  32
ENDBRANCH  27  28
ENDBRANCH   1  27
TORSDOF 12
ENDMDL
