MODEL 1
REMARK VINA RESULT:     -12.1      0.000      0.000
REMARK SMILES C[C@H](Nc1ccc(F)cc1Br)[C@@H](C)C(=O)NCCCCNC(=O)c1ccc(-c2c3nc(c(-c4c(F)c(F)c(F)c(F)c4F)c4ccc([nH]4)c(-c4c(F)c(F)c(F)c(F)c4F)c4nc(c(-c5c(F)c(F)c(F)c(F)c5F)c5ccc2[nH]5)C=C4)C=C3)cc1
REMARK SMILES IDX 18 1 17 2 16 3 14 4 15 5 12 7 13 8 2 9 1 10 3 11 4 13 5 14
REMARK SMILES IDX 10 15 6 16 9 17 11 18 7 19 8 20 19 21 20 22 21 23 22 24
REMARK SMILES IDX 23 26 24 27 25 28 86 29 26 30 85 31 27 32 28 33 29 34 79 35
REMARK SMILES IDX 30 36 84 37 78 38 80 39 31 40 83 41 77 42 76 43 32 45 64 46
REMARK SMILES IDX 44 47 63 48 45 49 48 50 62 51 81 52 46 53 47 54 61 56 82 57
REMARK SMILES IDX 49 58 33 59 34 60 42 61 35 62 36 63 40 64 43 65 37 66 38 67
REMARK SMILES IDX 41 68 39 69 65 70 66 71 74 72 67 73 68 74 72 75 75 76 69 77
REMARK SMILES IDX 70 78 73 79 71 80 50 81 51 82 59 83 52 84 53 85 57 86 60 87
REMARK SMILES IDX 54 88 55 89 58 90 56 91
REMARK H PARENT 16 6 3 12 21 25 80 44 48 55
REMARK Flexibility Score: inf
ROOT
ATOM      1  C   UNL A   1      31.762  30.589  26.509  1.00  0.00     0.023 C 
ENDROOT
BRANCH   1   2
ATOM      2  C   UNL A   1      33.216  30.118  26.520  1.00  0.00     0.116 C 
BRANCH   2   3
ATOM      3  N   UNL A   1      33.660  29.681  25.210  1.00  0.00    -0.356 N 
ATOM      4  C   UNL A   1      33.673  28.453  24.622  1.00  0.00     0.224 C 
ATOM      5  O   UNL A   1      34.133  28.384  23.480  1.00  0.00    -0.275 OA
ATOM      6  H   UNL A   1      34.016  30.404  24.643  1.00  0.00     0.163 HD
BRANCH   4   7
ATOM      7  C   UNL A   1      33.130  27.204  25.314  1.00  0.00     0.097 C 
ATOM      8  C   UNL A   1      33.921  25.988  24.819  1.00  0.00     0.020 C 
BRANCH   7   9
ATOM      9  C   UNL A   1      31.586  27.098  25.237  1.00  0.00     0.088 C 
ATOM     10  C   UNL A   1      31.080  25.930  26.090  1.00  0.00     0.031 C 
BRANCH   9  11
ATOM     11  N   UNL A   1      31.113  27.100  23.837  1.00  0.00    -0.381 N 
ATOM     12  H   UNL A   1      31.438  26.358  23.276  1.00  0.00     0.160 HD
BRANCH  11  13
ATOM     13  C   UNL A   1      30.275  28.005  23.203  1.00  0.00     0.049 A 
ATOM     14  C   UNL A   1      30.773  29.085  22.461  1.00  0.00     0.030 A 
ATOM     15  C   UNL A   1      28.870  27.878  23.274  1.00  0.00     0.044 A 
ATOM     16  C   UNL A   1      29.926  30.025  21.868  1.00  0.00     0.041 A 
ATOM     17  C   UNL A   1      28.014  28.816  22.689  1.00  0.00     0.057 A 
ATOM     18  Br  UNL A   1      28.045  26.395  24.135  1.00  0.00    -0.048 Br
ATOM     19  C   UNL A   1      28.554  29.889  22.000  1.00  0.00     0.124 A 
ATOM     20  F   UNL A   1      27.742  30.791  21.436  1.00  0.00    -0.207 F 
ENDBRANCH  11  13
ENDBRANCH   9  11
ENDBRANCH   7   9
ENDBRANCH   4   7
ENDBRANCH   2   3
ENDBRANCH   1   2
BRANCH   1  21
ATOM     21  C   UNL A   1      31.577  32.099  26.638  1.00  0.00     0.023 C 
BRANCH  21  22
ATOM     22  C   UNL A   1      32.715  32.831  27.339  1.00  0.00     0.116 C 
BRANCH  22  23
ATOM     23  N   UNL A   1      32.391  34.209  27.678  1.00  0.00    -0.352 N 
ATOM     24  C   UNL A   1      32.972  35.022  28.619  1.00  0.00     0.251 C 
ATOM     25  H   UNL A   1      31.656  34.612  27.162  1.00  0.00     0.163 HD
ATOM     26  O   UNL A   1      32.505  36.132  28.854  1.00  0.00    -0.269 OA
BRANCH  24  27
ATOM     27  C   UNL A   1      34.142  34.535  29.377  1.00  0.00     0.039 A 
ATOM     28  C   UNL A   1      33.941  33.988  30.646  1.00  0.00     0.014 A 
ATOM     29  C   UNL A   1      35.424  34.586  28.823  1.00  0.00     0.014 A 
ATOM     30  C   UNL A   1      35.018  33.424  31.331  1.00  0.00     0.010 A 
ATOM     31  C   UNL A   1      36.479  33.955  29.473  1.00  0.00     0.010 A 
ATOM     32  C   UNL A   1      36.287  33.369  30.732  1.00  0.00    -0.014 A 
BRANCH  32  33
ATOM     33  C   UNL A   1      37.426  32.700  31.408  1.00  0.00     0.031 A 
ATOM     34  C   UNL A   1      38.118  31.541  30.747  1.00  0.00     0.074 A 
ATOM     35  C   UNL A   1      37.793  33.094  32.643  1.00  0.00     0.049 A 
ATOM     36  N   UNL A   1      39.087  30.787  31.201  1.00  0.00    -0.248 NA
ATOM     37  C   UNL A   1      37.637  31.159  29.410  1.00  0.00     0.031 C 
ATOM     38  C   UNL A   1      37.163  34.169  33.410  1.00  0.00     0.029 A 
ATOM     39  N   UNL A   1      38.779  32.626  33.476  1.00  0.00    -0.354 N 
ATOM     40  C   UNL A   1      39.319  29.837  30.216  1.00  0.00     0.074 A 
ATOM     41  C   UNL A   1      38.354  30.073  29.164  1.00  0.00     0.031 C 
ATOM     42  C   UNL A   1      37.790  34.294  34.590  1.00  0.00     0.029 A 
ATOM     43  C   UNL A   1      38.842  33.285  34.678  1.00  0.00     0.049 A 
ATOM     44  H   UNL A   1      39.382  31.887  33.234  1.00  0.00     0.167 HD
ATOM     45  C   UNL A   1      40.267  28.871  30.180  1.00  0.00     0.037 A 
ATOM     46  C   UNL A   1      39.655  33.094  35.735  1.00  0.00     0.037 A 
ATOM     47  C   UNL A   1      41.244  28.658  31.216  1.00  0.00     0.049 A 
ATOM     48  C   UNL A   1      40.703  32.017  35.668  1.00  0.00     0.074 A 
ATOM     49  C   UNL A   1      42.286  27.750  31.246  1.00  0.00     0.029 A 
ATOM     50  N   UNL A   1      41.293  29.363  32.410  1.00  0.00    -0.354 N 
ATOM     51  N   UNL A   1      40.963  31.174  34.698  1.00  0.00    -0.248 NA
ATOM     52  C   UNL A   1      41.577  31.871  36.840  1.00  0.00     0.031 C 
ATOM     53  C   UNL A   1      42.939  27.874  32.476  1.00  0.00     0.029 A 
ATOM     54  C   UNL A   1      42.336  28.894  33.192  1.00  0.00     0.049 A 
ATOM     55  H   UNL A   1      40.677  30.089  32.664  1.00  0.00     0.167 HD
ATOM     56  C   UNL A   1      42.045  30.418  35.128  1.00  0.00     0.074 A 
ATOM     57  C   UNL A   1      42.403  30.913  36.441  1.00  0.00     0.031 C 
ATOM     58  C   UNL A   1      42.684  29.405  34.494  1.00  0.00     0.037 A 
BRANCH  45  59
ATOM     59  C   UNL A   1      40.300  27.974  28.976  1.00  0.00     0.064 A 
ATOM     60  C   UNL A   1      41.047  28.301  27.834  1.00  0.00     0.173 A 
ATOM     61  C   UNL A   1      39.604  26.756  28.977  1.00  0.00     0.173 A 
ATOM     62  F   UNL A   1      41.720  29.460  27.777  1.00  0.00    -0.203 F 
ATOM     63  C   UNL A   1      41.070  27.458  26.727  1.00  0.00     0.198 A 
ATOM     64  C   UNL A   1      39.655  25.900  27.880  1.00  0.00     0.198 A 
ATOM     65  F   UNL A   1      38.878  26.392  30.045  1.00  0.00    -0.203 F 
ATOM     66  F   UNL A   1      41.749  27.817  25.628  1.00  0.00    -0.200 F 
ATOM     67  C   UNL A   1      40.382  26.255  26.754  1.00  0.00     0.200 A 
ATOM     68  F   UNL A   1      39.000  24.731  27.911  1.00  0.00    -0.200 F 
ATOM     69  F   UNL A   1      40.412  25.441  25.689  1.00  0.00    -0.200 F 
ENDBRANCH  45  59
BRANCH  46  70
ATOM     70  C   UNL A   1      39.528  33.961  36.936  1.00  0.00     0.064 A 
ATOM     71  C   UNL A   1      38.772  33.550  38.043  1.00  0.00     0.173 A 
ATOM     72  C   UNL A   1      40.151  35.215  37.002  1.00  0.00     0.173 A 
ATOM     73  F   UNL A   1      38.140  32.366  38.020  1.00  0.00    -0.203 F 
ATOM     74  C   UNL A   1      38.626  34.369  39.160  1.00  0.00     0.198 A 
ATOM     75  C   UNL A   1      40.028  36.021  38.131  1.00  0.00     0.198 A 
ATOM     76  F   UNL A   1      40.891  35.652  35.972  1.00  0.00    -0.203 F 
ATOM     77  F   UNL A   1      37.858  33.971  40.184  1.00  0.00    -0.200 F 
ATOM     78  C   UNL A   1      39.258  35.602  39.205  1.00  0.00     0.200 A 
ATOM     79  F   UNL A   1      40.653  37.206  38.177  1.00  0.00    -0.200 F 
ATOM     80  F   UNL A   1      39.120  36.388  40.282  1.00  0.00    -0.200 F 
ENDBRANCH  46  70
BRANCH  58  81
ATOM     81  C   UNL A   1      43.860  28.788  35.194  1.00  0.00     0.064 A 
ATOM     82  C   UNL A   1      45.162  29.279  35.019  1.00  0.00     0.173 A 
ATOM     83  C   UNL A   1      43.675  27.718  36.082  1.00  0.00     0.173 A 
ATOM     84  F   UNL A   1      45.394  30.292  34.169  1.00  0.00    -0.203 F 
ATOM     85  C   UNL A   1      46.239  28.702  35.686  1.00  0.00     0.198 A 
ATOM     86  C   UNL A   1      44.750  27.164  36.772  1.00  0.00     0.198 A 
ATOM     87  F   UNL A   1      42.448  27.217  36.291  1.00  0.00    -0.203 F 
ATOM     88  F   UNL A   1      47.482  29.155  35.466  1.00  0.00    -0.200 F 
ATOM     89  C   UNL A   1      46.031  27.651  36.567  1.00  0.00     0.200 A 
ATOM     90  F   UNL A   1      44.544  26.159  37.634  1.00  0.00    -0.200 F 
ATOM     91  F   UNL A   1      47.069  27.102  37.214  1.00  0.00    -0.200 F 
ENDBRANCH  58  81
ENDBRANCH  32  33
ENDBRANCH  24  27
ENDBRANCH  22  23
ENDBRANCH  21  22
ENDBRANCH   1  21
TORSDOF 14
ENDMDL
MODEL 2
REMARK VINA RESULT:     -12.0      0.600      7.371
REMARK SMILES C[C@H](Nc1ccc(F)cc1Br)[C@@H](C)C(=O)NCCCCNC(=O)c1ccc(-c2c3nc(c(-c4c(F)c(F)c(F)c(F)c4F)c4ccc([nH]4)c(-c4c(F)c(F)c(F)c(F)c4F)c4nc(c(-c5c(F)c(F)c(F)c(F)c5F)c5ccc2[nH]5)C=C4)C=C3)cc1
REMARK SMILES IDX 18 1 17 2 16 3 14 4 15 5 12 7 13 8 2 9 1 10 3 11 4 13 5 14
REMARK SMILES IDX 10 15 6 16 9 17 11 18 7 19 8 20 19 21 20 22 21 23 22 24
REMARK SMILES IDX 23 26 24 27 25 28 86 29 26 30 85 31 27 32 28 33 29 34 79 35
REMARK SMILES IDX 30 36 84 37 78 38 80 39 31 40 83 41 77 42 76 43 32 45 64 46
REMARK SMILES IDX 44 47 63 48 45 49 48 50 62 51 81 52 46 53 47 54 61 56 82 57
REMARK SMILES IDX 49 58 33 59 34 60 42 61 35 62 36 63 40 64 43 65 37 66 38 67
REMARK SMILES IDX 41 68 39 69 65 70 66 71 74 72 67 73 68 74 72 75 75 76 69 77
REMARK SMILES IDX 70 78 73 79 71 80 50 81 51 82 59 83 52 84 53 85 57 86 60 87
REMARK SMILES IDX 54 88 55 89 58 90 56 91
REMARK H PARENT 16 6 3 12 21 25 80 44 48 55
REMARK Flexibility Score: inf
ROOT
ATOM      1  C   UNL A   1      31.660  30.753  26.115  1.00  0.00     0.023 C 
ENDROOT
BRANCH   1   2
ATOM      2  C   UNL A   1      33.073  30.193  26.277  1.00  0.00     0.116 C 
BRANCH   2   3
ATOM      3  N   UNL A   1      33.606  29.684  25.028  1.00  0.00    -0.356 N 
ATOM      4  C   UNL A   1      33.692  28.420  24.530  1.00  0.00     0.224 C 
ATOM      5  O   UNL A   1      34.220  28.289  23.423  1.00  0.00    -0.275 OA
ATOM      6  H   UNL A   1      33.972  30.378  24.432  1.00  0.00     0.163 HD
BRANCH   4   7
ATOM      7  C   UNL A   1      33.151  27.202  25.277  1.00  0.00     0.097 C 
ATOM      8  C   UNL A   1      33.937  25.965  24.830  1.00  0.00     0.020 C 
BRANCH   7   9
ATOM      9  C   UNL A   1      31.606  27.096  25.212  1.00  0.00     0.088 C 
ATOM     10  C   UNL A   1      31.108  25.921  26.061  1.00  0.00     0.031 C 
BRANCH   9  11
ATOM     11  N   UNL A   1      31.121  27.109  23.816  1.00  0.00    -0.381 N 
ATOM     12  H   UNL A   1      31.447  26.375  23.246  1.00  0.00     0.160 HD
BRANCH  11  13
ATOM     13  C   UNL A   1      30.271  28.014  23.199  1.00  0.00     0.049 A 
ATOM     14  C   UNL A   1      30.755  29.116  22.481  1.00  0.00     0.030 A 
ATOM     15  C   UNL A   1      28.868  27.864  23.263  1.00  0.00     0.044 A 
ATOM     16  C   UNL A   1      29.896  30.056  21.905  1.00  0.00     0.041 A 
ATOM     17  C   UNL A   1      28.000  28.802  22.695  1.00  0.00     0.057 A 
ATOM     18  Br  UNL A   1      28.064  26.352  24.091  1.00  0.00    -0.048 Br
ATOM     19  C   UNL A   1      28.526  29.896  22.030  1.00  0.00     0.124 A 
ATOM     20  F   UNL A   1      27.702  30.798  21.482  1.00  0.00    -0.207 F 
ENDBRANCH  11  13
ENDBRANCH   9  11
ENDBRANCH   7   9
ENDBRANCH   4   7
ENDBRANCH   2   3
ENDBRANCH   1   2
BRANCH   1  21
ATOM     21  C   UNL A   1      31.418  32.092  26.810  1.00  0.00     0.023 C 
BRANCH  21  22
ATOM     22  C   UNL A   1      32.679  32.853  27.199  1.00  0.00     0.116 C 
BRANCH  22  23
ATOM     23  N   UNL A   1      32.418  34.224  27.615  1.00  0.00    -0.352 N 
ATOM     24  C   UNL A   1      33.042  34.960  28.592  1.00  0.00     0.251 C 
ATOM     25  H   UNL A   1      31.696  34.685  27.130  1.00  0.00     0.163 HD
ATOM     26  O   UNL A   1      32.625  36.074  28.891  1.00  0.00    -0.269 OA
BRANCH  24  27
ATOM     27  C   UNL A   1      34.197  34.383  29.308  1.00  0.00     0.039 A 
ATOM     28  C   UNL A   1      33.963  33.585  30.430  1.00  0.00     0.014 A 
ATOM     29  C   UNL A   1      35.501  34.600  28.854  1.00  0.00     0.014 A 
ATOM     30  C   UNL A   1      35.032  32.944  31.054  1.00  0.00     0.010 A 
ATOM     31  C   UNL A   1      36.555  33.899  29.430  1.00  0.00     0.010 A 
ATOM     32  C   UNL A   1      36.332  33.065  30.535  1.00  0.00    -0.014 A 
BRANCH  32  33
ATOM     33  C   UNL A   1      37.471  32.325  31.133  1.00  0.00     0.031 A 
ATOM     34  C   UNL A   1      37.970  32.690  32.503  1.00  0.00     0.074 A 
ATOM     35  C   UNL A   1      38.094  31.371  30.416  1.00  0.00     0.049 A 
ATOM     36  N   UNL A   1      38.989  32.207  33.168  1.00  0.00    -0.248 NA
ATOM     37  C   UNL A   1      37.248  33.762  33.206  1.00  0.00     0.031 C 
ATOM     38  C   UNL A   1      37.738  30.966  29.056  1.00  0.00     0.029 A 
ATOM     39  N   UNL A   1      39.169  30.576  30.728  1.00  0.00    -0.354 N 
ATOM     40  C   UNL A   1      39.037  32.924  34.356  1.00  0.00     0.074 A 
ATOM     41  C   UNL A   1      37.983  33.913  34.298  1.00  0.00     0.031 C 
ATOM     42  C   UNL A   1      38.562  29.984  28.658  1.00  0.00     0.029 A 
ATOM     43  C   UNL A   1      39.528  29.715  29.720  1.00  0.00     0.049 A 
ATOM     44  H   UNL A   1      39.639  30.620  31.591  1.00  0.00     0.167 HD
ATOM     45  C   UNL A   1      39.870  32.756  35.410  1.00  0.00     0.037 A 
ATOM     46  C   UNL A   1      40.527  28.814  29.658  1.00  0.00     0.037 A 
ATOM     47  C   UNL A   1      40.899  31.752  35.476  1.00  0.00     0.049 A 
ATOM     48  C   UNL A   1      41.435  28.644  30.845  1.00  0.00     0.074 A 
ATOM     49  C   UNL A   1      41.752  31.458  36.524  1.00  0.00     0.029 A 
ATOM     50  N   UNL A   1      41.217  30.880  34.444  1.00  0.00    -0.354 N 
ATOM     51  N   UNL A   1      41.423  29.276  31.994  1.00  0.00    -0.248 NA
ATOM     52  C   UNL A   1      42.491  27.629  30.730  1.00  0.00     0.031 C 
ATOM     53  C   UNL A   1      42.617  30.439  36.111  1.00  0.00     0.029 A 
ATOM     54  C   UNL A   1      42.268  30.063  34.825  1.00  0.00     0.049 A 
ATOM     55  H   UNL A   1      40.763  30.849  33.571  1.00  0.00     0.167 HD
ATOM     56  C   UNL A   1      42.446  28.718  32.747  1.00  0.00     0.074 A 
ATOM     57  C   UNL A   1      43.050  27.685  31.931  1.00  0.00     0.031 C 
ATOM     58  C   UNL A   1      42.851  29.033  34.002  1.00  0.00     0.037 A 
BRANCH  45  59
ATOM     59  C   UNL A   1      39.697  33.676  36.585  1.00  0.00     0.064 A 
ATOM     60  C   UNL A   1      40.329  34.927  36.639  1.00  0.00     0.173 A 
ATOM     61  C   UNL A   1      38.862  33.317  37.654  1.00  0.00     0.173 A 
ATOM     62  F   UNL A   1      41.148  35.314  35.649  1.00  0.00    -0.203 F 
ATOM     63  C   UNL A   1      40.157  35.771  37.733  1.00  0.00     0.198 A 
ATOM     64  C   UNL A   1      38.667  34.176  38.732  1.00  0.00     0.198 A 
ATOM     65  F   UNL A   1      38.230  32.134  37.651  1.00  0.00    -0.203 F 
ATOM     66  F   UNL A   1      40.812  36.939  37.786  1.00  0.00    -0.200 F 
ATOM     67  C   UNL A   1      39.320  35.399  38.774  1.00  0.00     0.200 A 
ATOM     68  F   UNL A   1      37.847  33.821  39.731  1.00  0.00    -0.200 F 
ATOM     69  F   UNL A   1      39.149  36.216  39.823  1.00  0.00    -0.200 F 
ENDBRANCH  45  59
BRANCH  46  70
ATOM     70  C   UNL A   1      40.703  27.983  28.438  1.00  0.00     0.064 A 
ATOM     71  C   UNL A   1      40.092  26.725  28.330  1.00  0.00     0.173 A 
ATOM     72  C   UNL A   1      41.487  28.422  27.362  1.00  0.00     0.173 A 
ATOM     73  F   UNL A   1      39.348  26.253  29.342  1.00  0.00    -0.203 F 
ATOM     74  C   UNL A   1      40.277  25.930  27.202  1.00  0.00     0.198 A 
ATOM     75  C   UNL A   1      41.648  27.637  26.222  1.00  0.00     0.198 A 
ATOM     76  F   UNL A   1      42.088  29.620  27.413  1.00  0.00    -0.203 F 
ATOM     77  F   UNL A   1      39.720  24.712  27.145  1.00  0.00    -0.200 F 
ATOM     78  C   UNL A   1      41.050  26.388  26.147  1.00  0.00     0.200 A 
ATOM     79  F   UNL A   1      42.384  28.090  25.198  1.00  0.00    -0.200 F 
ATOM     80  F   UNL A   1      41.225  25.623  25.060  1.00  0.00    -0.200 F 
ENDBRANCH  46  70
BRANCH  58  81
ATOM     81  C   UNL A   1      43.976  28.227  34.585  1.00  0.00     0.064 A 
ATOM     82  C   UNL A   1      45.310  28.652  34.495  1.00  0.00     0.173 A 
ATOM     83  C   UNL A   1      43.711  27.034  35.274  1.00  0.00     0.173 A 
ATOM     84  F   UNL A   1      45.617  29.778  33.833  1.00  0.00    -0.203 F 
ATOM     85  C   UNL A   1      46.339  27.897  35.052  1.00  0.00     0.198 A 
ATOM     86  C   UNL A   1      44.739  26.299  35.857  1.00  0.00     0.198 A 
ATOM     87  F   UNL A   1      42.451  26.588  35.395  1.00  0.00    -0.203 F 
ATOM     88  F   UNL A   1      47.611  28.297  34.912  1.00  0.00    -0.200 F 
ATOM     89  C   UNL A   1      46.052  26.727  35.739  1.00  0.00     0.200 A 
ATOM     90  F   UNL A   1      44.458  25.176  36.533  1.00  0.00    -0.200 F 
ATOM     91  F   UNL A   1      47.044  26.006  36.281  1.00  0.00    -0.200 F 
ENDBRANCH  58  81
ENDBRANCH  32  33
ENDBRANCH  24  27
ENDBRANCH  22  23
ENDBRANCH  21  22
ENDBRANCH   1  21
TORSDOF 14
ENDMDL
MODEL 3
REMARK VINA RESULT:     -11.9      4.251     10.207
REMARK SMILES C[C@H](Nc1ccc(F)cc1Br)[C@@H](C)C(=O)NCCCCNC(=O)c1ccc(-c2c3nc(c(-c4c(F)c(F)c(F)c(F)c4F)c4ccc([nH]4)c(-c4c(F)c(F)c(F)c(F)c4F)c4nc(c(-c5c(F)c(F)c(F)c(F)c5F)c5ccc2[nH]5)C=C4)C=C3)cc1
REMARK SMILES IDX 18 1 17 2 16 3 14 4 15 5 12 7 13 8 2 9 1 10 3 11 4 13 5 14
REMARK SMILES IDX 10 15 6 16 9 17 11 18 7 19 8 20 19 21 20 22 21 23 22 24
REMARK SMILES IDX 23 26 24 27 25 28 86 29 26 30 85 31 27 32 28 33 29 34 79 35
REMARK SMILES IDX 30 36 84 37 78 38 80 39 31 40 83 41 77 42 76 43 32 45 64 46
REMARK SMILES IDX 44 47 63 48 45 49 48 50 62 51 81 52 46 53 47 54 61 56 82 57
REMARK SMILES IDX 49 58 33 59 34 60 42 61 35 62 36 63 40 64 43 65 37 66 38 67
REMARK SMILES IDX 41 68 39 69 65 70 66 71 74 72 67 73 68 74 72 75 75 76 69 77
REMARK SMILES IDX 70 78 73 79 71 80 50 81 51 82 59 83 52 84 53 85 57 86 60 87
REMARK SMILES IDX 54 88 55 89 58 90 56 91
REMARK H PARENT 16 6 3 12 21 25 80 44 48 55
REMARK Flexibility Score: inf
ROOT
ATOM      1  C   UNL A   1      34.052  35.206  28.939  1.00  0.00     0.023 C 
ENDROOT
BRANCH   1   2
ATOM      2  C   UNL A   1      33.064  35.718  29.987  1.00  0.00     0.116 C 
BRANCH   2   3
ATOM      3  N   UNL A   1      33.732  36.178  31.190  1.00  0.00    -0.356 N 
ATOM      4  C   UNL A   1      34.352  35.502  32.195  1.00  0.00     0.224 C 
ATOM      5  O   UNL A   1      34.826  36.175  33.114  1.00  0.00    -0.275 OA
ATOM      6  H   UNL A   1      33.739  37.158  31.297  1.00  0.00     0.163 HD
BRANCH   4   7
ATOM      7  C   UNL A   1      34.486  33.980  32.204  1.00  0.00     0.097 C 
ATOM      8  C   UNL A   1      34.079  33.460  33.586  1.00  0.00     0.020 C 
BRANCH   7   9
ATOM      9  C   UNL A   1      35.856  33.496  31.663  1.00  0.00     0.088 C 
ATOM     10  C   UNL A   1      36.214  32.125  32.246  1.00  0.00     0.031 C 
BRANCH   9  11
ATOM     11  N   UNL A   1      36.896  34.534  31.819  1.00  0.00    -0.381 N 
ATOM     12  H   UNL A   1      36.621  35.342  32.311  1.00  0.00     0.160 HD
BRANCH  11  13
ATOM     13  C   UNL A   1      38.207  34.527  31.367  1.00  0.00     0.049 A 
ATOM     14  C   UNL A   1      38.521  34.537  30.001  1.00  0.00     0.030 A 
ATOM     15  C   UNL A   1      39.294  34.513  32.269  1.00  0.00     0.044 A 
ATOM     16  C   UNL A   1      39.842  34.476  29.547  1.00  0.00     0.041 A 
ATOM     17  C   UNL A   1      40.619  34.448  31.825  1.00  0.00     0.057 A 
ATOM     18  Br  UNL A   1      39.032  34.627  34.149  1.00  0.00    -0.048 Br
ATOM     19  C   UNL A   1      40.877  34.418  30.465  1.00  0.00     0.124 A 
ATOM     20  F   UNL A   1      42.142  34.357  30.032  1.00  0.00    -0.207 F 
ENDBRANCH  11  13
ENDBRANCH   9  11
ENDBRANCH   7   9
ENDBRANCH   4   7
ENDBRANCH   2   3
ENDBRANCH   1   2
BRANCH   1  21
ATOM     21  C   UNL A   1      33.575  33.987  28.152  1.00  0.00     0.023 C 
BRANCH  21  22
ATOM     22  C   UNL A   1      34.462  32.754  28.272  1.00  0.00     0.116 C 
BRANCH  22  23
ATOM     23  N   UNL A   1      33.930  31.592  27.575  1.00  0.00    -0.352 N 
ATOM     24  C   UNL A   1      34.504  30.357  27.398  1.00  0.00     0.251 C 
ATOM     25  H   UNL A   1      33.037  31.706  27.177  1.00  0.00     0.163 HD
ATOM     26  O   UNL A   1      33.962  29.517  26.688  1.00  0.00    -0.269 OA
BRANCH  24  27
ATOM     27  C   UNL A   1      35.802  30.062  28.038  1.00  0.00     0.039 A 
ATOM     28  C   UNL A   1      35.812  29.604  29.358  1.00  0.00     0.014 A 
ATOM     29  C   UNL A   1      36.997  30.201  27.328  1.00  0.00     0.014 A 
ATOM     30  C   UNL A   1      37.018  29.217  29.942  1.00  0.00     0.010 A 
ATOM     31  C   UNL A   1      38.186  29.742  27.885  1.00  0.00     0.010 A 
ATOM     32  C   UNL A   1      38.208  29.247  29.197  1.00  0.00    -0.014 A 
BRANCH  32  33
ATOM     33  C   UNL A   1      39.487  28.760  29.772  1.00  0.00     0.031 A 
ATOM     34  C   UNL A   1      40.110  29.477  30.936  1.00  0.00     0.074 A 
ATOM     35  C   UNL A   1      40.117  27.714  29.203  1.00  0.00     0.049 A 
ATOM     36  N   UNL A   1      41.251  29.246  31.536  1.00  0.00    -0.248 NA
ATOM     37  C   UNL A   1      39.369  30.626  31.479  1.00  0.00     0.031 C 
ATOM     38  C   UNL A   1      39.640  26.972  28.036  1.00  0.00     0.029 A 
ATOM     39  N   UNL A   1      41.303  27.102  29.524  1.00  0.00    -0.354 N 
ATOM     40  C   UNL A   1      41.368  30.226  32.512  1.00  0.00     0.074 A 
ATOM     41  C   UNL A   1      40.213  31.088  32.390  1.00  0.00     0.031 C 
ATOM     42  C   UNL A   1      40.511  25.991  27.752  1.00  0.00     0.029 A 
ATOM     43  C   UNL A   1      41.626  26.057  28.693  1.00  0.00     0.049 A 
ATOM     44  H   UNL A   1      41.870  27.386  30.277  1.00  0.00     0.167 HD
ATOM     45  C   UNL A   1      42.339  30.378  33.444  1.00  0.00     0.037 A 
ATOM     46  C   UNL A   1      42.702  25.248  28.688  1.00  0.00     0.037 A 
ATOM     47  C   UNL A   1      43.473  29.502  33.580  1.00  0.00     0.049 A 
ATOM     48  C   UNL A   1      43.764  25.435  29.737  1.00  0.00     0.074 A 
ATOM     49  C   UNL A   1      44.477  29.531  34.531  1.00  0.00     0.029 A 
ATOM     50  N   UNL A   1      43.753  28.437  32.735  1.00  0.00    -0.354 N 
ATOM     51  N   UNL A   1      43.826  26.319  30.704  1.00  0.00    -0.248 NA
ATOM     52  C   UNL A   1      44.903  24.507  29.698  1.00  0.00     0.031 C 
ATOM     53  C   UNL A   1      45.390  28.514  34.235  1.00  0.00     0.029 A 
ATOM     54  C   UNL A   1      44.927  27.817  33.131  1.00  0.00     0.049 A 
ATOM     55  H   UNL A   1      43.200  28.164  31.968  1.00  0.00     0.167 HD
ATOM     56  C   UNL A   1      44.991  26.037  31.404  1.00  0.00     0.074 A 
ATOM     57  C   UNL A   1      45.597  24.890  30.761  1.00  0.00     0.031 C 
ATOM     58  C   UNL A   1      45.512  26.670  32.483  1.00  0.00     0.037 A 
BRANCH  45  59
ATOM     59  C   UNL A   1      42.214  31.534  34.395  1.00  0.00     0.064 A 
ATOM     60  C   UNL A   1      42.827  32.769  34.136  1.00  0.00     0.173 A 
ATOM     61  C   UNL A   1      41.445  31.416  35.562  1.00  0.00     0.173 A 
ATOM     62  F   UNL A   1      43.584  32.932  33.040  1.00  0.00    -0.203 F 
ATOM     63  C   UNL A   1      42.700  33.833  35.025  1.00  0.00     0.198 A 
ATOM     64  C   UNL A   1      41.294  32.491  36.433  1.00  0.00     0.198 A 
ATOM     65  F   UNL A   1      40.834  30.258  35.855  1.00  0.00    -0.203 F 
ATOM     66  F   UNL A   1      43.337  34.987  34.782  1.00  0.00    -0.200 F 
ATOM     67  C   UNL A   1      41.927  33.696  36.167  1.00  0.00     0.200 A 
ATOM     68  F   UNL A   1      40.536  32.362  37.531  1.00  0.00    -0.200 F 
ATOM     69  F   UNL A   1      41.800  34.724  37.019  1.00  0.00    -0.200 F 
ENDBRANCH  45  59
BRANCH  46  70
ATOM     70  C   UNL A   1      42.814  24.167  27.674  1.00  0.00     0.064 A 
ATOM     71  C   UNL A   1      42.387  22.863  27.961  1.00  0.00     0.173 A 
ATOM     72  C   UNL A   1      43.355  24.412  26.403  1.00  0.00     0.173 A 
ATOM     73  F   UNL A   1      41.881  22.576  29.169  1.00  0.00    -0.203 F 
ATOM     74  C   UNL A   1      42.517  21.840  27.024  1.00  0.00     0.198 A 
ATOM     75  C   UNL A   1      43.458  23.394  25.457  1.00  0.00     0.198 A 
ATOM     76  F   UNL A   1      43.773  25.643  26.076  1.00  0.00    -0.203 F 
ATOM     77  F   UNL A   1      42.144  20.593  27.342  1.00  0.00    -0.200 F 
ATOM     78  C   UNL A   1      43.047  22.107  25.772  1.00  0.00     0.200 A 
ATOM     79  F   UNL A   1      43.957  23.659  24.242  1.00  0.00    -0.200 F 
ATOM     80  F   UNL A   1      43.168  21.123  24.870  1.00  0.00    -0.200 F 
ENDBRANCH  46  70
BRANCH  58  81
ATOM     81  C   UNL A   1      46.783  26.115  33.060  1.00  0.00     0.064 A 
ATOM     82  C   UNL A   1      46.771  25.083  34.009  1.00  0.00     0.173 A 
ATOM     83  C   UNL A   1      48.027  26.597  32.628  1.00  0.00     0.173 A 
ATOM     84  F   UNL A   1      45.606  24.598  34.465  1.00  0.00    -0.203 F 
ATOM     85  C   UNL A   1      47.960  24.572  34.523  1.00  0.00     0.198 A 
ATOM     86  C   UNL A   1      49.214  26.063  33.121  1.00  0.00     0.198 A 
ATOM     87  F   UNL A   1      48.093  27.579  31.716  1.00  0.00    -0.203 F 
ATOM     88  F   UNL A   1      47.924  23.619  35.466  1.00  0.00    -0.200 F 
ATOM     89  C   UNL A   1      49.179  25.057  34.074  1.00  0.00     0.200 A 
ATOM     90  F   UNL A   1      50.390  26.522  32.674  1.00  0.00    -0.200 F 
ATOM     91  F   UNL A   1      50.322  24.558  34.565  1.00  0.00    -0.200 F 
ENDBRANCH  58  81
ENDBRANCH  32  33
ENDBRANCH  24  27
ENDBRANCH  22  23
ENDBRANCH  21  22
ENDBRANCH   1  21
TORSDOF 14
ENDMDL
