MODEL 1
REMARK VINA RESULT:     -10.7      0.000      0.000
REMARK SMILES C=Cc1cccc(-c2ccc([C@@H](C)C(=O)NCCCCNC(=O)c3ccc(-c4c5nc(c(-c6c(F)c(F)c(F)c(F)c6F)c6ccc([nH]6)c(-c6c(F)c(F)c(F)c(F)c6F)c6nc(c(-c7c(F)c(F)c(F)c(F)c7F)c7ccc4[nH]7)C=C6)C=C5)cc3)cc2)c1
REMARK SMILES IDX 18 1 17 2 16 3 14 4 15 5 12 7 13 8 11 9 8 10 9 11 88 12
REMARK SMILES IDX 10 13 87 14 7 15 3 16 4 17 89 18 5 19 6 20 2 21 1 22 19 23
REMARK SMILES IDX 20 24 21 25 22 26 23 28 24 29 25 30 86 31 26 32 85 33 27 34
REMARK SMILES IDX 28 35 29 36 79 37 30 38 84 39 78 40 80 41 31 42 83 43 77 44
REMARK SMILES IDX 76 45 32 47 64 48 44 49 63 50 45 51 48 52 62 53 81 54 46 55
REMARK SMILES IDX 47 56 61 58 82 59 49 60 33 61 34 62 42 63 35 64 36 65 40 66
REMARK SMILES IDX 43 67 37 68 38 69 41 70 39 71 65 72 66 73 74 74 67 75 68 76
REMARK SMILES IDX 72 77 75 78 69 79 70 80 73 81 71 82 50 83 51 84 59 85 52 86
REMARK SMILES IDX 53 87 57 88 60 89 54 90 55 91 58 92 56 93
REMARK H PARENT 16 6 21 27 80 46 48 57
REMARK Flexibility Score: inf
ROOT
ATOM      1  C   UNL A   1      34.858  35.015  28.134  1.00  0.00     0.023 C 
ENDROOT
BRANCH   1   2
ATOM      2  C   UNL A   1      33.502  35.193  28.817  1.00  0.00     0.116 C 
BRANCH   2   3
ATOM      3  N   UNL A   1      33.421  36.436  29.554  1.00  0.00    -0.356 N 
ATOM      4  C   UNL A   1      33.061  36.698  30.841  1.00  0.00     0.227 C 
ATOM      5  O   UNL A   1      33.015  37.891  31.165  1.00  0.00    -0.274 OA
ATOM      6  H   UNL A   1      33.670  37.235  29.032  1.00  0.00     0.163 HD
BRANCH   4   7
ATOM      7  C   UNL A   1      32.739  35.608  31.877  1.00  0.00     0.105 C 
ATOM      8  C   UNL A   1      31.763  36.060  32.963  1.00  0.00     0.023 C 
BRANCH   7   9
ATOM      9  C   UNL A   1      33.965  34.843  32.352  1.00  0.00    -0.036 A 
ATOM     10  C   UNL A   1      36.272  33.290  33.046  1.00  0.00    -0.018 A 
ATOM     11  C   UNL A   1      36.333  34.686  32.899  1.00  0.00     0.009 A 
ATOM     12  C   UNL A   1      35.009  32.698  32.881  1.00  0.00     0.009 A 
ATOM     13  C   UNL A   1      35.198  35.450  32.597  1.00  0.00     0.005 A 
ATOM     14  C   UNL A   1      33.884  33.454  32.520  1.00  0.00     0.005 A 
BRANCH  10  15
ATOM     15  C   UNL A   1      37.485  32.493  33.353  1.00  0.00    -0.018 A 
ATOM     16  C   UNL A   1      38.736  30.371  33.283  1.00  0.00    -0.026 A 
ATOM     17  C   UNL A   1      39.812  30.985  33.931  1.00  0.00     0.008 A 
ATOM     18  C   UNL A   1      37.587  31.130  33.001  1.00  0.00     0.016 A 
ATOM     19  C   UNL A   1      39.745  32.330  34.281  1.00  0.00     0.001 A 
ATOM     20  C   UNL A   1      38.593  33.068  34.003  1.00  0.00     0.009 A 
BRANCH  16  21
ATOM     21  C   UNL A   1      38.824  28.937  32.980  1.00  0.00     0.000 C 
ATOM     22  C   UNL A   1      39.960  28.297  32.679  1.00  0.00     0.009 C 
ENDBRANCH  16  21
ENDBRANCH  10  15
ENDBRANCH   7   9
ENDBRANCH   4   7
ENDBRANCH   2   3
ENDBRANCH   1   2
BRANCH   1  23
ATOM     23  C   UNL A   1      35.396  33.585  28.124  1.00  0.00     0.023 C 
BRANCH  23  24
ATOM     24  C   UNL A   1      34.721  32.631  29.102  1.00  0.00     0.116 C 
BRANCH  24  25
ATOM     25  N   UNL A   1      33.894  31.615  28.471  1.00  0.00    -0.352 N 
ATOM     26  C   UNL A   1      34.266  30.361  28.039  1.00  0.00     0.251 C 
ATOM     27  H   UNL A   1      32.948  31.853  28.335  1.00  0.00     0.163 HD
ATOM     28  O   UNL A   1      33.470  29.638  27.456  1.00  0.00    -0.269 OA
BRANCH  26  29
ATOM     29  C   UNL A   1      35.662  29.918  28.246  1.00  0.00     0.039 A 
ATOM     30  C   UNL A   1      36.583  30.094  27.210  1.00  0.00     0.014 A 
ATOM     31  C   UNL A   1      36.069  29.389  29.472  1.00  0.00     0.014 A 
ATOM     32  C   UNL A   1      37.932  29.808  27.433  1.00  0.00     0.010 A 
ATOM     33  C   UNL A   1      37.421  29.185  29.719  1.00  0.00     0.010 A 
ATOM     34  C   UNL A   1      38.366  29.392  28.702  1.00  0.00    -0.014 A 
BRANCH  34  35
ATOM     35  C   UNL A   1      39.805  29.160  28.987  1.00  0.00     0.031 A 
ATOM     36  C   UNL A   1      40.608  30.211  29.701  1.00  0.00     0.074 A 
ATOM     37  C   UNL A   1      40.401  28.038  28.541  1.00  0.00     0.049 A 
ATOM     38  N   UNL A   1      41.884  30.226  29.986  1.00  0.00    -0.248 NA
ATOM     39  C   UNL A   1      39.886  31.423  30.118  1.00  0.00     0.031 C 
ATOM     40  C   UNL A   1      39.744  26.974  27.779  1.00  0.00     0.029 A 
ATOM     41  N   UNL A   1      41.700  27.610  28.654  1.00  0.00    -0.354 N 
ATOM     42  C   UNL A   1      42.120  31.451  30.596  1.00  0.00     0.074 A 
ATOM     43  C   UNL A   1      40.868  32.176  30.588  1.00  0.00     0.031 C 
ATOM     44  C   UNL A   1      40.636  26.005  27.518  1.00  0.00     0.029 A 
ATOM     45  C   UNL A   1      41.932  26.391  28.066  1.00  0.00     0.049 A 
ATOM     46  H   UNL A   1      42.400  28.128  29.114  1.00  0.00     0.167 HD
ATOM     47  C   UNL A   1      43.268  31.917  31.142  1.00  0.00     0.037 A 
ATOM     48  C   UNL A   1      43.065  25.666  27.982  1.00  0.00     0.037 A 
ATOM     49  C   UNL A   1      44.501  31.176  31.182  1.00  0.00     0.049 A 
ATOM     50  C   UNL A   1      44.320  26.194  28.620  1.00  0.00     0.074 A 
ATOM     51  C   UNL A   1      45.702  31.530  31.770  1.00  0.00     0.029 A 
ATOM     52  N   UNL A   1      44.686  29.926  30.611  1.00  0.00    -0.354 N 
ATOM     53  N   UNL A   1      44.512  27.319  29.263  1.00  0.00    -0.248 NA
ATOM     54  C   UNL A   1      45.516  25.343  28.530  1.00  0.00     0.031 C 
ATOM     55  C   UNL A   1      46.626  30.509  31.523  1.00  0.00     0.029 A 
ATOM     56  C   UNL A   1      45.988  29.499  30.822  1.00  0.00     0.049 A 
ATOM     57  H   UNL A   1      43.995  29.416  30.128  1.00  0.00     0.167 HD
ATOM     58  C   UNL A   1      45.836  27.301  29.681  1.00  0.00     0.074 A 
ATOM     59  C   UNL A   1      46.398  26.045  29.229  1.00  0.00     0.031 C 
ATOM     60  C   UNL A   1      46.523  28.238  30.377  1.00  0.00     0.037 A 
BRANCH  47  61
ATOM     61  C   UNL A   1      43.239  33.289  31.750  1.00  0.00     0.064 A 
ATOM     62  C   UNL A   1      43.376  34.444  30.964  1.00  0.00     0.173 A 
ATOM     63  C   UNL A   1      43.048  33.453  33.129  1.00  0.00     0.173 A 
ATOM     64  F   UNL A   1      43.574  34.341  29.641  1.00  0.00    -0.203 F 
ATOM     65  C   UNL A   1      43.353  35.711  31.541  1.00  0.00     0.198 A 
ATOM     66  C   UNL A   1      42.995  34.723  33.700  1.00  0.00     0.198 A 
ATOM     67  F   UNL A   1      42.907  32.382  33.926  1.00  0.00    -0.203 F 
ATOM     68  F   UNL A   1      43.539  36.797  30.778  1.00  0.00    -0.200 F 
ATOM     69  C   UNL A   1      43.155  35.849  32.907  1.00  0.00     0.200 A 
ATOM     70  F   UNL A   1      42.792  34.857  35.017  1.00  0.00    -0.200 F 
ATOM     71  F   UNL A   1      43.129  37.070  33.460  1.00  0.00    -0.200 F 
ENDBRANCH  47  61
BRANCH  48  72
ATOM     72  C   UNL A   1      43.051  24.343  27.305  1.00  0.00     0.064 A 
ATOM     73  C   UNL A   1      43.416  24.224  25.956  1.00  0.00     0.173 A 
ATOM     74  C   UNL A   1      42.674  23.176  27.985  1.00  0.00     0.173 A 
ATOM     75  F   UNL A   1      43.765  25.316  25.259  1.00  0.00    -0.203 F 
ATOM     76  C   UNL A   1      43.383  22.992  25.308  1.00  0.00     0.198 A 
ATOM     77  C   UNL A   1      42.668  21.940  27.342  1.00  0.00     0.198 A 
ATOM     78  F   UNL A   1      42.324  23.236  29.278  1.00  0.00    -0.203 F 
ATOM     79  F   UNL A   1      43.693  22.914  24.007  1.00  0.00    -0.200 F 
ATOM     80  C   UNL A   1      43.015  21.850  26.002  1.00  0.00     0.200 A 
ATOM     81  F   UNL A   1      42.325  20.836  28.020  1.00  0.00    -0.200 F 
ATOM     82  F   UNL A   1      42.986  20.664  25.378  1.00  0.00    -0.200 F 
ENDBRANCH  48  72
BRANCH  60  83
ATOM     83  C   UNL A   1      47.948  27.927  30.729  1.00  0.00     0.064 A 
ATOM     84  C   UNL A   1      48.285  27.272  31.922  1.00  0.00     0.173 A 
ATOM     85  C   UNL A   1      48.983  28.249  29.840  1.00  0.00     0.173 A 
ATOM     86  F   UNL A   1      47.331  26.956  32.812  1.00  0.00    -0.203 F 
ATOM     87  C   UNL A   1      49.611  26.972  32.223  1.00  0.00     0.198 A 
ATOM     88  C   UNL A   1      50.305  27.922  30.130  1.00  0.00     0.198 A 
ATOM     89  F   UNL A   1      48.712  28.870  28.681  1.00  0.00    -0.203 F 
ATOM     90  F   UNL A   1      49.915  26.385  33.388  1.00  0.00    -0.200 F 
ATOM     91  C   UNL A   1      50.617  27.290  31.323  1.00  0.00     0.200 A 
ATOM     92  F   UNL A   1      51.275  28.217  29.254  1.00  0.00    -0.200 F 
ATOM     93  F   UNL A   1      51.893  26.992  31.610  1.00  0.00    -0.200 F 
ENDBRANCH  60  83
ENDBRANCH  34  35
ENDBRANCH  26  29
ENDBRANCH  24  25
ENDBRANCH  23  24
ENDBRANCH   1  23
TORSDOF 14
ENDMDL
MODEL 2
REMARK VINA RESULT:     -10.7      2.562      4.303
REMARK SMILES C=Cc1cccc(-c2ccc([C@@H](C)C(=O)NCCCCNC(=O)c3ccc(-c4c5nc(c(-c6c(F)c(F)c(F)c(F)c6F)c6ccc([nH]6)c(-c6c(F)c(F)c(F)c(F)c6F)c6nc(c(-c7c(F)c(F)c(F)c(F)c7F)c7ccc4[nH]7)C=C6)C=C5)cc3)cc2)c1
REMARK SMILES IDX 18 1 17 2 16 3 14 4 15 5 12 7 13 8 11 9 8 10 9 11 88 12
REMARK SMILES IDX 10 13 87 14 7 15 3 16 4 17 89 18 5 19 6 20 2 21 1 22 19 23
REMARK SMILES IDX 20 24 21 25 22 26 23 28 24 29 25 30 86 31 26 32 85 33 27 34
REMARK SMILES IDX 28 35 29 36 79 37 30 38 84 39 78 40 80 41 31 42 83 43 77 44
REMARK SMILES IDX 76 45 32 47 64 48 44 49 63 50 45 51 48 52 62 53 81 54 46 55
REMARK SMILES IDX 47 56 61 58 82 59 49 60 33 61 34 62 42 63 35 64 36 65 40 66
REMARK SMILES IDX 43 67 37 68 38 69 41 70 39 71 65 72 66 73 74 74 67 75 68 76
REMARK SMILES IDX 72 77 75 78 69 79 70 80 73 81 71 82 50 83 51 84 59 85 52 86
REMARK SMILES IDX 53 87 57 88 60 89 54 90 55 91 58 92 56 93
REMARK H PARENT 16 6 21 27 80 46 48 57
REMARK Flexibility Score: inf
ROOT
ATOM      1  C   UNL A   1      33.887  35.995  28.841  1.00  0.00     0.023 C 
ENDROOT
BRANCH   1   2
ATOM      2  C   UNL A   1      32.973  35.746  30.041  1.00  0.00     0.116 C 
BRANCH   2   3
ATOM      3  N   UNL A   1      33.484  36.353  31.251  1.00  0.00    -0.356 N 
ATOM      4  C   UNL A   1      34.275  35.856  32.242  1.00  0.00     0.227 C 
ATOM      5  O   UNL A   1      34.484  36.606  33.204  1.00  0.00    -0.274 OA
ATOM      6  H   UNL A   1      33.212  37.291  31.381  1.00  0.00     0.163 HD
BRANCH   4   7
ATOM      7  C   UNL A   1      34.914  34.457  32.206  1.00  0.00     0.105 C 
ATOM      8  C   UNL A   1      34.598  33.604  33.435  1.00  0.00     0.023 C 
BRANCH   7   9
ATOM      9  C   UNL A   1      36.365  34.466  31.749  1.00  0.00    -0.036 A 
ATOM     10  C   UNL A   1      39.132  34.300  31.022  1.00  0.00    -0.018 A 
ATOM     11  C   UNL A   1      38.104  34.108  30.083  1.00  0.00     0.009 A 
ATOM     12  C   UNL A   1      38.733  34.625  32.329  1.00  0.00     0.009 A 
ATOM     13  C   UNL A   1      36.752  34.227  30.429  1.00  0.00     0.005 A 
ATOM     14  C   UNL A   1      37.380  34.684  32.691  1.00  0.00     0.005 A 
BRANCH  10  15
ATOM     15  C   UNL A   1      40.560  34.158  30.644  1.00  0.00    -0.018 A 
ATOM     16  C   UNL A   1      42.789  33.172  31.000  1.00  0.00    -0.026 A 
ATOM     17  C   UNL A   1      43.280  33.884  29.902  1.00  0.00     0.008 A 
ATOM     18  C   UNL A   1      41.438  33.316  31.358  1.00  0.00     0.016 A 
ATOM     19  C   UNL A   1      42.436  34.715  29.172  1.00  0.00     0.001 A 
ATOM     20  C   UNL A   1      41.098  34.855  29.545  1.00  0.00     0.009 A 
BRANCH  16  21
ATOM     21  C   UNL A   1      43.724  32.349  31.777  1.00  0.00     0.000 C 
ATOM     22  C   UNL A   1      44.044  31.084  31.481  1.00  0.00     0.009 C 
ENDBRANCH  16  21
ENDBRANCH  10  15
ENDBRANCH   7   9
ENDBRANCH   4   7
ENDBRANCH   2   3
ENDBRANCH   1   2
BRANCH   1  23
ATOM     23  C   UNL A   1      34.203  34.758  28.000  1.00  0.00     0.023 C 
BRANCH  23  24
ATOM     24  C   UNL A   1      33.760  33.432  28.605  1.00  0.00     0.116 C 
BRANCH  24  25
ATOM     25  N   UNL A   1      33.161  32.511  27.652  1.00  0.00    -0.352 N 
ATOM     26  C   UNL A   1      33.645  31.295  27.222  1.00  0.00     0.251 C 
ATOM     27  H   UNL A   1      32.300  32.792  27.264  1.00  0.00     0.163 HD
ATOM     28  O   UNL A   1      33.062  30.660  26.354  1.00  0.00    -0.269 OA
BRANCH  26  29
ATOM     29  C   UNL A   1      34.914  30.789  27.789  1.00  0.00     0.039 A 
ATOM     30  C   UNL A   1      36.050  31.600  27.725  1.00  0.00     0.014 A 
ATOM     31  C   UNL A   1      34.965  29.550  28.431  1.00  0.00     0.014 A 
ATOM     32  C   UNL A   1      37.220  31.198  28.373  1.00  0.00     0.010 A 
ATOM     33  C   UNL A   1      36.102  29.191  29.145  1.00  0.00     0.010 A 
ATOM     34  C   UNL A   1      37.241  30.011  29.123  1.00  0.00    -0.014 A 
BRANCH  34  35
ATOM     35  C   UNL A   1      38.446  29.603  29.887  1.00  0.00     0.031 A 
ATOM     36  C   UNL A   1      38.675  30.142  31.272  1.00  0.00     0.074 A 
ATOM     37  C   UNL A   1      39.366  28.807  29.309  1.00  0.00     0.049 A 
ATOM     38  N   UNL A   1      39.692  29.957  32.074  1.00  0.00    -0.248 NA
ATOM     39  C   UNL A   1      37.639  31.036  31.812  1.00  0.00     0.031 C 
ATOM     40  C   UNL A   1      39.288  28.273  27.947  1.00  0.00     0.029 A 
ATOM     41  N   UNL A   1      40.554  28.316  29.790  1.00  0.00    -0.354 N 
ATOM     42  C   UNL A   1      39.427  30.725  33.200  1.00  0.00     0.074 A 
ATOM     43  C   UNL A   1      38.184  31.423  32.955  1.00  0.00     0.031 C 
ATOM     44  C   UNL A   1      40.366  27.507  27.714  1.00  0.00     0.029 A 
ATOM     45  C   UNL A   1      41.225  27.521  28.894  1.00  0.00     0.049 A 
ATOM     46  H   UNL A   1      40.893  28.515  30.692  1.00  0.00     0.167 HD
ATOM     47  C   UNL A   1      40.140  30.816  34.348  1.00  0.00     0.037 A 
ATOM     48  C   UNL A   1      42.400  26.873  29.015  1.00  0.00     0.037 A 
ATOM     49  C   UNL A   1      41.356  30.090  34.602  1.00  0.00     0.049 A 
ATOM     50  C   UNL A   1      43.158  26.969  30.310  1.00  0.00     0.074 A 
ATOM     51  C   UNL A   1      42.118  30.060  35.757  1.00  0.00     0.029 A 
ATOM     52  N   UNL A   1      41.984  29.261  33.685  1.00  0.00    -0.354 N 
ATOM     53  N   UNL A   1      42.859  27.636  31.397  1.00  0.00    -0.248 NA
ATOM     54  C   UNL A   1      44.415  26.211  30.398  1.00  0.00     0.031 C 
ATOM     55  C   UNL A   1      43.228  29.241  35.525  1.00  0.00     0.029 A 
ATOM     56  C   UNL A   1      43.133  28.725  34.243  1.00  0.00     0.049 A 
ATOM     57  H   UNL A   1      41.661  29.079  32.772  1.00  0.00     0.167 HD
ATOM     58  C   UNL A   1      43.869  27.356  32.308  1.00  0.00     0.074 A 
ATOM     59  C   UNL A   1      44.784  26.447  31.650  1.00  0.00     0.031 C 
ATOM     60  C   UNL A   1      44.023  27.809  33.576  1.00  0.00     0.037 A 
BRANCH  47  61
ATOM     61  C   UNL A   1      39.613  31.726  35.420  1.00  0.00     0.064 A 
ATOM     62  C   UNL A   1      38.661  31.286  36.352  1.00  0.00     0.173 A 
ATOM     63  C   UNL A   1      40.084  33.041  35.533  1.00  0.00     0.173 A 
ATOM     64  F   UNL A   1      38.168  30.041  36.279  1.00  0.00    -0.203 F 
ATOM     65  C   UNL A   1      38.175  32.141  37.338  1.00  0.00     0.198 A 
ATOM     66  C   UNL A   1      39.620  33.885  36.540  1.00  0.00     0.198 A 
ATOM     67  F   UNL A   1      40.998  33.511  34.670  1.00  0.00    -0.203 F 
ATOM     68  F   UNL A   1      37.226  31.716  38.184  1.00  0.00    -0.200 F 
ATOM     69  C   UNL A   1      38.661  33.437  37.436  1.00  0.00     0.200 A 
ATOM     70  F   UNL A   1      40.097  35.132  36.641  1.00  0.00    -0.200 F 
ATOM     71  F   UNL A   1      38.196  34.257  38.389  1.00  0.00    -0.200 F 
ENDBRANCH  47  61
BRANCH  48  72
ATOM     72  C   UNL A   1      42.908  26.041  27.893  1.00  0.00     0.064 A 
ATOM     73  C   UNL A   1      43.768  26.586  26.929  1.00  0.00     0.173 A 
ATOM     74  C   UNL A   1      42.547  24.692  27.759  1.00  0.00     0.173 A 
ATOM     75  F   UNL A   1      44.125  27.876  27.004  1.00  0.00    -0.203 F 
ATOM     76  C   UNL A   1      44.230  25.819  25.861  1.00  0.00     0.198 A 
ATOM     77  C   UNL A   1      43.032  23.920  26.705  1.00  0.00     0.198 A 
ATOM     78  F   UNL A   1      41.733  24.123  28.659  1.00  0.00    -0.203 F 
ATOM     79  F   UNL A   1      45.014  26.377  24.929  1.00  0.00    -0.200 F 
ATOM     80  C   UNL A   1      43.866  24.487  25.753  1.00  0.00     0.200 A 
ATOM     81  F   UNL A   1      42.689  22.628  26.612  1.00  0.00    -0.200 F 
ATOM     82  F   UNL A   1      44.313  23.749  24.727  1.00  0.00    -0.200 F 
ENDBRANCH  48  72
BRANCH  60  83
ATOM     83  C   UNL A   1      45.202  27.300  34.350  1.00  0.00     0.064 A 
ATOM     84  C   UNL A   1      46.425  27.987  34.367  1.00  0.00     0.173 A 
ATOM     85  C   UNL A   1      45.092  26.133  35.120  1.00  0.00     0.173 A 
ATOM     86  F   UNL A   1      46.584  29.100  33.635  1.00  0.00    -0.203 F 
ATOM     87  C   UNL A   1      47.502  27.511  35.110  1.00  0.00     0.198 A 
ATOM     88  C   UNL A   1      46.162  25.674  35.884  1.00  0.00     0.198 A 
ATOM     89  F   UNL A   1      43.941  25.443  35.142  1.00  0.00    -0.203 F 
ATOM     90  F   UNL A   1      48.674  28.158  35.077  1.00  0.00    -0.200 F 
ATOM     91  C   UNL A   1      47.366  26.360  35.873  1.00  0.00     0.200 A 
ATOM     92  F   UNL A   1      46.026  24.571  36.631  1.00  0.00    -0.200 F 
ATOM     93  F   UNL A   1      48.402  25.908  36.594  1.00  0.00    -0.200 F 
ENDBRANCH  60  83
ENDBRANCH  34  35
ENDBRANCH  26  29
ENDBRANCH  24  25
ENDBRANCH  23  24
ENDBRANCH   1  23
TORSDOF 14
ENDMDL
MODEL 3
REMARK VINA RESULT:     -10.6      4.541      7.974
REMARK SMILES C=Cc1cccc(-c2ccc([C@@H](C)C(=O)NCCCCNC(=O)c3ccc(-c4c5nc(c(-c6c(F)c(F)c(F)c(F)c6F)c6ccc([nH]6)c(-c6c(F)c(F)c(F)c(F)c6F)c6nc(c(-c7c(F)c(F)c(F)c(F)c7F)c7ccc4[nH]7)C=C6)C=C5)cc3)cc2)c1
REMARK SMILES IDX 18 1 17 2 16 3 14 4 15 5 12 7 13 8 11 9 8 10 9 11 88 12
REMARK SMILES IDX 10 13 87 14 7 15 3 16 4 17 89 18 5 19 6 20 2 21 1 22 19 23
REMARK SMILES IDX 20 24 21 25 22 26 23 28 24 29 25 30 86 31 26 32 85 33 27 34
REMARK SMILES IDX 28 35 29 36 79 37 30 38 84 39 78 40 80 41 31 42 83 43 77 44
REMARK SMILES IDX 76 45 32 47 64 48 44 49 63 50 45 51 48 52 62 53 81 54 46 55
REMARK SMILES IDX 47 56 61 58 82 59 49 60 33 61 34 62 42 63 35 64 36 65 40 66
REMARK SMILES IDX 43 67 37 68 38 69 41 70 39 71 65 72 66 73 74 74 67 75 68 76
REMARK SMILES IDX 72 77 75 78 69 79 70 80 73 81 71 82 50 83 51 84 59 85 52 86
REMARK SMILES IDX 53 87 57 88 60 89 54 90 55 91 58 92 56 93
REMARK H PARENT 16 6 21 27 80 46 48 57
REMARK Flexibility Score: inf
ROOT
ATOM      1  C   UNL A   1      31.710  30.547  26.849  1.00  0.00     0.023 C 
ENDROOT
BRANCH   1   2
ATOM      2  C   UNL A   1      32.556  29.866  25.774  1.00  0.00     0.116 C 
BRANCH   2   3
ATOM      3  N   UNL A   1      31.745  29.297  24.720  1.00  0.00    -0.356 N 
ATOM      4  C   UNL A   1      32.075  28.525  23.647  1.00  0.00     0.227 C 
ATOM      5  O   UNL A   1      31.156  28.253  22.865  1.00  0.00    -0.274 OA
ATOM      6  H   UNL A   1      30.784  29.504  24.790  1.00  0.00     0.163 HD
BRANCH   4   7
ATOM      7  C   UNL A   1      33.490  27.982  23.387  1.00  0.00     0.105 C 
ATOM      8  C   UNL A   1      34.094  28.445  22.061  1.00  0.00     0.023 C 
BRANCH   7   9
ATOM      9  C   UNL A   1      33.641  26.505  23.715  1.00  0.00    -0.036 A 
ATOM     10  C   UNL A   1      34.102  23.716  24.189  1.00  0.00    -0.018 A 
ATOM     11  C   UNL A   1      34.246  24.676  25.205  1.00  0.00     0.009 A 
ATOM     12  C   UNL A   1      33.674  24.188  22.937  1.00  0.00     0.009 A 
ATOM     13  C   UNL A   1      33.983  26.034  24.984  1.00  0.00     0.005 A 
ATOM     14  C   UNL A   1      33.469  25.555  22.698  1.00  0.00     0.005 A 
BRANCH  10  15
ATOM     15  C   UNL A   1      34.396  22.282  24.434  1.00  0.00    -0.018 A 
ATOM     16  C   UNL A   1      33.673  19.930  24.550  1.00  0.00    -0.026 A 
ATOM     17  C   UNL A   1      34.974  19.547  24.890  1.00  0.00     0.008 A 
ATOM     18  C   UNL A   1      33.399  21.290  24.326  1.00  0.00     0.016 A 
ATOM     19  C   UNL A   1      35.981  20.501  24.994  1.00  0.00     0.001 A 
ATOM     20  C   UNL A   1      35.691  21.850  24.778  1.00  0.00     0.009 A 
BRANCH  16  21
ATOM     21  C   UNL A   1      32.628  18.900  24.504  1.00  0.00     0.000 C 
ATOM     22  C   UNL A   1      32.578  17.837  25.316  1.00  0.00     0.009 C 
ENDBRANCH  16  21
ENDBRANCH  10  15
ENDBRANCH   7   9
ENDBRANCH   4   7
ENDBRANCH   2   3
ENDBRANCH   1   2
BRANCH   1  23
ATOM     23  C   UNL A   1      31.566  32.061  26.698  1.00  0.00     0.023 C 
BRANCH  23  24
ATOM     24  C   UNL A   1      32.747  32.878  27.206  1.00  0.00     0.116 C 
BRANCH  24  25
ATOM     25  N   UNL A   1      32.401  34.224  27.638  1.00  0.00    -0.352 N 
ATOM     26  C   UNL A   1      32.998  34.983  28.620  1.00  0.00     0.251 C 
ATOM     27  H   UNL A   1      31.645  34.645  27.169  1.00  0.00     0.163 HD
ATOM     28  O   UNL A   1      32.547  36.078  28.924  1.00  0.00    -0.269 OA
BRANCH  26  29
ATOM     29  C   UNL A   1      34.165  34.431  29.341  1.00  0.00     0.039 A 
ATOM     30  C   UNL A   1      33.946  33.674  30.495  1.00  0.00     0.014 A 
ATOM     31  C   UNL A   1      35.459  34.611  28.848  1.00  0.00     0.014 A 
ATOM     32  C   UNL A   1      35.023  33.033  31.111  1.00  0.00     0.010 A 
ATOM     33  C   UNL A   1      36.515  33.906  29.413  1.00  0.00     0.010 A 
ATOM     34  C   UNL A   1      36.308  33.110  30.550  1.00  0.00    -0.014 A 
BRANCH  34  35
ATOM     35  C   UNL A   1      37.453  32.372  31.141  1.00  0.00     0.031 A 
ATOM     36  C   UNL A   1      37.952  32.732  32.512  1.00  0.00     0.074 A 
ATOM     37  C   UNL A   1      38.084  31.428  30.416  1.00  0.00     0.049 A 
ATOM     38  N   UNL A   1      38.973  32.251  33.174  1.00  0.00    -0.248 NA
ATOM     39  C   UNL A   1      37.229  33.802  33.218  1.00  0.00     0.031 C 
ATOM     40  C   UNL A   1      37.734  31.034  29.049  1.00  0.00     0.029 A 
ATOM     41  N   UNL A   1      39.160  30.635  30.723  1.00  0.00    -0.354 N 
ATOM     42  C   UNL A   1      39.024  32.970  34.360  1.00  0.00     0.074 A 
ATOM     43  C   UNL A   1      37.970  33.959  34.303  1.00  0.00     0.031 C 
ATOM     44  C   UNL A   1      38.562  30.056  28.648  1.00  0.00     0.029 A 
ATOM     45  C   UNL A   1      39.518  29.775  29.714  1.00  0.00     0.049 A 
ATOM     46  H   UNL A   1      39.632  30.678  31.586  1.00  0.00     0.167 HD
ATOM     47  C   UNL A   1      39.856  32.802  35.416  1.00  0.00     0.037 A 
ATOM     48  C   UNL A   1      40.506  28.861  29.659  1.00  0.00     0.037 A 
ATOM     49  C   UNL A   1      40.878  31.792  35.484  1.00  0.00     0.049 A 
ATOM     50  C   UNL A   1      41.399  28.674  30.855  1.00  0.00     0.074 A 
ATOM     51  C   UNL A   1      41.729  31.494  36.533  1.00  0.00     0.029 A 
ATOM     52  N   UNL A   1      41.184  30.911  34.457  1.00  0.00    -0.354 N 
ATOM     53  N   UNL A   1      41.389  29.307  32.002  1.00  0.00    -0.248 NA
ATOM     54  C   UNL A   1      42.435  27.637  30.751  1.00  0.00     0.031 C 
ATOM     55  C   UNL A   1      42.575  30.456  36.128  1.00  0.00     0.029 A 
ATOM     56  C   UNL A   1      42.221  30.077  34.843  1.00  0.00     0.049 A 
ATOM     57  H   UNL A   1      40.731  30.882  33.583  1.00  0.00     0.167 HD
ATOM     58  C   UNL A   1      42.390  28.727  32.768  1.00  0.00     0.074 A 
ATOM     59  C   UNL A   1      42.982  27.682  31.959  1.00  0.00     0.031 C 
ATOM     60  C   UNL A   1      42.785  29.032  34.028  1.00  0.00     0.037 A 
BRANCH  47  61
ATOM     61  C   UNL A   1      39.684  33.724  36.588  1.00  0.00     0.064 A 
ATOM     62  C   UNL A   1      40.333  34.968  36.643  1.00  0.00     0.173 A 
ATOM     63  C   UNL A   1      38.844  33.374  37.653  1.00  0.00     0.173 A 
ATOM     64  F   UNL A   1      41.158  35.345  35.655  1.00  0.00    -0.203 F 
ATOM     65  C   UNL A   1      40.170  35.813  37.739  1.00  0.00     0.198 A 
ATOM     66  C   UNL A   1      38.659  34.234  38.733  1.00  0.00     0.198 A 
ATOM     67  F   UNL A   1      38.197  32.198  37.648  1.00  0.00    -0.203 F 
ATOM     68  F   UNL A   1      40.841  36.971  37.795  1.00  0.00    -0.200 F 
ATOM     69  C   UNL A   1      39.328  35.448  38.778  1.00  0.00     0.200 A 
ATOM     70  F   UNL A   1      37.836  33.887  39.732  1.00  0.00    -0.200 F 
ATOM     71  F   UNL A   1      39.169  36.264  39.830  1.00  0.00    -0.200 F 
ENDBRANCH  47  61
BRANCH  48  72
ATOM     72  C   UNL A   1      40.674  28.022  28.443  1.00  0.00     0.064 A 
ATOM     73  C   UNL A   1      40.060  26.765  28.349  1.00  0.00     0.173 A 
ATOM     74  C   UNL A   1      41.450  28.454  27.357  1.00  0.00     0.173 A 
ATOM     75  F   UNL A   1      39.325  26.302  29.370  1.00  0.00    -0.203 F 
ATOM     76  C   UNL A   1      40.232  25.963  27.223  1.00  0.00     0.198 A 
ATOM     77  C   UNL A   1      41.599  27.661  26.221  1.00  0.00     0.198 A 
ATOM     78  F   UNL A   1      42.052  29.651  27.395  1.00  0.00    -0.203 F 
ATOM     79  F   UNL A   1      39.670  24.748  27.178  1.00  0.00    -0.200 F 
ATOM     80  C   UNL A   1      40.996  26.413  26.158  1.00  0.00     0.200 A 
ATOM     81  F   UNL A   1      42.327  28.105  25.187  1.00  0.00    -0.200 F 
ATOM     82  F   UNL A   1      41.160  25.642  25.074  1.00  0.00    -0.200 F 
ENDBRANCH  48  72
BRANCH  60  83
ATOM     83  C   UNL A   1      43.880  28.200  34.627  1.00  0.00     0.064 A 
ATOM     84  C   UNL A   1      45.222  28.605  34.580  1.00  0.00     0.173 A 
ATOM     85  C   UNL A   1      43.576  27.004  35.294  1.00  0.00     0.173 A 
ATOM     86  F   UNL A   1      45.565  29.733  33.940  1.00  0.00    -0.203 F 
ATOM     87  C   UNL A   1      46.223  27.831  35.160  1.00  0.00     0.198 A 
ATOM     88  C   UNL A   1      44.575  26.247  35.898  1.00  0.00     0.198 A 
ATOM     89  F   UNL A   1      42.306  26.577  35.372  1.00  0.00    -0.203 F 
ATOM     90  F   UNL A   1      47.503  28.213  35.066  1.00  0.00    -0.200 F 
ATOM     91  C   UNL A   1      45.897  26.657  35.825  1.00  0.00     0.200 A 
ATOM     92  F   UNL A   1      44.258  25.121  36.552  1.00  0.00    -0.200 F 
ATOM     93  F   UNL A   1      46.861  25.917  36.391  1.00  0.00    -0.200 F 
ENDBRANCH  60  83
ENDBRANCH  34  35
ENDBRANCH  26  29
ENDBRANCH  24  25
ENDBRANCH  23  24
ENDBRANCH   1  23
TORSDOF 14
ENDMDL
