MODEL 1
REMARK VINA RESULT:     -12.0      0.000      0.000
REMARK SMILES COc1ccc(-n2c(C)nnc2SCC(=O)NCCCCNC(=O)c2ccc(-c3c4nc(c(-c5c(F)c(F)c(F)c(F)c5F)c5ccc([nH]5)c(-c5c(F)c(F)c(F)c(F)c5F)c5nc(c(-c6c(F)c(F)c(F)c(F)c6F)c6ccc3[nH]6)C=C5)C=C4)cc2)cc1F
REMARK SMILES IDX 18 1 17 2 15 3 16 4 14 6 13 7 12 8 7 9 8 10 9 11 10 12 11 13
REMARK SMILES IDX 6 14 3 15 4 16 89 17 5 18 88 19 90 20 2 21 1 22 19 23 20 24
REMARK SMILES IDX 21 25 22 26 23 27 24 29 25 30 26 31 87 32 27 33 86 34 28 35
REMARK SMILES IDX 29 36 30 37 80 38 31 39 85 40 79 41 81 42 32 43 84 44 78 45
REMARK SMILES IDX 77 46 33 48 65 49 45 50 64 51 46 52 49 53 63 54 82 55 47 56
REMARK SMILES IDX 48 57 62 59 83 60 50 61 34 62 35 63 43 64 36 65 37 66 41 67
REMARK SMILES IDX 44 68 38 69 39 70 42 71 40 72 66 73 67 74 75 75 68 76 69 77
REMARK SMILES IDX 73 78 76 79 70 80 71 81 74 82 72 83 51 84 52 85 60 86 53 87
REMARK SMILES IDX 54 88 58 89 61 90 55 91 56 92 59 93 57 94
REMARK H PARENT 17 5 22 28 81 47 49 58
REMARK Flexibility Score: inf
ROOT
ATOM      1  C   UNL A   1      39.394  22.644  26.517  1.00  0.00     0.116 C 
ENDROOT
BRANCH   1   2
ATOM      2  N   UNL A   1      38.676  22.045  25.411  1.00  0.00    -0.355 N 
ATOM      3  C   UNL A   1      37.376  22.191  25.047  1.00  0.00     0.230 C 
ATOM      4  O   UNL A   1      37.144  22.060  23.839  1.00  0.00    -0.274 OA
ATOM      5  H   UNL A   1      39.206  21.443  24.841  1.00  0.00     0.163 HD
BRANCH   3   6
ATOM      6  C   UNL A   1      36.243  22.568  25.979  1.00  0.00     0.178 C 
BRANCH   6   7
ATOM      7  S   UNL A   1      35.028  23.754  25.434  1.00  0.00    -0.076 SA
BRANCH   7   8
ATOM      8  C   UNL A   1      33.472  23.490  26.148  1.00  0.00     0.196 A 
ATOM      9  N   UNL A   1      32.463  22.613  25.795  1.00  0.00    -0.274 N 
ATOM     10  C   UNL A   1      31.336  23.080  26.457  1.00  0.00     0.135 A 
ATOM     11  C   UNL A   1      29.982  22.479  26.405  1.00  0.00     0.090 C 
ATOM     12  N   UNL A   1      31.664  24.124  27.189  1.00  0.00    -0.134 NA
ATOM     13  N   UNL A   1      32.992  24.376  26.997  1.00  0.00    -0.123 NA
BRANCH   9  14
ATOM     14  C   UNL A   1      32.531  21.425  25.056  1.00  0.00     0.053 A 
ATOM     15  C   UNL A   1      32.586  19.063  23.563  1.00  0.00     0.154 A 
ATOM     16  C   UNL A   1      32.942  19.061  24.919  1.00  0.00     0.052 A 
ATOM     17  C   UNL A   1      32.282  20.283  22.953  1.00  0.00     0.167 A 
ATOM     18  C   UNL A   1      32.928  20.238  25.672  1.00  0.00     0.031 A 
ATOM     19  C   UNL A   1      32.259  21.465  23.689  1.00  0.00     0.070 A 
ATOM     20  F   UNL A   1      31.994  20.364  21.646  1.00  0.00    -0.203 F 
BRANCH  15  21
ATOM     21  O   UNL A   1      32.585  17.828  22.975  1.00  0.00    -0.494 OA
ATOM     22  C   UNL A   1      33.404  16.831  23.581  1.00  0.00     0.278 C 
ENDBRANCH  15  21
ENDBRANCH   9  14
ENDBRANCH   7   8
ENDBRANCH   6   7
ENDBRANCH   3   6
ENDBRANCH   1   2
BRANCH   1  23
ATOM     23  C   UNL A   1      40.492  21.757  27.108  1.00  0.00     0.023 C 
BRANCH  23  24
ATOM     24  C   UNL A   1      41.061  20.643  26.218  1.00  0.00     0.023 C 
BRANCH  24  25
ATOM     25  C   UNL A   1      42.319  19.964  26.737  1.00  0.00     0.116 C 
BRANCH  25  26
ATOM     26  N   UNL A   1      43.383  19.836  25.738  1.00  0.00    -0.352 N 
ATOM     27  C   UNL A   1      44.007  20.843  25.011  1.00  0.00     0.251 C 
ATOM     28  H   UNL A   1      43.696  18.921  25.559  1.00  0.00     0.163 HD
ATOM     29  O   UNL A   1      44.607  20.605  23.979  1.00  0.00    -0.269 OA
BRANCH  27  30
ATOM     30  C   UNL A   1      43.937  22.224  25.527  1.00  0.00     0.039 A 
ATOM     31  C   UNL A   1      43.105  23.200  24.966  1.00  0.00     0.014 A 
ATOM     32  C   UNL A   1      44.721  22.516  26.633  1.00  0.00     0.014 A 
ATOM     33  C   UNL A   1      43.017  24.447  25.588  1.00  0.00     0.010 A 
ATOM     34  C   UNL A   1      44.461  23.638  27.362  1.00  0.00     0.010 A 
ATOM     35  C   UNL A   1      43.694  24.650  26.798  1.00  0.00    -0.014 A 
BRANCH  35  36
ATOM     36  C   UNL A   1      43.580  25.879  27.575  1.00  0.00     0.031 A 
ATOM     37  C   UNL A   1      44.535  26.956  27.189  1.00  0.00     0.074 A 
ATOM     38  C   UNL A   1      42.481  26.103  28.335  1.00  0.00     0.049 A 
ATOM     39  N   UNL A   1      45.380  27.582  27.940  1.00  0.00    -0.248 NA
ATOM     40  C   UNL A   1      44.634  27.316  25.762  1.00  0.00     0.031 C 
ATOM     41  C   UNL A   1      41.311  25.226  28.511  1.00  0.00     0.029 A 
ATOM     42  N   UNL A   1      42.095  27.228  28.993  1.00  0.00    -0.354 N 
ATOM     43  C   UNL A   1      45.980  28.542  27.126  1.00  0.00     0.074 A 
ATOM     44  C   UNL A   1      45.621  28.212  25.773  1.00  0.00     0.031 C 
ATOM     45  C   UNL A   1      40.270  25.941  28.991  1.00  0.00     0.029 A 
ATOM     46  C   UNL A   1      40.742  27.268  29.325  1.00  0.00     0.049 A 
ATOM     47  H   UNL A   1      42.720  27.954  29.218  1.00  0.00     0.167 HD
ATOM     48  C   UNL A   1      46.509  29.682  27.649  1.00  0.00     0.037 A 
ATOM     49  C   UNL A   1      40.057  28.338  29.798  1.00  0.00     0.037 A 
ATOM     50  C   UNL A   1      46.733  29.554  29.065  1.00  0.00     0.049 A 
ATOM     51  C   UNL A   1      41.065  29.297  30.315  1.00  0.00     0.074 A 
ATOM     52  C   UNL A   1      47.498  28.717  29.852  1.00  0.00     0.029 A 
ATOM     53  N   UNL A   1      45.813  30.122  29.911  1.00  0.00    -0.354 N 
ATOM     54  N   UNL A   1      41.830  29.065  31.346  1.00  0.00    -0.248 NA
ATOM     55  C   UNL A   1      41.538  30.324  29.400  1.00  0.00     0.031 C 
ATOM     56  C   UNL A   1      46.692  28.452  30.998  1.00  0.00     0.029 A 
ATOM     57  C   UNL A   1      45.519  29.198  30.880  1.00  0.00     0.049 A 
ATOM     58  H   UNL A   1      45.433  31.027  29.835  1.00  0.00     0.167 HD
ATOM     59  C   UNL A   1      43.064  29.591  30.991  1.00  0.00     0.074 A 
ATOM     60  C   UNL A   1      42.801  30.425  29.820  1.00  0.00     0.031 C 
ATOM     61  C   UNL A   1      44.219  29.066  31.495  1.00  0.00     0.037 A 
BRANCH  48  62
ATOM     62  C   UNL A   1      46.478  31.024  26.958  1.00  0.00     0.064 A 
ATOM     63  C   UNL A   1      45.287  31.701  26.619  1.00  0.00     0.173 A 
ATOM     64  C   UNL A   1      47.654  31.797  26.895  1.00  0.00     0.173 A 
ATOM     65  F   UNL A   1      44.082  31.134  26.754  1.00  0.00    -0.203 F 
ATOM     66  C   UNL A   1      45.270  33.040  26.237  1.00  0.00     0.198 A 
ATOM     67  C   UNL A   1      47.626  33.156  26.568  1.00  0.00     0.198 A 
ATOM     68  F   UNL A   1      48.838  31.267  27.234  1.00  0.00    -0.203 F 
ATOM     69  F   UNL A   1      44.101  33.628  25.947  1.00  0.00    -0.200 F 
ATOM     70  C   UNL A   1      46.435  33.776  26.240  1.00  0.00     0.200 A 
ATOM     71  F   UNL A   1      48.752  33.880  26.639  1.00  0.00    -0.200 F 
ATOM     72  F   UNL A   1      46.398  35.089  25.978  1.00  0.00    -0.200 F 
ENDBRANCH  48  62
BRANCH  49  73
ATOM     73  C   UNL A   1      38.655  28.742  29.517  1.00  0.00     0.064 A 
ATOM     74  C   UNL A   1      38.238  29.119  28.226  1.00  0.00     0.173 A 
ATOM     75  C   UNL A   1      37.776  29.055  30.570  1.00  0.00     0.173 A 
ATOM     76  F   UNL A   1      39.033  28.926  27.163  1.00  0.00    -0.203 F 
ATOM     77  C   UNL A   1      37.039  29.800  28.006  1.00  0.00     0.198 A 
ATOM     78  C   UNL A   1      36.578  29.743  30.348  1.00  0.00     0.198 A 
ATOM     79  F   UNL A   1      38.112  28.765  31.835  1.00  0.00    -0.203 F 
ATOM     80  F   UNL A   1      36.718  30.197  26.766  1.00  0.00    -0.200 F 
ATOM     81  C   UNL A   1      36.217  30.127  29.067  1.00  0.00     0.200 A 
ATOM     82  F   UNL A   1      35.804  30.089  31.386  1.00  0.00    -0.200 F 
ATOM     83  F   UNL A   1      35.108  30.849  28.863  1.00  0.00    -0.200 F 
ENDBRANCH  49  73
BRANCH  61  84
ATOM     84  C   UNL A   1      44.113  28.086  32.634  1.00  0.00     0.064 A 
ATOM     85  C   UNL A   1      44.276  28.571  33.937  1.00  0.00     0.173 A 
ATOM     86  C   UNL A   1      44.032  26.692  32.472  1.00  0.00     0.173 A 
ATOM     87  F   UNL A   1      44.410  29.889  34.150  1.00  0.00    -0.203 F 
ATOM     88  C   UNL A   1      44.368  27.707  35.025  1.00  0.00     0.198 A 
ATOM     89  C   UNL A   1      44.088  25.829  33.566  1.00  0.00     0.198 A 
ATOM     90  F   UNL A   1      43.966  26.139  31.256  1.00  0.00    -0.203 F 
ATOM     91  F   UNL A   1      44.592  28.202  36.250  1.00  0.00    -0.200 F 
ATOM     92  C   UNL A   1      44.268  26.337  34.840  1.00  0.00     0.200 A 
ATOM     93  F   UNL A   1      44.010  24.501  33.382  1.00  0.00    -0.200 F 
ATOM     94  F   UNL A   1      44.376  25.507  35.887  1.00  0.00    -0.200 F 
ENDBRANCH  61  84
ENDBRANCH  35  36
ENDBRANCH  27  30
ENDBRANCH  25  26
ENDBRANCH  24  25
ENDBRANCH  23  24
ENDBRANCH   1  23
TORSDOF 15
ENDMDL
MODEL 2
REMARK VINA RESULT:     -11.6      3.391      8.565
REMARK SMILES COc1ccc(-n2c(C)nnc2SCC(=O)NCCCCNC(=O)c2ccc(-c3c4nc(c(-c5c(F)c(F)c(F)c(F)c5F)c5ccc([nH]5)c(-c5c(F)c(F)c(F)c(F)c5F)c5nc(c(-c6c(F)c(F)c(F)c(F)c6F)c6ccc3[nH]6)C=C5)C=C4)cc2)cc1F
REMARK SMILES IDX 18 1 17 2 15 3 16 4 14 6 13 7 12 8 7 9 8 10 9 11 10 12 11 13
REMARK SMILES IDX 6 14 3 15 4 16 89 17 5 18 88 19 90 20 2 21 1 22 19 23 20 24
REMARK SMILES IDX 21 25 22 26 23 27 24 29 25 30 26 31 87 32 27 33 86 34 28 35
REMARK SMILES IDX 29 36 30 37 80 38 31 39 85 40 79 41 81 42 32 43 84 44 78 45
REMARK SMILES IDX 77 46 33 48 65 49 45 50 64 51 46 52 49 53 63 54 82 55 47 56
REMARK SMILES IDX 48 57 62 59 83 60 50 61 34 62 35 63 43 64 36 65 37 66 41 67
REMARK SMILES IDX 44 68 38 69 39 70 42 71 40 72 66 73 67 74 75 75 68 76 69 77
REMARK SMILES IDX 73 78 76 79 70 80 71 81 74 82 72 83 51 84 52 85 60 86 53 87
REMARK SMILES IDX 54 88 58 89 61 90 55 91 56 92 59 93 57 94
REMARK H PARENT 17 5 22 28 81 47 49 58
REMARK Flexibility Score: inf
ROOT
ATOM      1  C   UNL A   1      34.893  29.011  27.450  1.00  0.00     0.116 C 
ENDROOT
BRANCH   1   2
ATOM      2  N   UNL A   1      33.468  29.012  27.709  1.00  0.00    -0.355 N 
ATOM      3  C   UNL A   1      32.520  28.124  27.312  1.00  0.00     0.230 C 
ATOM      4  O   UNL A   1      31.547  28.012  28.069  1.00  0.00    -0.274 OA
ATOM      5  H   UNL A   1      33.138  29.765  28.250  1.00  0.00     0.163 HD
BRANCH   3   6
ATOM      6  C   UNL A   1      32.608  27.238  26.087  1.00  0.00     0.178 C 
BRANCH   6   7
ATOM      7  S   UNL A   1      31.115  26.527  25.420  1.00  0.00    -0.076 SA
BRANCH   7   8
ATOM      8  C   UNL A   1      31.189  26.310  23.704  1.00  0.00     0.196 A 
ATOM      9  N   UNL A   1      32.015  25.508  22.939  1.00  0.00    -0.274 N 
ATOM     10  C   UNL A   1      31.893  25.999  21.647  1.00  0.00     0.135 A 
ATOM     11  C   UNL A   1      32.585  25.474  20.445  1.00  0.00     0.090 C 
ATOM     12  N   UNL A   1      31.020  26.984  21.637  1.00  0.00    -0.134 NA
ATOM     13  N   UNL A   1      30.583  27.175  22.916  1.00  0.00    -0.123 NA
BRANCH   9  14
ATOM     14  C   UNL A   1      32.729  24.357  23.302  1.00  0.00     0.053 A 
ATOM     15  C   UNL A   1      34.096  22.050  24.085  1.00  0.00     0.154 A 
ATOM     16  C   UNL A   1      34.744  23.293  24.062  1.00  0.00     0.052 A 
ATOM     17  C   UNL A   1      32.777  21.974  23.631  1.00  0.00     0.167 A 
ATOM     18  C   UNL A   1      34.072  24.451  23.661  1.00  0.00     0.031 A 
ATOM     19  C   UNL A   1      32.091  23.119  23.233  1.00  0.00     0.070 A 
ATOM     20  F   UNL A   1      32.119  20.808  23.569  1.00  0.00    -0.203 F 
BRANCH  15  21
ATOM     21  O   UNL A   1      34.862  21.020  24.560  1.00  0.00    -0.494 OA
ATOM     22  C   UNL A   1      36.200  21.337  24.931  1.00  0.00     0.278 C 
ENDBRANCH  15  21
ENDBRANCH   9  14
ENDBRANCH   7   8
ENDBRANCH   6   7
ENDBRANCH   3   6
ENDBRANCH   1   2
BRANCH   1  23
ATOM     23  C   UNL A   1      35.557  30.384  27.584  1.00  0.00     0.023 C 
BRANCH  23  24
ATOM     24  C   UNL A   1      34.639  31.613  27.660  1.00  0.00     0.023 C 
BRANCH  24  25
ATOM     25  C   UNL A   1      35.249  32.851  28.298  1.00  0.00     0.116 C 
BRANCH  25  26
ATOM     26  N   UNL A   1      34.724  33.156  29.631  1.00  0.00    -0.352 N 
ATOM     27  C   UNL A   1      35.022  32.531  30.837  1.00  0.00     0.251 C 
ATOM     28  H   UNL A   1      34.079  33.896  29.680  1.00  0.00     0.163 HD
ATOM     29  O   UNL A   1      34.283  32.622  31.800  1.00  0.00    -0.269 OA
BRANCH  27  30
ATOM     30  C   UNL A   1      36.273  31.754  30.931  1.00  0.00     0.039 A 
ATOM     31  C   UNL A   1      36.295  30.355  30.963  1.00  0.00     0.014 A 
ATOM     32  C   UNL A   1      37.455  32.479  30.955  1.00  0.00     0.014 A 
ATOM     33  C   UNL A   1      37.528  29.701  30.938  1.00  0.00     0.010 A 
ATOM     34  C   UNL A   1      38.635  31.846  30.700  1.00  0.00     0.010 A 
ATOM     35  C   UNL A   1      38.696  30.461  30.795  1.00  0.00    -0.014 A 
BRANCH  35  36
ATOM     36  C   UNL A   1      40.019  29.864  30.653  1.00  0.00     0.031 A 
ATOM     37  C   UNL A   1      40.741  29.628  31.935  1.00  0.00     0.074 A 
ATOM     38  C   UNL A   1      40.382  29.286  29.483  1.00  0.00     0.049 A 
ATOM     39  N   UNL A   1      41.915  30.044  32.281  1.00  0.00    -0.248 NA
ATOM     40  C   UNL A   1      40.024  28.920  33.014  1.00  0.00     0.031 C 
ATOM     41  C   UNL A   1      39.590  29.172  28.247  1.00  0.00     0.029 A 
ATOM     42  N   UNL A   1      41.478  28.538  29.188  1.00  0.00    -0.354 N 
ATOM     43  C   UNL A   1      42.162  29.494  33.538  1.00  0.00     0.074 A 
ATOM     44  C   UNL A   1      40.908  28.972  34.010  1.00  0.00     0.031 C 
ATOM     45  C   UNL A   1      40.103  28.202  27.461  1.00  0.00     0.029 A 
ATOM     46  C   UNL A   1      41.352  27.756  28.041  1.00  0.00     0.049 A 
ATOM     47  H   UNL A   1      42.294  28.547  29.738  1.00  0.00     0.167 HD
ATOM     48  C   UNL A   1      43.433  29.279  33.978  1.00  0.00     0.037 A 
ATOM     49  C   UNL A   1      42.199  26.780  27.631  1.00  0.00     0.037 A 
ATOM     50  C   UNL A   1      44.387  30.039  33.214  1.00  0.00     0.049 A 
ATOM     51  C   UNL A   1      43.479  26.994  28.351  1.00  0.00     0.074 A 
ATOM     52  C   UNL A   1      44.588  31.384  32.979  1.00  0.00     0.029 A 
ATOM     53  N   UNL A   1      45.090  29.382  32.235  1.00  0.00    -0.354 N 
ATOM     54  N   UNL A   1      44.251  28.030  28.172  1.00  0.00    -0.248 NA
ATOM     55  C   UNL A   1      43.666  26.279  29.603  1.00  0.00     0.031 C 
ATOM     56  C   UNL A   1      44.974  31.465  31.609  1.00  0.00     0.029 A 
ATOM     57  C   UNL A   1      45.059  30.165  31.109  1.00  0.00     0.049 A 
ATOM     58  H   UNL A   1      45.534  28.507  32.324  1.00  0.00     0.167 HD
ATOM     59  C   UNL A   1      44.705  28.351  29.442  1.00  0.00     0.074 A 
ATOM     60  C   UNL A   1      44.380  27.190  30.269  1.00  0.00     0.031 C 
ATOM     61  C   UNL A   1      45.029  29.637  29.765  1.00  0.00     0.037 A 
BRANCH  48  62
ATOM     62  C   UNL A   1      43.842  28.113  34.844  1.00  0.00     0.064 A 
ATOM     63  C   UNL A   1      44.175  28.233  36.211  1.00  0.00     0.173 A 
ATOM     64  C   UNL A   1      43.617  26.799  34.388  1.00  0.00     0.173 A 
ATOM     65  F   UNL A   1      44.293  29.423  36.813  1.00  0.00    -0.203 F 
ATOM     66  C   UNL A   1      44.283  27.130  37.054  1.00  0.00     0.198 A 
ATOM     67  C   UNL A   1      43.668  25.700  35.251  1.00  0.00     0.198 A 
ATOM     68  F   UNL A   1      43.256  26.570  33.117  1.00  0.00    -0.203 F 
ATOM     69  F   UNL A   1      44.582  27.317  38.348  1.00  0.00    -0.200 F 
ATOM     70  C   UNL A   1      44.000  25.866  36.583  1.00  0.00     0.200 A 
ATOM     71  F   UNL A   1      43.326  24.485  34.801  1.00  0.00    -0.200 F 
ATOM     72  F   UNL A   1      43.999  24.824  37.422  1.00  0.00    -0.200 F 
ENDBRANCH  48  62
BRANCH  49  73
ATOM     73  C   UNL A   1      41.879  25.497  26.954  1.00  0.00     0.064 A 
ATOM     74  C   UNL A   1      41.024  24.543  27.540  1.00  0.00     0.173 A 
ATOM     75  C   UNL A   1      42.645  25.054  25.860  1.00  0.00     0.173 A 
ATOM     76  F   UNL A   1      40.301  24.846  28.629  1.00  0.00    -0.203 F 
ATOM     77  C   UNL A   1      40.968  23.223  27.088  1.00  0.00     0.198 A 
ATOM     78  C   UNL A   1      42.592  23.729  25.413  1.00  0.00     0.198 A 
ATOM     79  F   UNL A   1      43.513  25.886  25.266  1.00  0.00    -0.203 F 
ATOM     80  F   UNL A   1      40.188  22.335  27.722  1.00  0.00    -0.200 F 
ATOM     81  C   UNL A   1      41.764  22.811  26.037  1.00  0.00     0.200 A 
ATOM     82  F   UNL A   1      43.394  23.328  24.417  1.00  0.00    -0.200 F 
ATOM     83  F   UNL A   1      41.767  21.527  25.657  1.00  0.00    -0.200 F 
ENDBRANCH  49  73
BRANCH  61  84
ATOM     84  C   UNL A   1      45.130  30.643  28.649  1.00  0.00     0.064 A 
ATOM     85  C   UNL A   1      46.373  30.813  28.027  1.00  0.00     0.173 A 
ATOM     86  C   UNL A   1      44.109  31.545  28.301  1.00  0.00     0.173 A 
ATOM     87  F   UNL A   1      47.401  30.015  28.355  1.00  0.00    -0.203 F 
ATOM     88  C   UNL A   1      46.591  31.841  27.114  1.00  0.00     0.198 A 
ATOM     89  C   UNL A   1      44.318  32.552  27.359  1.00  0.00     0.198 A 
ATOM     90  F   UNL A   1      42.920  31.512  28.912  1.00  0.00    -0.203 F 
ATOM     91  F   UNL A   1      47.812  32.015  26.589  1.00  0.00    -0.200 F 
ATOM     92  C   UNL A   1      45.563  32.706  26.776  1.00  0.00     0.200 A 
ATOM     93  F   UNL A   1      43.326  33.400  27.048  1.00  0.00    -0.200 F 
ATOM     94  F   UNL A   1      45.782  33.705  25.910  1.00  0.00    -0.200 F 
ENDBRANCH  61  84
ENDBRANCH  35  36
ENDBRANCH  27  30
ENDBRANCH  25  26
ENDBRANCH  24  25
ENDBRANCH  23  24
ENDBRANCH   1  23
TORSDOF 15
ENDMDL
MODEL 3
REMARK VINA RESULT:     -11.5      3.293      4.469
REMARK SMILES COc1ccc(-n2c(C)nnc2SCC(=O)NCCCCNC(=O)c2ccc(-c3c4nc(c(-c5c(F)c(F)c(F)c(F)c5F)c5ccc([nH]5)c(-c5c(F)c(F)c(F)c(F)c5F)c5nc(c(-c6c(F)c(F)c(F)c(F)c6F)c6ccc3[nH]6)C=C5)C=C4)cc2)cc1F
REMARK SMILES IDX 18 1 17 2 15 3 16 4 14 6 13 7 12 8 7 9 8 10 9 11 10 12 11 13
REMARK SMILES IDX 6 14 3 15 4 16 89 17 5 18 88 19 90 20 2 21 1 22 19 23 20 24
REMARK SMILES IDX 21 25 22 26 23 27 24 29 25 30 26 31 87 32 27 33 86 34 28 35
REMARK SMILES IDX 29 36 30 37 80 38 31 39 85 40 79 41 81 42 32 43 84 44 78 45
REMARK SMILES IDX 77 46 33 48 65 49 45 50 64 51 46 52 49 53 63 54 82 55 47 56
REMARK SMILES IDX 48 57 62 59 83 60 50 61 34 62 35 63 43 64 36 65 37 66 41 67
REMARK SMILES IDX 44 68 38 69 39 70 42 71 40 72 66 73 67 74 75 75 68 76 69 77
REMARK SMILES IDX 73 78 76 79 70 80 71 81 74 82 72 83 51 84 52 85 60 86 53 87
REMARK SMILES IDX 54 88 58 89 61 90 55 91 56 92 59 93 57 94
REMARK H PARENT 17 5 22 28 81 47 49 58
REMARK Flexibility Score: inf
ROOT
ATOM      1  C   UNL A   1      34.812  22.266  25.133  1.00  0.00     0.116 C 
ENDROOT
BRANCH   1   2
ATOM      2  N   UNL A   1      34.772  23.001  23.885  1.00  0.00    -0.355 N 
ATOM      3  C   UNL A   1      33.702  23.356  23.129  1.00  0.00     0.230 C 
ATOM      4  O   UNL A   1      33.838  24.392  22.467  1.00  0.00    -0.274 OA
ATOM      5  H   UNL A   1      35.647  23.284  23.535  1.00  0.00     0.163 HD
BRANCH   3   6
ATOM      6  C   UNL A   1      32.371  22.633  23.102  1.00  0.00     0.178 C 
BRANCH   6   7
ATOM      7  S   UNL A   1      30.874  23.557  23.394  1.00  0.00    -0.076 SA
BRANCH   7   8
ATOM      8  C   UNL A   1      30.962  24.535  24.820  1.00  0.00     0.196 A 
ATOM      9  N   UNL A   1      30.965  25.910  24.963  1.00  0.00    -0.274 N 
ATOM     10  C   UNL A   1      31.420  26.134  26.255  1.00  0.00     0.135 A 
ATOM     11  C   UNL A   1      31.602  27.457  26.899  1.00  0.00     0.090 C 
ATOM     12  N   UNL A   1      31.620  24.978  26.852  1.00  0.00    -0.134 NA
ATOM     13  N   UNL A   1      31.334  23.985  25.959  1.00  0.00    -0.123 NA
BRANCH   9  14
ATOM     14  C   UNL A   1      30.494  26.899  24.089  1.00  0.00     0.053 A 
ATOM     15  C   UNL A   1      29.591  28.929  22.396  1.00  0.00     0.154 A 
ATOM     16  C   UNL A   1      28.685  28.043  22.996  1.00  0.00     0.052 A 
ATOM     17  C   UNL A   1      30.959  28.728  22.596  1.00  0.00     0.167 A 
ATOM     18  C   UNL A   1      29.128  27.017  23.836  1.00  0.00     0.031 A 
ATOM     19  C   UNL A   1      31.417  27.714  23.434  1.00  0.00     0.070 A 
ATOM     20  F   UNL A   1      31.879  29.501  22.003  1.00  0.00    -0.203 F 
BRANCH  15  21
ATOM     21  O   UNL A   1      29.006  29.919  21.652  1.00  0.00    -0.494 OA
ATOM     22  C   UNL A   1      27.942  30.638  22.268  1.00  0.00     0.278 C 
ENDBRANCH  15  21
ENDBRANCH   9  14
ENDBRANCH   7   8
ENDBRANCH   6   7
ENDBRANCH   3   6
ENDBRANCH   1   2
BRANCH   1  23
ATOM     23  C   UNL A   1      36.196  21.723  25.498  1.00  0.00     0.023 C 
BRANCH  23  24
ATOM     24  C   UNL A   1      37.419  22.540  25.058  1.00  0.00     0.023 C 
BRANCH  24  25
ATOM     25  C   UNL A   1      38.350  22.984  26.175  1.00  0.00     0.116 C 
BRANCH  25  26
ATOM     26  N   UNL A   1      39.633  22.277  26.199  1.00  0.00    -0.352 N 
ATOM     27  C   UNL A   1      40.913  22.817  26.252  1.00  0.00     0.251 C 
ATOM     28  H   UNL A   1      39.583  21.294  26.174  1.00  0.00     0.163 HD
ATOM     29  O   UNL A   1      41.890  22.174  25.915  1.00  0.00    -0.269 OA
BRANCH  27  30
ATOM     30  C   UNL A   1      41.068  24.200  26.744  1.00  0.00     0.039 A 
ATOM     31  C   UNL A   1      40.463  25.297  26.118  1.00  0.00     0.014 A 
ATOM     32  C   UNL A   1      41.826  24.372  27.892  1.00  0.00     0.014 A 
ATOM     33  C   UNL A   1      40.569  26.554  26.716  1.00  0.00     0.010 A 
ATOM     34  C   UNL A   1      41.735  25.540  28.587  1.00  0.00     0.010 A 
ATOM     35  C   UNL A   1      41.201  26.661  27.962  1.00  0.00    -0.014 A 
BRANCH  35  36
ATOM     36  C   UNL A   1      41.270  27.909  28.713  1.00  0.00     0.031 A 
ATOM     37  C   UNL A   1      42.368  28.829  28.303  1.00  0.00     0.074 A 
ATOM     38  C   UNL A   1      40.219  28.305  29.471  1.00  0.00     0.049 A 
ATOM     39  N   UNL A   1      43.299  29.342  29.038  1.00  0.00    -0.248 NA
ATOM     40  C   UNL A   1      42.510  29.141  26.867  1.00  0.00     0.031 C 
ATOM     41  C   UNL A   1      38.935  27.611  29.669  1.00  0.00     0.029 A 
ATOM     42  N   UNL A   1      40.003  29.487  30.107  1.00  0.00    -0.354 N 
ATOM     43  C   UNL A   1      44.026  30.188  28.202  1.00  0.00     0.074 A 
ATOM     44  C   UNL A   1      43.616  29.886  26.857  1.00  0.00     0.031 C 
ATOM     45  C   UNL A   1      38.011  28.477  30.135  1.00  0.00     0.029 A 
ATOM     46  C   UNL A   1      38.671  29.729  30.441  1.00  0.00     0.049 A 
ATOM     47  H   UNL A   1      40.727  30.120  30.315  1.00  0.00     0.167 HD
ATOM     48  C   UNL A   1      44.717  31.250  28.700  1.00  0.00     0.037 A 
ATOM     49  C   UNL A   1      38.151  30.897  30.892  1.00  0.00     0.037 A 
ATOM     50  C   UNL A   1      44.927  31.121  30.118  1.00  0.00     0.049 A 
ATOM     51  C   UNL A   1      39.289  31.710  31.386  1.00  0.00     0.074 A 
ATOM     52  C   UNL A   1      45.569  30.198  30.921  1.00  0.00     0.029 A 
ATOM     53  N   UNL A   1      44.104  31.833  30.953  1.00  0.00    -0.354 N 
ATOM     54  N   UNL A   1      40.018  31.392  32.420  1.00  0.00    -0.248 NA
ATOM     55  C   UNL A   1      39.900  32.639  30.448  1.00  0.00     0.031 C 
ATOM     56  C   UNL A   1      44.739  30.076  32.074  1.00  0.00     0.029 A 
ATOM     57  C   UNL A   1      43.685  30.981  31.943  1.00  0.00     0.049 A 
ATOM     58  H   UNL A   1      43.858  32.782  30.859  1.00  0.00     0.167 HD
ATOM     59  C   UNL A   1      41.313  31.726  32.052  1.00  0.00     0.074 A 
ATOM     60  C   UNL A   1      41.166  32.566  30.863  1.00  0.00     0.031 C 
ATOM     61  C   UNL A   1      42.383  31.051  32.564  1.00  0.00     0.037 A 
BRANCH  48  62
ATOM     62  C   UNL A   1      44.876  32.568  27.981  1.00  0.00     0.064 A 
ATOM     63  C   UNL A   1      43.944  33.624  28.070  1.00  0.00     0.173 A 
ATOM     64  C   UNL A   1      46.126  32.907  27.425  1.00  0.00     0.173 A 
ATOM     65  F   UNL A   1      42.766  33.484  28.689  1.00  0.00    -0.203 F 
ATOM     66  C   UNL A   1      44.232  34.915  27.631  1.00  0.00     0.198 A 
ATOM     67  C   UNL A   1      46.431  34.215  27.040  1.00  0.00     0.198 A 
ATOM     68  F   UNL A   1      47.100  31.991  27.328  1.00  0.00    -0.203 F 
ATOM     69  F   UNL A   1      43.308  35.877  27.763  1.00  0.00    -0.200 F 
ATOM     70  C   UNL A   1      45.484  35.218  27.143  1.00  0.00     0.200 A 
ATOM     71  F   UNL A   1      47.671  34.516  26.630  1.00  0.00    -0.200 F 
ATOM     72  F   UNL A   1      45.791  36.482  26.825  1.00  0.00    -0.200 F 
ENDBRANCH  48  62
BRANCH  49  73
ATOM     73  C   UNL A   1      36.820  31.492  30.607  1.00  0.00     0.064 A 
ATOM     74  C   UNL A   1      36.513  32.048  29.349  1.00  0.00     0.173 A 
ATOM     75  C   UNL A   1      35.933  31.800  31.654  1.00  0.00     0.173 A 
ATOM     76  F   UNL A   1      37.330  31.871  28.301  1.00  0.00    -0.203 F 
ATOM     77  C   UNL A   1      35.412  32.887  29.160  1.00  0.00     0.198 A 
ATOM     78  C   UNL A   1      34.835  32.645  31.465  1.00  0.00     0.198 A 
ATOM     79  F   UNL A   1      36.171  31.343  32.892  1.00  0.00    -0.203 F 
ATOM     80  F   UNL A   1      35.199  33.445  27.960  1.00  0.00    -0.200 F 
ATOM     81  C   UNL A   1      34.584  33.200  30.221  1.00  0.00     0.200 A 
ATOM     82  F   UNL A   1      34.057  32.974  32.506  1.00  0.00    -0.200 F 
ATOM     83  F   UNL A   1      33.576  34.067  30.055  1.00  0.00    -0.200 F 
ENDBRANCH  49  73
BRANCH  61  84
ATOM     84  C   UNL A   1      42.143  30.120  33.723  1.00  0.00     0.064 A 
ATOM     85  C   UNL A   1      42.438  30.583  35.011  1.00  0.00     0.173 A 
ATOM     86  C   UNL A   1      41.805  28.762  33.590  1.00  0.00     0.173 A 
ATOM     87  F   UNL A   1      42.816  31.858  35.195  1.00  0.00    -0.203 F 
ATOM     88  C   UNL A   1      42.412  29.730  36.111  1.00  0.00     0.198 A 
ATOM     89  C   UNL A   1      41.744  27.916  34.697  1.00  0.00     0.198 A 
ATOM     90  F   UNL A   1      41.597  28.215  32.388  1.00  0.00    -0.203 F 
ATOM     91  F   UNL A   1      42.766  30.191  37.318  1.00  0.00    -0.200 F 
ATOM     92  C   UNL A   1      42.059  28.398  35.955  1.00  0.00     0.200 A 
ATOM     93  F   UNL A   1      41.421  26.623  34.540  1.00  0.00    -0.200 F 
ATOM     94  F   UNL A   1      42.053  27.576  37.013  1.00  0.00    -0.200 F 
ENDBRANCH  61  84
ENDBRANCH  35  36
ENDBRANCH  27  30
ENDBRANCH  25  26
ENDBRANCH  24  25
ENDBRANCH  23  24
ENDBRANCH   1  23
TORSDOF 15
ENDMDL
