MODEL 1
REMARK VINA RESULT:     -11.7      0.000      0.000
REMARK SMILES C[C@@H](O)[C@@H](NC(=O)CSc1ccncc1)C(=O)NCCCCNC(=O)c1ccc(-c2c3nc(c(-c4c(F)c(F)c(F)c(F)c4F)c4ccc([nH]4)c(-c4c(F)c(F)c(F)c(F)c4F)c4nc(c(-c5c(F)c(F)c(F)c(F)c5F)c5ccc2[nH]5)C=C4)C=C3)cc1
REMARK SMILES IDX 19 1 18 2 16 3 17 4 4 6 2 7 1 8 3 9 5 11 6 12 7 14 8 15 9 16
REMARK SMILES IDX 10 17 11 18 15 19 12 20 14 21 13 22 20 23 21 24 22 25 23 26
REMARK SMILES IDX 24 27 25 29 26 30 27 31 88 32 28 33 87 34 29 35 30 36 31 37
REMARK SMILES IDX 81 38 32 39 86 40 80 41 82 42 33 43 85 44 79 45 78 46 34 48
REMARK SMILES IDX 66 49 46 50 65 51 47 52 50 53 64 54 83 55 48 56 49 57 63 59
REMARK SMILES IDX 84 60 51 61 35 62 36 63 44 64 37 65 38 66 42 67 45 68 39 69
REMARK SMILES IDX 40 70 43 71 41 72 67 73 68 74 76 75 69 76 70 77 74 78 77 79
REMARK SMILES IDX 71 80 72 81 75 82 73 83 52 84 53 85 61 86 54 87 55 88 59 89
REMARK SMILES IDX 62 90 56 91 57 92 60 93 58 94
REMARK H PARENT 18 5 3 10 5 13 23 28 82 47 50 58
REMARK Flexibility Score: inf
ROOT
ATOM      1  C   UNL A   1      32.166  29.769  27.196  1.00  0.00     0.116 C 
ENDROOT
BRANCH   1   2
ATOM      2  N   UNL A   1      31.482  28.522  27.387  1.00  0.00    -0.354 N 
ATOM      3  C   UNL A   1      31.506  27.438  26.553  1.00  0.00     0.245 C 
ATOM      4  O   UNL A   1      31.179  26.351  27.037  1.00  0.00    -0.273 OA
ATOM      5  H   UNL A   1      30.941  28.436  28.205  1.00  0.00     0.163 HD
BRANCH   3   6
ATOM      6  C   UNL A   1      31.890  27.552  25.048  1.00  0.00     0.200 C 
BRANCH   6   7
ATOM      7  C   UNL A   1      33.387  27.141  24.874  1.00  0.00     0.143 C 
ATOM      8  C   UNL A   1      34.196  28.152  24.059  1.00  0.00     0.041 C 
BRANCH   7   9
ATOM      9  O   UNL A   1      34.040  27.008  26.136  1.00  0.00    -0.391 OA
ATOM     10  H   UNL A   1      33.395  27.137  26.849  1.00  0.00     0.211 HD
ENDBRANCH   7   9
ENDBRANCH   6   7
BRANCH   6  11
ATOM     11  N   UNL A   1      31.051  26.840  24.051  1.00  0.00    -0.341 N 
ATOM     12  C   UNL A   1      30.903  27.124  22.723  1.00  0.00     0.231 C 
ATOM     13  H   UNL A   1      30.540  26.068  24.388  1.00  0.00     0.164 HD
ATOM     14  O   UNL A   1      31.089  26.212  21.916  1.00  0.00    -0.274 OA
BRANCH  12  15
ATOM     15  C   UNL A   1      30.370  28.464  22.295  1.00  0.00     0.174 C 
BRANCH  15  16
ATOM     16  S   UNL A   1      28.660  28.791  22.903  1.00  0.00    -0.116 SA
BRANCH  16  17
ATOM     17  C   UNL A   1      28.297  30.503  22.510  1.00  0.00     0.011 A 
ATOM     18  C   UNL A   1      27.988  30.854  21.201  1.00  0.00     0.035 A 
ATOM     19  C   UNL A   1      28.513  31.533  23.426  1.00  0.00     0.035 A 
ATOM     20  C   UNL A   1      27.932  32.201  20.872  1.00  0.00     0.112 A 
ATOM     21  C   UNL A   1      28.480  32.849  22.996  1.00  0.00     0.112 A 
ATOM     22  N   UNL A   1      28.180  33.207  21.738  1.00  0.00    -0.265 NA
ENDBRANCH  16  17
ENDBRANCH  15  16
ENDBRANCH  12  15
ENDBRANCH   6  11
ENDBRANCH   3   6
ENDBRANCH   1   2
BRANCH   1  23
ATOM     23  C   UNL A   1      31.491  30.746  26.243  1.00  0.00     0.023 C 
BRANCH  23  24
ATOM     24  C   UNL A   1      31.425  32.208  26.707  1.00  0.00     0.023 C 
BRANCH  24  25
ATOM     25  C   UNL A   1      32.711  32.832  27.261  1.00  0.00     0.116 C 
BRANCH  25  26
ATOM     26  N   UNL A   1      32.539  34.212  27.684  1.00  0.00    -0.352 N 
ATOM     27  C   UNL A   1      33.080  34.955  28.699  1.00  0.00     0.251 C 
ATOM     28  H   UNL A   1      31.903  34.716  27.126  1.00  0.00     0.163 HD
ATOM     29  O   UNL A   1      32.607  36.048  28.970  1.00  0.00    -0.269 OA
BRANCH  27  30
ATOM     30  C   UNL A   1      34.229  34.438  29.456  1.00  0.00     0.039 A 
ATOM     31  C   UNL A   1      34.008  33.833  30.696  1.00  0.00     0.014 A 
ATOM     32  C   UNL A   1      35.522  34.578  28.950  1.00  0.00     0.014 A 
ATOM     33  C   UNL A   1      35.085  33.280  31.386  1.00  0.00     0.010 A 
ATOM     34  C   UNL A   1      36.580  33.961  29.596  1.00  0.00     0.010 A 
ATOM     35  C   UNL A   1      36.365  33.295  30.810  1.00  0.00    -0.014 A 
BRANCH  35  36
ATOM     36  C   UNL A   1      37.484  32.551  31.423  1.00  0.00     0.031 A 
ATOM     37  C   UNL A   1      37.988  32.920  32.785  1.00  0.00     0.074 A 
ATOM     38  C   UNL A   1      38.107  31.618  30.679  1.00  0.00     0.049 A 
ATOM     39  N   UNL A   1      38.994  32.423  33.456  1.00  0.00    -0.248 NA
ATOM     40  C   UNL A   1      37.296  34.026  33.468  1.00  0.00     0.031 C 
ATOM     41  C   UNL A   1      37.751  31.263  29.301  1.00  0.00     0.029 A 
ATOM     42  N   UNL A   1      39.174  30.809  30.963  1.00  0.00    -0.354 N 
ATOM     43  C   UNL A   1      39.067  33.164  34.628  1.00  0.00     0.074 A 
ATOM     44  C   UNL A   1      38.039  34.179  34.554  1.00  0.00     0.031 C 
ATOM     45  C   UNL A   1      38.565  30.287  28.873  1.00  0.00     0.029 A 
ATOM     46  C   UNL A   1      39.512  29.966  29.933  1.00  0.00     0.049 A 
ATOM     47  H   UNL A   1      39.652  30.829  31.824  1.00  0.00     0.167 HD
ATOM     48  C   UNL A   1      39.909  32.993  35.675  1.00  0.00     0.037 A 
ATOM     49  C   UNL A   1      40.474  29.029  29.865  1.00  0.00     0.037 A 
ATOM     50  C   UNL A   1      40.912  31.962  35.731  1.00  0.00     0.049 A 
ATOM     51  C   UNL A   1      41.335  28.801  31.074  1.00  0.00     0.074 A 
ATOM     52  C   UNL A   1      41.782  31.651  36.761  1.00  0.00     0.029 A 
ATOM     53  N   UNL A   1      41.173  31.066  34.702  1.00  0.00    -0.354 N 
ATOM     54  N   UNL A   1      41.343  29.449  32.214  1.00  0.00    -0.248 NA
ATOM     55  C   UNL A   1      42.301  27.700  30.997  1.00  0.00     0.031 C 
ATOM     56  C   UNL A   1      42.592  30.588  36.342  1.00  0.00     0.029 A 
ATOM     57  C   UNL A   1      42.196  30.206  35.069  1.00  0.00     0.049 A 
ATOM     58  H   UNL A   1      40.702  31.045  33.838  1.00  0.00     0.167 HD
ATOM     59  C   UNL A   1      42.298  28.824  33.001  1.00  0.00     0.074 A 
ATOM     60  C   UNL A   1      42.829  27.728  32.213  1.00  0.00     0.031 C 
ATOM     61  C   UNL A   1      42.704  29.127  34.258  1.00  0.00     0.037 A 
BRANCH  48  62
ATOM     62  C   UNL A   1      39.772  33.938  36.835  1.00  0.00     0.064 A 
ATOM     63  C   UNL A   1      38.960  33.635  37.941  1.00  0.00     0.173 A 
ATOM     64  C   UNL A   1      40.468  35.156  36.851  1.00  0.00     0.173 A 
ATOM     65  F   UNL A   1      38.263  32.491  37.972  1.00  0.00    -0.203 F 
ATOM     66  C   UNL A   1      38.824  34.531  38.999  1.00  0.00     0.198 A 
ATOM     67  C   UNL A   1      40.353  36.036  37.926  1.00  0.00     0.198 A 
ATOM     68  F   UNL A   1      41.260  35.497  35.824  1.00  0.00    -0.203 F 
ATOM     69  F   UNL A   1      37.999  34.243  40.015  1.00  0.00    -0.200 F 
ATOM     70  C   UNL A   1      39.524  35.728  38.994  1.00  0.00     0.200 A 
ATOM     71  F   UNL A   1      41.040  37.187  37.925  1.00  0.00    -0.200 F 
ATOM     72  F   UNL A   1      39.393  36.587  40.013  1.00  0.00    -0.200 F 
ENDBRANCH  48  62
BRANCH  49  73
ATOM     73  C   UNL A   1      40.610  28.202  28.639  1.00  0.00     0.064 A 
ATOM     74  C   UNL A   1      41.455  28.603  27.595  1.00  0.00     0.173 A 
ATOM     75  C   UNL A   1      39.940  26.978  28.501  1.00  0.00     0.173 A 
ATOM     76  F   UNL A   1      42.112  29.769  27.677  1.00  0.00    -0.203 F 
ATOM     77  C   UNL A   1      41.609  27.823  26.451  1.00  0.00     0.198 A 
ATOM     78  C   UNL A   1      40.114  26.185  27.368  1.00  0.00     0.198 A 
ATOM     79  F   UNL A   1      39.134  26.539  29.480  1.00  0.00    -0.203 F 
ATOM     80  F   UNL A   1      42.396  28.248  25.454  1.00  0.00    -0.200 F 
ATOM     81  C   UNL A   1      40.944  26.611  26.341  1.00  0.00     0.200 A 
ATOM     82  F   UNL A   1      39.487  25.005  27.275  1.00  0.00    -0.200 F 
ATOM     83  F   UNL A   1      41.101  25.855  25.247  1.00  0.00    -0.200 F 
ENDBRANCH  49  73
BRANCH  61  84
ATOM     84  C   UNL A   1      43.756  28.242  34.854  1.00  0.00     0.064 A 
ATOM     85  C   UNL A   1      43.423  27.085  35.572  1.00  0.00     0.173 A 
ATOM     86  C   UNL A   1      45.115  28.554  34.699  1.00  0.00     0.173 A 
ATOM     87  F   UNL A   1      42.135  26.755  35.761  1.00  0.00    -0.203 F 
ATOM     88  C   UNL A   1      44.410  26.292  36.147  1.00  0.00     0.198 A 
ATOM     89  C   UNL A   1      46.101  27.743  35.250  1.00  0.00     0.198 A 
ATOM     90  F   UNL A   1      45.484  29.647  34.015  1.00  0.00    -0.203 F 
ATOM     91  F   UNL A   1      44.067  25.225  36.882  1.00  0.00    -0.200 F 
ATOM     92  C   UNL A   1      45.748  26.619  35.983  1.00  0.00     0.200 A 
ATOM     93  F   UNL A   1      47.395  28.054  35.081  1.00  0.00    -0.200 F 
ATOM     94  F   UNL A   1      46.699  25.857  36.541  1.00  0.00    -0.200 F 
ENDBRANCH  61  84
ENDBRANCH  35  36
ENDBRANCH  27  30
ENDBRANCH  25  26
ENDBRANCH  24  25
ENDBRANCH  23  24
ENDBRANCH   1  23
TORSDOF 17
ENDMDL
MODEL 2
REMARK VINA RESULT:     -11.5      0.922      7.644
REMARK SMILES C[C@@H](O)[C@@H](NC(=O)CSc1ccncc1)C(=O)NCCCCNC(=O)c1ccc(-c2c3nc(c(-c4c(F)c(F)c(F)c(F)c4F)c4ccc([nH]4)c(-c4c(F)c(F)c(F)c(F)c4F)c4nc(c(-c5c(F)c(F)c(F)c(F)c5F)c5ccc2[nH]5)C=C4)C=C3)cc1
REMARK SMILES IDX 19 1 18 2 16 3 17 4 4 6 2 7 1 8 3 9 5 11 6 12 7 14 8 15 9 16
REMARK SMILES IDX 10 17 11 18 15 19 12 20 14 21 13 22 20 23 21 24 22 25 23 26
REMARK SMILES IDX 24 27 25 29 26 30 27 31 88 32 28 33 87 34 29 35 30 36 31 37
REMARK SMILES IDX 81 38 32 39 86 40 80 41 82 42 33 43 85 44 79 45 78 46 34 48
REMARK SMILES IDX 66 49 46 50 65 51 47 52 50 53 64 54 83 55 48 56 49 57 63 59
REMARK SMILES IDX 84 60 51 61 35 62 36 63 44 64 37 65 38 66 42 67 45 68 39 69
REMARK SMILES IDX 40 70 43 71 41 72 67 73 68 74 76 75 69 76 70 77 74 78 77 79
REMARK SMILES IDX 71 80 72 81 75 82 73 83 52 84 53 85 61 86 54 87 55 88 59 89
REMARK SMILES IDX 62 90 56 91 57 92 60 93 58 94
REMARK H PARENT 18 5 3 10 5 13 23 28 82 47 50 58
REMARK Flexibility Score: inf
ROOT
ATOM      1  C   UNL A   1      32.429  29.791  26.121  1.00  0.00     0.116 C 
ENDROOT
BRANCH   1   2
ATOM      2  N   UNL A   1      33.408  29.534  25.103  1.00  0.00    -0.354 N 
ATOM      3  C   UNL A   1      33.403  28.505  24.202  1.00  0.00     0.245 C 
ATOM      4  O   UNL A   1      34.095  28.642  23.190  1.00  0.00    -0.273 OA
ATOM      5  H   UNL A   1      34.162  30.165  25.047  1.00  0.00     0.163 HD
BRANCH   3   6
ATOM      6  C   UNL A   1      32.597  27.194  24.439  1.00  0.00     0.200 C 
BRANCH   6   7
ATOM      7  C   UNL A   1      33.373  26.300  25.459  1.00  0.00     0.143 C 
ATOM      8  C   UNL A   1      34.047  25.091  24.808  1.00  0.00     0.041 C 
BRANCH   7   9
ATOM      9  O   UNL A   1      34.397  27.038  26.124  1.00  0.00    -0.391 OA
ATOM     10  H   UNL A   1      35.045  27.349  25.474  1.00  0.00     0.211 HD
ENDBRANCH   7   9
ENDBRANCH   6   7
BRANCH   6  11
ATOM     11  N   UNL A   1      31.173  27.303  24.843  1.00  0.00    -0.341 N 
ATOM     12  C   UNL A   1      30.064  27.141  24.063  1.00  0.00     0.231 C 
ATOM     13  H   UNL A   1      31.008  27.518  25.791  1.00  0.00     0.164 HD
ATOM     14  O   UNL A   1      29.201  26.352  24.448  1.00  0.00    -0.274 OA
BRANCH  12  15
ATOM     15  C   UNL A   1      29.849  28.029  22.867  1.00  0.00     0.174 C 
BRANCH  15  16
ATOM     16  S   UNL A   1      28.152  28.748  22.795  1.00  0.00    -0.116 SA
BRANCH  16  17
ATOM     17  C   UNL A   1      28.349  30.478  22.368  1.00  0.00     0.011 A 
ATOM     18  C   UNL A   1      28.612  31.405  23.370  1.00  0.00     0.035 A 
ATOM     19  C   UNL A   1      28.044  30.965  21.097  1.00  0.00     0.035 A 
ATOM     20  C   UNL A   1      28.538  32.756  23.061  1.00  0.00     0.112 A 
ATOM     21  C   UNL A   1      27.950  32.332  20.891  1.00  0.00     0.112 A 
ATOM     22  N   UNL A   1      28.204  33.241  21.845  1.00  0.00    -0.265 NA
ENDBRANCH  16  17
ENDBRANCH  15  16
ENDBRANCH  12  15
ENDBRANCH   6  11
ENDBRANCH   3   6
ENDBRANCH   1   2
BRANCH   1  23
ATOM     23  C   UNL A   1      31.453  30.919  25.822  1.00  0.00     0.023 C 
BRANCH  23  24
ATOM     24  C   UNL A   1      31.354  32.028  26.879  1.00  0.00     0.023 C 
BRANCH  24  25
ATOM     25  C   UNL A   1      32.653  32.733  27.287  1.00  0.00     0.116 C 
BRANCH  25  26
ATOM     26  N   UNL A   1      32.459  34.132  27.630  1.00  0.00    -0.352 N 
ATOM     27  C   UNL A   1      32.997  34.942  28.594  1.00  0.00     0.251 C 
ATOM     28  H   UNL A   1      31.808  34.590  27.052  1.00  0.00     0.163 HD
ATOM     29  O   UNL A   1      32.506  36.041  28.806  1.00  0.00    -0.269 OA
BRANCH  27  30
ATOM     30  C   UNL A   1      34.164  34.492  29.365  1.00  0.00     0.039 A 
ATOM     31  C   UNL A   1      33.991  34.113  30.700  1.00  0.00     0.014 A 
ATOM     32  C   UNL A   1      35.429  34.472  28.776  1.00  0.00     0.014 A 
ATOM     33  C   UNL A   1      35.080  33.620  31.415  1.00  0.00     0.010 A 
ATOM     34  C   UNL A   1      36.494  33.910  29.460  1.00  0.00     0.010 A 
ATOM     35  C   UNL A   1      36.322  33.467  30.778  1.00  0.00    -0.014 A 
BRANCH  35  36
ATOM     36  C   UNL A   1      37.440  32.771  31.448  1.00  0.00     0.031 A 
ATOM     37  C   UNL A   1      38.118  31.610  30.787  1.00  0.00     0.074 A 
ATOM     38  C   UNL A   1      37.750  33.135  32.706  1.00  0.00     0.049 A 
ATOM     39  N   UNL A   1      39.072  30.842  31.244  1.00  0.00    -0.248 NA
ATOM     40  C   UNL A   1      37.630  31.234  29.450  1.00  0.00     0.031 C 
ATOM     41  C   UNL A   1      37.073  34.188  33.470  1.00  0.00     0.029 A 
ATOM     42  N   UNL A   1      38.696  32.657  33.571  1.00  0.00    -0.354 N 
ATOM     43  C   UNL A   1      39.285  29.883  30.262  1.00  0.00     0.074 A 
ATOM     44  C   UNL A   1      38.327  30.133  29.209  1.00  0.00     0.031 C 
ATOM     45  C   UNL A   1      37.647  34.296  34.677  1.00  0.00     0.029 A 
ATOM     46  C   UNL A   1      38.712  33.306  34.781  1.00  0.00     0.049 A 
ATOM     47  H   UNL A   1      39.308  31.917  33.347  1.00  0.00     0.167 HD
ATOM     48  C   UNL A   1      40.214  28.897  30.243  1.00  0.00     0.037 A 
ATOM     49  C   UNL A   1      39.510  33.127  35.847  1.00  0.00     0.037 A 
ATOM     50  C   UNL A   1      41.170  28.683  31.297  1.00  0.00     0.049 A 
ATOM     51  C   UNL A   1      40.589  32.086  35.763  1.00  0.00     0.074 A 
ATOM     52  C   UNL A   1      42.196  27.757  31.365  1.00  0.00     0.029 A 
ATOM     53  N   UNL A   1      41.214  29.415  32.477  1.00  0.00    -0.354 N 
ATOM     54  N   UNL A   1      40.842  31.237  34.795  1.00  0.00    -0.248 NA
ATOM     55  C   UNL A   1      41.507  31.993  36.904  1.00  0.00     0.031 C 
ATOM     56  C   UNL A   1      42.840  27.909  32.599  1.00  0.00     0.029 A 
ATOM     57  C   UNL A   1      42.246  28.959  33.281  1.00  0.00     0.049 A 
ATOM     58  H   UNL A   1      40.603  30.151  32.708  1.00  0.00     0.167 HD
ATOM     59  C   UNL A   1      41.959  30.522  35.198  1.00  0.00     0.074 A 
ATOM     60  C   UNL A   1      42.349  31.057  36.489  1.00  0.00     0.031 C 
ATOM     61  C   UNL A   1      42.605  29.513  34.564  1.00  0.00     0.037 A 
BRANCH  48  62
ATOM     62  C   UNL A   1      40.236  27.990  29.045  1.00  0.00     0.064 A 
ATOM     63  C   UNL A   1      40.962  28.315  27.888  1.00  0.00     0.173 A 
ATOM     64  C   UNL A   1      39.533  26.776  29.056  1.00  0.00     0.173 A 
ATOM     65  F   UNL A   1      41.640  29.469  27.819  1.00  0.00    -0.203 F 
ATOM     66  C   UNL A   1      40.955  27.476  26.776  1.00  0.00     0.198 A 
ATOM     67  C   UNL A   1      39.554  25.924  27.953  1.00  0.00     0.198 A 
ATOM     68  F   UNL A   1      38.825  26.412  30.135  1.00  0.00    -0.203 F 
ATOM     69  F   UNL A   1      41.609  27.836  25.663  1.00  0.00    -0.200 F 
ATOM     70  C   UNL A   1      40.256  26.279  26.811  1.00  0.00     0.200 A 
ATOM     71  F   UNL A   1      38.887  24.762  27.992  1.00  0.00    -0.200 F 
ATOM     72  F   UNL A   1      40.251  25.472  25.741  1.00  0.00    -0.200 F 
ENDBRANCH  48  62
BRANCH  49  73
ATOM     73  C   UNL A   1      39.358  34.002  37.038  1.00  0.00     0.064 A 
ATOM     74  C   UNL A   1      38.680  33.548  38.177  1.00  0.00     0.173 A 
ATOM     75  C   UNL A   1      39.920  35.286  37.082  1.00  0.00     0.173 A 
ATOM     76  F   UNL A   1      38.119  32.330  38.181  1.00  0.00    -0.203 F 
ATOM     77  C   UNL A   1      38.552  34.351  39.308  1.00  0.00     0.198 A 
ATOM     78  C   UNL A   1      39.814  36.079  38.222  1.00  0.00     0.198 A 
ATOM     79  F   UNL A   1      40.595  35.760  36.024  1.00  0.00    -0.203 F 
ATOM     80  F   UNL A   1      37.868  33.905  40.371  1.00  0.00    -0.200 F 
ATOM     81  C   UNL A   1      39.125  35.614  39.333  1.00  0.00     0.200 A 
ATOM     82  F   UNL A   1      40.388  37.290  38.251  1.00  0.00    -0.200 F 
ATOM     83  F   UNL A   1      39.012  36.382  40.424  1.00  0.00    -0.200 F 
ENDBRANCH  49  73
BRANCH  61  84
ATOM     84  C   UNL A   1      43.808  28.947  35.256  1.00  0.00     0.064 A 
ATOM     85  C   UNL A   1      45.100  29.417  34.985  1.00  0.00     0.173 A 
ATOM     86  C   UNL A   1      43.662  27.925  36.206  1.00  0.00     0.173 A 
ATOM     87  F   UNL A   1      45.290  30.382  34.071  1.00  0.00    -0.203 F 
ATOM     88  C   UNL A   1      46.209  28.858  35.612  1.00  0.00     0.198 A 
ATOM     89  C   UNL A   1      44.771  27.389  36.854  1.00  0.00     0.198 A 
ATOM     90  F   UNL A   1      42.445  27.446  36.505  1.00  0.00    -0.203 F 
ATOM     91  F   UNL A   1      47.440  29.280  35.292  1.00  0.00    -0.200 F 
ATOM     92  C   UNL A   1      46.044  27.848  36.548  1.00  0.00     0.200 A 
ATOM     93  F   UNL A   1      44.609  26.420  37.766  1.00  0.00    -0.200 F 
ATOM     94  F   UNL A   1      47.113  27.308  37.148  1.00  0.00    -0.200 F 
ENDBRANCH  61  84
ENDBRANCH  35  36
ENDBRANCH  27  30
ENDBRANCH  25  26
ENDBRANCH  24  25
ENDBRANCH  23  24
ENDBRANCH   1  23
TORSDOF 17
ENDMDL
MODEL 3
REMARK VINA RESULT:     -11.4      2.031      2.990
REMARK SMILES C[C@@H](O)[C@@H](NC(=O)CSc1ccncc1)C(=O)NCCCCNC(=O)c1ccc(-c2c3nc(c(-c4c(F)c(F)c(F)c(F)c4F)c4ccc([nH]4)c(-c4c(F)c(F)c(F)c(F)c4F)c4nc(c(-c5c(F)c(F)c(F)c(F)c5F)c5ccc2[nH]5)C=C4)C=C3)cc1
REMARK SMILES IDX 19 1 18 2 16 3 17 4 4 6 2 7 1 8 3 9 5 11 6 12 7 14 8 15 9 16
REMARK SMILES IDX 10 17 11 18 15 19 12 20 14 21 13 22 20 23 21 24 22 25 23 26
REMARK SMILES IDX 24 27 25 29 26 30 27 31 88 32 28 33 87 34 29 35 30 36 31 37
REMARK SMILES IDX 81 38 32 39 86 40 80 41 82 42 33 43 85 44 79 45 78 46 34 48
REMARK SMILES IDX 66 49 46 50 65 51 47 52 50 53 64 54 83 55 48 56 49 57 63 59
REMARK SMILES IDX 84 60 51 61 35 62 36 63 44 64 37 65 38 66 42 67 45 68 39 69
REMARK SMILES IDX 40 70 43 71 41 72 67 73 68 74 76 75 69 76 70 77 74 78 77 79
REMARK SMILES IDX 71 80 72 81 75 82 73 83 52 84 53 85 61 86 54 87 55 88 59 89
REMARK SMILES IDX 62 90 56 91 57 92 60 93 58 94
REMARK H PARENT 18 5 3 10 5 13 23 28 82 47 50 58
REMARK Flexibility Score: inf
ROOT
ATOM      1  C   UNL A   1      32.463  26.846  26.457  1.00  0.00     0.116 C 
ENDROOT
BRANCH   1   2
ATOM      2  N   UNL A   1      31.522  25.907  25.915  1.00  0.00    -0.354 N 
ATOM      3  C   UNL A   1      31.793  24.888  25.043  1.00  0.00     0.245 C 
ATOM      4  O   UNL A   1      30.965  23.975  24.975  1.00  0.00    -0.273 OA
ATOM      5  H   UNL A   1      30.586  26.006  26.201  1.00  0.00     0.163 HD
BRANCH   3   6
ATOM      6  C   UNL A   1      33.061  24.876  24.141  1.00  0.00     0.200 C 
BRANCH   6   7
ATOM      7  C   UNL A   1      33.977  23.685  24.570  1.00  0.00     0.143 C 
ATOM      8  C   UNL A   1      35.184  23.494  23.649  1.00  0.00     0.041 C 
BRANCH   7   9
ATOM      9  O   UNL A   1      34.487  23.870  25.890  1.00  0.00    -0.391 OA
ATOM     10  H   UNL A   1      34.699  23.008  26.279  1.00  0.00     0.211 HD
ENDBRANCH   7   9
ENDBRANCH   6   7
BRANCH   6  11
ATOM     11  N   UNL A   1      32.879  24.867  22.667  1.00  0.00    -0.341 N 
ATOM     12  C   UNL A   1      32.555  25.917  21.856  1.00  0.00     0.231 C 
ATOM     13  H   UNL A   1      33.008  23.999  22.221  1.00  0.00     0.164 HD
ATOM     14  O   UNL A   1      33.279  26.136  20.883  1.00  0.00    -0.274 OA
BRANCH  12  15
ATOM     15  C   UNL A   1      31.264  26.660  22.065  1.00  0.00     0.174 C 
BRANCH  15  16
ATOM     16  S   UNL A   1      31.478  28.237  22.997  1.00  0.00    -0.116 SA
BRANCH  16  17
ATOM     17  C   UNL A   1      29.834  28.900  23.264  1.00  0.00     0.011 A 
ATOM     18  C   UNL A   1      28.727  28.073  23.104  1.00  0.00     0.035 A 
ATOM     19  C   UNL A   1      29.605  30.266  23.425  1.00  0.00     0.035 A 
ATOM     20  C   UNL A   1      27.465  28.649  23.092  1.00  0.00     0.112 A 
ATOM     21  C   UNL A   1      28.311  30.758  23.355  1.00  0.00     0.112 A 
ATOM     22  N   UNL A   1      27.232  29.974  23.205  1.00  0.00    -0.265 NA
ENDBRANCH  16  17
ENDBRANCH  15  16
ENDBRANCH  12  15
ENDBRANCH   6  11
ENDBRANCH   3   6
ENDBRANCH   1   2
BRANCH   1  23
ATOM     23  C   UNL A   1      31.876  27.897  27.388  1.00  0.00     0.023 C 
BRANCH  23  24
ATOM     24  C   UNL A   1      31.604  29.275  26.769  1.00  0.00     0.023 C 
BRANCH  24  25
ATOM     25  C   UNL A   1      32.809  30.061  26.237  1.00  0.00     0.116 C 
BRANCH  25  26
ATOM     26  N   UNL A   1      32.808  31.455  26.648  1.00  0.00    -0.352 N 
ATOM     27  C   UNL A   1      33.588  32.178  27.510  1.00  0.00     0.251 C 
ATOM     28  H   UNL A   1      32.100  31.988  26.220  1.00  0.00     0.163 HD
ATOM     29  O   UNL A   1      33.245  33.302  27.842  1.00  0.00    -0.269 OA
BRANCH  27  30
ATOM     30  C   UNL A   1      34.838  31.602  28.028  1.00  0.00     0.039 A 
ATOM     31  C   UNL A   1      35.970  32.416  28.128  1.00  0.00     0.014 A 
ATOM     32  C   UNL A   1      34.894  30.254  28.384  1.00  0.00     0.014 A 
ATOM     33  C   UNL A   1      37.137  31.896  28.682  1.00  0.00     0.010 A 
ATOM     34  C   UNL A   1      36.028  29.758  29.006  1.00  0.00     0.010 A 
ATOM     35  C   UNL A   1      37.151  30.580  29.172  1.00  0.00    -0.014 A 
BRANCH  35  36
ATOM     36  C   UNL A   1      38.305  30.064  29.935  1.00  0.00     0.031 A 
ATOM     37  C   UNL A   1      38.550  30.517  31.342  1.00  0.00     0.074 A 
ATOM     38  C   UNL A   1      39.185  29.272  29.294  1.00  0.00     0.049 A 
ATOM     39  N   UNL A   1      39.539  30.220  32.144  1.00  0.00    -0.248 NA
ATOM     40  C   UNL A   1      37.577  31.464  31.910  1.00  0.00     0.031 C 
ATOM     41  C   UNL A   1      39.083  28.862  27.890  1.00  0.00     0.029 A 
ATOM     42  N   UNL A   1      40.343  28.684  29.727  1.00  0.00    -0.354 N 
ATOM     43  C   UNL A   1      39.319  30.956  33.301  1.00  0.00     0.074 A 
ATOM     44  C   UNL A   1      38.132  31.753  33.078  1.00  0.00     0.031 C 
ATOM     45  C   UNL A   1      40.117  28.064  27.588  1.00  0.00     0.029 A 
ATOM     46  C   UNL A   1      40.965  27.927  28.765  1.00  0.00     0.049 A 
ATOM     47  H   UNL A   1      40.695  28.792  30.641  1.00  0.00     0.167 HD
ATOM     48  C   UNL A   1      40.038  30.947  34.449  1.00  0.00     0.037 A 
ATOM     49  C   UNL A   1      42.091  27.195  28.836  1.00  0.00     0.037 A 
ATOM     50  C   UNL A   1      41.205  30.128  34.651  1.00  0.00     0.049 A 
ATOM     51  C   UNL A   1      42.818  27.132  30.148  1.00  0.00     0.074 A 
ATOM     52  C   UNL A   1      41.980  29.987  35.788  1.00  0.00     0.029 A 
ATOM     53  N   UNL A   1      41.763  29.305  33.682  1.00  0.00    -0.354 N 
ATOM     54  N   UNL A   1      42.556  27.764  31.268  1.00  0.00    -0.248 NA
ATOM     55  C   UNL A   1      43.980  26.239  30.216  1.00  0.00     0.031 C 
ATOM     56  C   UNL A   1      43.027  29.104  35.496  1.00  0.00     0.029 A 
ATOM     57  C   UNL A   1      42.877  28.658  34.191  1.00  0.00     0.049 A 
ATOM     58  H   UNL A   1      41.419  29.197  32.766  1.00  0.00     0.167 HD
ATOM     59  C   UNL A   1      43.506  27.332  32.181  1.00  0.00     0.074 A 
ATOM     60  C   UNL A   1      44.334  26.363  31.488  1.00  0.00     0.031 C 
ATOM     61  C   UNL A   1      43.682  27.702  33.473  1.00  0.00     0.037 A 
BRANCH  48  62
ATOM     62  C   UNL A   1      39.575  31.842  35.564  1.00  0.00     0.064 A 
ATOM     63  C   UNL A   1      38.596  31.429  36.482  1.00  0.00     0.173 A 
ATOM     64  C   UNL A   1      40.122  33.124  35.725  1.00  0.00     0.173 A 
ATOM     65  F   UNL A   1      38.031  30.219  36.367  1.00  0.00    -0.203 F 
ATOM     66  C   UNL A   1      38.159  32.277  37.497  1.00  0.00     0.198 A 
ATOM     67  C   UNL A   1      39.704  33.958  36.760  1.00  0.00     0.198 A 
ATOM     68  F   UNL A   1      41.062  33.570  34.880  1.00  0.00    -0.203 F 
ATOM     69  F   UNL A   1      37.184  31.880  38.326  1.00  0.00    -0.200 F 
ATOM     70  C   UNL A   1      38.717  33.539  37.639  1.00  0.00     0.200 A 
ATOM     71  F   UNL A   1      40.252  35.173  36.903  1.00  0.00    -0.200 F 
ATOM     72  F   UNL A   1      38.296  34.353  38.616  1.00  0.00    -0.200 F 
ENDBRANCH  48  62
BRANCH  49  73
ATOM     73  C   UNL A   1      42.539  26.415  27.655  1.00  0.00     0.064 A 
ATOM     74  C   UNL A   1      43.512  26.929  26.786  1.00  0.00     0.173 A 
ATOM     75  C   UNL A   1      42.042  25.131  27.391  1.00  0.00     0.173 A 
ATOM     76  F   UNL A   1      44.013  28.155  26.992  1.00  0.00    -0.203 F 
ATOM     77  C   UNL A   1      43.958  26.196  25.688  1.00  0.00     0.198 A 
ATOM     78  C   UNL A   1      42.507  24.388  26.307  1.00  0.00     0.198 A 
ATOM     79  F   UNL A   1      41.123  24.587  28.202  1.00  0.00    -0.203 F 
ATOM     80  F   UNL A   1      44.863  26.726  24.855  1.00  0.00    -0.200 F 
ATOM     81  C   UNL A   1      43.459  24.923  25.453  1.00  0.00     0.200 A 
ATOM     82  F   UNL A   1      42.039  23.150  26.096  1.00  0.00    -0.200 F 
ATOM     83  F   UNL A   1      43.896  24.214  24.404  1.00  0.00    -0.200 F 
ENDBRANCH  49  73
BRANCH  61  84
ATOM     84  C   UNL A   1      44.801  27.034  34.214  1.00  0.00     0.064 A 
ATOM     85  C   UNL A   1      46.097  27.569  34.224  1.00  0.00     0.173 A 
ATOM     86  C   UNL A   1      44.570  25.848  34.926  1.00  0.00     0.173 A 
ATOM     87  F   UNL A   1      46.369  28.693  33.543  1.00  0.00    -0.203 F 
ATOM     88  C   UNL A   1      47.131  26.919  34.889  1.00  0.00     0.198 A 
ATOM     89  C   UNL A   1      45.601  25.217  35.615  1.00  0.00     0.198 A 
ATOM     90  F   UNL A   1      43.345  25.301  34.952  1.00  0.00    -0.203 F 
ATOM     91  F   UNL A   1      48.375  27.415  34.835  1.00  0.00    -0.200 F 
ATOM     92  C   UNL A   1      46.882  25.747  35.587  1.00  0.00     0.200 A 
ATOM     93  F   UNL A   1      45.356  24.090  36.299  1.00  0.00    -0.200 F 
ATOM     94  F   UNL A   1      47.881  25.120  36.224  1.00  0.00    -0.200 F 
ENDBRANCH  61  84
ENDBRANCH  35  36
ENDBRANCH  27  30
ENDBRANCH  25  26
ENDBRANCH  24  25
ENDBRANCH  23  24
ENDBRANCH   1  23
TORSDOF 17
ENDMDL
