MODEL 1
REMARK VINA RESULT:     -12.5      0.000      0.000
REMARK SMILES O=C(NCCCCNC(=O)[C@H]1CC[C@@H](CNC(=O)[C@@H]2CSc3ccccc32)O1)c1ccc(-c2c3nc(c(-c4c(F)c(F)c(F)c(F)c4F)c4ccc([nH]4)c(-c4c(F)c(F)c(F)c(F)c4F)c4nc(c(-c5c(F)c(F)c(F)c(F)c5F)c5ccc2[nH]5)C=C4)C=C3)cc1
REMARK SMILES IDX 6 1 5 2 4 3 3 4 1 5 2 6 29 8 30 9 91 10 31 11 90 12 32 13
REMARK SMILES IDX 33 14 34 15 84 16 35 17 89 18 83 19 85 20 36 21 88 22 82 23
REMARK SMILES IDX 81 24 37 26 69 27 49 28 68 29 50 30 53 31 67 32 86 33 51 34
REMARK SMILES IDX 52 35 66 37 87 38 54 39 38 40 39 41 47 42 40 43 41 44 45 45
REMARK SMILES IDX 48 46 42 47 43 48 46 49 44 50 70 51 71 52 79 53 72 54 73 55
REMARK SMILES IDX 77 56 80 57 74 58 75 59 78 60 76 61 55 62 56 63 64 64 57 65
REMARK SMILES IDX 58 66 62 67 65 68 59 69 60 70 63 71 61 72 7 73 8 74 9 75
REMARK SMILES IDX 10 77 11 78 12 79 28 80 13 81 14 82 15 83 16 84 17 85 18 87
REMARK SMILES IDX 19 88 20 89 27 90 21 91 22 92 26 93 23 94 25 95 24 96
REMARK H PARENT 3 7 85 25 53 36 8 76 16 86
REMARK Flexibility Score: inf
ROOT
ATOM      1  C   UNL A   1      31.394  30.814  26.032  1.00  0.00     0.023 C 
ENDROOT
BRANCH   1   2
ATOM      2  C   UNL A   1      31.280  32.260  26.518  1.00  0.00     0.023 C 
BRANCH   2   3
ATOM      3  C   UNL A   1      32.495  32.814  27.257  1.00  0.00     0.116 C 
BRANCH   3   4
ATOM      4  N   UNL A   1      32.333  34.200  27.658  1.00  0.00    -0.352 N 
ATOM      5  O   UNL A   1      32.638  36.058  28.891  1.00  0.00    -0.269 OA
ATOM      6  C   UNL A   1      33.006  34.920  28.614  1.00  0.00     0.251 C 
ATOM      7  H   UNL A   1      31.637  34.698  27.171  1.00  0.00     0.163 HD
BRANCH   6   8
ATOM      8  C   UNL A   1      34.163  34.335  29.331  1.00  0.00     0.039 A 
ATOM      9  C   UNL A   1      35.449  34.589  28.845  1.00  0.00     0.014 A 
ATOM     10  C   UNL A   1      33.990  33.501  30.439  1.00  0.00     0.014 A 
ATOM     11  C   UNL A   1      36.562  34.041  29.490  1.00  0.00     0.010 A 
ATOM     12  C   UNL A   1      35.102  33.004  31.118  1.00  0.00     0.010 A 
ATOM     13  C   UNL A   1      36.398  33.257  30.641  1.00  0.00    -0.014 A 
BRANCH  13  14
ATOM     14  C   UNL A   1      37.558  32.634  31.326  1.00  0.00     0.031 A 
ATOM     15  C   UNL A   1      38.301  31.513  30.653  1.00  0.00     0.074 A 
ATOM     16  C   UNL A   1      37.925  33.042  32.556  1.00  0.00     0.049 A 
ATOM     17  N   UNL A   1      39.253  30.745  31.123  1.00  0.00    -0.248 NA
ATOM     18  C   UNL A   1      37.907  31.201  29.270  1.00  0.00     0.031 C 
ATOM     19  C   UNL A   1      37.298  34.125  33.312  1.00  0.00     0.029 A 
ATOM     20  N   UNL A   1      38.918  32.588  33.388  1.00  0.00    -0.354 N 
ATOM     21  C   UNL A   1      39.559  29.856  30.102  1.00  0.00     0.074 A 
ATOM     22  C   UNL A   1      38.664  30.147  29.002  1.00  0.00     0.031 C 
ATOM     23  C   UNL A   1      37.936  34.268  34.485  1.00  0.00     0.029 A 
ATOM     24  C   UNL A   1      38.986  33.259  34.583  1.00  0.00     0.049 A 
ATOM     25  H   UNL A   1      39.524  31.849  33.149  1.00  0.00     0.167 HD
ATOM     26  C   UNL A   1      40.515  28.899  30.074  1.00  0.00     0.037 A 
ATOM     27  C   UNL A   1      39.800  33.074  35.642  1.00  0.00     0.037 A 
ATOM     28  C   UNL A   1      41.422  28.625  31.156  1.00  0.00     0.049 A 
ATOM     29  C   UNL A   1      40.825  31.972  35.602  1.00  0.00     0.074 A 
ATOM     30  C   UNL A   1      42.421  27.669  31.226  1.00  0.00     0.029 A 
ATOM     31  N   UNL A   1      41.451  29.321  32.356  1.00  0.00    -0.354 N 
ATOM     32  N   UNL A   1      41.093  31.125  34.639  1.00  0.00    -0.248 NA
ATOM     33  C   UNL A   1      41.658  31.800  36.801  1.00  0.00     0.031 C 
ATOM     34  C   UNL A   1      43.039  27.771  32.477  1.00  0.00     0.029 A 
ATOM     35  C   UNL A   1      42.450  28.816  33.171  1.00  0.00     0.049 A 
ATOM     36  H   UNL A   1      40.849  30.063  32.593  1.00  0.00     0.167 HD
ATOM     37  C   UNL A   1      42.141  30.341  35.100  1.00  0.00     0.074 A 
ATOM     38  C   UNL A   1      42.468  30.818  36.428  1.00  0.00     0.031 C 
ATOM     39  C   UNL A   1      42.775  29.316  34.481  1.00  0.00     0.037 A 
BRANCH  26  40
ATOM     40  C   UNL A   1      40.642  28.079  28.824  1.00  0.00     0.064 A 
ATOM     41  C   UNL A   1      39.915  26.891  28.655  1.00  0.00     0.173 A 
ATOM     42  C   UNL A   1      41.452  28.511  27.764  1.00  0.00     0.173 A 
ATOM     43  F   UNL A   1      39.137  26.429  29.648  1.00  0.00    -0.203 F 
ATOM     44  C   UNL A   1      40.006  26.157  27.476  1.00  0.00     0.198 A 
ATOM     45  C   UNL A   1      41.521  27.788  26.576  1.00  0.00     0.198 A 
ATOM     46  F   UNL A   1      42.165  29.642  27.874  1.00  0.00    -0.203 F 
ATOM     47  F   UNL A   1      39.330  25.007  27.352  1.00  0.00    -0.200 F 
ATOM     48  C   UNL A   1      40.801  26.610  26.435  1.00  0.00     0.200 A 
ATOM     49  F   UNL A   1      42.281  28.232  25.565  1.00  0.00    -0.200 F 
ATOM     50  F   UNL A   1      40.878  25.909  25.296  1.00  0.00    -0.200 F 
ENDBRANCH  26  40
BRANCH  27  51
ATOM     51  C   UNL A   1      39.698  33.969  36.823  1.00  0.00     0.064 A 
ATOM     52  C   UNL A   1      38.907  33.609  37.923  1.00  0.00     0.173 A 
ATOM     53  C   UNL A   1      40.376  35.194  36.879  1.00  0.00     0.173 A 
ATOM     54  F   UNL A   1      38.220  32.457  37.904  1.00  0.00    -0.203 F 
ATOM     55  C   UNL A   1      38.785  34.448  39.029  1.00  0.00     0.198 A 
ATOM     56  C   UNL A   1      40.274  36.022  37.996  1.00  0.00     0.198 A 
ATOM     57  F   UNL A   1      41.143  35.585  35.851  1.00  0.00    -0.203 F 
ATOM     58  F   UNL A   1      37.990  34.098  40.048  1.00  0.00    -0.200 F 
ATOM     59  C   UNL A   1      39.474  35.650  39.066  1.00  0.00     0.200 A 
ATOM     60  F   UNL A   1      40.948  37.179  38.033  1.00  0.00    -0.200 F 
ATOM     61  F   UNL A   1      39.360  36.456  40.132  1.00  0.00    -0.200 F 
ENDBRANCH  27  51
BRANCH  39  62
ATOM     62  C   UNL A   1      43.915  28.666  35.207  1.00  0.00     0.064 A 
ATOM     63  C   UNL A   1      43.716  27.562  36.048  1.00  0.00     0.173 A 
ATOM     64  C   UNL A   1      45.229  29.118  35.012  1.00  0.00     0.173 A 
ATOM     65  F   UNL A   1      42.476  27.102  36.276  1.00  0.00    -0.203 F 
ATOM     66  C   UNL A   1      44.790  26.945  36.683  1.00  0.00     0.198 A 
ATOM     67  C   UNL A   1      46.303  28.483  35.628  1.00  0.00     0.198 A 
ATOM     68  F   UNL A   1      45.471  30.166  34.211  1.00  0.00    -0.203 F 
ATOM     69  F   UNL A   1      44.574  25.914  37.512  1.00  0.00    -0.200 F 
ATOM     70  C   UNL A   1      46.082  27.401  36.467  1.00  0.00     0.200 A 
ATOM     71  F   UNL A   1      47.552  28.916  35.408  1.00  0.00    -0.200 F 
ATOM     72  F   UNL A   1      47.116  26.798  37.071  1.00  0.00    -0.200 F 
ENDBRANCH  39  62
ENDBRANCH  13  14
ENDBRANCH   6   8
ENDBRANCH   3   4
ENDBRANCH   2   3
ENDBRANCH   1   2
BRANCH   1  73
ATOM     73  C   UNL A   1      32.427  29.951  26.751  1.00  0.00     0.116 C 
BRANCH  73  74
ATOM     74  N   UNL A   1      31.911  28.651  27.139  1.00  0.00    -0.354 N 
ATOM     75  C   UNL A   1      31.453  27.636  26.342  1.00  0.00     0.249 C 
ATOM     76  H   UNL A   1      31.886  28.475  28.108  1.00  0.00     0.163 HD
ATOM     77  O   UNL A   1      31.137  26.572  26.879  1.00  0.00    -0.272 OA
BRANCH  75  78
ATOM     78  C   UNL A   1      31.317  27.873  24.832  1.00  0.00     0.207 C 
ATOM     79  C   UNL A   1      32.602  27.616  24.058  1.00  0.00     0.045 C 
ATOM     80  O   UNL A   1      30.331  26.949  24.334  1.00  0.00    -0.363 OA
ATOM     81  C   UNL A   1      32.465  26.174  23.641  1.00  0.00     0.037 C 
ATOM     82  C   UNL A   1      30.970  26.051  23.405  1.00  0.00     0.138 C 
BRANCH  82  83
ATOM     83  C   UNL A   1      30.467  24.611  23.586  1.00  0.00     0.147 C 
BRANCH  83  84
ATOM     84  N   UNL A   1      30.583  24.148  24.962  1.00  0.00    -0.353 N 
ATOM     85  C   UNL A   1      31.412  23.236  25.546  1.00  0.00     0.228 C 
ATOM     86  H   UNL A   1      29.946  24.569  25.582  1.00  0.00     0.163 HD
ATOM     87  O   UNL A   1      31.312  23.108  26.769  1.00  0.00    -0.274 OA
BRANCH  85  88
ATOM     88  C   UNL A   1      32.421  22.452  24.699  1.00  0.00     0.120 C 
ATOM     89  C   UNL A   1      32.169  20.943  24.878  1.00  0.00     0.093 C 
ATOM     90  C   UNL A   1      33.872  22.691  25.079  1.00  0.00    -0.021 A 
ATOM     91  S   UNL A   1      33.742  20.052  24.951  1.00  0.00    -0.125 SA
ATOM     92  C   UNL A   1      34.635  21.536  25.267  1.00  0.00     0.011 A 
ATOM     93  C   UNL A   1      34.485  23.938  25.207  1.00  0.00     0.006 A 
ATOM     94  C   UNL A   1      35.971  21.597  25.644  1.00  0.00     0.015 A 
ATOM     95  C   UNL A   1      35.830  24.011  25.580  1.00  0.00     0.000 A 
ATOM     96  C   UNL A   1      36.567  22.845  25.811  1.00  0.00     0.001 A 
ENDBRANCH  85  88
ENDBRANCH  83  84
ENDBRANCH  82  83
ENDBRANCH  75  78
ENDBRANCH  73  74
ENDBRANCH   1  73
TORSDOF 14
ENDMDL
MODEL 2
REMARK VINA RESULT:     -12.5      5.549     10.725
REMARK SMILES O=C(NCCCCNC(=O)[C@H]1CC[C@@H](CNC(=O)[C@@H]2CSc3ccccc32)O1)c1ccc(-c2c3nc(c(-c4c(F)c(F)c(F)c(F)c4F)c4ccc([nH]4)c(-c4c(F)c(F)c(F)c(F)c4F)c4nc(c(-c5c(F)c(F)c(F)c(F)c5F)c5ccc2[nH]5)C=C4)C=C3)cc1
REMARK SMILES IDX 6 1 5 2 4 3 3 4 1 5 2 6 29 8 30 9 91 10 31 11 90 12 32 13
REMARK SMILES IDX 33 14 34 15 84 16 35 17 89 18 83 19 85 20 36 21 88 22 82 23
REMARK SMILES IDX 81 24 37 26 69 27 49 28 68 29 50 30 53 31 67 32 86 33 51 34
REMARK SMILES IDX 52 35 66 37 87 38 54 39 38 40 39 41 47 42 40 43 41 44 45 45
REMARK SMILES IDX 48 46 42 47 43 48 46 49 44 50 70 51 71 52 79 53 72 54 73 55
REMARK SMILES IDX 77 56 80 57 74 58 75 59 78 60 76 61 55 62 56 63 64 64 57 65
REMARK SMILES IDX 58 66 62 67 65 68 59 69 60 70 63 71 61 72 7 73 8 74 9 75
REMARK SMILES IDX 10 77 11 78 12 79 28 80 13 81 14 82 15 83 16 84 17 85 18 87
REMARK SMILES IDX 19 88 20 89 27 90 21 91 22 92 26 93 23 94 25 95 24 96
REMARK H PARENT 3 7 85 25 53 36 8 76 16 86
REMARK Flexibility Score: inf
ROOT
ATOM      1  C   UNL A   1      36.715  20.164  25.009  1.00  0.00     0.023 C 
ENDROOT
BRANCH   1   2
ATOM      2  C   UNL A   1      38.164  19.769  24.717  1.00  0.00     0.023 C 
BRANCH   2   3
ATOM      3  C   UNL A   1      39.175  20.079  25.817  1.00  0.00     0.116 C 
BRANCH   3   4
ATOM      4  N   UNL A   1      40.263  19.119  25.877  1.00  0.00    -0.352 N 
ATOM      5  O   UNL A   1      42.388  18.387  26.001  1.00  0.00    -0.269 OA
ATOM      6  C   UNL A   1      41.600  19.323  26.112  1.00  0.00     0.251 C 
ATOM      7  H   UNL A   1      40.003  18.182  25.726  1.00  0.00     0.163 HD
BRANCH   6   8
ATOM      8  C   UNL A   1      42.110  20.664  26.481  1.00  0.00     0.039 A 
ATOM      9  C   UNL A   1      42.174  21.005  27.836  1.00  0.00     0.014 A 
ATOM     10  C   UNL A   1      42.474  21.600  25.509  1.00  0.00     0.014 A 
ATOM     11  C   UNL A   1      42.638  22.267  28.218  1.00  0.00     0.010 A 
ATOM     12  C   UNL A   1      42.993  22.836  25.892  1.00  0.00     0.010 A 
ATOM     13  C   UNL A   1      43.067  23.187  27.250  1.00  0.00    -0.014 A 
BRANCH  13  14
ATOM     14  C   UNL A   1      43.531  24.547  27.624  1.00  0.00     0.031 A 
ATOM     15  C   UNL A   1      42.520  25.605  27.971  1.00  0.00     0.074 A 
ATOM     16  C   UNL A   1      44.844  24.845  27.621  1.00  0.00     0.049 A 
ATOM     17  N   UNL A   1      42.698  26.883  28.197  1.00  0.00    -0.248 NA
ATOM     18  C   UNL A   1      41.117  25.171  28.057  1.00  0.00     0.031 C 
ATOM     19  C   UNL A   1      45.925  23.908  27.317  1.00  0.00     0.029 A 
ATOM     20  N   UNL A   1      45.491  26.027  27.881  1.00  0.00    -0.354 N 
ATOM     21  C   UNL A   1      41.434  27.403  28.438  1.00  0.00     0.074 A 
ATOM     22  C   UNL A   1      40.490  26.316  28.287  1.00  0.00     0.031 C 
ATOM     23  C   UNL A   1      47.102  24.545  27.431  1.00  0.00     0.029 A 
ATOM     24  C   UNL A   1      46.858  25.943  27.773  1.00  0.00     0.049 A 
ATOM     25  H   UNL A   1      45.020  26.858  28.123  1.00  0.00     0.167 HD
ATOM     26  C   UNL A   1      41.091  28.668  28.776  1.00  0.00     0.037 A 
ATOM     27  C   UNL A   1      47.804  26.891  27.923  1.00  0.00     0.037 A 
ATOM     28  C   UNL A   1      42.029  29.744  28.952  1.00  0.00     0.049 A 
ATOM     29  C   UNL A   1      47.391  28.301  28.256  1.00  0.00     0.074 A 
ATOM     30  C   UNL A   1      41.778  31.063  29.287  1.00  0.00     0.029 A 
ATOM     31  N   UNL A   1      43.404  29.620  28.821  1.00  0.00    -0.354 N 
ATOM     32  N   UNL A   1      46.192  28.785  28.462  1.00  0.00    -0.248 NA
ATOM     33  C   UNL A   1      48.468  29.295  28.372  1.00  0.00     0.031 C 
ATOM     34  C   UNL A   1      42.999  31.743  29.337  1.00  0.00     0.029 A 
ATOM     35  C   UNL A   1      44.014  30.838  29.070  1.00  0.00     0.049 A 
ATOM     36  H   UNL A   1      43.877  28.789  28.586  1.00  0.00     0.167 HD
ATOM     37  C   UNL A   1      46.368  30.129  28.761  1.00  0.00     0.074 A 
ATOM     38  C   UNL A   1      47.793  30.383  28.719  1.00  0.00     0.031 C 
ATOM     39  C   UNL A   1      45.434  31.069  29.044  1.00  0.00     0.037 A 
BRANCH  26  40
ATOM     40  C   UNL A   1      39.636  28.958  28.995  1.00  0.00     0.064 A 
ATOM     41  C   UNL A   1      38.801  29.336  27.932  1.00  0.00     0.173 A 
ATOM     42  C   UNL A   1      39.058  28.806  30.263  1.00  0.00     0.173 A 
ATOM     43  F   UNL A   1      39.311  29.510  26.702  1.00  0.00    -0.203 F 
ATOM     44  C   UNL A   1      37.443  29.564  28.134  1.00  0.00     0.198 A 
ATOM     45  C   UNL A   1      37.694  29.010  30.456  1.00  0.00     0.198 A 
ATOM     46  F   UNL A   1      39.812  28.444  31.311  1.00  0.00    -0.203 F 
ATOM     47  F   UNL A   1      36.673  29.959  27.111  1.00  0.00    -0.200 F 
ATOM     48  C   UNL A   1      36.889  29.393  29.393  1.00  0.00     0.200 A 
ATOM     49  F   UNL A   1      37.156  28.833  31.672  1.00  0.00    -0.200 F 
ATOM     50  F   UNL A   1      35.579  29.601  29.584  1.00  0.00    -0.200 F 
ENDBRANCH  26  40
BRANCH  27  51
ATOM     51  C   UNL A   1      49.240  26.537  27.786  1.00  0.00     0.064 A 
ATOM     52  C   UNL A   1      49.826  26.419  26.518  1.00  0.00     0.173 A 
ATOM     53  C   UNL A   1      50.050  26.303  28.905  1.00  0.00     0.173 A 
ATOM     54  F   UNL A   1      49.083  26.609  25.418  1.00  0.00    -0.203 F 
ATOM     55  C   UNL A   1      51.167  26.067  26.374  1.00  0.00     0.198 A 
ATOM     56  C   UNL A   1      51.397  25.975  28.761  1.00  0.00     0.198 A 
ATOM     57  F   UNL A   1      49.536  26.400  30.139  1.00  0.00    -0.203 F 
ATOM     58  F   UNL A   1      51.691  25.921  25.150  1.00  0.00    -0.200 F 
ATOM     59  C   UNL A   1      51.952  25.851  27.496  1.00  0.00     0.200 A 
ATOM     60  F   UNL A   1      52.156  25.776  29.847  1.00  0.00    -0.200 F 
ATOM     61  F   UNL A   1      53.242  25.516  27.358  1.00  0.00    -0.200 F 
ENDBRANCH  27  51
BRANCH  39  62
ATOM     62  C   UNL A   1      45.918  32.450  29.373  1.00  0.00     0.064 A 
ATOM     63  C   UNL A   1      46.106  33.419  28.379  1.00  0.00     0.173 A 
ATOM     64  C   UNL A   1      46.140  32.823  30.707  1.00  0.00     0.173 A 
ATOM     65  F   UNL A   1      45.918  33.106  27.087  1.00  0.00    -0.203 F 
ATOM     66  C   UNL A   1      46.516  34.708  28.705  1.00  0.00     0.198 A 
ATOM     67  C   UNL A   1      46.526  34.119  31.034  1.00  0.00     0.198 A 
ATOM     68  F   UNL A   1      45.967  31.932  31.696  1.00  0.00    -0.203 F 
ATOM     69  F   UNL A   1      46.726  35.609  27.736  1.00  0.00    -0.200 F 
ATOM     70  C   UNL A   1      46.718  35.059  30.033  1.00  0.00     0.200 A 
ATOM     71  F   UNL A   1      46.708  34.460  32.317  1.00  0.00    -0.200 F 
ATOM     72  F   UNL A   1      47.104  36.304  30.346  1.00  0.00    -0.200 F 
ENDBRANCH  39  62
ENDBRANCH  13  14
ENDBRANCH   6   8
ENDBRANCH   3   4
ENDBRANCH   2   3
ENDBRANCH   1   2
BRANCH   1  73
ATOM     73  C   UNL A   1      36.478  21.640  25.314  1.00  0.00     0.116 C 
BRANCH  73  74
ATOM     74  N   UNL A   1      36.015  22.392  24.162  1.00  0.00    -0.354 N 
ATOM     75  C   UNL A   1      34.731  22.653  23.767  1.00  0.00     0.249 C 
ATOM     76  H   UNL A   1      36.721  22.764  23.586  1.00  0.00     0.163 HD
ATOM     77  O   UNL A   1      34.560  23.392  22.794  1.00  0.00    -0.272 OA
BRANCH  75  78
ATOM     78  C   UNL A   1      33.566  21.993  24.518  1.00  0.00     0.207 C 
ATOM     79  C   UNL A   1      33.197  22.703  25.812  1.00  0.00     0.045 C 
ATOM     80  O   UNL A   1      32.410  22.046  23.662  1.00  0.00    -0.363 OA
ATOM     81  C   UNL A   1      32.113  23.657  25.380  1.00  0.00     0.037 C 
ATOM     82  C   UNL A   1      31.406  22.864  24.294  1.00  0.00     0.138 C 
BRANCH  82  83
ATOM     83  C   UNL A   1      30.702  23.772  23.275  1.00  0.00     0.147 C 
BRANCH  83  84
ATOM     84  N   UNL A   1      31.634  24.617  22.542  1.00  0.00    -0.353 N 
ATOM     85  C   UNL A   1      31.924  25.946  22.638  1.00  0.00     0.228 C 
ATOM     86  H   UNL A   1      32.148  24.142  21.850  1.00  0.00     0.163 HD
ATOM     87  O   UNL A   1      32.828  26.365  21.912  1.00  0.00    -0.274 OA
BRANCH  85  88
ATOM     88  C   UNL A   1      31.164  26.834  23.631  1.00  0.00     0.120 C 
ATOM     89  C   UNL A   1      30.345  27.879  22.851  1.00  0.00     0.093 C 
ATOM     90  C   UNL A   1      32.058  27.613  24.581  1.00  0.00    -0.021 A 
ATOM     91  S   UNL A   1      30.395  29.474  23.705  1.00  0.00    -0.125 SA
ATOM     92  C   UNL A   1      31.779  28.979  24.674  1.00  0.00     0.011 A 
ATOM     93  C   UNL A   1      33.073  27.072  25.371  1.00  0.00     0.006 A 
ATOM     94  C   UNL A   1      32.529  29.823  25.481  1.00  0.00     0.015 A 
ATOM     95  C   UNL A   1      33.831  27.912  26.191  1.00  0.00     0.000 A 
ATOM     96  C   UNL A   1      33.569  29.285  26.237  1.00  0.00     0.001 A 
ENDBRANCH  85  88
ENDBRANCH  83  84
ENDBRANCH  82  83
ENDBRANCH  75  78
ENDBRANCH  73  74
ENDBRANCH   1  73
TORSDOF 14
ENDMDL
MODEL 3
REMARK VINA RESULT:     -12.5      1.132      1.806
REMARK SMILES O=C(NCCCCNC(=O)[C@H]1CC[C@@H](CNC(=O)[C@@H]2CSc3ccccc32)O1)c1ccc(-c2c3nc(c(-c4c(F)c(F)c(F)c(F)c4F)c4ccc([nH]4)c(-c4c(F)c(F)c(F)c(F)c4F)c4nc(c(-c5c(F)c(F)c(F)c(F)c5F)c5ccc2[nH]5)C=C4)C=C3)cc1
REMARK SMILES IDX 6 1 5 2 4 3 3 4 1 5 2 6 29 8 30 9 91 10 31 11 90 12 32 13
REMARK SMILES IDX 33 14 34 15 84 16 35 17 89 18 83 19 85 20 36 21 88 22 82 23
REMARK SMILES IDX 81 24 37 26 69 27 49 28 68 29 50 30 53 31 67 32 86 33 51 34
REMARK SMILES IDX 52 35 66 37 87 38 54 39 38 40 39 41 47 42 40 43 41 44 45 45
REMARK SMILES IDX 48 46 42 47 43 48 46 49 44 50 70 51 71 52 79 53 72 54 73 55
REMARK SMILES IDX 77 56 80 57 74 58 75 59 78 60 76 61 55 62 56 63 64 64 57 65
REMARK SMILES IDX 58 66 62 67 65 68 59 69 60 70 63 71 61 72 7 73 8 74 9 75
REMARK SMILES IDX 10 77 11 78 12 79 28 80 13 81 14 82 15 83 16 84 17 85 18 87
REMARK SMILES IDX 19 88 20 89 27 90 21 91 22 92 26 93 23 94 25 95 24 96
REMARK H PARENT 3 7 85 25 53 36 8 76 16 86
REMARK Flexibility Score: inf
ROOT
ATOM      1  C   UNL A   1      31.416  30.971  25.973  1.00  0.00     0.023 C 
ENDROOT
BRANCH   1   2
ATOM      2  C   UNL A   1      31.261  32.284  26.742  1.00  0.00     0.023 C 
BRANCH   2   3
ATOM      3  C   UNL A   1      32.555  32.931  27.227  1.00  0.00     0.116 C 
BRANCH   3   4
ATOM      4  N   UNL A   1      32.377  34.306  27.659  1.00  0.00    -0.352 N 
ATOM      5  O   UNL A   1      32.648  36.136  28.939  1.00  0.00    -0.269 OA
ATOM      6  C   UNL A   1      33.030  35.008  28.641  1.00  0.00     0.251 C 
ATOM      7  H   UNL A   1      31.683  34.810  27.174  1.00  0.00     0.163 HD
BRANCH   6   8
ATOM      8  C   UNL A   1      34.182  34.415  29.360  1.00  0.00     0.039 A 
ATOM      9  C   UNL A   1      35.460  34.561  28.811  1.00  0.00     0.014 A 
ATOM     10  C   UNL A   1      34.008  33.678  30.534  1.00  0.00     0.014 A 
ATOM     11  C   UNL A   1      36.567  34.003  29.457  1.00  0.00     0.010 A 
ATOM     12  C   UNL A   1      35.119  33.172  31.210  1.00  0.00     0.010 A 
ATOM     13  C   UNL A   1      36.407  33.317  30.670  1.00  0.00    -0.014 A 
BRANCH  13  14
ATOM     14  C   UNL A   1      37.559  32.684  31.360  1.00  0.00     0.031 A 
ATOM     15  C   UNL A   1      38.295  31.557  30.690  1.00  0.00     0.074 A 
ATOM     16  C   UNL A   1      37.924  33.089  32.591  1.00  0.00     0.049 A 
ATOM     17  N   UNL A   1      39.237  30.781  31.164  1.00  0.00    -0.248 NA
ATOM     18  C   UNL A   1      37.905  31.249  29.305  1.00  0.00     0.031 C 
ATOM     19  C   UNL A   1      37.302  34.177  33.345  1.00  0.00     0.029 A 
ATOM     20  N   UNL A   1      38.909  32.626  33.428  1.00  0.00    -0.354 N 
ATOM     21  C   UNL A   1      39.541  29.890  30.144  1.00  0.00     0.074 A 
ATOM     22  C   UNL A   1      38.654  30.188  29.040  1.00  0.00     0.031 C 
ATOM     23  C   UNL A   1      37.936  34.314  34.521  1.00  0.00     0.029 A 
ATOM     24  C   UNL A   1      38.977  33.296  34.624  1.00  0.00     0.049 A 
ATOM     25  H   UNL A   1      39.510  31.882  33.192  1.00  0.00     0.167 HD
ATOM     26  C   UNL A   1      40.489  28.924  30.121  1.00  0.00     0.037 A 
ATOM     27  C   UNL A   1      39.784  33.104  35.686  1.00  0.00     0.037 A 
ATOM     28  C   UNL A   1      41.389  28.643  31.207  1.00  0.00     0.049 A 
ATOM     29  C   UNL A   1      40.800  31.993  35.650  1.00  0.00     0.074 A 
ATOM     30  C   UNL A   1      42.379  27.678  31.281  1.00  0.00     0.029 A 
ATOM     31  N   UNL A   1      41.418  29.337  32.406  1.00  0.00    -0.354 N 
ATOM     32  N   UNL A   1      41.066  31.144  34.688  1.00  0.00    -0.248 NA
ATOM     33  C   UNL A   1      41.626  31.814  36.853  1.00  0.00     0.031 C 
ATOM     34  C   UNL A   1      42.992  27.775  32.534  1.00  0.00     0.029 A 
ATOM     35  C   UNL A   1      42.409  28.824  33.226  1.00  0.00     0.049 A 
ATOM     36  H   UNL A   1      40.821  30.085  32.641  1.00  0.00     0.167 HD
ATOM     37  C   UNL A   1      42.105  30.351  35.154  1.00  0.00     0.074 A 
ATOM     38  C   UNL A   1      42.430  30.825  36.483  1.00  0.00     0.031 C 
ATOM     39  C   UNL A   1      42.733  29.321  34.537  1.00  0.00     0.037 A 
BRANCH  26  40
ATOM     40  C   UNL A   1      40.614  28.104  28.871  1.00  0.00     0.064 A 
ATOM     41  C   UNL A   1      39.899  26.908  28.710  1.00  0.00     0.173 A 
ATOM     42  C   UNL A   1      41.411  28.542  27.804  1.00  0.00     0.173 A 
ATOM     43  F   UNL A   1      39.135  26.439  29.709  1.00  0.00    -0.203 F 
ATOM     44  C   UNL A   1      39.988  26.173  27.532  1.00  0.00     0.198 A 
ATOM     45  C   UNL A   1      41.478  27.818  26.616  1.00  0.00     0.198 A 
ATOM     46  F   UNL A   1      42.112  29.681  27.906  1.00  0.00    -0.203 F 
ATOM     47  F   UNL A   1      39.324  25.014  27.414  1.00  0.00    -0.200 F 
ATOM     48  C   UNL A   1      40.770  26.632  26.483  1.00  0.00     0.200 A 
ATOM     49  F   UNL A   1      42.225  28.269  25.598  1.00  0.00    -0.200 F 
ATOM     50  F   UNL A   1      40.845  25.931  25.344  1.00  0.00    -0.200 F 
ENDBRANCH  26  40
BRANCH  27  51
ATOM     51  C   UNL A   1      39.685  34.000  36.867  1.00  0.00     0.064 A 
ATOM     52  C   UNL A   1      38.898  33.638  37.970  1.00  0.00     0.173 A 
ATOM     53  C   UNL A   1      40.360  35.226  36.919  1.00  0.00     0.173 A 
ATOM     54  F   UNL A   1      38.214  32.485  37.954  1.00  0.00    -0.203 F 
ATOM     55  C   UNL A   1      38.779  34.478  39.076  1.00  0.00     0.198 A 
ATOM     56  C   UNL A   1      40.260  36.054  38.037  1.00  0.00     0.198 A 
ATOM     57  F   UNL A   1      41.123  35.618  35.889  1.00  0.00    -0.203 F 
ATOM     58  F   UNL A   1      37.988  34.127  40.098  1.00  0.00    -0.200 F 
ATOM     59  C   UNL A   1      39.465  35.682  39.110  1.00  0.00     0.200 A 
ATOM     60  F   UNL A   1      40.932  37.213  38.071  1.00  0.00    -0.200 F 
ATOM     61  F   UNL A   1      39.354  36.488  40.175  1.00  0.00    -0.200 F 
ENDBRANCH  27  51
BRANCH  39  62
ATOM     62  C   UNL A   1      43.863  28.661  35.269  1.00  0.00     0.064 A 
ATOM     63  C   UNL A   1      45.188  29.091  35.116  1.00  0.00     0.173 A 
ATOM     64  C   UNL A   1      43.608  27.623  36.178  1.00  0.00     0.173 A 
ATOM     65  F   UNL A   1      45.484  30.073  34.249  1.00  0.00    -0.203 F 
ATOM     66  C   UNL A   1      46.221  28.495  35.834  1.00  0.00     0.198 A 
ATOM     67  C   UNL A   1      44.639  27.045  36.912  1.00  0.00     0.198 A 
ATOM     68  F   UNL A   1      42.355  27.180  36.364  1.00  0.00    -0.203 F 
ATOM     69  F   UNL A   1      47.485  28.897  35.645  1.00  0.00    -0.200 F 
ATOM     70  C   UNL A   1      45.944  27.478  36.736  1.00  0.00     0.200 A 
ATOM     71  F   UNL A   1      44.369  26.072  37.793  1.00  0.00    -0.200 F 
ATOM     72  F   UNL A   1      46.939  26.911  37.434  1.00  0.00    -0.200 F 
ENDBRANCH  39  62
ENDBRANCH  13  14
ENDBRANCH   6   8
ENDBRANCH   3   4
ENDBRANCH   2   3
ENDBRANCH   1   2
BRANCH   1  73
ATOM     73  C   UNL A   1      32.586  30.086  26.398  1.00  0.00     0.116 C 
BRANCH  73  74
ATOM     74  N   UNL A   1      33.442  29.704  25.290  1.00  0.00    -0.354 N 
ATOM     75  C   UNL A   1      33.240  28.737  24.343  1.00  0.00     0.249 C 
ATOM     76  H   UNL A   1      34.283  30.210  25.209  1.00  0.00     0.163 HD
ATOM     77  O   UNL A   1      34.063  28.635  23.430  1.00  0.00    -0.272 OA
BRANCH  75  78
ATOM     78  C   UNL A   1      32.030  27.801  24.474  1.00  0.00     0.207 C 
ATOM     79  C   UNL A   1      30.859  28.194  23.586  1.00  0.00     0.045 C 
ATOM     80  O   UNL A   1      32.450  26.487  24.064  1.00  0.00    -0.363 OA
ATOM     81  C   UNL A   1      31.094  27.386  22.336  1.00  0.00     0.037 C 
ATOM     82  C   UNL A   1      31.702  26.110  22.890  1.00  0.00     0.138 C 
BRANCH  82  83
ATOM     83  C   UNL A   1      32.595  25.396  21.865  1.00  0.00     0.147 C 
BRANCH  83  84
ATOM     84  N   UNL A   1      32.467  23.947  21.927  1.00  0.00    -0.353 N 
ATOM     85  C   UNL A   1      33.036  23.019  22.748  1.00  0.00     0.228 C 
ATOM     86  H   UNL A   1      31.859  23.568  21.251  1.00  0.00     0.163 HD
ATOM     87  O   UNL A   1      32.671  21.852  22.594  1.00  0.00    -0.274 OA
BRANCH  85  88
ATOM     88  C   UNL A   1      34.051  23.448  23.815  1.00  0.00     0.120 C 
ATOM     89  C   UNL A   1      35.383  22.713  23.572  1.00  0.00     0.093 C 
ATOM     90  C   UNL A   1      33.635  23.120  25.239  1.00  0.00    -0.021 A 
ATOM     91  S   UNL A   1      36.123  22.227  25.149  1.00  0.00    -0.125 SA
ATOM     92  C   UNL A   1      34.603  22.465  26.004  1.00  0.00     0.011 A 
ATOM     93  C   UNL A   1      32.415  23.454  25.827  1.00  0.00     0.006 A 
ATOM     94  C   UNL A   1      34.356  22.077  27.315  1.00  0.00     0.015 A 
ATOM     95  C   UNL A   1      32.158  23.073  27.147  1.00  0.00     0.000 A 
ATOM     96  C   UNL A   1      33.120  22.376  27.885  1.00  0.00     0.001 A 
ENDBRANCH  85  88
ENDBRANCH  83  84
ENDBRANCH  82  83
ENDBRANCH  75  78
ENDBRANCH  73  74
ENDBRANCH   1  73
TORSDOF 14
ENDMDL
