MODEL 1
REMARK VINA RESULT:      -9.5      0.000      0.000
REMARK SMILES O=C(CSc1ccc(Cl)cc1)Nc1ccc(C(=O)NCCCCNC(=O)c2ccc(-c3c4nc(c(-c5c(F)c(F)c(F)c(F)c5F)c5ccc([nH]5)c(-c5c(F)c(F)c(F)c(F)c5F)c5nc(c(-c6c(F)c(F)c(F)c(F)c6F)c6ccc3[nH]6)C=C5)C=C4)cc2)cc1
REMARK SMILES IDX 20 1 19 2 17 3 18 4 16 6 13 7 14 8 91 9 15 10 90 11 12 12
REMARK SMILES IDX 1 13 2 14 3 16 4 17 5 18 6 19 11 20 7 21 10 22 8 23 9 24
REMARK SMILES IDX 21 25 22 26 23 27 24 28 25 29 26 31 27 32 28 33 89 34 29 35
REMARK SMILES IDX 88 36 30 37 31 38 32 39 82 40 33 41 87 42 81 43 83 44 34 45
REMARK SMILES IDX 86 46 80 47 79 48 35 50 67 51 47 52 66 53 48 54 51 55 65 56
REMARK SMILES IDX 84 57 49 58 50 59 64 61 85 62 52 63 36 64 37 65 45 66 38 67
REMARK SMILES IDX 39 68 43 69 46 70 40 71 41 72 44 73 42 74 68 75 69 76 77 77
REMARK SMILES IDX 70 78 71 79 75 80 78 81 72 82 73 83 76 84 74 85 53 86 54 87
REMARK SMILES IDX 62 88 55 89 56 90 60 91 63 92 57 93 58 94 61 95 59 96
REMARK H PARENT 19 5 12 15 24 30 83 49 51 60
REMARK Flexibility Score: inf
ROOT
ATOM      1  C   UNL A   1      37.424  34.109  31.422  1.00  0.00     0.116 C 
ENDROOT
BRANCH   1   2
ATOM      2  N   UNL A   1      36.531  33.926  32.550  1.00  0.00    -0.352 N 
ATOM      3  C   UNL A   1      36.523  33.016  33.578  1.00  0.00     0.251 C 
ATOM      4  O   UNL A   1      35.628  33.116  34.418  1.00  0.00    -0.269 OA
ATOM      5  H   UNL A   1      35.792  34.574  32.585  1.00  0.00     0.163 HD
BRANCH   3   6
ATOM      6  C   UNL A   1      37.572  31.971  33.760  1.00  0.00     0.039 A 
ATOM      7  C   UNL A   1      39.746  30.192  34.025  1.00  0.00     0.041 A 
ATOM      8  C   UNL A   1      39.755  31.414  34.697  1.00  0.00     0.027 A 
ATOM      9  C   UNL A   1      38.606  29.821  33.314  1.00  0.00     0.027 A 
ATOM     10  C   UNL A   1      38.686  32.306  34.544  1.00  0.00     0.016 A 
ATOM     11  C   UNL A   1      37.515  30.688  33.216  1.00  0.00     0.016 A 
BRANCH   7  12
ATOM     12  N   UNL A   1      40.887  29.374  34.102  1.00  0.00    -0.325 N 
ATOM     13  O   UNL A   1      40.868  28.854  36.365  1.00  0.00    -0.274 OA
ATOM     14  C   UNL A   1      41.389  28.789  35.252  1.00  0.00     0.234 C 
ATOM     15  H   UNL A   1      41.372  29.203  33.263  1.00  0.00     0.169 HD
BRANCH  14  16
ATOM     16  C   UNL A   1      42.722  28.075  35.086  1.00  0.00     0.175 C 
BRANCH  16  17
ATOM     17  S   UNL A   1      43.025  27.435  33.405  1.00  0.00    -0.116 SA
BRANCH  17  18
ATOM     18  C   UNL A   1      43.545  25.770  33.779  1.00  0.00     0.008 A 
ATOM     19  C   UNL A   1      43.135  25.183  34.980  1.00  0.00     0.016 A 
ATOM     20  C   UNL A   1      44.299  25.022  32.870  1.00  0.00     0.016 A 
ATOM     21  C   UNL A   1      43.489  23.866  35.280  1.00  0.00     0.021 A 
ATOM     22  C   UNL A   1      44.648  23.700  33.165  1.00  0.00     0.021 A 
ATOM     23  C   UNL A   1      44.242  23.129  34.370  1.00  0.00     0.041 A 
ATOM     24  Cl  UNL A   1      44.658  21.499  34.729  1.00  0.00    -0.084 Cl
ENDBRANCH  17  18
ENDBRANCH  16  17
ENDBRANCH  14  16
ENDBRANCH   7  12
ENDBRANCH   3   6
ENDBRANCH   1   2
BRANCH   1  25
ATOM     25  C   UNL A   1      37.051  33.157  30.283  1.00  0.00     0.023 C 
BRANCH  25  26
ATOM     26  C   UNL A   1      35.579  33.231  29.865  1.00  0.00     0.023 C 
BRANCH  26  27
ATOM     27  C   UNL A   1      35.331  33.078  28.368  1.00  0.00     0.116 C 
BRANCH  27  28
ATOM     28  N   UNL A   1      34.390  32.017  28.046  1.00  0.00    -0.352 N 
ATOM     29  C   UNL A   1      34.619  30.666  27.936  1.00  0.00     0.251 C 
ATOM     30  H   UNL A   1      33.462  32.305  27.886  1.00  0.00     0.163 HD
ATOM     31  O   UNL A   1      33.734  29.916  27.550  1.00  0.00    -0.269 OA
BRANCH  29  32
ATOM     32  C   UNL A   1      35.963  30.132  28.244  1.00  0.00     0.039 A 
ATOM     33  C   UNL A   1      36.955  30.221  27.265  1.00  0.00     0.014 A 
ATOM     34  C   UNL A   1      36.249  29.575  29.493  1.00  0.00     0.014 A 
ATOM     35  C   UNL A   1      38.256  29.817  27.566  1.00  0.00     0.010 A 
ATOM     36  C   UNL A   1      37.560  29.235  29.813  1.00  0.00     0.010 A 
ATOM     37  C   UNL A   1      38.576  29.359  28.854  1.00  0.00    -0.014 A 
BRANCH  37  38
ATOM     38  C   UNL A   1      39.978  29.032  29.219  1.00  0.00     0.031 A 
ATOM     39  C   UNL A   1      40.798  29.996  30.026  1.00  0.00     0.074 A 
ATOM     40  C   UNL A   1      40.526  27.889  28.766  1.00  0.00     0.049 A 
ATOM     41  N   UNL A   1      42.047  29.901  30.409  1.00  0.00    -0.248 NA
ATOM     42  C   UNL A   1      40.139  31.245  30.437  1.00  0.00     0.031 C 
ATOM     43  C   UNL A   1      39.849  26.902  27.922  1.00  0.00     0.029 A 
ATOM     44  N   UNL A   1      41.783  27.366  28.943  1.00  0.00    -0.354 N 
ATOM     45  C   UNL A   1      42.323  31.075  31.095  1.00  0.00     0.074 A 
ATOM     46  C   UNL A   1      41.130  31.893  31.031  1.00  0.00     0.031 C 
ATOM     47  C   UNL A   1      40.687  25.882  27.677  1.00  0.00     0.029 A 
ATOM     48  C   UNL A   1      41.970  26.159  28.316  1.00  0.00     0.049 A 
ATOM     49  H   UNL A   1      42.483  27.814  29.470  1.00  0.00     0.167 HD
ATOM     50  C   UNL A   1      43.459  31.428  31.742  1.00  0.00     0.037 A 
ATOM     51  C   UNL A   1      43.056  25.365  28.261  1.00  0.00     0.037 A 
ATOM     52  C   UNL A   1      44.636  30.602  31.820  1.00  0.00     0.049 A 
ATOM     53  C   UNL A   1      44.304  25.780  28.991  1.00  0.00     0.074 A 
ATOM     54  C   UNL A   1      45.815  30.840  32.506  1.00  0.00     0.029 A 
ATOM     55  N   UNL A   1      44.784  29.376  31.187  1.00  0.00    -0.354 N 
ATOM     56  N   UNL A   1      44.527  26.856  29.705  1.00  0.00    -0.248 NA
ATOM     57  C   UNL A   1      45.451  24.863  28.912  1.00  0.00     0.031 C 
ATOM     58  C   UNL A   1      46.693  29.782  32.249  1.00  0.00     0.029 A 
ATOM     59  C   UNL A   1      46.044  28.859  31.446  1.00  0.00     0.049 A 
ATOM     60  H   UNL A   1      44.097  28.939  30.635  1.00  0.00     0.167 HD
ATOM     61  C   UNL A   1      45.826  26.737  30.180  1.00  0.00     0.074 A 
ATOM     62  C   UNL A   1      46.334  25.472  29.690  1.00  0.00     0.031 C 
ATOM     63  C   UNL A   1      46.535  27.598  30.951  1.00  0.00     0.037 A 
BRANCH  50  64
ATOM     64  C   UNL A   1      43.485  32.766  32.422  1.00  0.00     0.064 A 
ATOM     65  C   UNL A   1      43.216  32.897  33.794  1.00  0.00     0.173 A 
ATOM     66  C   UNL A   1      43.822  33.924  31.705  1.00  0.00     0.173 A 
ATOM     67  F   UNL A   1      42.879  31.823  34.521  1.00  0.00    -0.203 F 
ATOM     68  C   UNL A   1      43.257  34.143  34.416  1.00  0.00     0.198 A 
ATOM     69  C   UNL A   1      43.890  35.163  32.337  1.00  0.00     0.198 A 
ATOM     70  F   UNL A   1      44.092  33.854  30.394  1.00  0.00    -0.203 F 
ATOM     71  F   UNL A   1      42.951  34.251  35.716  1.00  0.00    -0.200 F 
ATOM     72  C   UNL A   1      43.602  35.273  33.690  1.00  0.00     0.200 A 
ATOM     73  F   UNL A   1      44.236  36.252  31.637  1.00  0.00    -0.200 F 
ATOM     74  F   UNL A   1      43.649  36.469  34.292  1.00  0.00    -0.200 F 
ENDBRANCH  50  64
BRANCH  51  75
ATOM     75  C   UNL A   1      43.003  24.084  27.509  1.00  0.00     0.064 A 
ATOM     76  C   UNL A   1      43.328  24.036  26.146  1.00  0.00     0.173 A 
ATOM     77  C   UNL A   1      42.623  22.886  28.131  1.00  0.00     0.173 A 
ATOM     78  F   UNL A   1      43.678  25.159  25.502  1.00  0.00    -0.203 F 
ATOM     79  C   UNL A   1      43.252  22.844  25.429  1.00  0.00     0.198 A 
ATOM     80  C   UNL A   1      42.574  21.690  27.420  1.00  0.00     0.198 A 
ATOM     81  F   UNL A   1      42.308  22.878  29.436  1.00  0.00    -0.203 F 
ATOM     82  F   UNL A   1      43.520  22.835  24.117  1.00  0.00    -0.200 F 
ATOM     83  C   UNL A   1      42.880  21.671  26.068  1.00  0.00     0.200 A 
ATOM     84  F   UNL A   1      42.229  20.555  28.045  1.00  0.00    -0.200 F 
ATOM     85  F   UNL A   1      42.808  20.524  25.378  1.00  0.00    -0.200 F 
ENDBRANCH  51  75
BRANCH  63  86
ATOM     86  C   UNL A   1      47.928  27.188  31.329  1.00  0.00     0.064 A 
ATOM     87  C   UNL A   1      49.030  27.485  30.511  1.00  0.00     0.173 A 
ATOM     88  C   UNL A   1      48.168  26.512  32.535  1.00  0.00     0.173 A 
ATOM     89  F   UNL A   1      48.851  28.115  29.341  1.00  0.00    -0.203 F 
ATOM     90  C   UNL A   1      50.316  27.093  30.873  1.00  0.00     0.198 A 
ATOM     91  C   UNL A   1      49.459  26.150  32.909  1.00  0.00     0.198 A 
ATOM     92  F   UNL A   1      47.151  26.212  33.355  1.00  0.00    -0.203 F 
ATOM     93  F   UNL A   1      51.345  27.339  30.052  1.00  0.00    -0.200 F 
ATOM     94  C   UNL A   1      50.530  26.432  32.074  1.00  0.00     0.200 A 
ATOM     95  F   UNL A   1      49.667  25.523  34.075  1.00  0.00    -0.200 F 
ATOM     96  F   UNL A   1      51.769  26.058  32.422  1.00  0.00    -0.200 F 
ENDBRANCH  63  86
ENDBRANCH  37  38
ENDBRANCH  29  32
ENDBRANCH  27  28
ENDBRANCH  26  27
ENDBRANCH  25  26
ENDBRANCH   1  25
TORSDOF 15
ENDMDL
MODEL 2
REMARK VINA RESULT:      -9.4      5.364     11.071
REMARK SMILES O=C(CSc1ccc(Cl)cc1)Nc1ccc(C(=O)NCCCCNC(=O)c2ccc(-c3c4nc(c(-c5c(F)c(F)c(F)c(F)c5F)c5ccc([nH]5)c(-c5c(F)c(F)c(F)c(F)c5F)c5nc(c(-c6c(F)c(F)c(F)c(F)c6F)c6ccc3[nH]6)C=C5)C=C4)cc2)cc1
REMARK SMILES IDX 20 1 19 2 17 3 18 4 16 6 13 7 14 8 91 9 15 10 90 11 12 12
REMARK SMILES IDX 1 13 2 14 3 16 4 17 5 18 6 19 11 20 7 21 10 22 8 23 9 24
REMARK SMILES IDX 21 25 22 26 23 27 24 28 25 29 26 31 27 32 28 33 89 34 29 35
REMARK SMILES IDX 88 36 30 37 31 38 32 39 82 40 33 41 87 42 81 43 83 44 34 45
REMARK SMILES IDX 86 46 80 47 79 48 35 50 67 51 47 52 66 53 48 54 51 55 65 56
REMARK SMILES IDX 84 57 49 58 50 59 64 61 85 62 52 63 36 64 37 65 45 66 38 67
REMARK SMILES IDX 39 68 43 69 46 70 40 71 41 72 44 73 42 74 68 75 69 76 77 77
REMARK SMILES IDX 70 78 71 79 75 80 78 81 72 82 73 83 76 84 74 85 53 86 54 87
REMARK SMILES IDX 62 88 55 89 56 90 60 91 63 92 57 93 58 94 61 95 59 96
REMARK H PARENT 19 5 12 15 24 30 83 49 51 60
REMARK Flexibility Score: inf
ROOT
ATOM      1  C   UNL A   1      31.069  29.515  25.325  1.00  0.00     0.116 C 
ENDROOT
BRANCH   1   2
ATOM      2  N   UNL A   1      30.637  29.826  23.976  1.00  0.00    -0.352 N 
ATOM      3  C   UNL A   1      30.475  29.045  22.859  1.00  0.00     0.251 C 
ATOM      4  O   UNL A   1      30.072  29.596  21.834  1.00  0.00    -0.269 OA
ATOM      5  H   UNL A   1      30.419  30.775  23.835  1.00  0.00     0.163 HD
BRANCH   3   6
ATOM      6  C   UNL A   1      30.698  27.570  22.847  1.00  0.00     0.039 A 
ATOM      7  C   UNL A   1      31.126  24.793  23.110  1.00  0.00     0.041 A 
ATOM      8  C   UNL A   1      30.062  25.404  23.774  1.00  0.00     0.027 A 
ATOM      9  C   UNL A   1      31.902  25.552  22.237  1.00  0.00     0.027 A 
ATOM     10  C   UNL A   1      29.866  26.787  23.662  1.00  0.00     0.016 A 
ATOM     11  C   UNL A   1      31.664  26.920  22.078  1.00  0.00     0.016 A 
BRANCH   7  12
ATOM     12  N   UNL A   1      31.367  23.428  23.342  1.00  0.00    -0.325 N 
ATOM     13  O   UNL A   1      32.924  23.570  25.058  1.00  0.00    -0.274 OA
ATOM     14  C   UNL A   1      32.258  22.906  24.264  1.00  0.00     0.234 C 
ATOM     15  H   UNL A   1      30.856  22.785  22.799  1.00  0.00     0.169 HD
BRANCH  14  16
ATOM     16  C   UNL A   1      32.438  21.396  24.209  1.00  0.00     0.175 C 
BRANCH  16  17
ATOM     17  S   UNL A   1      34.134  20.831  24.573  1.00  0.00    -0.116 SA
BRANCH  17  18
ATOM     18  C   UNL A   1      33.849  19.090  24.829  1.00  0.00     0.008 A 
ATOM     19  C   UNL A   1      32.736  18.685  25.571  1.00  0.00     0.016 A 
ATOM     20  C   UNL A   1      34.680  18.124  24.251  1.00  0.00     0.016 A 
ATOM     21  C   UNL A   1      32.463  17.327  25.751  1.00  0.00     0.021 A 
ATOM     22  C   UNL A   1      34.403  16.764  24.424  1.00  0.00     0.021 A 
ATOM     23  C   UNL A   1      33.296  16.372  25.174  1.00  0.00     0.041 A 
ATOM     24  Cl  UNL A   1      32.946  14.700  25.376  1.00  0.00    -0.084 Cl
ENDBRANCH  17  18
ENDBRANCH  16  17
ENDBRANCH  14  16
ENDBRANCH   7  12
ENDBRANCH   3   6
ENDBRANCH   1   2
BRANCH   1  25
ATOM     25  C   UNL A   1      32.199  30.454  25.755  1.00  0.00     0.023 C 
BRANCH  25  26
ATOM     26  C   UNL A   1      31.722  31.700  26.508  1.00  0.00     0.023 C 
BRANCH  26  27
ATOM     27  C   UNL A   1      32.816  32.449  27.262  1.00  0.00     0.116 C 
BRANCH  27  28
ATOM     28  N   UNL A   1      32.463  33.826  27.570  1.00  0.00    -0.352 N 
ATOM     29  C   UNL A   1      33.016  34.668  28.505  1.00  0.00     0.251 C 
ATOM     30  H   UNL A   1      31.728  34.206  27.036  1.00  0.00     0.163 HD
ATOM     31  O   UNL A   1      32.528  35.770  28.713  1.00  0.00    -0.269 OA
BRANCH  29  32
ATOM     32  C   UNL A   1      34.180  34.212  29.293  1.00  0.00     0.039 A 
ATOM     33  C   UNL A   1      33.948  33.536  30.494  1.00  0.00     0.014 A 
ATOM     34  C   UNL A   1      35.484  34.422  28.840  1.00  0.00     0.014 A 
ATOM     35  C   UNL A   1      35.025  33.008  31.205  1.00  0.00     0.010 A 
ATOM     36  C   UNL A   1      36.552  33.836  29.514  1.00  0.00     0.010 A 
ATOM     37  C   UNL A   1      36.331  33.118  30.699  1.00  0.00    -0.014 A 
BRANCH  37  38
ATOM     38  C   UNL A   1      37.471  32.464  31.388  1.00  0.00     0.031 A 
ATOM     39  C   UNL A   1      38.175  31.298  30.755  1.00  0.00     0.074 A 
ATOM     40  C   UNL A   1      37.830  32.886  32.616  1.00  0.00     0.049 A 
ATOM     41  N   UNL A   1      39.164  30.577  31.220  1.00  0.00    -0.248 NA
ATOM     42  C   UNL A   1      37.688  30.867  29.436  1.00  0.00     0.031 C 
ATOM     43  C   UNL A   1      37.183  33.969  33.360  1.00  0.00     0.029 A 
ATOM     44  N   UNL A   1      38.821  32.451  33.459  1.00  0.00    -0.354 N 
ATOM     45  C   UNL A   1      39.410  29.607  30.260  1.00  0.00     0.074 A 
ATOM     46  C   UNL A   1      38.432  29.795  29.208  1.00  0.00     0.031 C 
ATOM     47  C   UNL A   1      37.808  34.131  34.536  1.00  0.00     0.029 A 
ATOM     48  C   UNL A   1      38.878  33.143  34.644  1.00  0.00     0.049 A 
ATOM     49  H   UNL A   1      39.433  31.714  33.236  1.00  0.00     0.167 HD
ATOM     50  C   UNL A   1      40.380  28.661  30.243  1.00  0.00     0.037 A 
ATOM     51  C   UNL A   1      39.698  32.995  35.701  1.00  0.00     0.037 A 
ATOM     52  C   UNL A   1      41.363  28.492  31.281  1.00  0.00     0.049 A 
ATOM     53  C   UNL A   1      40.769  31.939  35.655  1.00  0.00     0.074 A 
ATOM     54  C   UNL A   1      42.427  27.606  31.326  1.00  0.00     0.029 A 
ATOM     55  N   UNL A   1      41.401  29.222  32.460  1.00  0.00    -0.354 N 
ATOM     56  N   UNL A   1      41.043  31.079  34.704  1.00  0.00    -0.248 NA
ATOM     57  C   UNL A   1      41.648  31.838  36.828  1.00  0.00     0.031 C 
ATOM     58  C   UNL A   1      43.079  27.769  32.554  1.00  0.00     0.029 A 
ATOM     59  C   UNL A   1      42.455  28.790  33.250  1.00  0.00     0.049 A 
ATOM     60  H   UNL A   1      40.772  29.940  32.699  1.00  0.00     0.167 HD
ATOM     61  C   UNL A   1      42.138  30.353  35.151  1.00  0.00     0.074 A 
ATOM     62  C   UNL A   1      42.491  30.888  36.449  1.00  0.00     0.031 C 
ATOM     63  C   UNL A   1      42.792  29.334  34.542  1.00  0.00     0.037 A 
BRANCH  50  64
ATOM     64  C   UNL A   1      40.429  27.738  29.060  1.00  0.00     0.064 A 
ATOM     65  C   UNL A   1      39.664  26.562  29.015  1.00  0.00     0.173 A 
ATOM     66  C   UNL A   1      41.218  28.051  27.943  1.00  0.00     0.173 A 
ATOM     67  F   UNL A   1      38.902  26.211  30.061  1.00  0.00    -0.203 F 
ATOM     68  C   UNL A   1      39.708  25.720  27.906  1.00  0.00     0.198 A 
ATOM     69  C   UNL A   1      41.237  27.222  26.824  1.00  0.00     0.198 A 
ATOM     70  F   UNL A   1      41.965  29.165  27.933  1.00  0.00    -0.203 F 
ATOM     71  F   UNL A   1      39.005  24.579  27.904  1.00  0.00    -0.200 F 
ATOM     72  C   UNL A   1      40.487  26.055  26.809  1.00  0.00     0.200 A 
ATOM     73  F   UNL A   1      41.980  27.554  25.759  1.00  0.00    -0.200 F 
ATOM     74  F   UNL A   1      40.522  25.249  25.739  1.00  0.00    -0.200 F 
ENDBRANCH  50  64
BRANCH  51  75
ATOM     75  C   UNL A   1      39.560  33.887  36.881  1.00  0.00     0.064 A 
ATOM     76  C   UNL A   1      38.788  33.502  37.988  1.00  0.00     0.173 A 
ATOM     77  C   UNL A   1      40.185  35.141  36.928  1.00  0.00     0.173 A 
ATOM     78  F   UNL A   1      38.154  32.320  37.981  1.00  0.00    -0.203 F 
ATOM     79  C   UNL A   1      38.630  34.346  39.084  1.00  0.00     0.198 A 
ATOM     80  C   UNL A   1      40.049  35.972  38.038  1.00  0.00     0.198 A 
ATOM     81  F   UNL A   1      40.939  35.553  35.898  1.00  0.00    -0.203 F 
ATOM     82  F   UNL A   1      37.848  33.974  40.106  1.00  0.00    -0.200 F 
ATOM     83  C   UNL A   1      39.264  35.578  39.111  1.00  0.00     0.200 A 
ATOM     84  F   UNL A   1      40.676  37.156  38.065  1.00  0.00    -0.200 F 
ATOM     85  F   UNL A   1      39.113  36.389  40.166  1.00  0.00    -0.200 F 
ENDBRANCH  51  75
BRANCH  63  86
ATOM     86  C   UNL A   1      43.969  28.746  35.265  1.00  0.00     0.064 A 
ATOM     87  C   UNL A   1      45.265  29.256  35.097  1.00  0.00     0.173 A 
ATOM     88  C   UNL A   1      43.794  27.676  36.155  1.00  0.00     0.173 A 
ATOM     89  F   UNL A   1      45.486  30.269  34.245  1.00  0.00    -0.203 F 
ATOM     90  C   UNL A   1      46.348  28.697  35.770  1.00  0.00     0.198 A 
ATOM     91  C   UNL A   1      44.874  27.140  36.852  1.00  0.00     0.198 A 
ATOM     92  F   UNL A   1      42.575  27.157  36.357  1.00  0.00    -0.203 F 
ATOM     93  F   UNL A   1      47.584  29.166  35.553  1.00  0.00    -0.200 F 
ATOM     94  C   UNL A   1      46.150  27.644  36.651  1.00  0.00     0.200 A 
ATOM     95  F   UNL A   1      44.680  26.131  37.713  1.00  0.00    -0.200 F 
ATOM     96  F   UNL A   1      47.193  27.108  37.301  1.00  0.00    -0.200 F 
ENDBRANCH  63  86
ENDBRANCH  37  38
ENDBRANCH  29  32
ENDBRANCH  27  28
ENDBRANCH  26  27
ENDBRANCH  25  26
ENDBRANCH   1  25
TORSDOF 15
ENDMDL
MODEL 3
REMARK VINA RESULT:      -9.0      5.018      8.187
REMARK SMILES O=C(CSc1ccc(Cl)cc1)Nc1ccc(C(=O)NCCCCNC(=O)c2ccc(-c3c4nc(c(-c5c(F)c(F)c(F)c(F)c5F)c5ccc([nH]5)c(-c5c(F)c(F)c(F)c(F)c5F)c5nc(c(-c6c(F)c(F)c(F)c(F)c6F)c6ccc3[nH]6)C=C5)C=C4)cc2)cc1
REMARK SMILES IDX 20 1 19 2 17 3 18 4 16 6 13 7 14 8 91 9 15 10 90 11 12 12
REMARK SMILES IDX 1 13 2 14 3 16 4 17 5 18 6 19 11 20 7 21 10 22 8 23 9 24
REMARK SMILES IDX 21 25 22 26 23 27 24 28 25 29 26 31 27 32 28 33 89 34 29 35
REMARK SMILES IDX 88 36 30 37 31 38 32 39 82 40 33 41 87 42 81 43 83 44 34 45
REMARK SMILES IDX 86 46 80 47 79 48 35 50 67 51 47 52 66 53 48 54 51 55 65 56
REMARK SMILES IDX 84 57 49 58 50 59 64 61 85 62 52 63 36 64 37 65 45 66 38 67
REMARK SMILES IDX 39 68 43 69 46 70 40 71 41 72 44 73 42 74 68 75 69 76 77 77
REMARK SMILES IDX 70 78 71 79 75 80 78 81 72 82 73 83 76 84 74 85 53 86 54 87
REMARK SMILES IDX 62 88 55 89 56 90 60 91 63 92 57 93 58 94 61 95 59 96
REMARK H PARENT 19 5 12 15 24 30 83 49 51 60
REMARK Flexibility Score: inf
ROOT
ATOM      1  C   UNL A   1      31.041  29.797  24.959  1.00  0.00     0.116 C 
ENDROOT
BRANCH   1   2
ATOM      2  N   UNL A   1      31.958  29.732  23.837  1.00  0.00    -0.352 N 
ATOM      3  C   UNL A   1      32.819  28.753  23.408  1.00  0.00     0.251 C 
ATOM      4  O   UNL A   1      33.476  28.979  22.392  1.00  0.00    -0.269 OA
ATOM      5  H   UNL A   1      31.964  30.542  23.278  1.00  0.00     0.163 HD
BRANCH   3   6
ATOM      6  C   UNL A   1      32.944  27.421  24.070  1.00  0.00     0.039 A 
ATOM      7  C   UNL A   1      33.460  24.954  25.339  1.00  0.00     0.041 A 
ATOM      8  C   UNL A   1      33.887  26.146  25.925  1.00  0.00     0.027 A 
ATOM      9  C   UNL A   1      32.687  25.010  24.181  1.00  0.00     0.027 A 
ATOM     10  C   UNL A   1      33.652  27.368  25.281  1.00  0.00     0.016 A 
ATOM     11  C   UNL A   1      32.399  26.236  23.575  1.00  0.00     0.016 A 
BRANCH   7  12
ATOM     12  N   UNL A   1      33.820  23.740  25.949  1.00  0.00    -0.325 N 
ATOM     13  O   UNL A   1      36.101  23.724  25.518  1.00  0.00    -0.274 OA
ATOM     14  C   UNL A   1      35.091  23.191  25.975  1.00  0.00     0.234 C 
ATOM     15  H   UNL A   1      33.104  23.235  26.397  1.00  0.00     0.169 HD
BRANCH  14  16
ATOM     16  C   UNL A   1      35.181  21.793  26.571  1.00  0.00     0.175 C 
BRANCH  16  17
ATOM     17  S   UNL A   1      33.569  21.066  27.022  1.00  0.00    -0.116 SA
BRANCH  17  18
ATOM     18  C   UNL A   1      33.159  20.220  25.507  1.00  0.00     0.008 A 
ATOM     19  C   UNL A   1      33.137  18.822  25.493  1.00  0.00     0.016 A 
ATOM     20  C   UNL A   1      32.798  20.925  24.355  1.00  0.00     0.016 A 
ATOM     21  C   UNL A   1      32.776  18.132  24.333  1.00  0.00     0.021 A 
ATOM     22  C   UNL A   1      32.428  20.236  23.195  1.00  0.00     0.021 A 
ATOM     23  C   UNL A   1      32.421  18.842  23.189  1.00  0.00     0.041 A 
ATOM     24  Cl  UNL A   1      31.953  17.993  21.769  1.00  0.00    -0.084 Cl
ENDBRANCH  17  18
ENDBRANCH  16  17
ENDBRANCH  14  16
ENDBRANCH   7  12
ENDBRANCH   3   6
ENDBRANCH   1   2
BRANCH   1  25
ATOM     25  C   UNL A   1      31.766  30.293  26.214  1.00  0.00     0.023 C 
BRANCH  25  26
ATOM     26  C   UNL A   1      31.547  31.779  26.514  1.00  0.00     0.023 C 
BRANCH  26  27
ATOM     27  C   UNL A   1      32.723  32.474  27.191  1.00  0.00     0.116 C 
BRANCH  27  28
ATOM     28  N   UNL A   1      32.448  33.858  27.544  1.00  0.00    -0.352 N 
ATOM     29  C   UNL A   1      33.067  34.646  28.486  1.00  0.00     0.251 C 
ATOM     30  H   UNL A   1      31.719  34.289  27.042  1.00  0.00     0.163 HD
ATOM     31  O   UNL A   1      32.641  35.764  28.735  1.00  0.00    -0.269 OA
BRANCH  29  32
ATOM     32  C   UNL A   1      34.227  34.111  29.229  1.00  0.00     0.039 A 
ATOM     33  C   UNL A   1      33.999  33.150  30.217  1.00  0.00     0.014 A 
ATOM     34  C   UNL A   1      35.526  34.530  28.937  1.00  0.00     0.014 A 
ATOM     35  C   UNL A   1      35.084  32.556  30.863  1.00  0.00     0.010 A 
ATOM     36  C   UNL A   1      36.609  33.890  29.533  1.00  0.00     0.010 A 
ATOM     37  C   UNL A   1      36.397  32.893  30.497  1.00  0.00    -0.014 A 
BRANCH  37  38
ATOM     38  C   UNL A   1      37.558  32.187  31.096  1.00  0.00     0.031 A 
ATOM     39  C   UNL A   1      38.049  32.559  32.465  1.00  0.00     0.074 A 
ATOM     40  C   UNL A   1      38.204  31.252  30.374  1.00  0.00     0.049 A 
ATOM     41  N   UNL A   1      39.068  32.082  33.136  1.00  0.00    -0.248 NA
ATOM     42  C   UNL A   1      37.319  33.627  33.165  1.00  0.00     0.031 C 
ATOM     43  C   UNL A   1      37.858  30.848  29.010  1.00  0.00     0.029 A 
ATOM     44  N   UNL A   1      39.294  30.477  30.683  1.00  0.00    -0.354 N 
ATOM     45  C   UNL A   1      39.104  32.793  34.326  1.00  0.00     0.074 A 
ATOM     46  C   UNL A   1      38.040  33.773  34.266  1.00  0.00     0.031 C 
ATOM     47  C   UNL A   1      38.700  29.883  28.609  1.00  0.00     0.029 A 
ATOM     48  C   UNL A   1      39.666  29.624  29.673  1.00  0.00     0.049 A 
ATOM     49  H   UNL A   1      39.764  30.527  31.547  1.00  0.00     0.167 HD
ATOM     50  C   UNL A   1      39.933  32.628  35.385  1.00  0.00     0.037 A 
ATOM     51  C   UNL A   1      40.675  28.735  29.610  1.00  0.00     0.037 A 
ATOM     52  C   UNL A   1      40.976  31.638  35.448  1.00  0.00     0.049 A 
ATOM     53  C   UNL A   1      41.579  28.569  30.802  1.00  0.00     0.074 A 
ATOM     54  C   UNL A   1      41.827  31.346  36.501  1.00  0.00     0.029 A 
ATOM     55  N   UNL A   1      41.314  30.779  34.412  1.00  0.00    -0.354 N 
ATOM     56  N   UNL A   1      41.553  29.192  31.955  1.00  0.00    -0.248 NA
ATOM     57  C   UNL A   1      42.650  27.570  30.684  1.00  0.00     0.031 C 
ATOM     58  C   UNL A   1      42.710  30.344  36.085  1.00  0.00     0.029 A 
ATOM     59  C   UNL A   1      42.377  29.974  34.793  1.00  0.00     0.049 A 
ATOM     60  H   UNL A   1      40.866  30.746  33.537  1.00  0.00     0.167 HD
ATOM     61  C   UNL A   1      42.583  28.646  32.707  1.00  0.00     0.074 A 
ATOM     62  C   UNL A   1      43.202  27.626  31.887  1.00  0.00     0.031 C 
ATOM     63  C   UNL A   1      42.982  28.962  33.964  1.00  0.00     0.037 A 
BRANCH  50  64
ATOM     64  C   UNL A   1      39.742  33.535  36.566  1.00  0.00     0.064 A 
ATOM     65  C   UNL A   1      40.417  34.761  36.666  1.00  0.00     0.173 A 
ATOM     66  C   UNL A   1      38.843  33.194  37.589  1.00  0.00     0.173 A 
ATOM     67  F   UNL A   1      41.295  35.128  35.721  1.00  0.00    -0.203 F 
ATOM     68  C   UNL A   1      40.220  35.600  37.761  1.00  0.00     0.198 A 
ATOM     69  C   UNL A   1      38.627  34.049  38.666  1.00  0.00     0.198 A 
ATOM     70  F   UNL A   1      38.169  32.036  37.539  1.00  0.00    -0.203 F 
ATOM     71  F   UNL A   1      40.911  36.744  37.858  1.00  0.00    -0.200 F 
ATOM     72  C   UNL A   1      39.320  35.247  38.755  1.00  0.00     0.200 A 
ATOM     73  F   UNL A   1      37.748  33.714  39.620  1.00  0.00    -0.200 F 
ATOM     74  F   UNL A   1      39.126  36.060  39.802  1.00  0.00    -0.200 F 
ENDBRANCH  50  64
BRANCH  51  75
ATOM     75  C   UNL A   1      40.869  27.914  28.388  1.00  0.00     0.064 A 
ATOM     76  C   UNL A   1      40.265  26.654  28.264  1.00  0.00     0.173 A 
ATOM     77  C   UNL A   1      41.663  28.363  27.323  1.00  0.00     0.173 A 
ATOM     78  F   UNL A   1      39.512  26.172  29.265  1.00  0.00    -0.203 F 
ATOM     79  C   UNL A   1      40.467  25.867  27.133  1.00  0.00     0.198 A 
ATOM     80  C   UNL A   1      41.841  27.587  26.180  1.00  0.00     0.198 A 
ATOM     81  F   UNL A   1      42.258  29.564  27.390  1.00  0.00    -0.203 F 
ATOM     82  F   UNL A   1      39.918  24.646  27.062  1.00  0.00    -0.200 F 
ATOM     83  C   UNL A   1      41.251  26.335  26.090  1.00  0.00     0.200 A 
ATOM     84  F   UNL A   1      42.588  28.050  25.168  1.00  0.00    -0.200 F 
ATOM     85  F   UNL A   1      41.443  25.578  25.002  1.00  0.00    -0.200 F 
ENDBRANCH  51  75
BRANCH  63  86
ATOM     86  C   UNL A   1      44.128  28.179  34.535  1.00  0.00     0.064 A 
ATOM     87  C   UNL A   1      43.925  26.974  35.224  1.00  0.00     0.173 A 
ATOM     88  C   UNL A   1      45.447  28.628  34.370  1.00  0.00     0.173 A 
ATOM     89  F   UNL A   1      42.682  26.511  35.421  1.00  0.00    -0.203 F 
ATOM     90  C   UNL A   1      44.998  26.262  35.753  1.00  0.00     0.198 A 
ATOM     91  C   UNL A   1      46.521  27.897  34.872  1.00  0.00     0.198 A 
ATOM     92  F   UNL A   1      45.696  29.770  33.714  1.00  0.00    -0.203 F 
ATOM     93  F   UNL A   1      44.777  25.141  36.453  1.00  0.00    -0.200 F 
ATOM     94  C   UNL A   1      46.295  26.721  35.571  1.00  0.00     0.200 A 
ATOM     95  F   UNL A   1      47.774  28.335  34.686  1.00  0.00    -0.200 F 
ATOM     96  F   UNL A   1      47.327  26.033  36.079  1.00  0.00    -0.200 F 
ENDBRANCH  63  86
ENDBRANCH  37  38
ENDBRANCH  29  32
ENDBRANCH  27  28
ENDBRANCH  26  27
ENDBRANCH  25  26
ENDBRANCH   1  25
TORSDOF 15
ENDMDL
