MODEL 1
REMARK VINA RESULT:     -11.7      0.000      0.000
REMARK SMILES CSCC[C@@H](NC(=O)[C@@H]1CC(=O)N(C)C1)C(=O)NCCCCNC(=O)c1ccc(-c2c3nc(c(-c4c(F)c(F)c(F)c(F)c4F)c4ccc([nH]4)c(-c4c(F)c(F)c(F)c(F)c4F)c4nc(c(-c5c(F)c(F)c(F)c(F)c5F)c5ccc2[nH]5)C=C4)C=C3)cc1
REMARK SMILES IDX 20 1 19 2 18 3 16 4 17 5 5 7 4 8 3 9 2 10 1 11 6 12 7 13
REMARK SMILES IDX 8 15 9 16 10 17 15 18 11 19 13 20 12 21 14 22 21 23 22 24
REMARK SMILES IDX 23 25 24 26 25 28 26 29 27 30 88 31 28 32 87 33 29 34 30 35
REMARK SMILES IDX 31 36 81 37 32 38 86 39 80 40 82 41 33 42 85 43 79 44 78 45
REMARK SMILES IDX 34 47 66 48 46 49 65 50 47 51 50 52 64 53 83 54 48 55 49 56
REMARK SMILES IDX 63 58 84 59 51 60 35 61 36 62 44 63 37 64 38 65 42 66 45 67
REMARK SMILES IDX 39 68 40 69 43 70 41 71 67 72 68 73 76 74 69 75 70 76 74 77
REMARK SMILES IDX 77 78 71 79 72 80 75 81 73 82 52 83 53 84 61 85 54 86 55 87
REMARK SMILES IDX 59 88 62 89 56 90 57 91 60 92 58 93
REMARK H PARENT 18 6 6 14 23 27 82 46 50 57
REMARK Flexibility Score: inf
ROOT
ATOM      1  C   UNL A   1      31.698  30.646  26.036  1.00  0.00     0.023 C 
ENDROOT
BRANCH   1   2
ATOM      2  C   UNL A   1      32.304  29.626  27.002  1.00  0.00     0.116 C 
BRANCH   2   3
ATOM      3  N   UNL A   1      31.528  28.389  27.061  1.00  0.00    -0.354 N 
ATOM      4  C   UNL A   1      31.605  27.244  26.318  1.00  0.00     0.242 C 
ATOM      5  O   UNL A   1      30.958  26.266  26.703  1.00  0.00    -0.273 OA
ATOM      6  H   UNL A   1      30.829  28.379  27.754  1.00  0.00     0.163 HD
BRANCH   4   7
ATOM      7  C   UNL A   1      32.414  27.170  25.007  1.00  0.00     0.172 C 
BRANCH   7   8
ATOM      8  C   UNL A   1      33.753  26.488  25.411  1.00  0.00     0.046 C 
BRANCH   8   9
ATOM      9  C   UNL A   1      34.151  25.145  24.815  1.00  0.00     0.072 C 
BRANCH   9  10
ATOM     10  S   UNL A   1      33.473  23.716  25.710  1.00  0.00    -0.165 SA
ATOM     11  C   UNL A   1      33.522  22.486  24.394  1.00  0.00     0.085 C 
ENDBRANCH   9  10
ENDBRANCH   8   9
ENDBRANCH   7   8
BRANCH   7  12
ATOM     12  N   UNL A   1      31.678  26.604  23.859  1.00  0.00    -0.344 N 
ATOM     13  C   UNL A   1      31.083  27.309  22.822  1.00  0.00     0.226 C 
ATOM     14  H   UNL A   1      31.601  25.623  23.825  1.00  0.00     0.164 HD
ATOM     15  O   UNL A   1      31.135  26.826  21.691  1.00  0.00    -0.275 OA
BRANCH  13  16
ATOM     16  C   UNL A   1      30.282  28.568  23.121  1.00  0.00     0.107 C 
ATOM     17  C   UNL A   1      28.816  28.171  23.218  1.00  0.00     0.115 C 
ATOM     18  C   UNL A   1      30.222  29.651  22.031  1.00  0.00     0.133 C 
ATOM     19  C   UNL A   1      28.049  29.401  22.890  1.00  0.00     0.223 C 
ATOM     20  N   UNL A   1      28.891  30.224  22.189  1.00  0.00    -0.345 N 
ATOM     21  O   UNL A   1      26.879  29.594  23.185  1.00  0.00    -0.275 OA
ATOM     22  C   UNL A   1      28.476  31.513  21.689  1.00  0.00     0.146 C 
ENDBRANCH  13  16
ENDBRANCH   7  12
ENDBRANCH   4   7
ENDBRANCH   2   3
ENDBRANCH   1   2
BRANCH   1  23
ATOM     23  C   UNL A   1      31.395  32.028  26.622  1.00  0.00     0.023 C 
BRANCH  23  24
ATOM     24  C   UNL A   1      32.601  32.824  27.106  1.00  0.00     0.116 C 
BRANCH  24  25
ATOM     25  N   UNL A   1      32.279  34.132  27.639  1.00  0.00    -0.352 N 
ATOM     26  C   UNL A   1      32.968  34.889  28.556  1.00  0.00     0.251 C 
ATOM     27  H   UNL A   1      31.449  34.536  27.296  1.00  0.00     0.163 HD
ATOM     28  O   UNL A   1      32.538  35.992  28.880  1.00  0.00    -0.269 OA
BRANCH  26  29
ATOM     29  C   UNL A   1      34.185  34.358  29.212  1.00  0.00     0.039 A 
ATOM     30  C   UNL A   1      34.014  33.583  30.362  1.00  0.00     0.014 A 
ATOM     31  C   UNL A   1      35.470  34.599  28.720  1.00  0.00     0.014 A 
ATOM     32  C   UNL A   1      35.122  32.995  30.976  1.00  0.00     0.010 A 
ATOM     33  C   UNL A   1      36.569  33.955  29.296  1.00  0.00     0.010 A 
ATOM     34  C   UNL A   1      36.407  33.143  30.428  1.00  0.00    -0.014 A 
BRANCH  34  35
ATOM     35  C   UNL A   1      37.564  32.429  31.032  1.00  0.00     0.031 A 
ATOM     36  C   UNL A   1      38.063  32.791  32.403  1.00  0.00     0.074 A 
ATOM     37  C   UNL A   1      38.179  31.451  30.336  1.00  0.00     0.049 A 
ATOM     38  N   UNL A   1      39.042  32.259  33.095  1.00  0.00    -0.248 NA
ATOM     39  C   UNL A   1      37.383  33.903  33.084  1.00  0.00     0.031 C 
ATOM     40  C   UNL A   1      37.820  31.030  28.982  1.00  0.00     0.029 A 
ATOM     41  N   UNL A   1      39.234  30.637  30.669  1.00  0.00    -0.354 N 
ATOM     42  C   UNL A   1      39.095  32.971  34.286  1.00  0.00     0.074 A 
ATOM     43  C   UNL A   1      38.085  34.005  34.203  1.00  0.00     0.031 C 
ATOM     44  C   UNL A   1      38.619  30.017  28.610  1.00  0.00     0.029 A 
ATOM     45  C   UNL A   1      39.575  29.743  29.682  1.00  0.00     0.049 A 
ATOM     46  H   UNL A   1      39.701  30.687  31.534  1.00  0.00     0.167 HD
ATOM     47  C   UNL A   1      39.898  32.769  35.359  1.00  0.00     0.037 A 
ATOM     48  C   UNL A   1      40.550  28.815  29.638  1.00  0.00     0.037 A 
ATOM     49  C   UNL A   1      40.901  31.737  35.443  1.00  0.00     0.049 A 
ATOM     50  C   UNL A   1      41.449  28.632  30.831  1.00  0.00     0.074 A 
ATOM     51  C   UNL A   1      41.727  31.422  36.509  1.00  0.00     0.029 A 
ATOM     52  N   UNL A   1      41.224  30.860  34.417  1.00  0.00    -0.354 N 
ATOM     53  N   UNL A   1      41.439  29.260  31.981  1.00  0.00    -0.248 NA
ATOM     54  C   UNL A   1      42.494  27.604  30.722  1.00  0.00     0.031 C 
ATOM     55  C   UNL A   1      42.592  30.400  36.107  1.00  0.00     0.029 A 
ATOM     56  C   UNL A   1      42.259  30.027  34.815  1.00  0.00     0.049 A 
ATOM     57  H   UNL A   1      40.784  30.833  33.538  1.00  0.00     0.167 HD
ATOM     58  C   UNL A   1      42.447  28.683  32.742  1.00  0.00     0.074 A 
ATOM     59  C   UNL A   1      43.042  27.645  31.928  1.00  0.00     0.031 C 
ATOM     60  C   UNL A   1      42.842  28.989  34.003  1.00  0.00     0.037 A 
BRANCH  47  61
ATOM     61  C   UNL A   1      39.734  33.690  36.535  1.00  0.00     0.064 A 
ATOM     62  C   UNL A   1      40.371  34.940  36.589  1.00  0.00     0.173 A 
ATOM     63  C   UNL A   1      38.893  33.337  37.602  1.00  0.00     0.173 A 
ATOM     64  F   UNL A   1      41.190  35.324  35.599  1.00  0.00    -0.203 F 
ATOM     65  C   UNL A   1      40.195  35.787  37.680  1.00  0.00     0.198 A 
ATOM     66  C   UNL A   1      38.694  34.201  38.675  1.00  0.00     0.198 A 
ATOM     67  F   UNL A   1      38.251  32.159  37.598  1.00  0.00    -0.203 F 
ATOM     68  F   UNL A   1      40.854  36.954  37.733  1.00  0.00    -0.200 F 
ATOM     69  C   UNL A   1      39.352  35.421  38.719  1.00  0.00     0.200 A 
ATOM     70  F   UNL A   1      37.863  33.854  39.669  1.00  0.00    -0.200 F 
ATOM     71  F   UNL A   1      39.177  36.242  39.763  1.00  0.00    -0.200 F 
ENDBRANCH  47  61
BRANCH  48  72
ATOM     72  C   UNL A   1      40.721  27.975  28.422  1.00  0.00     0.064 A 
ATOM     73  C   UNL A   1      40.109  26.719  28.319  1.00  0.00     0.173 A 
ATOM     74  C   UNL A   1      41.511  28.405  27.346  1.00  0.00     0.173 A 
ATOM     75  F   UNL A   1      39.362  26.252  29.330  1.00  0.00    -0.203 F 
ATOM     76  C   UNL A   1      40.298  25.915  27.196  1.00  0.00     0.198 A 
ATOM     77  C   UNL A   1      41.672  27.615  26.210  1.00  0.00     0.198 A 
ATOM     78  F   UNL A   1      42.118  29.600  27.393  1.00  0.00    -0.203 F 
ATOM     79  F   UNL A   1      39.745  24.695  27.146  1.00  0.00    -0.200 F 
ATOM     80  C   UNL A   1      41.074  26.367  26.140  1.00  0.00     0.200 A 
ATOM     81  F   UNL A   1      42.411  28.062  25.185  1.00  0.00    -0.200 F 
ATOM     82  F   UNL A   1      41.254  25.595  25.058  1.00  0.00    -0.200 F 
ENDBRANCH  48  72
BRANCH  60  83
ATOM     83  C   UNL A   1      43.944  28.162  34.604  1.00  0.00     0.064 A 
ATOM     84  C   UNL A   1      45.287  28.564  34.552  1.00  0.00     0.173 A 
ATOM     85  C   UNL A   1      43.644  26.968  35.280  1.00  0.00     0.173 A 
ATOM     86  F   UNL A   1      45.631  29.689  33.907  1.00  0.00    -0.203 F 
ATOM     87  C   UNL A   1      46.291  27.788  35.129  1.00  0.00     0.198 A 
ATOM     88  C   UNL A   1      44.645  26.213  35.886  1.00  0.00     0.198 A 
ATOM     89  F   UNL A   1      42.375  26.539  35.366  1.00  0.00    -0.203 F 
ATOM     90  F   UNL A   1      47.572  28.166  35.022  1.00  0.00    -0.200 F 
ATOM     91  C   UNL A   1      45.968  26.619  35.803  1.00  0.00     0.200 A 
ATOM     92  F   UNL A   1      44.329  25.093  36.550  1.00  0.00    -0.200 F 
ATOM     93  F   UNL A   1      46.934  25.881  36.366  1.00  0.00    -0.200 F 
ENDBRANCH  60  83
ENDBRANCH  34  35
ENDBRANCH  26  29
ENDBRANCH  24  25
ENDBRANCH  23  24
ENDBRANCH   1  23
TORSDOF 16
ENDMDL
MODEL 2
REMARK VINA RESULT:     -11.3      0.609      1.783
REMARK SMILES CSCC[C@@H](NC(=O)[C@@H]1CC(=O)N(C)C1)C(=O)NCCCCNC(=O)c1ccc(-c2c3nc(c(-c4c(F)c(F)c(F)c(F)c4F)c4ccc([nH]4)c(-c4c(F)c(F)c(F)c(F)c4F)c4nc(c(-c5c(F)c(F)c(F)c(F)c5F)c5ccc2[nH]5)C=C4)C=C3)cc1
REMARK SMILES IDX 20 1 19 2 18 3 16 4 17 5 5 7 4 8 3 9 2 10 1 11 6 12 7 13
REMARK SMILES IDX 8 15 9 16 10 17 15 18 11 19 13 20 12 21 14 22 21 23 22 24
REMARK SMILES IDX 23 25 24 26 25 28 26 29 27 30 88 31 28 32 87 33 29 34 30 35
REMARK SMILES IDX 31 36 81 37 32 38 86 39 80 40 82 41 33 42 85 43 79 44 78 45
REMARK SMILES IDX 34 47 66 48 46 49 65 50 47 51 50 52 64 53 83 54 48 55 49 56
REMARK SMILES IDX 63 58 84 59 51 60 35 61 36 62 44 63 37 64 38 65 42 66 45 67
REMARK SMILES IDX 39 68 40 69 43 70 41 71 67 72 68 73 76 74 69 75 70 76 74 77
REMARK SMILES IDX 77 78 71 79 72 80 75 81 73 82 52 83 53 84 61 85 54 86 55 87
REMARK SMILES IDX 59 88 62 89 56 90 57 91 60 92 58 93
REMARK H PARENT 18 6 6 14 23 27 82 46 50 57
REMARK Flexibility Score: inf
ROOT
ATOM      1  C   UNL A   1      31.714  30.640  26.192  1.00  0.00     0.023 C 
ENDROOT
BRANCH   1   2
ATOM      2  C   UNL A   1      32.263  29.518  27.076  1.00  0.00     0.116 C 
BRANCH   2   3
ATOM      3  N   UNL A   1      31.395  28.342  27.080  1.00  0.00    -0.354 N 
ATOM      4  C   UNL A   1      31.412  27.210  26.315  1.00  0.00     0.242 C 
ATOM      5  O   UNL A   1      30.680  26.275  26.655  1.00  0.00    -0.273 OA
ATOM      6  H   UNL A   1      30.673  28.370  27.749  1.00  0.00     0.163 HD
BRANCH   4   7
ATOM      7  C   UNL A   1      32.258  27.102  25.029  1.00  0.00     0.172 C 
BRANCH   7   8
ATOM      8  C   UNL A   1      33.545  26.347  25.470  1.00  0.00     0.046 C 
BRANCH   8   9
ATOM      9  C   UNL A   1      34.280  25.432  24.499  1.00  0.00     0.072 C 
BRANCH   9  10
ATOM     10  S   UNL A   1      34.257  23.680  24.983  1.00  0.00    -0.165 SA
ATOM     11  C   UNL A   1      33.222  23.788  26.453  1.00  0.00     0.085 C 
ENDBRANCH   9  10
ENDBRANCH   8   9
ENDBRANCH   7   8
BRANCH   7  12
ATOM     12  N   UNL A   1      31.531  26.584  23.853  1.00  0.00    -0.344 N 
ATOM     13  C   UNL A   1      31.004  27.327  22.807  1.00  0.00     0.226 C 
ATOM     14  H   UNL A   1      31.406  25.608  23.807  1.00  0.00     0.164 HD
ATOM     15  O   UNL A   1      31.067  26.853  21.673  1.00  0.00    -0.275 OA
BRANCH  13  16
ATOM     16  C   UNL A   1      30.257  28.623  23.095  1.00  0.00     0.107 C 
ATOM     17  C   UNL A   1      28.775  28.291  23.180  1.00  0.00     0.115 C 
ATOM     18  C   UNL A   1      30.256  29.703  22.001  1.00  0.00     0.133 C 
ATOM     19  C   UNL A   1      28.066  29.554  22.841  1.00  0.00     0.223 C 
ATOM     20  N   UNL A   1      28.950  30.336  22.145  1.00  0.00    -0.345 N 
ATOM     21  O   UNL A   1      26.904  29.800  23.126  1.00  0.00    -0.275 OA
ATOM     22  C   UNL A   1      28.598  31.641  21.638  1.00  0.00     0.146 C 
ENDBRANCH  13  16
ENDBRANCH   7  12
ENDBRANCH   4   7
ENDBRANCH   2   3
ENDBRANCH   1   2
BRANCH   1  23
ATOM     23  C   UNL A   1      31.508  31.994  26.877  1.00  0.00     0.023 C 
BRANCH  23  24
ATOM     24  C   UNL A   1      32.692  32.952  26.828  1.00  0.00     0.116 C 
BRANCH  24  25
ATOM     25  N   UNL A   1      32.526  34.149  27.627  1.00  0.00    -0.352 N 
ATOM     26  C   UNL A   1      33.286  34.603  28.677  1.00  0.00     0.251 C 
ATOM     27  H   UNL A   1      31.760  34.718  27.382  1.00  0.00     0.163 HD
ATOM     28  O   UNL A   1      32.992  35.660  29.229  1.00  0.00    -0.269 OA
BRANCH  26  29
ATOM     29  C   UNL A   1      34.413  33.797  29.198  1.00  0.00     0.039 A 
ATOM     30  C   UNL A   1      35.709  34.211  28.878  1.00  0.00     0.014 A 
ATOM     31  C   UNL A   1      34.222  32.661  29.989  1.00  0.00     0.014 A 
ATOM     32  C   UNL A   1      36.808  33.531  29.406  1.00  0.00     0.010 A 
ATOM     33  C   UNL A   1      35.322  32.023  30.571  1.00  0.00     0.010 A 
ATOM     34  C   UNL A   1      36.627  32.454  30.289  1.00  0.00    -0.014 A 
BRANCH  34  35
ATOM     35  C   UNL A   1      37.804  31.802  30.925  1.00  0.00     0.031 A 
ATOM     36  C   UNL A   1      38.245  32.191  32.308  1.00  0.00     0.074 A 
ATOM     37  C   UNL A   1      38.488  30.857  30.249  1.00  0.00     0.049 A 
ATOM     38  N   UNL A   1      39.232  31.713  33.028  1.00  0.00    -0.248 NA
ATOM     39  C   UNL A   1      37.490  33.267  32.967  1.00  0.00     0.031 C 
ATOM     40  C   UNL A   1      38.188  30.416  28.886  1.00  0.00     0.029 A 
ATOM     41  N   UNL A   1      39.574  30.100  30.613  1.00  0.00    -0.354 N 
ATOM     42  C   UNL A   1      39.214  32.428  34.218  1.00  0.00     0.074 A 
ATOM     43  C   UNL A   1      38.155  33.408  34.105  1.00  0.00     0.031 C 
ATOM     44  C   UNL A   1      39.049  29.446  28.540  1.00  0.00     0.029 A 
ATOM     45  C   UNL A   1      39.988  29.224  29.637  1.00  0.00     0.049 A 
ATOM     46  H   UNL A   1      40.015  30.175  31.490  1.00  0.00     0.167 HD
ATOM     47  C   UNL A   1      39.998  32.270  35.313  1.00  0.00     0.037 A 
ATOM     48  C   UNL A   1      41.011  28.348  29.622  1.00  0.00     0.037 A 
ATOM     49  C   UNL A   1      41.051  31.291  35.427  1.00  0.00     0.049 A 
ATOM     50  C   UNL A   1      41.886  28.214  30.840  1.00  0.00     0.074 A 
ATOM     51  C   UNL A   1      41.863  31.022  36.516  1.00  0.00     0.029 A 
ATOM     52  N   UNL A   1      41.447  30.431  34.413  1.00  0.00    -0.354 N 
ATOM     53  N   UNL A   1      41.811  28.842  31.988  1.00  0.00    -0.248 NA
ATOM     54  C   UNL A   1      42.986  27.242  30.762  1.00  0.00     0.031 C 
ATOM     55  C   UNL A   1      42.791  30.045  36.141  1.00  0.00     0.029 A 
ATOM     56  C   UNL A   1      42.513  29.654  34.841  1.00  0.00     0.049 A 
ATOM     57  H   UNL A   1      41.033  30.380  33.522  1.00  0.00     0.167 HD
ATOM     58  C   UNL A   1      42.827  28.319  32.777  1.00  0.00     0.074 A 
ATOM     59  C   UNL A   1      43.498  27.313  31.983  1.00  0.00     0.031 C 
ATOM     60  C   UNL A   1      43.171  28.647  34.048  1.00  0.00     0.037 A 
BRANCH  47  61
ATOM     61  C   UNL A   1      39.754  33.182  36.482  1.00  0.00     0.064 A 
ATOM     62  C   UNL A   1      40.426  34.407  36.616  1.00  0.00     0.173 A 
ATOM     63  C   UNL A   1      38.802  32.848  37.458  1.00  0.00     0.173 A 
ATOM     64  F   UNL A   1      41.351  34.772  35.715  1.00  0.00    -0.203 F 
ATOM     65  C   UNL A   1      40.177  35.247  37.698  1.00  0.00     0.198 A 
ATOM     66  C   UNL A   1      38.531  33.706  38.519  1.00  0.00     0.198 A 
ATOM     67  F   UNL A   1      38.122  31.695  37.374  1.00  0.00    -0.203 F 
ATOM     68  F   UNL A   1      40.868  36.388  37.831  1.00  0.00    -0.200 F 
ATOM     69  C   UNL A   1      39.224  34.901  38.645  1.00  0.00     0.200 A 
ATOM     70  F   UNL A   1      37.596  33.378  39.423  1.00  0.00    -0.200 F 
ATOM     71  F   UNL A   1      38.979  35.715  39.680  1.00  0.00    -0.200 F 
ENDBRANCH  47  61
BRANCH  48  72
ATOM     72  C   UNL A   1      41.259  27.517  28.414  1.00  0.00     0.064 A 
ATOM     73  C   UNL A   1      42.170  27.926  27.430  1.00  0.00     0.173 A 
ATOM     74  C   UNL A   1      40.582  26.306  28.211  1.00  0.00     0.173 A 
ATOM     75  F   UNL A   1      42.827  29.087  27.565  1.00  0.00    -0.203 F 
ATOM     76  C   UNL A   1      42.376  27.166  26.279  1.00  0.00     0.198 A 
ATOM     77  C   UNL A   1      40.813  25.532  27.077  1.00  0.00     0.198 A 
ATOM     78  F   UNL A   1      39.700  25.868  29.123  1.00  0.00    -0.203 F 
ATOM     79  F   UNL A   1      43.213  27.606  25.329  1.00  0.00    -0.200 F 
ATOM     80  C   UNL A   1      41.703  25.966  26.107  1.00  0.00     0.200 A 
ATOM     81  F   UNL A   1      40.171  24.366  26.922  1.00  0.00    -0.200 F 
ATOM     82  F   UNL A   1      41.903  25.235  25.002  1.00  0.00    -0.200 F 
ENDBRANCH  48  72
BRANCH  60  83
ATOM     83  C   UNL A   1      44.298  27.879  34.681  1.00  0.00     0.064 A 
ATOM     84  C   UNL A   1      44.084  26.672  35.362  1.00  0.00     0.173 A 
ATOM     85  C   UNL A   1      45.620  28.341  34.566  1.00  0.00     0.173 A 
ATOM     86  F   UNL A   1      42.841  26.192  35.512  1.00  0.00    -0.203 F 
ATOM     87  C   UNL A   1      45.147  25.970  35.928  1.00  0.00     0.198 A 
ATOM     88  C   UNL A   1      46.683  27.619  35.103  1.00  0.00     0.198 A 
ATOM     89  F   UNL A   1      45.883  29.487  33.920  1.00  0.00    -0.203 F 
ATOM     90  F   UNL A   1      44.912  24.845  36.618  1.00  0.00    -0.200 F 
ATOM     91  C   UNL A   1      46.445  26.439  35.790  1.00  0.00     0.200 A 
ATOM     92  F   UNL A   1      47.937  28.066  34.954  1.00  0.00    -0.200 F 
ATOM     93  F   UNL A   1      47.466  25.756  36.327  1.00  0.00    -0.200 F 
ENDBRANCH  60  83
ENDBRANCH  34  35
ENDBRANCH  26  29
ENDBRANCH  24  25
ENDBRANCH  23  24
ENDBRANCH   1  23
TORSDOF 16
ENDMDL
MODEL 3
REMARK VINA RESULT:     -11.3      6.112     10.627
REMARK SMILES CSCC[C@@H](NC(=O)[C@@H]1CC(=O)N(C)C1)C(=O)NCCCCNC(=O)c1ccc(-c2c3nc(c(-c4c(F)c(F)c(F)c(F)c4F)c4ccc([nH]4)c(-c4c(F)c(F)c(F)c(F)c4F)c4nc(c(-c5c(F)c(F)c(F)c(F)c5F)c5ccc2[nH]5)C=C4)C=C3)cc1
REMARK SMILES IDX 20 1 19 2 18 3 16 4 17 5 5 7 4 8 3 9 2 10 1 11 6 12 7 13
REMARK SMILES IDX 8 15 9 16 10 17 15 18 11 19 13 20 12 21 14 22 21 23 22 24
REMARK SMILES IDX 23 25 24 26 25 28 26 29 27 30 88 31 28 32 87 33 29 34 30 35
REMARK SMILES IDX 31 36 81 37 32 38 86 39 80 40 82 41 33 42 85 43 79 44 78 45
REMARK SMILES IDX 34 47 66 48 46 49 65 50 47 51 50 52 64 53 83 54 48 55 49 56
REMARK SMILES IDX 63 58 84 59 51 60 35 61 36 62 44 63 37 64 38 65 42 66 45 67
REMARK SMILES IDX 39 68 40 69 43 70 41 71 67 72 68 73 76 74 69 75 70 76 74 77
REMARK SMILES IDX 77 78 71 79 72 80 75 81 73 82 52 83 53 84 61 85 54 86 55 87
REMARK SMILES IDX 59 88 62 89 56 90 57 91 60 92 58 93
REMARK H PARENT 18 6 6 14 23 27 82 46 50 57
REMARK Flexibility Score: inf
ROOT
ATOM      1  C   UNL A   1      37.355  20.769  24.644  1.00  0.00     0.023 C 
ENDROOT
BRANCH   1   2
ATOM      2  C   UNL A   1      37.107  21.780  25.765  1.00  0.00     0.116 C 
BRANCH   2   3
ATOM      3  N   UNL A   1      36.235  22.874  25.340  1.00  0.00    -0.354 N 
ATOM      4  C   UNL A   1      34.873  22.967  25.283  1.00  0.00     0.242 C 
ATOM      5  O   UNL A   1      34.381  24.079  25.070  1.00  0.00    -0.273 OA
ATOM      6  H   UNL A   1      36.711  23.683  25.043  1.00  0.00     0.163 HD
BRANCH   4   7
ATOM      7  C   UNL A   1      33.960  21.729  25.413  1.00  0.00     0.172 C 
BRANCH   7   8
ATOM      8  C   UNL A   1      32.747  22.224  26.252  1.00  0.00     0.046 C 
BRANCH   8   9
ATOM      9  C   UNL A   1      31.342  22.212  25.667  1.00  0.00     0.072 C 
BRANCH   9  10
ATOM     10  S   UNL A   1      30.958  23.671  24.652  1.00  0.00    -0.165 SA
ATOM     11  C   UNL A   1      30.654  24.874  25.959  1.00  0.00     0.085 C 
ENDBRANCH   9  10
ENDBRANCH   8   9
ENDBRANCH   7   8
BRANCH   7  12
ATOM     12  N   UNL A   1      33.674  21.037  24.141  1.00  0.00    -0.344 N 
ATOM     13  C   UNL A   1      33.007  19.831  23.981  1.00  0.00     0.226 C 
ATOM     14  H   UNL A   1      33.992  21.477  23.319  1.00  0.00     0.164 HD
ATOM     15  O   UNL A   1      32.260  19.709  23.010  1.00  0.00    -0.275 OA
BRANCH  13  16
ATOM     16  C   UNL A   1      33.307  18.666  24.914  1.00  0.00     0.107 C 
ATOM     17  C   UNL A   1      34.476  17.892  24.322  1.00  0.00     0.115 C 
ATOM     18  C   UNL A   1      32.249  17.557  25.034  1.00  0.00     0.133 C 
ATOM     19  C   UNL A   1      34.345  16.509  24.853  1.00  0.00     0.223 C 
ATOM     20  N   UNL A   1      33.040  16.349  25.239  1.00  0.00    -0.345 N 
ATOM     21  O   UNL A   1      35.250  15.690  24.898  1.00  0.00    -0.275 OA
ATOM     22  C   UNL A   1      32.540  15.113  25.792  1.00  0.00     0.146 C 
ENDBRANCH  13  16
ENDBRANCH   7  12
ENDBRANCH   4   7
ENDBRANCH   2   3
ENDBRANCH   1   2
BRANCH   1  23
ATOM     23  C   UNL A   1      38.242  19.573  25.005  1.00  0.00     0.023 C 
BRANCH  23  24
ATOM     24  C   UNL A   1      39.437  19.877  25.900  1.00  0.00     0.116 C 
BRANCH  24  25
ATOM     25  N   UNL A   1      40.501  18.896  25.830  1.00  0.00    -0.352 N 
ATOM     26  C   UNL A   1      41.842  19.051  26.085  1.00  0.00     0.251 C 
ATOM     27  H   UNL A   1      40.224  17.990  25.561  1.00  0.00     0.163 HD
ATOM     28  O   UNL A   1      42.597  18.088  25.982  1.00  0.00    -0.269 OA
BRANCH  26  29
ATOM     29  C   UNL A   1      42.399  20.383  26.414  1.00  0.00     0.039 A 
ATOM     30  C   UNL A   1      42.984  21.114  25.376  1.00  0.00     0.014 A 
ATOM     31  C   UNL A   1      42.352  20.921  27.702  1.00  0.00     0.014 A 
ATOM     32  C   UNL A   1      43.456  22.406  25.614  1.00  0.00     0.010 A 
ATOM     33  C   UNL A   1      42.764  22.238  27.924  1.00  0.00     0.010 A 
ATOM     34  C   UNL A   1      43.317  22.997  26.881  1.00  0.00    -0.014 A 
BRANCH  34  35
ATOM     35  C   UNL A   1      43.730  24.410  27.097  1.00  0.00     0.031 A 
ATOM     36  C   UNL A   1      42.752  25.429  27.610  1.00  0.00     0.074 A 
ATOM     37  C   UNL A   1      44.996  24.782  26.820  1.00  0.00     0.049 A 
ATOM     38  N   UNL A   1      42.944  26.698  27.881  1.00  0.00    -0.248 NA
ATOM     39  C   UNL A   1      41.374  24.970  27.838  1.00  0.00     0.031 C 
ATOM     40  C   UNL A   1      46.033  23.902  26.281  1.00  0.00     0.029 A 
ATOM     41  N   UNL A   1      45.626  25.995  26.953  1.00  0.00    -0.354 N 
ATOM     42  C   UNL A   1      41.715  27.184  28.308  1.00  0.00     0.074 A 
ATOM     43  C   UNL A   1      40.773  26.090  28.211  1.00  0.00     0.031 C 
ATOM     44  C   UNL A   1      47.176  24.594  26.156  1.00  0.00     0.029 A 
ATOM     45  C   UNL A   1      46.946  25.978  26.567  1.00  0.00     0.049 A 
ATOM     46  H   UNL A   1      45.177  26.803  27.294  1.00  0.00     0.167 HD
ATOM     47  C   UNL A   1      41.405  28.425  28.757  1.00  0.00     0.037 A 
ATOM     48  C   UNL A   1      47.864  26.963  26.537  1.00  0.00     0.037 A 
ATOM     49  C   UNL A   1      42.344  29.514  28.857  1.00  0.00     0.049 A 
ATOM     50  C   UNL A   1      47.485  28.340  27.013  1.00  0.00     0.074 A 
ATOM     51  C   UNL A   1      42.134  30.791  29.350  1.00  0.00     0.029 A 
ATOM     52  N   UNL A   1      43.667  29.459  28.445  1.00  0.00    -0.354 N 
ATOM     53  N   UNL A   1      46.340  28.768  27.487  1.00  0.00    -0.248 NA
ATOM     54  C   UNL A   1      48.530  29.372  26.956  1.00  0.00     0.031 C 
ATOM     55  C   UNL A   1      43.310  31.527  29.176  1.00  0.00     0.029 A 
ATOM     56  C   UNL A   1      44.276  30.690  28.642  1.00  0.00     0.049 A 
ATOM     57  H   UNL A   1      44.110  28.665  28.068  1.00  0.00     0.167 HD
ATOM     58  C   UNL A   1      46.536  30.103  27.814  1.00  0.00     0.074 A 
ATOM     59  C   UNL A   1      47.914  30.413  27.498  1.00  0.00     0.031 C 
ATOM     60  C   UNL A   1      45.651  30.990  28.332  1.00  0.00     0.037 A 
BRANCH  47  61
ATOM     61  C   UNL A   1      39.983  28.680  29.173  1.00  0.00     0.064 A 
ATOM     62  C   UNL A   1      39.020  29.146  28.264  1.00  0.00     0.173 A 
ATOM     63  C   UNL A   1      39.567  28.413  30.486  1.00  0.00     0.173 A 
ATOM     64  F   UNL A   1      39.365  29.423  26.997  1.00  0.00    -0.203 F 
ATOM     65  C   UNL A   1      37.704  29.362  28.662  1.00  0.00     0.198 A 
ATOM     66  C   UNL A   1      38.243  28.598  30.872  1.00  0.00     0.198 A 
ATOM     67  F   UNL A   1      40.443  27.956  31.394  1.00  0.00    -0.203 F 
ATOM     68  F   UNL A   1      36.814  29.856  27.788  1.00  0.00    -0.200 F 
ATOM     69  C   UNL A   1      37.314  29.082  29.963  1.00  0.00     0.200 A 
ATOM     70  F   UNL A   1      37.863  28.309  32.125  1.00  0.00    -0.200 F 
ATOM     71  F   UNL A   1      36.044  29.282  30.341  1.00  0.00    -0.200 F 
ENDBRANCH  47  61
BRANCH  48  72
ATOM     72  C   UNL A   1      49.240  26.680  26.049  1.00  0.00     0.064 A 
ATOM     73  C   UNL A   1      49.610  26.963  24.727  1.00  0.00     0.173 A 
ATOM     74  C   UNL A   1      50.208  26.110  26.888  1.00  0.00     0.173 A 
ATOM     75  F   UNL A   1      48.715  27.488  23.877  1.00  0.00    -0.203 F 
ATOM     76  C   UNL A   1      50.889  26.664  24.257  1.00  0.00     0.198 A 
ATOM     77  C   UNL A   1      51.495  25.843  26.427  1.00  0.00     0.198 A 
ATOM     78  F   UNL A   1      49.906  25.820  28.163  1.00  0.00    -0.203 F 
ATOM     79  F   UNL A   1      51.200  26.896  22.974  1.00  0.00    -0.200 F 
ATOM     80  C   UNL A   1      51.832  26.111  25.110  1.00  0.00     0.200 A 
ATOM     81  F   UNL A   1      52.407  25.321  27.259  1.00  0.00    -0.200 F 
ATOM     82  F   UNL A   1      53.062  25.827  24.659  1.00  0.00    -0.200 F 
ENDBRANCH  48  72
BRANCH  60  83
ATOM     83  C   UNL A   1      46.153  32.375  28.633  1.00  0.00     0.064 A 
ATOM     84  C   UNL A   1      46.075  33.414  27.694  1.00  0.00     0.173 A 
ATOM     85  C   UNL A   1      46.683  32.675  29.899  1.00  0.00     0.173 A 
ATOM     86  F   UNL A   1      45.590  33.179  26.465  1.00  0.00    -0.203 F 
ATOM     87  C   UNL A   1      46.533  34.694  28.000  1.00  0.00     0.198 A 
ATOM     88  C   UNL A   1      47.108  33.964  30.213  1.00  0.00     0.198 A 
ATOM     89  F   UNL A   1      46.776  31.721  30.838  1.00  0.00    -0.203 F 
ATOM     90  F   UNL A   1      46.495  35.657  27.070  1.00  0.00    -0.200 F 
ATOM     91  C   UNL A   1      47.040  34.970  29.262  1.00  0.00     0.200 A 
ATOM     92  F   UNL A   1      47.582  34.231  31.438  1.00  0.00    -0.200 F 
ATOM     93  F   UNL A   1      47.471  36.204  29.557  1.00  0.00    -0.200 F 
ENDBRANCH  60  83
ENDBRANCH  34  35
ENDBRANCH  26  29
ENDBRANCH  24  25
ENDBRANCH  23  24
ENDBRANCH   1  23
TORSDOF 16
ENDMDL
