MODEL 1
REMARK VINA RESULT:     -14.2      0.000      0.000
REMARK SMILES CC(C)=C1[C@H]2CC[C@@H]1[C@H](C(=O)NNC(=O)c1ccoc1C)[C@H]2C(=O)NCCCCNC(=O)c1ccc(-c2c3nc(c(-c4c(F)c(F)c(F)c(F)c4F)c4ccc([nH]4)c(-c4c(F)c(F)c(F)c(F)c4F)c4nc(c(-c5c(F)c(F)c(F)c(F)c5F)c5ccc2[nH]5)C=C4)C=C3)cc1
REMARK SMILES IDX 27 1 26 2 25 3 23 4 24 5 22 7 1 8 2 9 3 10 4 11 5 12 8 13
REMARK SMILES IDX 6 14 7 15 9 16 10 17 11 18 12 19 13 21 14 22 15 24 16 25
REMARK SMILES IDX 17 26 20 27 18 28 19 29 21 30 28 31 29 32 30 33 31 34 32 36
REMARK SMILES IDX 33 37 34 38 95 39 35 40 94 41 36 42 37 43 38 44 88 45 39 46
REMARK SMILES IDX 93 47 87 48 89 49 40 50 92 51 86 52 85 53 41 55 73 56 53 57
REMARK SMILES IDX 72 58 54 59 57 60 71 61 90 62 55 63 56 64 70 66 91 67 58 68
REMARK SMILES IDX 42 69 43 70 51 71 44 72 45 73 49 74 52 75 46 76 47 77 50 78
REMARK SMILES IDX 48 79 74 80 75 81 83 82 76 83 77 84 81 85 84 86 78 87 79 88
REMARK SMILES IDX 82 89 80 90 59 91 60 92 68 93 61 94 62 95 66 96 69 97 63 98
REMARK SMILES IDX 64 99 67 100 65 101
REMARK H PARENT 25 6 12 20 13 23 30 35 89 54 57 65
REMARK Flexibility Score: inf
ROOT
ATOM      1  C   UNL A   1      32.028  30.698  26.286  1.00  0.00     0.023 C 
ENDROOT
BRANCH   1   2
ATOM      2  C   UNL A   1      32.626  29.705  27.274  1.00  0.00     0.116 C 
BRANCH   2   3
ATOM      3  N   UNL A   1      31.803  28.521  27.377  1.00  0.00    -0.356 N 
ATOM      4  C   UNL A   1      31.560  27.498  26.526  1.00  0.00     0.224 C 
ATOM      5  O   UNL A   1      30.660  26.722  26.872  1.00  0.00    -0.275 OA
ATOM      6  H   UNL A   1      31.326  28.444  28.235  1.00  0.00     0.163 HD
BRANCH   4   7
ATOM      7  C   UNL A   1      32.315  27.229  25.226  1.00  0.00     0.098 C 
ATOM      8  C   UNL A   1      30.623  23.291  23.164  1.00  0.00     0.039 C 
ATOM      9  C   UNL A   1      31.581  23.833  24.189  1.00  0.00    -0.077 C 
ATOM     10  C   UNL A   1      32.075  22.815  25.188  1.00  0.00     0.039 C 
ATOM     11  C   UNL A   1      32.011  25.108  24.170  1.00  0.00    -0.064 C 
ATOM     12  C   UNL A   1      32.973  25.842  25.066  1.00  0.00     0.028 C 
ATOM     13  C   UNL A   1      31.877  26.169  23.102  1.00  0.00     0.028 C 
ATOM     14  C   UNL A   1      34.115  25.977  24.039  1.00  0.00     0.009 C 
ATOM     15  C   UNL A   1      33.369  26.190  22.700  1.00  0.00     0.009 C 
ATOM     16  C   UNL A   1      31.492  27.413  23.932  1.00  0.00     0.100 C 
BRANCH  16  17
ATOM     17  C   UNL A   1      31.811  28.716  23.207  1.00  0.00     0.242 C 
ATOM     18  O   UNL A   1      32.928  29.233  23.222  1.00  0.00    -0.273 OA
ATOM     19  N   UNL A   1      30.820  29.340  22.497  1.00  0.00    -0.267 N 
ATOM     20  H   UNL A   1      31.050  30.190  22.056  1.00  0.00     0.191 HD
BRANCH  19  21
ATOM     21  N   UNL A   1      29.515  28.876  22.345  1.00  0.00    -0.263 N 
ATOM     22  C   UNL A   1      28.390  29.665  22.520  1.00  0.00     0.273 C 
ATOM     23  H   UNL A   1      29.385  27.932  22.099  1.00  0.00     0.191 HD
ATOM     24  O   UNL A   1      27.297  29.121  22.659  1.00  0.00    -0.267 OA
BRANCH  22  25
ATOM     25  C   UNL A   1      28.543  31.107  22.602  1.00  0.00     0.082 A 
ATOM     26  C   UNL A   1      28.901  31.855  23.763  1.00  0.00     0.056 A 
ATOM     27  C   UNL A   1      28.311  32.053  21.615  1.00  0.00     0.113 A 
ATOM     28  C   UNL A   1      28.926  33.176  23.391  1.00  0.00     0.196 A 
ATOM     29  O   UNL A   1      28.573  33.304  22.089  1.00  0.00    -0.469 OA
ATOM     30  C   UNL A   1      27.834  32.000  20.214  1.00  0.00     0.088 C 
ENDBRANCH  22  25
ENDBRANCH  19  21
ENDBRANCH  16  17
ENDBRANCH   4   7
ENDBRANCH   2   3
ENDBRANCH   1   2
BRANCH   1  31
ATOM     31  C   UNL A   1      31.599  32.028  26.892  1.00  0.00     0.023 C 
BRANCH  31  32
ATOM     32  C   UNL A   1      32.748  32.885  27.409  1.00  0.00     0.116 C 
BRANCH  32  33
ATOM     33  N   UNL A   1      32.381  34.264  27.709  1.00  0.00    -0.352 N 
ATOM     34  C   UNL A   1      32.964  35.118  28.617  1.00  0.00     0.251 C 
ATOM     35  H   UNL A   1      31.622  34.630  27.200  1.00  0.00     0.163 HD
ATOM     36  O   UNL A   1      32.511  36.239  28.813  1.00  0.00    -0.269 OA
BRANCH  34  37
ATOM     37  C   UNL A   1      34.118  34.630  29.395  1.00  0.00     0.039 A 
ATOM     38  C   UNL A   1      33.892  34.046  30.642  1.00  0.00     0.014 A 
ATOM     39  C   UNL A   1      35.396  34.649  28.833  1.00  0.00     0.014 A 
ATOM     40  C   UNL A   1      34.941  33.392  31.290  1.00  0.00     0.010 A 
ATOM     41  C   UNL A   1      36.415  33.928  29.438  1.00  0.00     0.010 A 
ATOM     42  C   UNL A   1      36.195  33.285  30.666  1.00  0.00    -0.014 A 
BRANCH  42  43
ATOM     43  C   UNL A   1      37.297  32.499  31.270  1.00  0.00     0.031 A 
ATOM     44  C   UNL A   1      37.788  32.843  32.645  1.00  0.00     0.074 A 
ATOM     45  C   UNL A   1      37.913  31.545  30.545  1.00  0.00     0.049 A 
ATOM     46  N   UNL A   1      38.814  32.366  33.303  1.00  0.00    -0.248 NA
ATOM     47  C   UNL A   1      37.050  33.895  33.363  1.00  0.00     0.031 C 
ATOM     48  C   UNL A   1      37.563  31.159  29.176  1.00  0.00     0.029 A 
ATOM     49  N   UNL A   1      38.976  30.734  30.856  1.00  0.00    -0.354 N 
ATOM     50  C   UNL A   1      38.859  33.078  34.493  1.00  0.00     0.074 A 
ATOM     51  C   UNL A   1      37.792  34.054  34.447  1.00  0.00     0.031 C 
ATOM     52  C   UNL A   1      38.377  30.170  28.777  1.00  0.00     0.029 A 
ATOM     53  C   UNL A   1      39.329  29.876  29.843  1.00  0.00     0.049 A 
ATOM     54  H   UNL A   1      39.440  30.765  31.723  1.00  0.00     0.167 HD
ATOM     55  C   UNL A   1      39.699  32.915  35.542  1.00  0.00     0.037 A 
ATOM     56  C   UNL A   1      40.313  28.960  29.786  1.00  0.00     0.037 A 
ATOM     57  C   UNL A   1      40.730  31.913  35.601  1.00  0.00     0.049 A 
ATOM     58  C   UNL A   1      41.216  28.778  30.975  1.00  0.00     0.074 A 
ATOM     59  C   UNL A   1      41.590  31.619  36.643  1.00  0.00     0.029 A 
ATOM     60  N   UNL A   1      41.031  31.034  34.571  1.00  0.00    -0.354 N 
ATOM     61  N   UNL A   1      41.214  29.417  32.119  1.00  0.00    -0.248 NA
ATOM     62  C   UNL A   1      42.258  27.747  30.864  1.00  0.00     0.031 C 
ATOM     63  C   UNL A   1      42.432  30.579  36.234  1.00  0.00     0.029 A 
ATOM     64  C   UNL A   1      42.072  30.203  34.950  1.00  0.00     0.049 A 
ATOM     65  H   UNL A   1      40.573  31.005  33.700  1.00  0.00     0.167 HD
ATOM     66  C   UNL A   1      42.230  28.849  32.875  1.00  0.00     0.074 A 
ATOM     67  C   UNL A   1      42.823  27.807  32.062  1.00  0.00     0.031 C 
ATOM     68  C   UNL A   1      42.636  29.163  34.129  1.00  0.00     0.037 A 
BRANCH  55  69
ATOM     69  C   UNL A   1      39.525  33.836  36.712  1.00  0.00     0.064 A 
ATOM     70  C   UNL A   1      40.127  35.104  36.742  1.00  0.00     0.173 A 
ATOM     71  C   UNL A   1      38.743  33.453  37.811  1.00  0.00     0.173 A 
ATOM     72  F   UNL A   1      40.898  35.508  35.721  1.00  0.00    -0.203 F 
ATOM     73  C   UNL A   1      39.980  35.940  37.845  1.00  0.00     0.198 A 
ATOM     74  C   UNL A   1      38.575  34.305  38.900  1.00  0.00     0.198 A 
ATOM     75  F   UNL A   1      38.145  32.253  37.832  1.00  0.00    -0.203 F 
ATOM     76  F   UNL A   1      40.610  37.122  37.875  1.00  0.00    -0.200 F 
ATOM     77  C   UNL A   1      39.200  35.542  38.920  1.00  0.00     0.200 A 
ATOM     78  F   UNL A   1      37.814  33.924  39.935  1.00  0.00    -0.200 F 
ATOM     79  F   UNL A   1      39.059  36.349  39.981  1.00  0.00    -0.200 F 
ENDBRANCH  55  69
BRANCH  56  80
ATOM     80  C   UNL A   1      40.467  28.112  28.577  1.00  0.00     0.064 A 
ATOM     81  C   UNL A   1      39.839  26.861  28.497  1.00  0.00     0.173 A 
ATOM     82  C   UNL A   1      41.235  28.529  27.481  1.00  0.00     0.173 A 
ATOM     83  F   UNL A   1      39.110  26.413  29.529  1.00  0.00    -0.203 F 
ATOM     84  C   UNL A   1      39.987  26.052  27.373  1.00  0.00     0.198 A 
ATOM     85  C   UNL A   1      41.364  27.729  26.347  1.00  0.00     0.198 A 
ATOM     86  F   UNL A   1      41.851  29.720  27.506  1.00  0.00    -0.203 F 
ATOM     87  F   UNL A   1      39.406  24.845  27.339  1.00  0.00    -0.200 F 
ATOM     88  C   UNL A   1      40.745  26.488  26.297  1.00  0.00     0.200 A 
ATOM     89  F   UNL A   1      42.087  28.158  25.304  1.00  0.00    -0.200 F 
ATOM     90  F   UNL A   1      40.883  25.711  25.214  1.00  0.00    -0.200 F 
ENDBRANCH  56  80
BRANCH  68  91
ATOM     91  C   UNL A   1      43.750  28.348  34.713  1.00  0.00     0.064 A 
ATOM     92  C   UNL A   1      45.088  28.755  34.611  1.00  0.00     0.173 A 
ATOM     93  C   UNL A   1      43.470  27.171  35.424  1.00  0.00     0.173 A 
ATOM     94  F   UNL A   1      45.406  29.865  33.927  1.00  0.00    -0.203 F 
ATOM     95  C   UNL A   1      46.108  28.004  35.188  1.00  0.00     0.198 A 
ATOM     96  C   UNL A   1      44.489  26.436  36.019  1.00  0.00     0.198 A 
ATOM     97  F   UNL A   1      42.204  26.745  35.551  1.00  0.00    -0.203 F 
ATOM     98  F   UNL A   1      47.383  28.390  35.048  1.00  0.00    -0.200 F 
ATOM     99  C   UNL A   1      45.807  26.850  35.896  1.00  0.00     0.200 A 
ATOM    100  F   UNL A   1      44.197  25.327  36.712  1.00  0.00    -0.200 F 
ATOM    101  F   UNL A   1      46.789  26.133  36.458  1.00  0.00    -0.200 F 
ENDBRANCH  68  91
ENDBRANCH  42  43
ENDBRANCH  34  37
ENDBRANCH  32  33
ENDBRANCH  31  32
ENDBRANCH   1  31
TORSDOF 14
ENDMDL
MODEL 2
REMARK VINA RESULT:     -14.0      0.576      7.111
REMARK SMILES CC(C)=C1[C@H]2CC[C@@H]1[C@H](C(=O)NNC(=O)c1ccoc1C)[C@H]2C(=O)NCCCCNC(=O)c1ccc(-c2c3nc(c(-c4c(F)c(F)c(F)c(F)c4F)c4ccc([nH]4)c(-c4c(F)c(F)c(F)c(F)c4F)c4nc(c(-c5c(F)c(F)c(F)c(F)c5F)c5ccc2[nH]5)C=C4)C=C3)cc1
REMARK SMILES IDX 27 1 26 2 25 3 23 4 24 5 22 7 1 8 2 9 3 10 4 11 5 12 8 13
REMARK SMILES IDX 6 14 7 15 9 16 10 17 11 18 12 19 13 21 14 22 15 24 16 25
REMARK SMILES IDX 17 26 20 27 18 28 19 29 21 30 28 31 29 32 30 33 31 34 32 36
REMARK SMILES IDX 33 37 34 38 95 39 35 40 94 41 36 42 37 43 38 44 88 45 39 46
REMARK SMILES IDX 93 47 87 48 89 49 40 50 92 51 86 52 85 53 41 55 73 56 53 57
REMARK SMILES IDX 72 58 54 59 57 60 71 61 90 62 55 63 56 64 70 66 91 67 58 68
REMARK SMILES IDX 42 69 43 70 51 71 44 72 45 73 49 74 52 75 46 76 47 77 50 78
REMARK SMILES IDX 48 79 74 80 75 81 83 82 76 83 77 84 81 85 84 86 78 87 79 88
REMARK SMILES IDX 82 89 80 90 59 91 60 92 68 93 61 94 62 95 66 96 69 97 63 98
REMARK SMILES IDX 64 99 67 100 65 101
REMARK H PARENT 25 6 12 20 13 23 30 35 89 54 57 65
REMARK Flexibility Score: inf
ROOT
ATOM      1  C   UNL A   1      31.559  30.834  26.156  1.00  0.00     0.023 C 
ENDROOT
BRANCH   1   2
ATOM      2  C   UNL A   1      32.432  30.007  27.092  1.00  0.00     0.116 C 
BRANCH   2   3
ATOM      3  N   UNL A   1      31.823  28.726  27.368  1.00  0.00    -0.356 N 
ATOM      4  C   UNL A   1      31.706  27.591  26.641  1.00  0.00     0.224 C 
ATOM      5  O   UNL A   1      30.966  26.725  27.124  1.00  0.00    -0.275 OA
ATOM      6  H   UNL A   1      31.412  28.667  28.261  1.00  0.00     0.163 HD
BRANCH   4   7
ATOM      7  C   UNL A   1      32.422  27.306  25.323  1.00  0.00     0.098 C 
ATOM      8  C   UNL A   1      30.684  23.335  23.368  1.00  0.00     0.039 C 
ATOM      9  C   UNL A   1      31.670  23.893  24.356  1.00  0.00    -0.077 C 
ATOM     10  C   UNL A   1      32.197  22.892  25.354  1.00  0.00     0.039 C 
ATOM     11  C   UNL A   1      32.095  25.170  24.306  1.00  0.00    -0.064 C 
ATOM     12  C   UNL A   1      33.080  25.919  25.163  1.00  0.00     0.028 C 
ATOM     13  C   UNL A   1      31.926  26.215  23.228  1.00  0.00     0.028 C 
ATOM     14  C   UNL A   1      34.191  26.043  24.101  1.00  0.00     0.009 C 
ATOM     15  C   UNL A   1      33.405  26.235  22.782  1.00  0.00     0.009 C 
ATOM     16  C   UNL A   1      31.562  27.470  24.051  1.00  0.00     0.100 C 
BRANCH  16  17
ATOM     17  C   UNL A   1      31.855  28.763  23.299  1.00  0.00     0.242 C 
ATOM     18  O   UNL A   1      32.959  29.305  23.308  1.00  0.00    -0.273 OA
ATOM     19  N   UNL A   1      30.853  29.349  22.571  1.00  0.00    -0.267 N 
ATOM     20  H   UNL A   1      31.066  30.193  22.112  1.00  0.00     0.191 HD
BRANCH  19  21
ATOM     21  N   UNL A   1      29.560  28.852  22.423  1.00  0.00    -0.263 N 
ATOM     22  C   UNL A   1      28.417  29.624  22.554  1.00  0.00     0.273 C 
ATOM     23  H   UNL A   1      29.452  27.896  22.214  1.00  0.00     0.191 HD
ATOM     24  O   UNL A   1      27.334  29.063  22.702  1.00  0.00    -0.267 OA
BRANCH  22  25
ATOM     25  C   UNL A   1      28.540  31.071  22.579  1.00  0.00     0.082 A 
ATOM     26  C   UNL A   1      28.866  31.872  23.713  1.00  0.00     0.056 A 
ATOM     27  C   UNL A   1      28.302  31.971  21.551  1.00  0.00     0.113 A 
ATOM     28  C   UNL A   1      28.870  33.177  23.288  1.00  0.00     0.196 A 
ATOM     29  O   UNL A   1      28.533  33.245  21.978  1.00  0.00    -0.469 OA
ATOM     30  C   UNL A   1      27.845  31.852  20.148  1.00  0.00     0.088 C 
ENDBRANCH  22  25
ENDBRANCH  19  21
ENDBRANCH  16  17
ENDBRANCH   4   7
ENDBRANCH   2   3
ENDBRANCH   1   2
BRANCH   1  31
ATOM     31  C   UNL A   1      31.296  32.262  26.617  1.00  0.00     0.023 C 
BRANCH  31  32
ATOM     32  C   UNL A   1      32.552  33.064  26.932  1.00  0.00     0.116 C 
BRANCH  32  33
ATOM     33  N   UNL A   1      32.320  34.245  27.755  1.00  0.00    -0.352 N 
ATOM     34  C   UNL A   1      33.068  34.700  28.816  1.00  0.00     0.251 C 
ATOM     35  H   UNL A   1      31.530  34.785  27.522  1.00  0.00     0.163 HD
ATOM     36  O   UNL A   1      32.721  35.681  29.462  1.00  0.00    -0.269 OA
BRANCH  34  37
ATOM     37  C   UNL A   1      34.275  33.942  29.197  1.00  0.00     0.039 A 
ATOM     38  C   UNL A   1      35.529  34.479  28.902  1.00  0.00     0.014 A 
ATOM     39  C   UNL A   1      34.154  32.768  29.943  1.00  0.00     0.014 A 
ATOM     40  C   UNL A   1      36.669  33.883  29.441  1.00  0.00     0.010 A 
ATOM     41  C   UNL A   1      35.281  32.227  30.545  1.00  0.00     0.010 A 
ATOM     42  C   UNL A   1      36.547  32.784  30.308  1.00  0.00    -0.014 A 
BRANCH  42  43
ATOM     43  C   UNL A   1      37.726  32.200  30.991  1.00  0.00     0.031 A 
ATOM     44  C   UNL A   1      38.530  31.136  30.304  1.00  0.00     0.074 A 
ATOM     45  C   UNL A   1      38.009  32.557  32.258  1.00  0.00     0.049 A 
ATOM     46  N   UNL A   1      39.515  30.412  30.769  1.00  0.00    -0.248 NA
ATOM     47  C   UNL A   1      38.150  30.816  28.919  1.00  0.00     0.031 C 
ATOM     48  C   UNL A   1      37.265  33.538  33.052  1.00  0.00     0.029 A 
ATOM     49  N   UNL A   1      38.995  32.123  33.109  1.00  0.00    -0.354 N 
ATOM     50  C   UNL A   1      39.849  29.534  29.747  1.00  0.00     0.074 A 
ATOM     51  C   UNL A   1      38.931  29.781  28.657  1.00  0.00     0.031 C 
ATOM     52  C   UNL A   1      37.837  33.650  34.261  1.00  0.00     0.029 A 
ATOM     53  C   UNL A   1      38.962  32.725  34.343  1.00  0.00     0.049 A 
ATOM     54  H   UNL A   1      39.662  31.445  32.858  1.00  0.00     0.167 HD
ATOM     55  C   UNL A   1      40.851  28.624  29.711  1.00  0.00     0.037 A 
ATOM     56  C   UNL A   1      39.752  32.545  35.418  1.00  0.00     0.037 A 
ATOM     57  C   UNL A   1      41.789  28.415  30.780  1.00  0.00     0.049 A 
ATOM     58  C   UNL A   1      40.875  31.546  35.344  1.00  0.00     0.074 A 
ATOM     59  C   UNL A   1      42.880  27.566  30.819  1.00  0.00     0.029 A 
ATOM     60  N   UNL A   1      41.750  29.073  32.001  1.00  0.00    -0.354 N 
ATOM     61  N   UNL A   1      41.219  30.763  34.351  1.00  0.00    -0.248 NA
ATOM     62  C   UNL A   1      41.718  31.409  36.539  1.00  0.00     0.031 C 
ATOM     63  C   UNL A   1      43.486  27.690  32.074  1.00  0.00     0.029 A 
ATOM     64  C   UNL A   1      42.792  28.642  32.804  1.00  0.00     0.049 A 
ATOM     65  H   UNL A   1      41.079  29.748  32.258  1.00  0.00     0.167 HD
ATOM     66  C   UNL A   1      42.333  30.061  34.789  1.00  0.00     0.074 A 
ATOM     67  C   UNL A   1      42.613  30.517  36.135  1.00  0.00     0.031 C 
ATOM     68  C   UNL A   1      43.059  29.121  34.135  1.00  0.00     0.037 A 
BRANCH  55  69
ATOM     69  C   UNL A   1      40.983  27.797  28.468  1.00  0.00     0.064 A 
ATOM     70  C   UNL A   1      40.320  26.566  28.333  1.00  0.00     0.173 A 
ATOM     71  C   UNL A   1      41.772  28.239  27.396  1.00  0.00     0.173 A 
ATOM     72  F   UNL A   1      39.567  26.093  29.337  1.00  0.00    -0.203 F 
ATOM     73  C   UNL A   1      40.471  25.795  27.185  1.00  0.00     0.198 A 
ATOM     74  C   UNL A   1      41.897  27.477  26.238  1.00  0.00     0.198 A 
ATOM     75  F   UNL A   1      42.425  29.408  27.474  1.00  0.00    -0.203 F 
ATOM     76  F   UNL A   1      39.874  24.597  27.102  1.00  0.00    -0.200 F 
ATOM     77  C   UNL A   1      41.255  26.252  26.136  1.00  0.00     0.200 A 
ATOM     78  F   UNL A   1      42.647  27.924  25.222  1.00  0.00    -0.200 F 
ATOM     79  F   UNL A   1      41.398  25.508  25.031  1.00  0.00    -0.200 F 
ENDBRANCH  55  69
BRANCH  56  80
ATOM     80  C   UNL A   1      39.538  33.359  36.641  1.00  0.00     0.064 A 
ATOM     81  C   UNL A   1      38.659  32.924  37.643  1.00  0.00     0.173 A 
ATOM     82  C   UNL A   1      40.202  34.578  36.838  1.00  0.00     0.173 A 
ATOM     83  F   UNL A   1      37.988  31.773  37.489  1.00  0.00    -0.203 F 
ATOM     84  C   UNL A   1      38.440  33.685  38.789  1.00  0.00     0.198 A 
ATOM     85  C   UNL A   1      39.999  35.328  37.995  1.00  0.00     0.198 A 
ATOM     86  F   UNL A   1      41.056  35.035  35.911  1.00  0.00    -0.203 F 
ATOM     87  F   UNL A   1      37.568  33.262  39.714  1.00  0.00    -0.200 F 
ATOM     88  C   UNL A   1      39.114  34.884  38.966  1.00  0.00     0.200 A 
ATOM     89  F   UNL A   1      40.660  36.480  38.169  1.00  0.00    -0.200 F 
ATOM     90  F   UNL A   1      38.906  35.613  40.071  1.00  0.00    -0.200 F 
ENDBRANCH  56  80
BRANCH  68  91
ATOM     91  C   UNL A   1      44.246  28.552  34.851  1.00  0.00     0.064 A 
ATOM     92  C   UNL A   1      45.502  29.174  34.795  1.00  0.00     0.173 A 
ATOM     93  C   UNL A   1      44.113  27.401  35.640  1.00  0.00     0.173 A 
ATOM     94  F   UNL A   1      45.681  30.268  34.040  1.00  0.00    -0.203 F 
ATOM     95  C   UNL A   1      46.588  28.652  35.493  1.00  0.00     0.198 A 
ATOM     96  C   UNL A   1      45.194  26.895  36.356  1.00  0.00     0.198 A 
ATOM     97  F   UNL A   1      42.930  26.775  35.728  1.00  0.00    -0.203 F 
ATOM     98  F   UNL A   1      47.788  29.238  35.398  1.00  0.00    -0.200 F 
ATOM     99  C   UNL A   1      46.431  27.518  36.277  1.00  0.00     0.200 A 
ATOM    100  F   UNL A   1      45.039  25.806  37.121  1.00  0.00    -0.200 F 
ATOM    101  F   UNL A   1      47.475  27.022  36.955  1.00  0.00    -0.200 F 
ENDBRANCH  68  91
ENDBRANCH  42  43
ENDBRANCH  34  37
ENDBRANCH  32  33
ENDBRANCH  31  32
ENDBRANCH   1  31
TORSDOF 14
ENDMDL
MODEL 3
REMARK VINA RESULT:     -14.0      0.944      2.188
REMARK SMILES CC(C)=C1[C@H]2CC[C@@H]1[C@H](C(=O)NNC(=O)c1ccoc1C)[C@H]2C(=O)NCCCCNC(=O)c1ccc(-c2c3nc(c(-c4c(F)c(F)c(F)c(F)c4F)c4ccc([nH]4)c(-c4c(F)c(F)c(F)c(F)c4F)c4nc(c(-c5c(F)c(F)c(F)c(F)c5F)c5ccc2[nH]5)C=C4)C=C3)cc1
REMARK SMILES IDX 27 1 26 2 25 3 23 4 24 5 22 7 1 8 2 9 3 10 4 11 5 12 8 13
REMARK SMILES IDX 6 14 7 15 9 16 10 17 11 18 12 19 13 21 14 22 15 24 16 25
REMARK SMILES IDX 17 26 20 27 18 28 19 29 21 30 28 31 29 32 30 33 31 34 32 36
REMARK SMILES IDX 33 37 34 38 95 39 35 40 94 41 36 42 37 43 38 44 88 45 39 46
REMARK SMILES IDX 93 47 87 48 89 49 40 50 92 51 86 52 85 53 41 55 73 56 53 57
REMARK SMILES IDX 72 58 54 59 57 60 71 61 90 62 55 63 56 64 70 66 91 67 58 68
REMARK SMILES IDX 42 69 43 70 51 71 44 72 45 73 49 74 52 75 46 76 47 77 50 78
REMARK SMILES IDX 48 79 74 80 75 81 83 82 76 83 77 84 81 85 84 86 78 87 79 88
REMARK SMILES IDX 82 89 80 90 59 91 60 92 68 93 61 94 62 95 66 96 69 97 63 98
REMARK SMILES IDX 64 99 67 100 65 101
REMARK H PARENT 25 6 12 20 13 23 30 35 89 54 57 65
REMARK Flexibility Score: inf
ROOT
ATOM      1  C   UNL A   1      31.402  30.932  26.199  1.00  0.00     0.023 C 
ENDROOT
BRANCH   1   2
ATOM      2  C   UNL A   1      32.386  30.123  27.035  1.00  0.00     0.116 C 
BRANCH   2   3
ATOM      3  N   UNL A   1      31.832  28.832  27.376  1.00  0.00    -0.356 N 
ATOM      4  C   UNL A   1      31.744  27.665  26.697  1.00  0.00     0.224 C 
ATOM      5  O   UNL A   1      31.049  26.791  27.231  1.00  0.00    -0.275 OA
ATOM      6  H   UNL A   1      31.443  28.794  28.279  1.00  0.00     0.163 HD
BRANCH   4   7
ATOM      7  C   UNL A   1      32.444  27.354  25.376  1.00  0.00     0.098 C 
ATOM      8  C   UNL A   1      30.652  23.367  23.501  1.00  0.00     0.039 C 
ATOM      9  C   UNL A   1      31.654  23.933  24.469  1.00  0.00    -0.077 C 
ATOM     10  C   UNL A   1      32.184  22.942  25.477  1.00  0.00     0.039 C 
ATOM     11  C   UNL A   1      32.088  25.205  24.395  1.00  0.00    -0.064 C 
ATOM     12  C   UNL A   1      33.089  25.959  25.230  1.00  0.00     0.028 C 
ATOM     13  C   UNL A   1      31.916  26.235  23.304  1.00  0.00     0.028 C 
ATOM     14  C   UNL A   1      34.189  26.058  24.154  1.00  0.00     0.009 C 
ATOM     15  C   UNL A   1      33.390  26.236  22.841  1.00  0.00     0.009 C 
ATOM     16  C   UNL A   1      31.570  27.505  24.111  1.00  0.00     0.100 C 
BRANCH  16  17
ATOM     17  C   UNL A   1      31.866  28.784  23.336  1.00  0.00     0.242 C 
ATOM     18  O   UNL A   1      32.967  29.332  23.345  1.00  0.00    -0.273 OA
ATOM     19  N   UNL A   1      30.869  29.350  22.586  1.00  0.00    -0.267 N 
ATOM     20  H   UNL A   1      31.083  30.186  22.112  1.00  0.00     0.191 HD
BRANCH  19  21
ATOM     21  N   UNL A   1      29.580  28.844  22.434  1.00  0.00    -0.263 N 
ATOM     22  C   UNL A   1      28.431  29.605  22.571  1.00  0.00     0.273 C 
ATOM     23  H   UNL A   1      29.480  27.889  22.218  1.00  0.00     0.191 HD
ATOM     24  O   UNL A   1      27.352  29.035  22.715  1.00  0.00    -0.267 OA
BRANCH  22  25
ATOM     25  C   UNL A   1      28.542  31.053  22.607  1.00  0.00     0.082 A 
ATOM     26  C   UNL A   1      28.777  31.855  23.763  1.00  0.00     0.056 A 
ATOM     27  C   UNL A   1      28.377  31.953  21.565  1.00  0.00     0.113 A 
ATOM     28  C   UNL A   1      28.804  33.161  23.340  1.00  0.00     0.196 A 
ATOM     29  O   UNL A   1      28.566  33.229  22.009  1.00  0.00    -0.469 OA
ATOM     30  C   UNL A   1      28.027  31.833  20.131  1.00  0.00     0.088 C 
ENDBRANCH  22  25
ENDBRANCH  19  21
ENDBRANCH  16  17
ENDBRANCH   4   7
ENDBRANCH   2   3
ENDBRANCH   1   2
BRANCH   1  31
ATOM     31  C   UNL A   1      31.360  32.421  26.519  1.00  0.00     0.023 C 
BRANCH  31  32
ATOM     32  C   UNL A   1      32.712  33.028  26.873  1.00  0.00     0.116 C 
BRANCH  32  33
ATOM     33  N   UNL A   1      32.634  34.222  27.707  1.00  0.00    -0.352 N 
ATOM     34  C   UNL A   1      33.466  34.591  28.738  1.00  0.00     0.251 C 
ATOM     35  H   UNL A   1      31.895  34.841  27.507  1.00  0.00     0.163 HD
ATOM     36  O   UNL A   1      33.247  35.598  29.400  1.00  0.00    -0.269 OA
BRANCH  34  37
ATOM     37  C   UNL A   1      34.603  33.711  29.068  1.00  0.00     0.039 A 
ATOM     38  C   UNL A   1      35.900  34.220  28.971  1.00  0.00     0.014 A 
ATOM     39  C   UNL A   1      34.371  32.433  29.580  1.00  0.00     0.014 A 
ATOM     40  C   UNL A   1      36.964  33.476  29.480  1.00  0.00     0.010 A 
ATOM     41  C   UNL A   1      35.419  31.733  30.160  1.00  0.00     0.010 A 
ATOM     42  C   UNL A   1      36.723  32.251  30.124  1.00  0.00    -0.014 A 
BRANCH  42  43
ATOM     43  C   UNL A   1      37.813  31.490  30.780  1.00  0.00     0.031 A 
ATOM     44  C   UNL A   1      38.162  31.777  32.211  1.00  0.00     0.074 A 
ATOM     45  C   UNL A   1      38.545  30.617  30.061  1.00  0.00     0.049 A 
ATOM     46  N   UNL A   1      39.154  31.317  32.929  1.00  0.00    -0.248 NA
ATOM     47  C   UNL A   1      37.304  32.740  32.917  1.00  0.00     0.031 C 
ATOM     48  C   UNL A   1      38.339  30.298  28.646  1.00  0.00     0.029 A 
ATOM     49  N   UNL A   1      39.624  29.849  30.419  1.00  0.00    -0.354 N 
ATOM     50  C   UNL A   1      39.054  31.957  34.157  1.00  0.00     0.074 A 
ATOM     51  C   UNL A   1      37.938  32.873  34.070  1.00  0.00     0.031 C 
ATOM     52  C   UNL A   1      39.242  29.381  28.267  1.00  0.00     0.029 A 
ATOM     53  C   UNL A   1      40.114  29.075  29.396  1.00  0.00     0.049 A 
ATOM     54  H   UNL A   1      40.009  29.852  31.325  1.00  0.00     0.167 HD
ATOM     55  C   UNL A   1      39.809  31.775  35.266  1.00  0.00     0.037 A 
ATOM     56  C   UNL A   1      41.152  28.218  29.376  1.00  0.00     0.037 A 
ATOM     57  C   UNL A   1      40.888  30.830  35.361  1.00  0.00     0.049 A 
ATOM     58  C   UNL A   1      41.959  28.014  30.629  1.00  0.00     0.074 A 
ATOM     59  C   UNL A   1      41.672  30.520  36.458  1.00  0.00     0.029 A 
ATOM     60  N   UNL A   1      41.330  30.033  34.315  1.00  0.00    -0.354 N 
ATOM     61  N   UNL A   1      41.820  28.581  31.803  1.00  0.00    -0.248 NA
ATOM     62  C   UNL A   1      43.066  27.051  30.554  1.00  0.00     0.031 C 
ATOM     63  C   UNL A   1      42.607  29.555  36.068  1.00  0.00     0.029 A 
ATOM     64  C   UNL A   1      42.381  29.238  34.738  1.00  0.00     0.049 A 
ATOM     65  H   UNL A   1      40.950  30.032  33.406  1.00  0.00     0.167 HD
ATOM     66  C   UNL A   1      42.799  28.025  32.613  1.00  0.00     0.074 A 
ATOM     67  C   UNL A   1      43.521  27.068  31.799  1.00  0.00     0.031 C 
ATOM     68  C   UNL A   1      43.076  28.283  33.914  1.00  0.00     0.037 A 
BRANCH  55  69
ATOM     69  C   UNL A   1      39.480  32.612  36.465  1.00  0.00     0.064 A 
ATOM     70  C   UNL A   1      38.483  32.228  37.376  1.00  0.00     0.173 A 
ATOM     71  C   UNL A   1      40.173  33.807  36.714  1.00  0.00     0.173 A 
ATOM     72  F   UNL A   1      37.781  31.103  37.172  1.00  0.00    -0.203 F 
ATOM     73  C   UNL A   1      38.168  33.027  38.472  1.00  0.00     0.198 A 
ATOM     74  C   UNL A   1      39.874  34.587  37.827  1.00  0.00     0.198 A 
ATOM     75  F   UNL A   1      41.135  34.218  35.876  1.00  0.00    -0.203 F 
ATOM     76  F   UNL A   1      37.174  32.668  39.296  1.00  0.00    -0.200 F 
ATOM     77  C   UNL A   1      38.867  34.203  38.699  1.00  0.00     0.200 A 
ATOM     78  F   UNL A   1      40.556  35.719  38.052  1.00  0.00    -0.200 F 
ATOM     79  F   UNL A   1      38.564  34.970  39.755  1.00  0.00    -0.200 F 
ENDBRANCH  55  69
BRANCH  56  80
ATOM     80  C   UNL A   1      41.461  27.456  28.140  1.00  0.00     0.064 A 
ATOM     81  C   UNL A   1      42.373  27.958  27.201  1.00  0.00     0.173 A 
ATOM     82  C   UNL A   1      40.860  26.218  27.871  1.00  0.00     0.173 A 
ATOM     83  F   UNL A   1      42.958  29.147  27.408  1.00  0.00    -0.203 F 
ATOM     84  C   UNL A   1      42.662  27.258  26.032  1.00  0.00     0.198 A 
ATOM     85  C   UNL A   1      41.167  25.508  26.711  1.00  0.00     0.198 A 
ATOM     86  F   UNL A   1      39.985  25.693  28.740  1.00  0.00    -0.203 F 
ATOM     87  F   UNL A   1      43.510  27.779  25.135  1.00  0.00    -0.200 F 
ATOM     88  C   UNL A   1      42.062  26.032  25.790  1.00  0.00     0.200 A 
ATOM     89  F   UNL A   1      40.594  24.318  26.486  1.00  0.00    -0.200 F 
ATOM     90  F   UNL A   1      42.343  25.357  24.667  1.00  0.00    -0.200 F 
ENDBRANCH  56  80
BRANCH  68  91
ATOM     91  C   UNL A   1      44.182  27.496  34.549  1.00  0.00     0.064 A 
ATOM     92  C   UNL A   1      43.949  26.237  35.122  1.00  0.00     0.173 A 
ATOM     93  C   UNL A   1      45.497  27.984  34.538  1.00  0.00     0.173 A 
ATOM     94  F   UNL A   1      42.706  25.736  35.169  1.00  0.00    -0.203 F 
ATOM     95  C   UNL A   1      44.993  25.503  35.677  1.00  0.00     0.198 A 
ATOM     96  C   UNL A   1      46.542  27.237  35.072  1.00  0.00     0.198 A 
ATOM     97  F   UNL A   1      45.768  29.181  33.996  1.00  0.00    -0.203 F 
ATOM     98  F   UNL A   1      44.745  24.319  36.253  1.00  0.00    -0.200 F 
ATOM     99  C   UNL A   1      46.288  26.000  35.646  1.00  0.00     0.200 A 
ATOM    100  F   UNL A   1      47.793  27.713  35.033  1.00  0.00    -0.200 F 
ATOM    101  F   UNL A   1      47.293  25.288  36.174  1.00  0.00    -0.200 F 
ENDBRANCH  68  91
ENDBRANCH  42  43
ENDBRANCH  34  37
ENDBRANCH  32  33
ENDBRANCH  31  32
ENDBRANCH   1  31
TORSDOF 14
ENDMDL
