MODEL 1
REMARK VINA RESULT:     -11.9      0.000      0.000
REMARK SMILES CNC(=O)[C@H](C)Oc1cc([N+](=O)[O-])c(C(=O)NCCCCNC(=O)c2ccc(-c3c4nc(c(-c5c(F)c(F)c(F)c(F)c5F)c5ccc([nH]5)c(-c5c(F)c(F)c(F)c(F)c5F)c5nc(c(-c6c(F)c(F)c(F)c(F)c6F)c6ccc3[nH]6)C=C5)C=C4)cc2)cc1OC
REMARK SMILES IDX 19 1 18 2 17 3 15 4 16 5 14 7 8 8 9 9 89 10 10 11 88 12 7 13
REMARK SMILES IDX 5 14 6 15 3 16 1 17 2 18 4 20 90 21 91 22 11 23 12 24 13 25
REMARK SMILES IDX 20 26 21 27 22 28 23 29 24 31 25 32 26 33 87 34 27 35 86 36
REMARK SMILES IDX 28 37 29 38 30 39 80 40 31 41 85 42 79 43 81 44 32 45 84 46
REMARK SMILES IDX 78 47 77 48 33 50 65 51 45 52 64 53 46 54 49 55 63 56 82 57
REMARK SMILES IDX 47 58 48 59 62 61 83 62 50 63 34 64 35 65 43 66 36 67 37 68
REMARK SMILES IDX 41 69 44 70 38 71 39 72 42 73 40 74 66 75 67 76 75 77 68 78
REMARK SMILES IDX 69 79 73 80 76 81 70 82 71 83 74 84 72 85 51 86 52 87 60 88
REMARK SMILES IDX 53 89 54 90 58 91 61 92 55 93 56 94 59 95 57 96
REMARK H PARENT 17 6 2 19 22 30 81 49 49 60
REMARK Flexibility Score: inf
ROOT
ATOM      1  C   UNL A   1      31.511  30.541  26.418  1.00  0.00     0.023 C 
ENDROOT
BRANCH   1   2
ATOM      2  C   UNL A   1      31.811  30.030  25.008  1.00  0.00     0.116 C 
BRANCH   2   3
ATOM      3  N   UNL A   1      30.632  29.435  24.414  1.00  0.00    -0.352 N 
ATOM      4  C   UNL A   1      30.356  28.190  23.908  1.00  0.00     0.258 C 
ATOM      5  O   UNL A   1      29.189  28.001  23.576  1.00  0.00    -0.269 OA
ATOM      6  H   UNL A   1      29.868  30.054  24.362  1.00  0.00     0.163 HD
BRANCH   4   7
ATOM      7  C   UNL A   1      31.345  27.069  23.854  1.00  0.00     0.121 A 
ATOM      8  C   UNL A   1      33.572  25.303  23.902  1.00  0.00     0.169 A 
ATOM      9  C   UNL A   1      32.826  25.524  25.055  1.00  0.00     0.137 A 
ATOM     10  C   UNL A   1      33.128  25.845  22.699  1.00  0.00     0.162 A 
ATOM     11  C   UNL A   1      31.723  26.391  25.021  1.00  0.00     0.286 A 
ATOM     12  C   UNL A   1      32.000  26.681  22.678  1.00  0.00     0.071 A 
BRANCH   8  13
ATOM     13  O   UNL A   1      34.573  24.406  24.020  1.00  0.00    -0.477 OA
BRANCH  13  14
ATOM     14  C   UNL A   1      34.448  23.283  24.860  1.00  0.00     0.259 C 
ATOM     15  C   UNL A   1      33.901  22.111  24.019  1.00  0.00     0.064 C 
BRANCH  14  16
ATOM     16  C   UNL A   1      35.163  22.689  26.134  1.00  0.00     0.260 C 
ATOM     17  C   UNL A   1      37.460  21.812  25.340  1.00  0.00     0.142 C 
ATOM     18  N   UNL A   1      36.383  22.126  26.237  1.00  0.00    -0.356 N 
ATOM     19  H   UNL A   1      36.587  21.862  27.163  1.00  0.00     0.163 HD
ATOM     20  O   UNL A   1      34.539  22.707  27.210  1.00  0.00    -0.271 OA
ENDBRANCH  14  16
ENDBRANCH  13  14
ENDBRANCH   8  13
BRANCH  10  21
ATOM     21  O   UNL A   1      33.725  25.536  21.508  1.00  0.00    -0.493 OA
ATOM     22  C   UNL A   1      32.765  25.286  20.477  1.00  0.00     0.278 C 
ENDBRANCH  10  21
BRANCH  11  23
ATOM     23  N   UNL A   1      30.930  26.448  26.233  1.00  0.00     0.063 N 
ATOM     24  O   UNL A   1      31.368  27.154  27.151  1.00  0.00    -0.258 OA
ATOM     25  O   UNL A   1      29.965  25.674  26.302  1.00  0.00    -0.258 OA
ENDBRANCH  11  23
ENDBRANCH   4   7
ENDBRANCH   2   3
ENDBRANCH   1   2
BRANCH   1  26
ATOM     26  C   UNL A   1      31.431  32.064  26.529  1.00  0.00     0.023 C 
BRANCH  26  27
ATOM     27  C   UNL A   1      32.616  32.717  27.230  1.00  0.00     0.116 C 
BRANCH  27  28
ATOM     28  N   UNL A   1      32.352  34.087  27.643  1.00  0.00    -0.352 N 
ATOM     29  C   UNL A   1      32.998  34.838  28.590  1.00  0.00     0.251 C 
ATOM     30  H   UNL A   1      31.607  34.534  27.179  1.00  0.00     0.163 HD
ATOM     31  O   UNL A   1      32.559  35.941  28.903  1.00  0.00    -0.269 OA
BRANCH  29  32
ATOM     32  C   UNL A   1      34.199  34.299  29.258  1.00  0.00     0.039 A 
ATOM     33  C   UNL A   1      34.028  33.427  30.334  1.00  0.00     0.014 A 
ATOM     34  C   UNL A   1      35.483  34.634  28.818  1.00  0.00     0.014 A 
ATOM     35  C   UNL A   1      35.147  32.852  30.936  1.00  0.00     0.010 A 
ATOM     36  C   UNL A   1      36.591  33.992  29.362  1.00  0.00     0.010 A 
ATOM     37  C   UNL A   1      36.435  33.102  30.433  1.00  0.00    -0.014 A 
BRANCH  37  38
ATOM     38  C   UNL A   1      37.616  32.429  31.027  1.00  0.00     0.031 A 
ATOM     39  C   UNL A   1      38.107  32.810  32.396  1.00  0.00     0.074 A 
ATOM     40  C   UNL A   1      38.257  31.481  30.316  1.00  0.00     0.049 A 
ATOM     41  N   UNL A   1      39.090  32.297  33.093  1.00  0.00    -0.248 NA
ATOM     42  C   UNL A   1      37.425  33.930  33.061  1.00  0.00     0.031 C 
ATOM     43  C   UNL A   1      37.916  31.076  28.951  1.00  0.00     0.029 A 
ATOM     44  N   UNL A   1      39.322  30.681  30.644  1.00  0.00    -0.354 N 
ATOM     45  C   UNL A   1      39.141  33.029  34.271  1.00  0.00     0.074 A 
ATOM     46  C   UNL A   1      38.139  34.067  34.168  1.00  0.00     0.031 C 
ATOM     47  C   UNL A   1      38.725  30.072  28.576  1.00  0.00     0.029 A 
ATOM     48  C   UNL A   1      39.661  29.787  29.658  1.00  0.00     0.049 A 
ATOM     49  H   UNL A   1      39.799  30.742  31.503  1.00  0.00     0.167 HD
ATOM     50  C   UNL A   1      39.931  32.835  35.354  1.00  0.00     0.037 A 
ATOM     51  C   UNL A   1      40.616  28.838  29.634  1.00  0.00     0.037 A 
ATOM     52  C   UNL A   1      40.920  31.793  35.454  1.00  0.00     0.049 A 
ATOM     53  C   UNL A   1      41.478  28.641  30.852  1.00  0.00     0.074 A 
ATOM     54  C   UNL A   1      41.735  31.474  36.527  1.00  0.00     0.029 A 
ATOM     55  N   UNL A   1      41.236  30.903  34.436  1.00  0.00    -0.354 N 
ATOM     56  N   UNL A   1      41.455  29.281  31.996  1.00  0.00    -0.248 NA
ATOM     57  C   UNL A   1      42.488  27.578  30.778  1.00  0.00     0.031 C 
ATOM     58  C   UNL A   1      42.583  30.431  36.139  1.00  0.00     0.029 A 
ATOM     59  C   UNL A   1      42.251  30.053  34.848  1.00  0.00     0.049 A 
ATOM     60  H   UNL A   1      40.802  30.878  33.554  1.00  0.00     0.167 HD
ATOM     61  C   UNL A   1      42.427  28.682  32.787  1.00  0.00     0.074 A 
ATOM     62  C   UNL A   1      43.000  27.610  31.999  1.00  0.00     0.031 C 
ATOM     63  C   UNL A   1      42.814  28.993  34.049  1.00  0.00     0.037 A 
BRANCH  50  64
ATOM     64  C   UNL A   1      39.756  33.766  36.520  1.00  0.00     0.064 A 
ATOM     65  C   UNL A   1      40.387  35.019  36.566  1.00  0.00     0.173 A 
ATOM     66  C   UNL A   1      38.916  33.419  37.590  1.00  0.00     0.173 A 
ATOM     67  F   UNL A   1      41.211  35.397  35.576  1.00  0.00    -0.203 F 
ATOM     68  C   UNL A   1      40.210  35.874  37.651  1.00  0.00     0.198 A 
ATOM     69  C   UNL A   1      38.714  34.292  38.657  1.00  0.00     0.198 A 
ATOM     70  F   UNL A   1      38.283  32.237  37.598  1.00  0.00    -0.203 F 
ATOM     71  F   UNL A   1      40.868  37.041  37.697  1.00  0.00    -0.200 F 
ATOM     72  C   UNL A   1      39.367  35.514  38.691  1.00  0.00     0.200 A 
ATOM     73  F   UNL A   1      37.887  33.947  39.655  1.00  0.00    -0.200 F 
ATOM     74  F   UNL A   1      39.191  36.342  39.730  1.00  0.00    -0.200 F 
ENDBRANCH  50  64
BRANCH  51  75
ATOM     75  C   UNL A   1      40.783  27.979  28.432  1.00  0.00     0.064 A 
ATOM     76  C   UNL A   1      41.565  28.399  27.346  1.00  0.00     0.173 A 
ATOM     77  C   UNL A   1      40.157  26.728  28.337  1.00  0.00     0.173 A 
ATOM     78  F   UNL A   1      42.171  29.594  27.380  1.00  0.00    -0.203 F 
ATOM     79  C   UNL A   1      41.692  27.613  26.202  1.00  0.00     0.198 A 
ATOM     80  C   UNL A   1      40.312  25.928  27.207  1.00  0.00     0.198 A 
ATOM     81  F   UNL A   1      39.404  26.275  29.351  1.00  0.00    -0.203 F 
ATOM     82  F   UNL A   1      42.401  28.063  25.158  1.00  0.00    -0.200 F 
ATOM     83  C   UNL A   1      41.070  26.376  26.136  1.00  0.00     0.200 A 
ATOM     84  F   UNL A   1      39.723  24.725  27.155  1.00  0.00    -0.200 F 
ATOM     85  F   UNL A   1      41.194  25.619  25.038  1.00  0.00    -0.200 F 
ENDBRANCH  51  75
BRANCH  63  86
ATOM     86  C   UNL A   1      43.888  28.139  34.663  1.00  0.00     0.064 A 
ATOM     87  C   UNL A   1      45.246  28.482  34.578  1.00  0.00     0.173 A 
ATOM     88  C   UNL A   1      43.552  26.962  35.351  1.00  0.00     0.173 A 
ATOM     89  F   UNL A   1      45.623  29.590  33.922  1.00  0.00    -0.203 F 
ATOM     90  C   UNL A   1      46.229  27.656  35.115  1.00  0.00     0.198 A 
ATOM     91  C   UNL A   1      44.536  26.159  35.922  1.00  0.00     0.198 A 
ATOM     92  F   UNL A   1      42.269  26.592  35.473  1.00  0.00    -0.203 F 
ATOM     93  F   UNL A   1      47.524  27.968  34.957  1.00  0.00    -0.200 F 
ATOM     94  C   UNL A   1      45.873  26.499  35.791  1.00  0.00     0.200 A 
ATOM     95  F   UNL A   1      44.189  25.051  36.590  1.00  0.00    -0.200 F 
ATOM     96  F   UNL A   1      46.821  25.705  36.307  1.00  0.00    -0.200 F 
ENDBRANCH  63  86
ENDBRANCH  37  38
ENDBRANCH  29  32
ENDBRANCH  27  28
ENDBRANCH  26  27
ENDBRANCH   1  26
TORSDOF 16
ENDMDL
MODEL 2
REMARK VINA RESULT:     -11.7      4.994     10.919
REMARK SMILES CNC(=O)[C@H](C)Oc1cc([N+](=O)[O-])c(C(=O)NCCCCNC(=O)c2ccc(-c3c4nc(c(-c5c(F)c(F)c(F)c(F)c5F)c5ccc([nH]5)c(-c5c(F)c(F)c(F)c(F)c5F)c5nc(c(-c6c(F)c(F)c(F)c(F)c6F)c6ccc3[nH]6)C=C5)C=C4)cc2)cc1OC
REMARK SMILES IDX 19 1 18 2 17 3 15 4 16 5 14 7 8 8 9 9 89 10 10 11 88 12 7 13
REMARK SMILES IDX 5 14 6 15 3 16 1 17 2 18 4 20 90 21 91 22 11 23 12 24 13 25
REMARK SMILES IDX 20 26 21 27 22 28 23 29 24 31 25 32 26 33 87 34 27 35 86 36
REMARK SMILES IDX 28 37 29 38 30 39 80 40 31 41 85 42 79 43 81 44 32 45 84 46
REMARK SMILES IDX 78 47 77 48 33 50 65 51 45 52 64 53 46 54 49 55 63 56 82 57
REMARK SMILES IDX 47 58 48 59 62 61 83 62 50 63 34 64 35 65 43 66 36 67 37 68
REMARK SMILES IDX 41 69 44 70 38 71 39 72 42 73 40 74 66 75 67 76 75 77 68 78
REMARK SMILES IDX 69 79 73 80 76 81 70 82 71 83 74 84 72 85 51 86 52 87 60 88
REMARK SMILES IDX 53 89 54 90 58 91 61 92 55 93 56 94 59 95 57 96
REMARK H PARENT 17 6 2 19 22 30 81 49 49 60
REMARK Flexibility Score: inf
ROOT
ATOM      1  C   UNL A   1      36.724  19.607  24.993  1.00  0.00     0.023 C 
ENDROOT
BRANCH   1   2
ATOM      2  C   UNL A   1      35.602  20.630  25.184  1.00  0.00     0.116 C 
BRANCH   2   3
ATOM      3  N   UNL A   1      34.412  20.231  24.463  1.00  0.00    -0.352 N 
ATOM      4  C   UNL A   1      33.227  20.860  24.176  1.00  0.00     0.258 C 
ATOM      5  O   UNL A   1      32.467  20.244  23.433  1.00  0.00    -0.269 OA
ATOM      6  H   UNL A   1      34.463  19.316  24.104  1.00  0.00     0.163 HD
BRANCH   4   7
ATOM      7  C   UNL A   1      32.887  22.249  24.615  1.00  0.00     0.121 A 
ATOM      8  C   UNL A   1      32.665  24.842  25.758  1.00  0.00     0.169 A 
ATOM      9  C   UNL A   1      33.451  24.638  24.628  1.00  0.00     0.137 A 
ATOM     10  C   UNL A   1      31.881  23.794  26.232  1.00  0.00     0.162 A 
ATOM     11  C   UNL A   1      33.549  23.356  24.066  1.00  0.00     0.286 A 
ATOM     12  C   UNL A   1      31.964  22.527  25.632  1.00  0.00     0.071 A 
BRANCH   8  13
ATOM     13  O   UNL A   1      32.585  26.119  26.187  1.00  0.00    -0.477 OA
BRANCH  13  14
ATOM     14  C   UNL A   1      32.580  27.194  25.276  1.00  0.00     0.259 C 
ATOM     15  C   UNL A   1      31.125  27.672  25.102  1.00  0.00     0.064 C 
BRANCH  14  16
ATOM     16  C   UNL A   1      33.543  28.366  24.845  1.00  0.00     0.260 C 
ATOM     17  C   UNL A   1      33.298  30.210  26.637  1.00  0.00     0.142 C 
ATOM     18  N   UNL A   1      33.778  29.540  25.461  1.00  0.00    -0.356 N 
ATOM     19  H   UNL A   1      34.450  30.078  24.982  1.00  0.00     0.163 HD
ATOM     20  O   UNL A   1      34.179  28.232  23.784  1.00  0.00    -0.271 OA
ENDBRANCH  14  16
ENDBRANCH  13  14
ENDBRANCH   8  13
BRANCH  10  21
ATOM     21  O   UNL A   1      30.971  23.974  27.237  1.00  0.00    -0.493 OA
ATOM     22  C   UNL A   1      29.894  23.035  27.159  1.00  0.00     0.278 C 
ENDBRANCH  10  21
BRANCH  11  23
ATOM     23  N   UNL A   1      34.277  23.272  22.815  1.00  0.00     0.063 N 
ATOM     24  O   UNL A   1      35.513  23.290  22.890  1.00  0.00    -0.258 OA
ATOM     25  O   UNL A   1      33.605  23.340  21.776  1.00  0.00    -0.258 OA
ENDBRANCH  11  23
ENDBRANCH   4   7
ENDBRANCH   2   3
ENDBRANCH   1   2
BRANCH   1  26
ATOM     26  C   UNL A   1      38.103  20.226  24.763  1.00  0.00     0.023 C 
BRANCH  26  27
ATOM     27  C   UNL A   1      39.014  20.228  25.984  1.00  0.00     0.116 C 
BRANCH  27  28
ATOM     28  N   UNL A   1      40.065  19.224  25.914  1.00  0.00    -0.352 N 
ATOM     29  C   UNL A   1      41.420  19.387  26.045  1.00  0.00     0.251 C 
ATOM     30  H   UNL A   1      39.761  18.301  25.752  1.00  0.00     0.163 HD
ATOM     31  O   UNL A   1      42.176  18.444  25.831  1.00  0.00    -0.269 OA
BRANCH  29  32
ATOM     32  C   UNL A   1      41.966  20.711  26.405  1.00  0.00     0.039 A 
ATOM     33  C   UNL A   1      42.186  21.641  25.388  1.00  0.00     0.014 A 
ATOM     34  C   UNL A   1      42.243  21.041  27.735  1.00  0.00     0.014 A 
ATOM     35  C   UNL A   1      42.636  22.920  25.713  1.00  0.00     0.010 A 
ATOM     36  C   UNL A   1      42.606  22.343  28.064  1.00  0.00     0.010 A 
ATOM     37  C   UNL A   1      42.817  23.293  27.055  1.00  0.00    -0.014 A 
BRANCH  37  38
ATOM     38  C   UNL A   1      43.222  24.678  27.402  1.00  0.00     0.031 A 
ATOM     39  C   UNL A   1      44.625  25.152  27.144  1.00  0.00     0.074 A 
ATOM     40  C   UNL A   1      42.320  25.502  27.969  1.00  0.00     0.049 A 
ATOM     41  N   UNL A   1      45.143  26.340  27.336  1.00  0.00    -0.248 NA
ATOM     42  C   UNL A   1      45.580  24.160  26.630  1.00  0.00     0.031 C 
ATOM     43  C   UNL A   1      40.950  25.133  28.330  1.00  0.00     0.029 A 
ATOM     44  N   UNL A   1      42.416  26.822  28.331  1.00  0.00    -0.354 N 
ATOM     45  C   UNL A   1      46.477  26.235  26.965  1.00  0.00     0.074 A 
ATOM     46  C   UNL A   1      46.708  24.854  26.605  1.00  0.00     0.031 C 
ATOM     47  C   UNL A   1      40.319  26.213  28.820  1.00  0.00     0.029 A 
ATOM     48  C   UNL A   1      41.247  27.338  28.838  1.00  0.00     0.049 A 
ATOM     49  H   UNL A   1      43.242  27.349  28.238  1.00  0.00     0.167 HD
ATOM     50  C   UNL A   1      47.416  27.209  26.902  1.00  0.00     0.037 A 
ATOM     51  C   UNL A   1      40.958  28.582  29.262  1.00  0.00     0.037 A 
ATOM     52  C   UNL A   1      47.175  28.585  27.253  1.00  0.00     0.049 A 
ATOM     53  C   UNL A   1      42.019  29.646  29.178  1.00  0.00     0.074 A 
ATOM     54  C   UNL A   1      48.041  29.661  27.172  1.00  0.00     0.029 A 
ATOM     55  N   UNL A   1      45.979  29.073  27.761  1.00  0.00    -0.354 N 
ATOM     56  N   UNL A   1      43.251  29.556  28.740  1.00  0.00    -0.248 NA
ATOM     57  C   UNL A   1      41.641  30.990  29.635  1.00  0.00     0.031 C 
ATOM     58  C   UNL A   1      47.389  30.788  27.686  1.00  0.00     0.029 A 
ATOM     59  C   UNL A   1      46.094  30.430  28.023  1.00  0.00     0.049 A 
ATOM     60  H   UNL A   1      45.168  28.536  27.911  1.00  0.00     0.167 HD
ATOM     61  C   UNL A   1      43.786  30.833  28.842  1.00  0.00     0.074 A 
ATOM     62  C   UNL A   1      42.734  31.683  29.358  1.00  0.00     0.031 C 
ATOM     63  C   UNL A   1      45.037  31.262  28.541  1.00  0.00     0.037 A 
BRANCH  50  64
ATOM     64  C   UNL A   1      48.789  26.822  26.432  1.00  0.00     0.064 A 
ATOM     65  C   UNL A   1      49.731  26.246  27.300  1.00  0.00     0.173 A 
ATOM     66  C   UNL A   1      49.159  26.994  25.089  1.00  0.00     0.173 A 
ATOM     67  F   UNL A   1      49.436  26.070  28.597  1.00  0.00    -0.203 F 
ATOM     68  C   UNL A   1      50.999  25.887  26.848  1.00  0.00     0.198 A 
ATOM     69  C   UNL A   1      50.416  26.602  24.634  1.00  0.00     0.198 A 
ATOM     70  F   UNL A   1      48.299  27.536  24.214  1.00  0.00    -0.203 F 
ATOM     71  F   UNL A   1      51.899  25.390  27.708  1.00  0.00    -0.200 F 
ATOM     72  C   UNL A   1      51.337  26.058  25.515  1.00  0.00     0.200 A 
ATOM     73  F   UNL A   1      50.735  26.754  23.341  1.00  0.00    -0.200 F 
ATOM     74  F   UNL A   1      52.554  25.703  25.080  1.00  0.00    -0.200 F 
ENDBRANCH  50  64
BRANCH  51  75
ATOM     75  C   UNL A   1      39.596  28.898  29.770  1.00  0.00     0.064 A 
ATOM     76  C   UNL A   1      39.257  28.682  31.113  1.00  0.00     0.173 A 
ATOM     77  C   UNL A   1      38.603  29.411  28.922  1.00  0.00     0.173 A 
ATOM     78  F   UNL A   1      40.165  28.178  31.961  1.00  0.00    -0.203 F 
ATOM     79  C   UNL A   1      37.970  28.941  31.583  1.00  0.00     0.198 A 
ATOM     80  C   UNL A   1      37.326  29.700  29.401  1.00  0.00     0.198 A 
ATOM     81  F   UNL A   1      38.877  29.643  27.630  1.00  0.00    -0.203 F 
ATOM     82  F   UNL A   1      37.659  28.674  32.858  1.00  0.00    -0.200 F 
ATOM     83  C   UNL A   1      37.008  29.455  30.727  1.00  0.00     0.200 A 
ATOM     84  F   UNL A   1      36.406  30.214  28.574  1.00  0.00    -0.200 F 
ATOM     85  F   UNL A   1      35.772  29.707  31.179  1.00  0.00    -0.200 F 
ENDBRANCH  51  75
BRANCH  63  86
ATOM     86  C   UNL A   1      45.321  32.726  28.734  1.00  0.00     0.064 A 
ATOM     87  C   UNL A   1      45.849  33.226  29.934  1.00  0.00     0.173 A 
ATOM     88  C   UNL A   1      45.063  33.641  27.701  1.00  0.00     0.173 A 
ATOM     89  F   UNL A   1      46.102  32.397  30.958  1.00  0.00    -0.203 F 
ATOM     90  C   UNL A   1      46.064  34.591  30.109  1.00  0.00     0.198 A 
ATOM     91  C   UNL A   1      45.317  35.000  27.866  1.00  0.00     0.198 A 
ATOM     92  F   UNL A   1      44.568  33.217  26.529  1.00  0.00    -0.203 F 
ATOM     93  F   UNL A   1      46.501  35.051  31.290  1.00  0.00    -0.200 F 
ATOM     94  C   UNL A   1      45.803  35.475  29.074  1.00  0.00     0.200 A 
ATOM     95  F   UNL A   1      45.081  35.851  26.858  1.00  0.00    -0.200 F 
ATOM     96  F   UNL A   1      46.009  36.788  29.245  1.00  0.00    -0.200 F 
ENDBRANCH  63  86
ENDBRANCH  37  38
ENDBRANCH  29  32
ENDBRANCH  27  28
ENDBRANCH  26  27
ENDBRANCH   1  26
TORSDOF 16
ENDMDL
MODEL 3
REMARK VINA RESULT:     -11.7      1.284      7.653
REMARK SMILES CNC(=O)[C@H](C)Oc1cc([N+](=O)[O-])c(C(=O)NCCCCNC(=O)c2ccc(-c3c4nc(c(-c5c(F)c(F)c(F)c(F)c5F)c5ccc([nH]5)c(-c5c(F)c(F)c(F)c(F)c5F)c5nc(c(-c6c(F)c(F)c(F)c(F)c6F)c6ccc3[nH]6)C=C5)C=C4)cc2)cc1OC
REMARK SMILES IDX 19 1 18 2 17 3 15 4 16 5 14 7 8 8 9 9 89 10 10 11 88 12 7 13
REMARK SMILES IDX 5 14 6 15 3 16 1 17 2 18 4 20 90 21 91 22 11 23 12 24 13 25
REMARK SMILES IDX 20 26 21 27 22 28 23 29 24 31 25 32 26 33 87 34 27 35 86 36
REMARK SMILES IDX 28 37 29 38 30 39 80 40 31 41 85 42 79 43 81 44 32 45 84 46
REMARK SMILES IDX 78 47 77 48 33 50 65 51 45 52 64 53 46 54 49 55 63 56 82 57
REMARK SMILES IDX 47 58 48 59 62 61 83 62 50 63 34 64 35 65 43 66 36 67 37 68
REMARK SMILES IDX 41 69 44 70 38 71 39 72 42 73 40 74 66 75 67 76 75 77 68 78
REMARK SMILES IDX 69 79 73 80 76 81 70 82 71 83 74 84 72 85 51 86 52 87 60 88
REMARK SMILES IDX 53 89 54 90 58 91 61 92 55 93 56 94 59 95 57 96
REMARK H PARENT 17 6 2 19 22 30 81 49 49 60
REMARK Flexibility Score: inf
ROOT
ATOM      1  C   UNL A   1      31.403  30.661  26.526  1.00  0.00     0.023 C 
ENDROOT
BRANCH   1   2
ATOM      2  C   UNL A   1      32.129  30.039  25.332  1.00  0.00     0.116 C 
BRANCH   2   3
ATOM      3  N   UNL A   1      31.192  29.392  24.438  1.00  0.00    -0.352 N 
ATOM      4  C   UNL A   1      30.957  28.082  24.105  1.00  0.00     0.258 C 
ATOM      5  O   UNL A   1      29.988  27.887  23.376  1.00  0.00    -0.269 OA
ATOM      6  H   UNL A   1      30.598  30.024  23.973  1.00  0.00     0.163 HD
BRANCH   4   7
ATOM      7  C   UNL A   1      31.727  26.924  24.657  1.00  0.00     0.121 A 
ATOM      8  C   UNL A   1      32.926  24.441  25.349  1.00  0.00     0.169 A 
ATOM      9  C   UNL A   1      33.470  25.226  24.337  1.00  0.00     0.137 A 
ATOM     10  C   UNL A   1      31.877  24.953  26.107  1.00  0.00     0.162 A 
ATOM     11  C   UNL A   1      32.877  26.454  24.007  1.00  0.00     0.286 A 
ATOM     12  C   UNL A   1      31.321  26.202  25.786  1.00  0.00     0.071 A 
BRANCH   8  13
ATOM     13  O   UNL A   1      33.602  23.309  25.634  1.00  0.00    -0.477 OA
BRANCH  13  14
ATOM     14  C   UNL A   1      33.751  22.289  24.674  1.00  0.00     0.259 C 
ATOM     15  C   UNL A   1      35.144  21.653  24.857  1.00  0.00     0.064 C 
BRANCH  14  16
ATOM     16  C   UNL A   1      32.832  21.261  23.908  1.00  0.00     0.260 C 
ATOM     17  C   UNL A   1      32.892  19.069  25.274  1.00  0.00     0.142 C 
ATOM     18  N   UNL A   1      32.533  19.987  24.230  1.00  0.00    -0.356 N 
ATOM     19  H   UNL A   1      31.911  19.582  23.583  1.00  0.00     0.163 HD
ATOM     20  O   UNL A   1      32.306  21.634  22.845  1.00  0.00    -0.271 OA
ENDBRANCH  14  16
ENDBRANCH  13  14
ENDBRANCH   8  13
BRANCH  10  21
ATOM     21  O   UNL A   1      31.404  24.301  27.213  1.00  0.00    -0.493 OA
ATOM     22  C   UNL A   1      30.389  23.349  26.880  1.00  0.00     0.278 C 
ENDBRANCH  10  21
BRANCH  11  23
ATOM     23  N   UNL A   1      33.596  27.260  23.040  1.00  0.00     0.063 N 
ATOM     24  O   UNL A   1      33.644  26.825  21.882  1.00  0.00    -0.258 OA
ATOM     25  O   UNL A   1      34.222  28.233  23.483  1.00  0.00    -0.258 OA
ENDBRANCH  11  23
ENDBRANCH   4   7
ENDBRANCH   2   3
ENDBRANCH   1   2
BRANCH   1  26
ATOM     26  C   UNL A   1      31.401  32.190  26.531  1.00  0.00     0.023 C 
BRANCH  26  27
ATOM     27  C   UNL A   1      32.582  32.829  27.250  1.00  0.00     0.116 C 
BRANCH  27  28
ATOM     28  N   UNL A   1      32.340  34.213  27.627  1.00  0.00    -0.352 N 
ATOM     29  C   UNL A   1      32.951  34.957  28.603  1.00  0.00     0.251 C 
ATOM     30  H   UNL A   1      31.643  34.679  27.111  1.00  0.00     0.163 HD
ATOM     31  O   UNL A   1      32.533  36.080  28.872  1.00  0.00    -0.269 OA
BRANCH  29  32
ATOM     32  C   UNL A   1      34.088  34.388  29.354  1.00  0.00     0.039 A 
ATOM     33  C   UNL A   1      33.824  33.678  30.526  1.00  0.00     0.014 A 
ATOM     34  C   UNL A   1      35.402  34.536  28.898  1.00  0.00     0.014 A 
ATOM     35  C   UNL A   1      34.875  33.074  31.214  1.00  0.00     0.010 A 
ATOM     36  C   UNL A   1      36.436  33.858  29.537  1.00  0.00     0.010 A 
ATOM     37  C   UNL A   1      36.185  33.129  30.707  1.00  0.00    -0.014 A 
BRANCH  37  38
ATOM     38  C   UNL A   1      37.289  32.420  31.400  1.00  0.00     0.031 A 
ATOM     39  C   UNL A   1      38.007  31.282  30.731  1.00  0.00     0.074 A 
ATOM     40  C   UNL A   1      37.630  32.798  32.647  1.00  0.00     0.049 A 
ATOM     41  N   UNL A   1      39.025  30.581  31.162  1.00  0.00    -0.248 NA
ATOM     42  C   UNL A   1      37.502  30.856  29.417  1.00  0.00     0.031 C 
ATOM     43  C   UNL A   1      36.960  33.842  33.425  1.00  0.00     0.029 A 
ATOM     44  N   UNL A   1      38.629  32.356  33.476  1.00  0.00    -0.354 N 
ATOM     45  C   UNL A   1      39.280  29.637  30.176  1.00  0.00     0.074 A 
ATOM     46  C   UNL A   1      38.268  29.806  29.157  1.00  0.00     0.031 C 
ATOM     47  C   UNL A   1      37.595  33.991  34.598  1.00  0.00     0.029 A 
ATOM     48  C   UNL A   1      38.693  33.033  34.670  1.00  0.00     0.049 A 
ATOM     49  H   UNL A   1      39.241  31.622  33.240  1.00  0.00     0.167 HD
ATOM     50  C   UNL A   1      40.284  28.730  30.113  1.00  0.00     0.037 A 
ATOM     51  C   UNL A   1      39.547  32.900  35.701  1.00  0.00     0.037 A 
ATOM     52  C   UNL A   1      41.294  28.574  31.127  1.00  0.00     0.049 A 
ATOM     53  C   UNL A   1      40.656  31.887  35.603  1.00  0.00     0.074 A 
ATOM     54  C   UNL A   1      42.387  27.725  31.134  1.00  0.00     0.029 A 
ATOM     55  N   UNL A   1      41.330  29.279  32.322  1.00  0.00    -0.354 N 
ATOM     56  N   UNL A   1      40.942  31.062  34.625  1.00  0.00    -0.248 NA
ATOM     57  C   UNL A   1      41.571  31.800  36.749  1.00  0.00     0.031 C 
ATOM     58  C   UNL A   1      43.050  27.873  32.357  1.00  0.00     0.029 A 
ATOM     59  C   UNL A   1      42.411  28.864  33.085  1.00  0.00     0.049 A 
ATOM     60  H   UNL A   1      40.684  29.972  32.588  1.00  0.00     0.167 HD
ATOM     61  C   UNL A   1      42.082  30.378  35.024  1.00  0.00     0.074 A 
ATOM     62  C   UNL A   1      42.450  30.906  36.321  1.00  0.00     0.031 C 
ATOM     63  C   UNL A   1      42.761  29.398  34.378  1.00  0.00     0.037 A 
BRANCH  50  64
ATOM     64  C   UNL A   1      40.343  27.840  28.903  1.00  0.00     0.064 A 
ATOM     65  C   UNL A   1      39.633  26.630  28.843  1.00  0.00     0.173 A 
ATOM     66  C   UNL A   1      41.088  28.218  27.775  1.00  0.00     0.173 A 
ATOM     67  F   UNL A   1      38.915  26.214  29.897  1.00  0.00    -0.203 F 
ATOM     68  C   UNL A   1      39.693  25.818  27.712  1.00  0.00     0.198 A 
ATOM     69  C   UNL A   1      41.117  27.419  26.634  1.00  0.00     0.198 A 
ATOM     70  F   UNL A   1      41.783  29.365  27.776  1.00  0.00    -0.203 F 
ATOM     71  F   UNL A   1      39.051  24.642  27.700  1.00  0.00    -0.200 F 
ATOM     72  C   UNL A   1      40.428  26.218  26.606  1.00  0.00     0.200 A 
ATOM     73  F   UNL A   1      41.816  27.815  25.560  1.00  0.00    -0.200 F 
ATOM     74  F   UNL A   1      40.476  25.440  25.516  1.00  0.00    -0.200 F 
ENDBRANCH  50  64
BRANCH  51  75
ATOM     75  C   UNL A   1      39.410  33.771  36.899  1.00  0.00     0.064 A 
ATOM     76  C   UNL A   1      38.692  33.344  38.025  1.00  0.00     0.173 A 
ATOM     77  C   UNL A   1      39.984  35.050  36.940  1.00  0.00     0.173 A 
ATOM     78  F   UNL A   1      38.110  32.136  38.030  1.00  0.00    -0.203 F 
ATOM     79  C   UNL A   1      38.529  34.172  39.134  1.00  0.00     0.198 A 
ATOM     80  C   UNL A   1      39.849  35.865  38.062  1.00  0.00     0.198 A 
ATOM     81  F   UNL A   1      40.688  35.504  35.893  1.00  0.00    -0.203 F 
ATOM     82  F   UNL A   1      37.792  33.760  40.174  1.00  0.00    -0.200 F 
ATOM     83  C   UNL A   1      39.113  35.430  39.153  1.00  0.00     0.200 A 
ATOM     84  F   UNL A   1      40.430  37.072  38.083  1.00  0.00    -0.200 F 
ATOM     85  F   UNL A   1      38.959  36.226  40.220  1.00  0.00    -0.200 F 
ENDBRANCH  51  75
BRANCH  63  86
ATOM     86  C   UNL A   1      43.990  28.859  35.056  1.00  0.00     0.064 A 
ATOM     87  C   UNL A   1      43.933  27.758  35.926  1.00  0.00     0.173 A 
ATOM     88  C   UNL A   1      45.243  29.450  34.829  1.00  0.00     0.173 A 
ATOM     89  F   UNL A   1      42.760  27.164  36.187  1.00  0.00    -0.203 F 
ATOM     90  C   UNL A   1      45.075  27.301  36.577  1.00  0.00     0.198 A 
ATOM     91  C   UNL A   1      46.389  28.964  35.452  1.00  0.00     0.198 A 
ATOM     92  F   UNL A   1      45.357  30.497  33.999  1.00  0.00    -0.203 F 
ATOM     93  F   UNL A   1      44.983  26.295  37.459  1.00  0.00    -0.200 F 
ATOM     94  C   UNL A   1      46.302  27.900  36.336  1.00  0.00     0.200 A 
ATOM     95  F   UNL A   1      47.576  29.533  35.204  1.00  0.00    -0.200 F 
ATOM     96  F   UNL A   1      47.399  27.459  36.966  1.00  0.00    -0.200 F 
ENDBRANCH  63  86
ENDBRANCH  37  38
ENDBRANCH  29  32
ENDBRANCH  27  28
ENDBRANCH  26  27
ENDBRANCH   1  26
TORSDOF 16
ENDMDL
