MODEL 1
REMARK VINA RESULT:     -11.9      0.000      0.000
REMARK SMILES CC[NH2+][C@@]1(C(=O)NCCCCNC(=O)c2ccc(-c3c4nc(c(-c5c(F)c(F)c(F)c(F)c5F)c5ccc([nH]5)c(-c5c(F)c(F)c(F)c(F)c5F)c5nc(c(-c6c(F)c(F)c(F)c(F)c6F)c6ccc3[nH]6)C=C5)C=C4)cc2)CC[C@@H](SCC2CCCC2)C1
REMARK SMILES IDX 9 1 8 2 7 3 5 4 6 5 4 7 78 8 88 9 79 10 80 11 3 12 2 15 1 16
REMARK SMILES IDX 81 17 82 18 83 19 84 20 87 21 85 22 86 23 10 24 11 25 12 26
REMARK SMILES IDX 13 27 14 29 15 30 16 31 77 32 17 33 76 34 18 35 19 36 20 37
REMARK SMILES IDX 70 38 21 39 75 40 69 41 71 42 22 43 74 44 68 45 67 46 23 48
REMARK SMILES IDX 55 49 35 50 54 51 36 52 39 53 53 54 72 55 37 56 38 57 52 59
REMARK SMILES IDX 73 60 40 61 24 62 25 63 33 64 26 65 27 66 31 67 34 68 28 69
REMARK SMILES IDX 29 70 32 71 30 72 56 73 57 74 65 75 58 76 59 77 63 78 66 79
REMARK SMILES IDX 60 80 61 81 64 82 62 83 41 84 42 85 50 86 43 87 44 88 48 89
REMARK SMILES IDX 51 90 45 91 46 92 49 93 47 94
REMARK H PARENT 7 6 3 13 3 14 12 28 71 47 39 58
REMARK Flexibility Score: inf
ROOT
ATOM      1  C   UNL A   1      32.246  30.018  27.142  1.00  0.00     0.023 C 
ENDROOT
BRANCH   1   2
ATOM      2  C   UNL A   1      33.589  29.434  26.713  1.00  0.00     0.116 C 
BRANCH   2   3
ATOM      3  N   UNL A   1      33.808  29.523  25.295  1.00  0.00    -0.351 N 
ATOM      4  C   UNL A   1      33.301  28.868  24.220  1.00  0.00     0.281 C 
ATOM      5  O   UNL A   1      33.714  29.328  23.145  1.00  0.00    -0.268 OA
ATOM      6  H   UNL A   1      34.470  30.209  25.050  1.00  0.00     0.163 HD
BRANCH   4   7
ATOM      7  C   UNL A   1      32.310  27.620  24.279  1.00  0.00     0.176 C 
ATOM      8  C   UNL A   1      32.206  26.764  23.002  1.00  0.00     0.080 C 
ATOM      9  C   UNL A   1      30.864  28.070  24.582  1.00  0.00     0.093 C 
ATOM     10  C   UNL A   1      30.883  27.077  22.309  1.00  0.00     0.022 C 
ATOM     11  C   UNL A   1      30.039  27.863  23.307  1.00  0.00     0.053 C 
BRANCH   7  12
ATOM     12  N   UNL A   1      32.754  26.774  25.433  1.00  0.00    -0.334 N 
ATOM     13  H   UNL A   1      33.297  25.994  25.062  1.00  0.00     0.347 HD
ATOM     14  H   UNL A   1      33.291  27.390  26.044  1.00  0.00     0.347 HD
BRANCH  12  15
ATOM     15  C   UNL A   1      31.676  26.223  26.258  1.00  0.00     0.257 C 
ATOM     16  C   UNL A   1      31.663  24.706  26.143  1.00  0.00     0.071 C 
ENDBRANCH  12  15
ENDBRANCH   7  12
BRANCH  11  17
ATOM     17  S   UNL A   1      28.310  27.268  23.526  1.00  0.00    -0.158 SA
BRANCH  17  18
ATOM     18  C   UNL A   1      27.276  28.728  23.122  1.00  0.00     0.073 C 
BRANCH  18  19
ATOM     19  C   UNL A   1      28.088  29.980  22.839  1.00  0.00    -0.001 C 
ATOM     20  C   UNL A   1      28.029  30.463  21.395  1.00  0.00     0.004 C 
ATOM     21  C   UNL A   1      27.661  31.225  23.614  1.00  0.00     0.004 C 
ATOM     22  C   UNL A   1      28.735  31.812  21.497  1.00  0.00     0.000 C 
ATOM     23  C   UNL A   1      28.341  32.374  22.866  1.00  0.00     0.000 C 
ENDBRANCH  18  19
ENDBRANCH  17  18
ENDBRANCH  11  17
ENDBRANCH   4   7
ENDBRANCH   2   3
ENDBRANCH   1   2
BRANCH   1  24
ATOM     24  C   UNL A   1      32.064  31.493  26.789  1.00  0.00     0.023 C 
BRANCH  24  25
ATOM     25  C   UNL A   1      33.023  32.452  27.492  1.00  0.00     0.116 C 
BRANCH  25  26
ATOM     26  N   UNL A   1      32.535  33.811  27.621  1.00  0.00    -0.352 N 
ATOM     27  C   UNL A   1      33.038  34.804  28.448  1.00  0.00     0.251 C 
ATOM     28  H   UNL A   1      31.763  34.055  27.060  1.00  0.00     0.163 HD
ATOM     29  O   UNL A   1      32.517  35.902  28.517  1.00  0.00    -0.269 OA
BRANCH  27  30
ATOM     30  C   UNL A   1      34.201  34.462  29.292  1.00  0.00     0.039 A 
ATOM     31  C   UNL A   1      33.972  33.929  30.561  1.00  0.00     0.014 A 
ATOM     32  C   UNL A   1      35.491  34.547  28.771  1.00  0.00     0.014 A 
ATOM     33  C   UNL A   1      35.043  33.393  31.279  1.00  0.00     0.010 A 
ATOM     34  C   UNL A   1      36.543  33.945  29.453  1.00  0.00     0.010 A 
ATOM     35  C   UNL A   1      36.326  33.353  30.707  1.00  0.00    -0.014 A 
BRANCH  35  36
ATOM     36  C   UNL A   1      37.455  32.683  31.396  1.00  0.00     0.031 A 
ATOM     37  C   UNL A   1      38.163  31.538  30.733  1.00  0.00     0.074 A 
ATOM     38  C   UNL A   1      37.784  33.050  32.650  1.00  0.00     0.049 A 
ATOM     39  N   UNL A   1      39.112  30.768  31.200  1.00  0.00    -0.248 NA
ATOM     40  C   UNL A   1      37.720  31.189  29.374  1.00  0.00     0.031 C 
ATOM     41  C   UNL A   1      37.127  34.104  33.426  1.00  0.00     0.029 A 
ATOM     42  N   UNL A   1      38.748  32.566  33.499  1.00  0.00    -0.354 N 
ATOM     43  C   UNL A   1      39.361  29.834  30.206  1.00  0.00     0.074 A 
ATOM     44  C   UNL A   1      38.430  30.098  29.130  1.00  0.00     0.031 C 
ATOM     45  C   UNL A   1      37.723  34.203  34.626  1.00  0.00     0.029 A 
ATOM     46  C   UNL A   1      38.780  33.202  34.717  1.00  0.00     0.049 A 
ATOM     47  H   UNL A   1      39.358  31.833  33.258  1.00  0.00     0.167 HD
ATOM     48  C   UNL A   1      40.301  28.858  30.180  1.00  0.00     0.037 A 
ATOM     49  C   UNL A   1      39.577  32.998  35.783  1.00  0.00     0.037 A 
ATOM     50  C   UNL A   1      41.251  28.625  31.232  1.00  0.00     0.049 A 
ATOM     51  C   UNL A   1      40.635  31.930  35.716  1.00  0.00     0.074 A 
ATOM     52  C   UNL A   1      42.289  27.711  31.271  1.00  0.00     0.029 A 
ATOM     53  N   UNL A   1      41.283  29.320  32.433  1.00  0.00    -0.354 N 
ATOM     54  N   UNL A   1      40.911  31.101  34.740  1.00  0.00    -0.248 NA
ATOM     55  C   UNL A   1      41.498  31.778  36.896  1.00  0.00     0.031 C 
ATOM     56  C   UNL A   1      42.931  27.830  32.510  1.00  0.00     0.029 A 
ATOM     57  C   UNL A   1      42.315  28.845  33.225  1.00  0.00     0.049 A 
ATOM     58  H   UNL A   1      40.664  30.042  32.684  1.00  0.00     0.167 HD
ATOM     59  C   UNL A   1      41.991  30.346  35.174  1.00  0.00     0.074 A 
ATOM     60  C   UNL A   1      42.331  30.826  36.498  1.00  0.00     0.031 C 
ATOM     61  C   UNL A   1      42.643  29.345  34.535  1.00  0.00     0.037 A 
BRANCH  48  62
ATOM     62  C   UNL A   1      40.350  27.982  28.964  1.00  0.00     0.064 A 
ATOM     63  C   UNL A   1      39.632  26.777  28.898  1.00  0.00     0.173 A 
ATOM     64  C   UNL A   1      41.108  28.357  27.845  1.00  0.00     0.173 A 
ATOM     65  F   UNL A   1      38.906  26.367  29.949  1.00  0.00    -0.203 F 
ATOM     66  C   UNL A   1      39.695  25.967  27.768  1.00  0.00     0.198 A 
ATOM     67  C   UNL A   1      41.145  27.558  26.706  1.00  0.00     0.198 A 
ATOM     68  F   UNL A   1      41.810  29.500  27.856  1.00  0.00    -0.203 F 
ATOM     69  F   UNL A   1      39.043  24.797  27.749  1.00  0.00    -0.200 F 
ATOM     70  C   UNL A   1      40.446  26.361  26.672  1.00  0.00     0.200 A 
ATOM     71  F   UNL A   1      41.863  27.944  25.642  1.00  0.00    -0.200 F 
ATOM     72  F   UNL A   1      40.504  25.581  25.583  1.00  0.00    -0.200 F 
ENDBRANCH  48  62
BRANCH  49  73
ATOM     73  C   UNL A   1      39.432  33.849  36.993  1.00  0.00     0.064 A 
ATOM     74  C   UNL A   1      38.709  33.395  38.105  1.00  0.00     0.173 A 
ATOM     75  C   UNL A   1      40.005  35.127  37.062  1.00  0.00     0.173 A 
ATOM     76  F   UNL A   1      38.127  32.187  38.076  1.00  0.00    -0.203 F 
ATOM     77  C   UNL A   1      38.548  34.195  39.234  1.00  0.00     0.198 A 
ATOM     78  C   UNL A   1      39.863  35.916  38.201  1.00  0.00     0.198 A 
ATOM     79  F   UNL A   1      40.710  35.604  36.026  1.00  0.00    -0.203 F 
ATOM     80  F   UNL A   1      37.818  33.753  40.267  1.00  0.00    -0.200 F 
ATOM     81  C   UNL A   1      39.130  35.453  39.284  1.00  0.00     0.200 A 
ATOM     82  F   UNL A   1      40.435  37.126  38.251  1.00  0.00    -0.200 F 
ATOM     83  F   UNL A   1      38.975  36.222  40.370  1.00  0.00    -0.200 F 
ENDBRANCH  49  73
BRANCH  61  84
ATOM     84  C   UNL A   1      43.810  28.724  35.244  1.00  0.00     0.064 A 
ATOM     85  C   UNL A   1      45.109  29.233  35.100  1.00  0.00     0.173 A 
ATOM     86  C   UNL A   1      43.618  27.639  36.111  1.00  0.00     0.173 A 
ATOM     87  F   UNL A   1      45.344  30.260  34.270  1.00  0.00    -0.203 F 
ATOM     88  C   UNL A   1      46.178  28.662  35.785  1.00  0.00     0.198 A 
ATOM     89  C   UNL A   1      44.685  27.087  36.813  1.00  0.00     0.198 A 
ATOM     90  F   UNL A   1      42.393  27.122  36.285  1.00  0.00    -0.203 F 
ATOM     91  F   UNL A   1      47.418  29.137  35.602  1.00  0.00    -0.200 F 
ATOM     92  C   UNL A   1      45.964  27.595  36.645  1.00  0.00     0.200 A 
ATOM     93  F   UNL A   1      44.476  26.063  37.652  1.00  0.00    -0.200 F 
ATOM     94  F   UNL A   1      46.995  27.052  37.309  1.00  0.00    -0.200 F 
ENDBRANCH  61  84
ENDBRANCH  35  36
ENDBRANCH  27  30
ENDBRANCH  25  26
ENDBRANCH  24  25
ENDBRANCH   1  24
TORSDOF 16
ENDMDL
MODEL 2
REMARK VINA RESULT:     -11.8      0.701      7.382
REMARK SMILES CC[NH2+][C@@]1(C(=O)NCCCCNC(=O)c2ccc(-c3c4nc(c(-c5c(F)c(F)c(F)c(F)c5F)c5ccc([nH]5)c(-c5c(F)c(F)c(F)c(F)c5F)c5nc(c(-c6c(F)c(F)c(F)c(F)c6F)c6ccc3[nH]6)C=C5)C=C4)cc2)CC[C@@H](SCC2CCCC2)C1
REMARK SMILES IDX 9 1 8 2 7 3 5 4 6 5 4 7 78 8 88 9 79 10 80 11 3 12 2 15 1 16
REMARK SMILES IDX 81 17 82 18 83 19 84 20 87 21 85 22 86 23 10 24 11 25 12 26
REMARK SMILES IDX 13 27 14 29 15 30 16 31 77 32 17 33 76 34 18 35 19 36 20 37
REMARK SMILES IDX 70 38 21 39 75 40 69 41 71 42 22 43 74 44 68 45 67 46 23 48
REMARK SMILES IDX 55 49 35 50 54 51 36 52 39 53 53 54 72 55 37 56 38 57 52 59
REMARK SMILES IDX 73 60 40 61 24 62 25 63 33 64 26 65 27 66 31 67 34 68 28 69
REMARK SMILES IDX 29 70 32 71 30 72 56 73 57 74 65 75 58 76 59 77 63 78 66 79
REMARK SMILES IDX 60 80 61 81 64 82 62 83 41 84 42 85 50 86 43 87 44 88 48 89
REMARK SMILES IDX 51 90 45 91 46 92 49 93 47 94
REMARK H PARENT 7 6 3 13 3 14 12 28 71 47 39 58
REMARK Flexibility Score: inf
ROOT
ATOM      1  C   UNL A   1      32.074  30.158  27.194  1.00  0.00     0.023 C 
ENDROOT
BRANCH   1   2
ATOM      2  C   UNL A   1      33.412  29.512  26.846  1.00  0.00     0.116 C 
BRANCH   2   3
ATOM      3  N   UNL A   1      33.712  29.573  25.441  1.00  0.00    -0.351 N 
ATOM      4  C   UNL A   1      33.262  28.900  24.351  1.00  0.00     0.281 C 
ATOM      5  O   UNL A   1      33.739  29.338  23.293  1.00  0.00    -0.268 OA
ATOM      6  H   UNL A   1      34.392  30.250  25.221  1.00  0.00     0.163 HD
BRANCH   4   7
ATOM      7  C   UNL A   1      32.260  27.660  24.377  1.00  0.00     0.176 C 
ATOM      8  C   UNL A   1      32.190  26.806  23.096  1.00  0.00     0.080 C 
ATOM      9  C   UNL A   1      30.808  28.121  24.634  1.00  0.00     0.093 C 
ATOM     10  C   UNL A   1      30.892  27.130  22.361  1.00  0.00     0.022 C 
ATOM     11  C   UNL A   1      30.023  27.921  23.333  1.00  0.00     0.053 C 
BRANCH   7  12
ATOM     12  N   UNL A   1      32.661  26.810  25.543  1.00  0.00    -0.334 N 
ATOM     13  H   UNL A   1      32.816  27.424  26.343  1.00  0.00     0.347 HD
ATOM     14  H   UNL A   1      31.900  26.144  25.682  1.00  0.00     0.347 HD
BRANCH  12  15
ATOM     15  C   UNL A   1      33.872  26.008  25.347  1.00  0.00     0.257 C 
ATOM     16  C   UNL A   1      33.602  24.563  25.737  1.00  0.00     0.071 C 
ENDBRANCH  12  15
ENDBRANCH   7  12
BRANCH  11  17
ATOM     17  S   UNL A   1      28.284  27.340  23.497  1.00  0.00    -0.158 SA
BRANCH  17  18
ATOM     18  C   UNL A   1      27.275  28.839  23.180  1.00  0.00     0.073 C 
BRANCH  18  19
ATOM     19  C   UNL A   1      28.105  30.053  22.804  1.00  0.00    -0.001 C 
ATOM     20  C   UNL A   1      28.031  30.444  21.334  1.00  0.00     0.004 C 
ATOM     21  C   UNL A   1      27.714  31.354  23.503  1.00  0.00     0.004 C 
ATOM     22  C   UNL A   1      28.764  31.783  21.337  1.00  0.00     0.000 C 
ATOM     23  C   UNL A   1      28.402  32.439  22.672  1.00  0.00     0.000 C 
ENDBRANCH  18  19
ENDBRANCH  17  18
ENDBRANCH  11  17
ENDBRANCH   4   7
ENDBRANCH   2   3
ENDBRANCH   1   2
BRANCH   1  24
ATOM     24  C   UNL A   1      31.941  31.608  26.731  1.00  0.00     0.023 C 
BRANCH  24  25
ATOM     25  C   UNL A   1      33.008  32.560  27.267  1.00  0.00     0.116 C 
BRANCH  25  26
ATOM     26  N   UNL A   1      32.530  33.894  27.575  1.00  0.00    -0.352 N 
ATOM     27  C   UNL A   1      33.030  34.758  28.538  1.00  0.00     0.251 C 
ATOM     28  H   UNL A   1      31.770  34.221  27.043  1.00  0.00     0.163 HD
ATOM     29  O   UNL A   1      32.518  35.843  28.750  1.00  0.00    -0.269 OA
BRANCH  27  30
ATOM     30  C   UNL A   1      34.176  34.290  29.343  1.00  0.00     0.039 A 
ATOM     31  C   UNL A   1      33.926  33.516  30.476  1.00  0.00     0.014 A 
ATOM     32  C   UNL A   1      35.479  34.510  28.896  1.00  0.00     0.014 A 
ATOM     33  C   UNL A   1      34.991  32.880  31.116  1.00  0.00     0.010 A 
ATOM     34  C   UNL A   1      36.528  33.816  29.488  1.00  0.00     0.010 A 
ATOM     35  C   UNL A   1      36.292  32.986  30.596  1.00  0.00    -0.014 A 
BRANCH  35  36
ATOM     36  C   UNL A   1      37.421  32.226  31.185  1.00  0.00     0.031 A 
ATOM     37  C   UNL A   1      37.915  32.567  32.560  1.00  0.00     0.074 A 
ATOM     38  C   UNL A   1      38.052  31.290  30.449  1.00  0.00     0.049 A 
ATOM     39  N   UNL A   1      38.938  32.083  33.217  1.00  0.00    -0.248 NA
ATOM     40  C   UNL A   1      37.182  33.620  33.281  1.00  0.00     0.031 C 
ATOM     41  C   UNL A   1      37.707  30.915  29.076  1.00  0.00     0.029 A 
ATOM     42  N   UNL A   1      39.127  30.492  30.751  1.00  0.00    -0.354 N 
ATOM     43  C   UNL A   1      38.984  32.785  34.412  1.00  0.00     0.074 A 
ATOM     44  C   UNL A   1      37.920  33.765  34.371  1.00  0.00     0.031 C 
ATOM     45  C   UNL A   1      38.538  29.944  28.664  1.00  0.00     0.029 A 
ATOM     46  C   UNL A   1      39.492  29.649  29.728  1.00  0.00     0.049 A 
ATOM     47  H   UNL A   1      39.593  30.520  31.617  1.00  0.00     0.167 HD
ATOM     48  C   UNL A   1      39.821  32.612  35.462  1.00  0.00     0.037 A 
ATOM     49  C   UNL A   1      40.485  28.742  29.662  1.00  0.00     0.037 A 
ATOM     50  C   UNL A   1      40.851  31.610  35.517  1.00  0.00     0.049 A 
ATOM     51  C   UNL A   1      41.380  28.545  30.855  1.00  0.00     0.074 A 
ATOM     52  C   UNL A   1      41.704  31.304  36.562  1.00  0.00     0.029 A 
ATOM     53  N   UNL A   1      41.162  30.743  34.479  1.00  0.00    -0.354 N 
ATOM     54  N   UNL A   1      41.367  29.164  32.009  1.00  0.00    -0.248 NA
ATOM     55  C   UNL A   1      42.422  27.515  30.738  1.00  0.00     0.031 C 
ATOM     56  C   UNL A   1      42.553  30.272  36.146  1.00  0.00     0.029 A 
ATOM     57  C   UNL A   1      42.203  29.911  34.855  1.00  0.00     0.049 A 
ATOM     58  H   UNL A   1      40.709  30.723  33.605  1.00  0.00     0.167 HD
ATOM     59  C   UNL A   1      42.377  28.586  32.764  1.00  0.00     0.074 A 
ATOM     60  C   UNL A   1      42.976  27.555  31.942  1.00  0.00     0.031 C 
ATOM     61  C   UNL A   1      42.776  28.883  34.025  1.00  0.00     0.037 A 
BRANCH  48  62
ATOM     62  C   UNL A   1      39.645  33.521  36.642  1.00  0.00     0.064 A 
ATOM     63  C   UNL A   1      40.307  34.755  36.722  1.00  0.00     0.173 A 
ATOM     64  C   UNL A   1      38.791  33.163  37.695  1.00  0.00     0.173 A 
ATOM     65  F   UNL A   1      41.147  35.135  35.747  1.00  0.00    -0.203 F 
ATOM     66  C   UNL A   1      40.144  35.585  37.828  1.00  0.00     0.198 A 
ATOM     67  C   UNL A   1      38.607  34.009  38.786  1.00  0.00     0.198 A 
ATOM     68  F   UNL A   1      38.132  31.995  37.666  1.00  0.00    -0.203 F 
ATOM     69  F   UNL A   1      40.826  36.735  37.906  1.00  0.00    -0.200 F 
ATOM     70  C   UNL A   1      39.290  35.214  38.855  1.00  0.00     0.200 A 
ATOM     71  F   UNL A   1      37.774  33.654  39.774  1.00  0.00    -0.200 F 
ATOM     72  F   UNL A   1      39.131  36.015  39.918  1.00  0.00    -0.200 F 
ENDBRANCH  48  62
BRANCH  49  73
ATOM     73  C   UNL A   1      40.660  27.920  28.436  1.00  0.00     0.064 A 
ATOM     74  C   UNL A   1      40.036  26.671  28.317  1.00  0.00     0.173 A 
ATOM     75  C   UNL A   1      41.452  28.361  27.366  1.00  0.00     0.173 A 
ATOM     76  F   UNL A   1      39.285  26.199  29.323  1.00  0.00    -0.203 F 
ATOM     77  C   UNL A   1      40.214  25.883  27.182  1.00  0.00     0.198 A 
ATOM     78  C   UNL A   1      41.610  27.583  26.222  1.00  0.00     0.198 A 
ATOM     79  F   UNL A   1      42.066  29.551  27.431  1.00  0.00    -0.203 F 
ATOM     80  F   UNL A   1      39.639  24.675  27.111  1.00  0.00    -0.200 F 
ATOM     81  C   UNL A   1      40.997  26.342  26.132  1.00  0.00     0.200 A 
ATOM     82  F   UNL A   1      42.357  28.033  25.205  1.00  0.00    -0.200 F 
ATOM     83  F   UNL A   1      41.166  25.585  25.040  1.00  0.00    -0.200 F 
ENDBRANCH  49  73
BRANCH  61  84
ATOM     84  C   UNL A   1      43.888  28.060  34.605  1.00  0.00     0.064 A 
ATOM     85  C   UNL A   1      45.224  28.478  34.529  1.00  0.00     0.173 A 
ATOM     86  C   UNL A   1      43.606  26.865  35.283  1.00  0.00     0.173 A 
ATOM     87  F   UNL A   1      45.543  29.606  33.877  1.00  0.00    -0.203 F 
ATOM     88  C   UNL A   1      46.242  27.716  35.094  1.00  0.00     0.198 A 
ATOM     89  C   UNL A   1      44.624  26.120  35.870  1.00  0.00     0.198 A 
ATOM     90  F   UNL A   1      42.342  26.429  35.387  1.00  0.00    -0.203 F 
ATOM     91  F   UNL A   1      47.518  28.112  34.976  1.00  0.00    -0.200 F 
ATOM     92  C   UNL A   1      45.941  26.542  35.770  1.00  0.00     0.200 A 
ATOM     93  F   UNL A   1      44.331  24.991  36.531  1.00  0.00    -0.200 F 
ATOM     94  F   UNL A   1      46.923  25.814  36.320  1.00  0.00    -0.200 F 
ENDBRANCH  61  84
ENDBRANCH  35  36
ENDBRANCH  27  30
ENDBRANCH  25  26
ENDBRANCH  24  25
ENDBRANCH   1  24
TORSDOF 16
ENDMDL
MODEL 3
REMARK VINA RESULT:     -11.7      1.707      7.996
REMARK SMILES CC[NH2+][C@@]1(C(=O)NCCCCNC(=O)c2ccc(-c3c4nc(c(-c5c(F)c(F)c(F)c(F)c5F)c5ccc([nH]5)c(-c5c(F)c(F)c(F)c(F)c5F)c5nc(c(-c6c(F)c(F)c(F)c(F)c6F)c6ccc3[nH]6)C=C5)C=C4)cc2)CC[C@@H](SCC2CCCC2)C1
REMARK SMILES IDX 9 1 8 2 7 3 5 4 6 5 4 7 78 8 88 9 79 10 80 11 3 12 2 15 1 16
REMARK SMILES IDX 81 17 82 18 83 19 84 20 87 21 85 22 86 23 10 24 11 25 12 26
REMARK SMILES IDX 13 27 14 29 15 30 16 31 77 32 17 33 76 34 18 35 19 36 20 37
REMARK SMILES IDX 70 38 21 39 75 40 69 41 71 42 22 43 74 44 68 45 67 46 23 48
REMARK SMILES IDX 55 49 35 50 54 51 36 52 39 53 53 54 72 55 37 56 38 57 52 59
REMARK SMILES IDX 73 60 40 61 24 62 25 63 33 64 26 65 27 66 31 67 34 68 28 69
REMARK SMILES IDX 29 70 32 71 30 72 56 73 57 74 65 75 58 76 59 77 63 78 66 79
REMARK SMILES IDX 60 80 61 81 64 82 62 83 41 84 42 85 50 86 43 87 44 88 48 89
REMARK SMILES IDX 51 90 45 91 46 92 49 93 47 94
REMARK H PARENT 7 6 3 13 3 14 12 28 71 47 39 58
REMARK Flexibility Score: inf
ROOT
ATOM      1  C   UNL A   1      32.021  30.229  26.973  1.00  0.00     0.023 C 
ENDROOT
BRANCH   1   2
ATOM      2  C   UNL A   1      33.276  29.544  26.439  1.00  0.00     0.116 C 
BRANCH   2   3
ATOM      3  N   UNL A   1      33.383  29.615  25.008  1.00  0.00    -0.351 N 
ATOM      4  C   UNL A   1      32.924  28.844  23.989  1.00  0.00     0.281 C 
ATOM      5  O   UNL A   1      33.183  29.326  22.875  1.00  0.00    -0.268 OA
ATOM      6  H   UNL A   1      33.904  30.391  24.698  1.00  0.00     0.163 HD
BRANCH   4   7
ATOM      7  C   UNL A   1      32.162  27.453  24.151  1.00  0.00     0.176 C 
ATOM      8  C   UNL A   1      31.025  27.409  25.191  1.00  0.00     0.080 C 
ATOM      9  C   UNL A   1      33.135  26.329  24.569  1.00  0.00     0.093 C 
ATOM     10  C   UNL A   1      31.516  26.650  26.421  1.00  0.00     0.022 C 
ATOM     11  C   UNL A   1      32.813  25.955  26.020  1.00  0.00     0.053 C 
BRANCH   7  12
ATOM     12  N   UNL A   1      31.635  27.093  22.795  1.00  0.00    -0.334 N 
ATOM     13  H   UNL A   1      30.628  27.256  22.795  1.00  0.00     0.347 HD
ATOM     14  H   UNL A   1      32.143  27.677  22.131  1.00  0.00     0.347 HD
BRANCH  12  15
ATOM     15  C   UNL A   1      31.869  25.707  22.380  1.00  0.00     0.257 C 
ATOM     16  C   UNL A   1      32.531  25.683  21.011  1.00  0.00     0.071 C 
ENDBRANCH  12  15
ENDBRANCH   7  12
BRANCH  11  17
ATOM     17  S   UNL A   1      32.925  24.171  26.460  1.00  0.00    -0.158 SA
BRANCH  17  18
ATOM     18  C   UNL A   1      33.194  23.325  24.854  1.00  0.00     0.073 C 
BRANCH  18  19
ATOM     19  C   UNL A   1      34.643  22.939  24.614  1.00  0.00    -0.001 C 
ATOM     20  C   UNL A   1      35.155  23.233  23.210  1.00  0.00     0.004 C 
ATOM     21  C   UNL A   1      35.666  23.661  25.489  1.00  0.00     0.004 C 
ATOM     22  C   UNL A   1      36.647  22.950  23.365  1.00  0.00     0.000 C 
ATOM     23  C   UNL A   1      36.999  23.401  24.785  1.00  0.00     0.000 C 
ENDBRANCH  18  19
ENDBRANCH  17  18
ENDBRANCH  11  17
ENDBRANCH   4   7
ENDBRANCH   2   3
ENDBRANCH   1   2
BRANCH   1  24
ATOM     24  C   UNL A   1      31.927  31.715  26.633  1.00  0.00     0.023 C 
BRANCH  24  25
ATOM     25  C   UNL A   1      32.964  32.603  27.318  1.00  0.00     0.116 C 
BRANCH  25  26
ATOM     26  N   UNL A   1      32.511  33.949  27.610  1.00  0.00    -0.352 N 
ATOM     27  C   UNL A   1      33.039  34.822  28.549  1.00  0.00     0.251 C 
ATOM     28  H   UNL A   1      31.746  34.278  27.085  1.00  0.00     0.163 HD
ATOM     29  O   UNL A   1      32.547  35.918  28.751  1.00  0.00    -0.269 OA
BRANCH  27  30
ATOM     30  C   UNL A   1      34.192  34.352  29.343  1.00  0.00     0.039 A 
ATOM     31  C   UNL A   1      33.949  33.630  30.512  1.00  0.00     0.014 A 
ATOM     32  C   UNL A   1      35.489  34.514  28.855  1.00  0.00     0.014 A 
ATOM     33  C   UNL A   1      35.012  32.988  31.150  1.00  0.00     0.010 A 
ATOM     34  C   UNL A   1      36.532  33.812  29.448  1.00  0.00     0.010 A 
ATOM     35  C   UNL A   1      36.301  33.034  30.593  1.00  0.00    -0.014 A 
BRANCH  35  36
ATOM     36  C   UNL A   1      37.422  32.263  31.183  1.00  0.00     0.031 A 
ATOM     37  C   UNL A   1      37.916  32.597  32.560  1.00  0.00     0.074 A 
ATOM     38  C   UNL A   1      38.047  31.323  30.447  1.00  0.00     0.049 A 
ATOM     39  N   UNL A   1      38.934  32.104  33.218  1.00  0.00    -0.248 NA
ATOM     40  C   UNL A   1      37.190  33.655  33.281  1.00  0.00     0.031 C 
ATOM     41  C   UNL A   1      37.703  30.954  29.073  1.00  0.00     0.029 A 
ATOM     42  N   UNL A   1      39.115  30.516  30.749  1.00  0.00    -0.354 N 
ATOM     43  C   UNL A   1      38.983  32.804  34.415  1.00  0.00     0.074 A 
ATOM     44  C   UNL A   1      37.927  33.793  34.373  1.00  0.00     0.031 C 
ATOM     45  C   UNL A   1      38.527  29.976  28.660  1.00  0.00     0.029 A 
ATOM     46  C   UNL A   1      39.475  29.672  29.726  1.00  0.00     0.049 A 
ATOM     47  H   UNL A   1      39.579  30.539  31.617  1.00  0.00     0.167 HD
ATOM     48  C   UNL A   1      39.817  32.621  35.466  1.00  0.00     0.037 A 
ATOM     49  C   UNL A   1      40.461  28.757  29.660  1.00  0.00     0.037 A 
ATOM     50  C   UNL A   1      40.838  31.611  35.521  1.00  0.00     0.049 A 
ATOM     51  C   UNL A   1      41.352  28.550  30.855  1.00  0.00     0.074 A 
ATOM     52  C   UNL A   1      41.686  31.296  36.568  1.00  0.00     0.029 A 
ATOM     53  N   UNL A   1      41.144  30.743  34.482  1.00  0.00    -0.354 N 
ATOM     54  N   UNL A   1      41.342  29.168  32.010  1.00  0.00    -0.248 NA
ATOM     55  C   UNL A   1      42.386  27.512  30.738  1.00  0.00     0.031 C 
ATOM     56  C   UNL A   1      42.528  30.258  36.152  1.00  0.00     0.029 A 
ATOM     57  C   UNL A   1      42.177  29.902  34.859  1.00  0.00     0.049 A 
ATOM     58  H   UNL A   1      40.693  30.729  33.607  1.00  0.00     0.167 HD
ATOM     59  C   UNL A   1      42.345  28.580  32.766  1.00  0.00     0.074 A 
ATOM     60  C   UNL A   1      42.938  27.545  31.943  1.00  0.00     0.031 C 
ATOM     61  C   UNL A   1      42.743  28.871  34.028  1.00  0.00     0.037 A 
BRANCH  48  62
ATOM     62  C   UNL A   1      39.645  33.529  36.647  1.00  0.00     0.064 A 
ATOM     63  C   UNL A   1      40.301  34.768  36.721  1.00  0.00     0.173 A 
ATOM     64  C   UNL A   1      38.802  33.167  37.708  1.00  0.00     0.173 A 
ATOM     65  F   UNL A   1      41.130  35.152  35.739  1.00  0.00    -0.203 F 
ATOM     66  C   UNL A   1      40.142  35.597  37.828  1.00  0.00     0.198 A 
ATOM     67  C   UNL A   1      38.623  34.012  38.800  1.00  0.00     0.198 A 
ATOM     68  F   UNL A   1      38.150  31.995  37.684  1.00  0.00    -0.203 F 
ATOM     69  F   UNL A   1      40.818  36.752  37.900  1.00  0.00    -0.200 F 
ATOM     70  C   UNL A   1      39.299  35.221  38.863  1.00  0.00     0.200 A 
ATOM     71  F   UNL A   1      37.801  33.653  39.795  1.00  0.00    -0.200 F 
ATOM     72  F   UNL A   1      39.145  36.022  39.927  1.00  0.00    -0.200 F 
ENDBRANCH  48  62
BRANCH  49  73
ATOM     73  C   UNL A   1      40.632  27.936  28.433  1.00  0.00     0.064 A 
ATOM     74  C   UNL A   1      40.023  26.679  28.322  1.00  0.00     0.173 A 
ATOM     75  C   UNL A   1      41.406  28.385  27.354  1.00  0.00     0.173 A 
ATOM     76  F   UNL A   1      39.289  26.199  29.338  1.00  0.00    -0.203 F 
ATOM     77  C   UNL A   1      40.197  25.892  27.186  1.00  0.00     0.198 A 
ATOM     78  C   UNL A   1      41.560  27.608  26.208  1.00  0.00     0.198 A 
ATOM     79  F   UNL A   1      42.006  29.583  27.410  1.00  0.00    -0.203 F 
ATOM     80  F   UNL A   1      39.636  24.676  27.123  1.00  0.00    -0.200 F 
ATOM     81  C   UNL A   1      40.961  26.359  26.127  1.00  0.00     0.200 A 
ATOM     82  F   UNL A   1      42.290  28.066  25.182  1.00  0.00    -0.200 F 
ATOM     83  F   UNL A   1      41.128  25.603  25.034  1.00  0.00    -0.200 F 
ENDBRANCH  49  73
BRANCH  61  84
ATOM     84  C   UNL A   1      43.847  28.038  34.609  1.00  0.00     0.064 A 
ATOM     85  C   UNL A   1      45.187  28.446  34.539  1.00  0.00     0.173 A 
ATOM     86  C   UNL A   1      43.554  26.843  35.283  1.00  0.00     0.173 A 
ATOM     87  F   UNL A   1      45.517  29.574  33.892  1.00  0.00    -0.203 F 
ATOM     88  C   UNL A   1      46.198  27.675  35.105  1.00  0.00     0.198 A 
ATOM     89  C   UNL A   1      44.565  26.088  35.870  1.00  0.00     0.198 A 
ATOM     90  F   UNL A   1      42.287  26.415  35.380  1.00  0.00    -0.203 F 
ATOM     91  F   UNL A   1      47.476  28.062  34.992  1.00  0.00    -0.200 F 
ATOM     92  C   UNL A   1      45.885  26.501  35.776  1.00  0.00     0.200 A 
ATOM     93  F   UNL A   1      44.261  24.959  36.526  1.00  0.00    -0.200 F 
ATOM     94  F   UNL A   1      46.860  25.763  36.327  1.00  0.00    -0.200 F 
ENDBRANCH  61  84
ENDBRANCH  35  36
ENDBRANCH  27  30
ENDBRANCH  25  26
ENDBRANCH  24  25
ENDBRANCH   1  24
TORSDOF 16
ENDMDL
