MODEL 1
REMARK VINA RESULT:     -12.5      0.000      0.000
REMARK SMILES C[C@H](C1CC1)n1c(SCC(=O)NCCCCNC(=O)c2ccc(-c3c4nc(c(-c5c(F)c(F)c(F)c(F)c5F)c5ccc([nH]5)c(-c5c(F)c(F)c(F)c(F)c5F)c5nc(c(-c6c(F)c(F)c(F)c(F)c6F)c6ccc3[nH]6)C=C5)C=C4)cc2)nc2cc(Cl)c(Cl)cc21
REMARK SMILES IDX 13 1 12 2 10 3 11 4 9 6 8 7 7 8 6 9 91 10 83 11 84 12 90 13
REMARK SMILES IDX 85 14 88 15 86 16 89 17 87 18 2 19 1 20 3 21 4 22 5 23 14 24
REMARK SMILES IDX 15 25 16 26 17 27 18 28 19 30 20 31 21 32 82 33 22 34 81 35
REMARK SMILES IDX 23 36 24 37 25 38 75 39 26 40 80 41 74 42 76 43 27 44 79 45
REMARK SMILES IDX 73 46 72 47 28 49 60 50 40 51 59 52 41 53 44 54 58 55 77 56
REMARK SMILES IDX 42 57 43 58 57 60 78 61 45 62 29 63 30 64 38 65 31 66 32 67
REMARK SMILES IDX 36 68 39 69 33 70 34 71 37 72 35 73 61 74 62 75 70 76 63 77
REMARK SMILES IDX 64 78 68 79 71 80 65 81 66 82 69 83 67 84 46 85 47 86 55 87
REMARK SMILES IDX 48 88 49 89 53 90 56 91 50 92 51 93 54 94 52 95
REMARK H PARENT 12 5 17 29 76 48 44 59
REMARK Flexibility Score: inf
ROOT
ATOM      1  C   UNL A   1      35.560  22.185  24.241  1.00  0.00     0.116 C 
ENDROOT
BRANCH   1   2
ATOM      2  N   UNL A   1      35.105  22.221  25.616  1.00  0.00    -0.355 N 
ATOM      3  C   UNL A   1      34.156  23.019  26.165  1.00  0.00     0.230 C 
ATOM      4  O   UNL A   1      33.996  22.968  27.385  1.00  0.00    -0.274 OA
ATOM      5  H   UNL A   1      35.540  21.586  26.229  1.00  0.00     0.163 HD
BRANCH   3   6
ATOM      6  C   UNL A   1      33.289  23.858  25.268  1.00  0.00     0.178 C 
BRANCH   6   7
ATOM      7  S   UNL A   1      34.029  25.332  24.593  1.00  0.00    -0.078 SA
BRANCH   7   8
ATOM      8  C   UNL A   1      32.948  26.678  24.423  1.00  0.00     0.169 A 
ATOM      9  N   UNL A   1      32.639  27.781  25.226  1.00  0.00    -0.316 N 
ATOM     10  C   UNL A   1      31.667  28.501  24.496  1.00  0.00     0.071 A 
ATOM     11  N   UNL A   1      32.082  26.557  23.435  1.00  0.00    -0.222 NA
ATOM     12  C   UNL A   1      31.259  27.628  23.493  1.00  0.00     0.091 A 
ATOM     13  C   UNL A   1      31.065  29.773  24.587  1.00  0.00     0.050 A 
ATOM     14  C   UNL A   1      30.146  27.916  22.684  1.00  0.00     0.052 A 
ATOM     15  C   UNL A   1      29.932  30.048  23.797  1.00  0.00     0.061 A 
ATOM     16  C   UNL A   1      29.459  29.116  22.874  1.00  0.00     0.061 A 
ATOM     17  Cl  UNL A   1      29.151  31.574  24.045  1.00  0.00    -0.083 Cl
ATOM     18  Cl  UNL A   1      28.043  29.392  21.920  1.00  0.00    -0.083 Cl
BRANCH   9  19
ATOM     19  C   UNL A   1      33.157  28.164  26.574  1.00  0.00     0.090 C 
ATOM     20  C   UNL A   1      32.082  28.372  27.657  1.00  0.00     0.032 C 
BRANCH  19  21
ATOM     21  C   UNL A   1      34.138  29.349  26.591  1.00  0.00     0.012 C 
ATOM     22  C   UNL A   1      34.231  30.362  27.708  1.00  0.00     0.006 C 
ATOM     23  C   UNL A   1      35.347  29.367  27.503  1.00  0.00     0.006 C 
ENDBRANCH  19  21
ENDBRANCH   9  19
ENDBRANCH   7   8
ENDBRANCH   6   7
ENDBRANCH   3   6
ENDBRANCH   1   2
BRANCH   1  24
ATOM     24  C   UNL A   1      37.072  22.040  24.185  1.00  0.00     0.023 C 
BRANCH  24  25
ATOM     25  C   UNL A   1      37.815  22.748  25.321  1.00  0.00     0.023 C 
BRANCH  25  26
ATOM     26  C   UNL A   1      38.758  21.856  26.139  1.00  0.00     0.116 C 
BRANCH  26  27
ATOM     27  N   UNL A   1      40.159  21.984  25.788  1.00  0.00    -0.352 N 
ATOM     28  C   UNL A   1      41.150  22.861  26.119  1.00  0.00     0.251 C 
ATOM     29  H   UNL A   1      40.464  21.277  25.174  1.00  0.00     0.163 HD
ATOM     30  O   UNL A   1      42.284  22.586  25.714  1.00  0.00    -0.269 OA
BRANCH  28  31
ATOM     31  C   UNL A   1      40.939  24.135  26.850  1.00  0.00     0.039 A 
ATOM     32  C   UNL A   1      39.981  25.092  26.525  1.00  0.00     0.014 A 
ATOM     33  C   UNL A   1      41.836  24.408  27.900  1.00  0.00     0.014 A 
ATOM     34  C   UNL A   1      40.019  26.344  27.108  1.00  0.00     0.010 A 
ATOM     35  C   UNL A   1      41.844  25.645  28.530  1.00  0.00     0.010 A 
ATOM     36  C   UNL A   1      40.974  26.632  28.084  1.00  0.00    -0.014 A 
BRANCH  36  37
ATOM     37  C   UNL A   1      40.939  27.973  28.649  1.00  0.00     0.031 A 
ATOM     38  C   UNL A   1      42.110  28.825  28.291  1.00  0.00     0.074 A 
ATOM     39  C   UNL A   1      39.940  28.429  29.425  1.00  0.00     0.049 A 
ATOM     40  N   UNL A   1      43.004  29.319  29.086  1.00  0.00    -0.248 NA
ATOM     41  C   UNL A   1      42.393  29.036  26.864  1.00  0.00     0.031 C 
ATOM     42  C   UNL A   1      38.636  27.824  29.701  1.00  0.00     0.029 A 
ATOM     43  N   UNL A   1      39.876  29.613  30.094  1.00  0.00    -0.354 N 
ATOM     44  C   UNL A   1      43.894  30.025  28.278  1.00  0.00     0.074 A 
ATOM     45  C   UNL A   1      43.534  29.724  26.918  1.00  0.00     0.031 C 
ATOM     46  C   UNL A   1      37.836  28.741  30.291  1.00  0.00     0.029 A 
ATOM     47  C   UNL A   1      38.613  29.937  30.563  1.00  0.00     0.049 A 
ATOM     48  H   UNL A   1      40.661  30.190  30.233  1.00  0.00     0.167 HD
ATOM     49  C   UNL A   1      44.757  30.941  28.797  1.00  0.00     0.037 A 
ATOM     50  C   UNL A   1      38.233  31.128  31.087  1.00  0.00     0.037 A 
ATOM     51  C   UNL A   1      44.961  30.728  30.206  1.00  0.00     0.049 A 
ATOM     52  C   UNL A   1      39.461  31.823  31.549  1.00  0.00     0.074 A 
ATOM     53  C   UNL A   1      45.507  29.708  30.959  1.00  0.00     0.029 A 
ATOM     54  N   UNL A   1      44.273  31.517  31.092  1.00  0.00    -0.354 N 
ATOM     55  N   UNL A   1      40.168  31.432  32.573  1.00  0.00    -0.248 NA
ATOM     56  C   UNL A   1      40.151  32.687  30.602  1.00  0.00     0.031 C 
ATOM     57  C   UNL A   1      44.716  29.661  32.143  1.00  0.00     0.029 A 
ATOM     58  C   UNL A   1      43.773  30.686  32.058  1.00  0.00     0.049 A 
ATOM     59  H   UNL A   1      44.160  32.495  31.043  1.00  0.00     0.167 HD
ATOM     60  C   UNL A   1      41.484  31.642  32.189  1.00  0.00     0.074 A 
ATOM     61  C   UNL A   1      41.410  32.494  31.005  1.00  0.00     0.031 C 
ATOM     62  C   UNL A   1      42.495  30.880  32.696  1.00  0.00     0.037 A 
BRANCH  49  63
ATOM     63  C   UNL A   1      45.148  32.228  28.116  1.00  0.00     0.064 A 
ATOM     64  C   UNL A   1      44.152  33.186  27.828  1.00  0.00     0.173 A 
ATOM     65  C   UNL A   1      46.380  32.416  27.454  1.00  0.00     0.173 A 
ATOM     66  F   UNL A   1      42.939  33.106  28.397  1.00  0.00    -0.203 F 
ATOM     67  C   UNL A   1      44.344  34.187  26.874  1.00  0.00     0.198 A 
ATOM     68  C   UNL A   1      46.584  33.447  26.540  1.00  0.00     0.198 A 
ATOM     69  F   UNL A   1      47.394  31.552  27.577  1.00  0.00    -0.203 F 
ATOM     70  F   UNL A   1      43.325  34.987  26.535  1.00  0.00    -0.200 F 
ATOM     71  C   UNL A   1      45.557  34.309  26.221  1.00  0.00     0.200 A 
ATOM     72  F   UNL A   1      47.762  33.540  25.907  1.00  0.00    -0.200 F 
ATOM     73  F   UNL A   1      45.721  35.220  25.254  1.00  0.00    -0.200 F 
ENDBRANCH  49  63
BRANCH  50  74
ATOM     74  C   UNL A   1      36.927  31.811  30.956  1.00  0.00     0.064 A 
ATOM     75  C   UNL A   1      36.096  32.020  32.069  1.00  0.00     0.173 A 
ATOM     76  C   UNL A   1      36.591  32.513  29.782  1.00  0.00     0.173 A 
ATOM     77  F   UNL A   1      36.375  31.429  33.239  1.00  0.00    -0.203 F 
ATOM     78  C   UNL A   1      35.004  32.894  32.014  1.00  0.00     0.198 A 
ATOM     79  C   UNL A   1      35.499  33.379  29.727  1.00  0.00     0.198 A 
ATOM     80  F   UNL A   1      37.372  32.446  28.695  1.00  0.00    -0.203 F 
ATOM     81  F   UNL A   1      34.268  33.112  33.112  1.00  0.00    -0.200 F 
ATOM     82  C   UNL A   1      34.713  33.579  30.846  1.00  0.00     0.200 A 
ATOM     83  F   UNL A   1      35.252  34.066  28.602  1.00  0.00    -0.200 F 
ATOM     84  F   UNL A   1      33.703  34.460  30.811  1.00  0.00    -0.200 F 
ENDBRANCH  50  74
BRANCH  62  85
ATOM     85  C   UNL A   1      42.185  29.965  33.844  1.00  0.00     0.064 A 
ATOM     86  C   UNL A   1      41.703  28.654  33.679  1.00  0.00     0.173 A 
ATOM     87  C   UNL A   1      42.585  30.352  35.129  1.00  0.00     0.173 A 
ATOM     88  F   UNL A   1      41.391  28.183  32.466  1.00  0.00    -0.203 F 
ATOM     89  C   UNL A   1      41.613  27.779  34.760  1.00  0.00     0.198 A 
ATOM     90  C   UNL A   1      42.526  29.465  36.199  1.00  0.00     0.198 A 
ATOM     91  F   UNL A   1      43.105  31.574  35.330  1.00  0.00    -0.203 F 
ATOM     92  F   UNL A   1      41.162  26.529  34.578  1.00  0.00    -0.200 F 
ATOM     93  C   UNL A   1      42.037  28.181  36.016  1.00  0.00     0.200 A 
ATOM     94  F   UNL A   1      42.985  29.842  37.401  1.00  0.00    -0.200 F 
ATOM     95  F   UNL A   1      42.008  27.321  37.043  1.00  0.00    -0.200 F 
ENDBRANCH  62  85
ENDBRANCH  36  37
ENDBRANCH  28  31
ENDBRANCH  26  27
ENDBRANCH  25  26
ENDBRANCH  24  25
ENDBRANCH   1  24
TORSDOF 15
ENDMDL
MODEL 2
REMARK VINA RESULT:     -12.4      3.016      4.847
REMARK SMILES C[C@H](C1CC1)n1c(SCC(=O)NCCCCNC(=O)c2ccc(-c3c4nc(c(-c5c(F)c(F)c(F)c(F)c5F)c5ccc([nH]5)c(-c5c(F)c(F)c(F)c(F)c5F)c5nc(c(-c6c(F)c(F)c(F)c(F)c6F)c6ccc3[nH]6)C=C5)C=C4)cc2)nc2cc(Cl)c(Cl)cc21
REMARK SMILES IDX 13 1 12 2 10 3 11 4 9 6 8 7 7 8 6 9 91 10 83 11 84 12 90 13
REMARK SMILES IDX 85 14 88 15 86 16 89 17 87 18 2 19 1 20 3 21 4 22 5 23 14 24
REMARK SMILES IDX 15 25 16 26 17 27 18 28 19 30 20 31 21 32 82 33 22 34 81 35
REMARK SMILES IDX 23 36 24 37 25 38 75 39 26 40 80 41 74 42 76 43 27 44 79 45
REMARK SMILES IDX 73 46 72 47 28 49 60 50 40 51 59 52 41 53 44 54 58 55 77 56
REMARK SMILES IDX 42 57 43 58 57 60 78 61 45 62 29 63 30 64 38 65 31 66 32 67
REMARK SMILES IDX 36 68 39 69 33 70 34 71 37 72 35 73 61 74 62 75 70 76 63 77
REMARK SMILES IDX 64 78 68 79 71 80 65 81 66 82 69 83 67 84 46 85 47 86 55 87
REMARK SMILES IDX 48 88 49 89 53 90 56 91 50 92 51 93 54 94 52 95
REMARK H PARENT 12 5 17 29 76 48 44 59
REMARK Flexibility Score: inf
ROOT
ATOM      1  C   UNL A   1      39.910  20.568  26.021  1.00  0.00     0.116 C 
ENDROOT
BRANCH   1   2
ATOM      2  N   UNL A   1      39.538  21.942  26.287  1.00  0.00    -0.355 N 
ATOM      3  C   UNL A   1      38.400  22.588  25.930  1.00  0.00     0.230 C 
ATOM      4  O   UNL A   1      38.327  23.796  26.159  1.00  0.00    -0.274 OA
ATOM      5  H   UNL A   1      40.195  22.475  26.791  1.00  0.00     0.163 HD
BRANCH   3   6
ATOM      6  C   UNL A   1      37.254  21.801  25.358  1.00  0.00     0.178 C 
BRANCH   6   7
ATOM      7  S   UNL A   1      36.542  22.412  23.844  1.00  0.00    -0.078 SA
BRANCH   7   8
ATOM      8  C   UNL A   1      35.035  23.250  24.034  1.00  0.00     0.169 A 
ATOM      9  N   UNL A   1      33.854  22.975  24.732  1.00  0.00    -0.316 N 
ATOM     10  C   UNL A   1      33.009  24.077  24.464  1.00  0.00     0.071 A 
ATOM     11  N   UNL A   1      34.866  24.258  23.201  1.00  0.00    -0.222 NA
ATOM     12  C   UNL A   1      33.621  24.742  23.406  1.00  0.00     0.091 A 
ATOM     13  C   UNL A   1      31.787  24.566  24.970  1.00  0.00     0.050 A 
ATOM     14  C   UNL A   1      32.965  25.781  22.723  1.00  0.00     0.052 A 
ATOM     15  C   UNL A   1      31.119  25.584  24.266  1.00  0.00     0.061 A 
ATOM     16  C   UNL A   1      31.689  26.167  23.135  1.00  0.00     0.061 A 
ATOM     17  Cl  UNL A   1      29.559  26.055  24.854  1.00  0.00    -0.083 Cl
ATOM     18  Cl  UNL A   1      30.881  27.386  22.212  1.00  0.00    -0.083 Cl
BRANCH   9  19
ATOM     19  C   UNL A   1      33.484  21.794  25.570  1.00  0.00     0.090 C 
ATOM     20  C   UNL A   1      34.141  21.746  26.962  1.00  0.00     0.032 C 
BRANCH  19  21
ATOM     21  C   UNL A   1      33.636  20.427  24.884  1.00  0.00     0.012 C 
ATOM     22  C   UNL A   1      32.932  19.167  25.329  1.00  0.00     0.006 C 
ATOM     23  C   UNL A   1      32.529  19.834  24.037  1.00  0.00     0.006 C 
ENDBRANCH  19  21
ENDBRANCH   9  19
ENDBRANCH   7   8
ENDBRANCH   6   7
ENDBRANCH   3   6
ENDBRANCH   1   2
BRANCH   1  24
ATOM     24  C   UNL A   1      41.300  20.278  26.564  1.00  0.00     0.023 C 
BRANCH  24  25
ATOM     25  C   UNL A   1      41.814  18.869  26.261  1.00  0.00     0.023 C 
BRANCH  25  26
ATOM     26  C   UNL A   1      43.340  18.722  26.236  1.00  0.00     0.116 C 
BRANCH  26  27
ATOM     27  N   UNL A   1      43.949  18.998  24.949  1.00  0.00    -0.352 N 
ATOM     28  C   UNL A   1      44.521  20.098  24.380  1.00  0.00     0.251 C 
ATOM     29  H   UNL A   1      43.949  18.215  24.352  1.00  0.00     0.163 HD
ATOM     30  O   UNL A   1      45.055  19.930  23.278  1.00  0.00    -0.269 OA
BRANCH  28  31
ATOM     31  C   UNL A   1      44.475  21.465  24.953  1.00  0.00     0.039 A 
ATOM     32  C   UNL A   1      45.279  21.920  25.995  1.00  0.00     0.014 A 
ATOM     33  C   UNL A   1      43.484  22.323  24.442  1.00  0.00     0.014 A 
ATOM     34  C   UNL A   1      45.000  23.121  26.620  1.00  0.00     0.010 A 
ATOM     35  C   UNL A   1      43.234  23.557  25.029  1.00  0.00     0.010 A 
ATOM     36  C   UNL A   1      43.954  23.922  26.159  1.00  0.00    -0.014 A 
BRANCH  36  37
ATOM     37  C   UNL A   1      43.733  25.172  26.872  1.00  0.00     0.031 A 
ATOM     38  C   UNL A   1      44.803  26.192  26.675  1.00  0.00     0.074 A 
ATOM     39  C   UNL A   1      42.657  25.410  27.642  1.00  0.00     0.049 A 
ATOM     40  N   UNL A   1      45.599  26.690  27.566  1.00  0.00    -0.248 NA
ATOM     41  C   UNL A   1      45.111  26.605  25.298  1.00  0.00     0.031 C 
ATOM     42  C   UNL A   1      41.429  24.626  27.779  1.00  0.00     0.029 A 
ATOM     43  N   UNL A   1      42.423  26.488  28.438  1.00  0.00    -0.354 N 
ATOM     44  C   UNL A   1      46.424  27.587  26.891  1.00  0.00     0.074 A 
ATOM     45  C   UNL A   1      46.155  27.412  25.488  1.00  0.00     0.031 C 
ATOM     46  C   UNL A   1      40.500  25.364  28.429  1.00  0.00     0.029 A 
ATOM     47  C   UNL A   1      41.113  26.603  28.876  1.00  0.00     0.049 A 
ATOM     48  H   UNL A   1      43.125  27.134  28.683  1.00  0.00     0.167 HD
ATOM     49  C   UNL A   1      47.147  28.530  27.556  1.00  0.00     0.037 A 
ATOM     50  C   UNL A   1      40.570  27.668  29.513  1.00  0.00     0.037 A 
ATOM     51  C   UNL A   1      47.324  28.176  28.939  1.00  0.00     0.049 A 
ATOM     52  C   UNL A   1      41.684  28.444  30.114  1.00  0.00     0.074 A 
ATOM     53  C   UNL A   1      47.963  27.144  29.598  1.00  0.00     0.029 A 
ATOM     54  N   UNL A   1      46.511  28.765  29.873  1.00  0.00    -0.354 N 
ATOM     55  N   UNL A   1      42.396  28.019  31.121  1.00  0.00    -0.248 NA
ATOM     56  C   UNL A   1      42.297  29.490  29.309  1.00  0.00     0.031 C 
ATOM     57  C   UNL A   1      47.140  26.863  30.726  1.00  0.00     0.029 A 
ATOM     58  C   UNL A   1      46.082  27.771  30.711  1.00  0.00     0.049 A 
ATOM     59  H   UNL A   1      46.280  29.722  29.931  1.00  0.00     0.167 HD
ATOM     60  C   UNL A   1      43.689  28.427  30.833  1.00  0.00     0.074 A 
ATOM     61  C   UNL A   1      43.554  29.400  29.752  1.00  0.00     0.031 C 
ATOM     62  C   UNL A   1      44.767  27.735  31.300  1.00  0.00     0.037 A 
BRANCH  49  63
ATOM     63  C   UNL A   1      47.402  29.927  27.048  1.00  0.00     0.064 A 
ATOM     64  C   UNL A   1      48.698  30.475  27.162  1.00  0.00     0.173 A 
ATOM     65  C   UNL A   1      46.375  30.850  26.758  1.00  0.00     0.173 A 
ATOM     66  F   UNL A   1      49.752  29.693  27.438  1.00  0.00    -0.203 F 
ATOM     67  C   UNL A   1      48.925  31.852  27.095  1.00  0.00     0.198 A 
ATOM     68  C   UNL A   1      46.615  32.218  26.642  1.00  0.00     0.198 A 
ATOM     69  F   UNL A   1      45.090  30.487  26.686  1.00  0.00    -0.203 F 
ATOM     70  F   UNL A   1      50.148  32.337  27.345  1.00  0.00    -0.200 F 
ATOM     71  C   UNL A   1      47.881  32.723  26.848  1.00  0.00     0.200 A 
ATOM     72  F   UNL A   1      45.587  33.047  26.415  1.00  0.00    -0.200 F 
ATOM     73  F   UNL A   1      48.082  34.047  26.855  1.00  0.00    -0.200 F 
ENDBRANCH  49  63
BRANCH  50  74
ATOM     74  C   UNL A   1      39.195  28.203  29.394  1.00  0.00     0.064 A 
ATOM     75  C   UNL A   1      38.386  28.399  30.525  1.00  0.00     0.173 A 
ATOM     76  C   UNL A   1      38.746  28.787  28.193  1.00  0.00     0.173 A 
ATOM     77  F   UNL A   1      38.767  27.920  31.717  1.00  0.00    -0.203 F 
ATOM     78  C   UNL A   1      37.207  29.151  30.461  1.00  0.00     0.198 A 
ATOM     79  C   UNL A   1      37.568  29.531  28.130  1.00  0.00     0.198 A 
ATOM     80  F   UNL A   1      39.491  28.728  27.080  1.00  0.00    -0.203 F 
ATOM     81  F   UNL A   1      36.491  29.365  31.573  1.00  0.00    -0.200 F 
ATOM     82  C   UNL A   1      36.804  29.723  29.266  1.00  0.00     0.200 A 
ATOM     83  F   UNL A   1      37.210  30.112  26.975  1.00  0.00    -0.200 F 
ATOM     84  F   UNL A   1      35.707  30.491  29.218  1.00  0.00    -0.200 F 
ENDBRANCH  50  74
BRANCH  62  85
ATOM     85  C   UNL A   1      44.529  26.658  32.318  1.00  0.00     0.064 A 
ATOM     86  C   UNL A   1      44.321  25.309  31.982  1.00  0.00     0.173 A 
ATOM     87  C   UNL A   1      44.729  26.967  33.670  1.00  0.00     0.173 A 
ATOM     88  F   UNL A   1      44.217  24.926  30.703  1.00  0.00    -0.203 F 
ATOM     89  C   UNL A   1      44.297  24.319  32.961  1.00  0.00     0.198 A 
ATOM     90  C   UNL A   1      44.739  25.971  34.641  1.00  0.00     0.198 A 
ATOM     91  F   UNL A   1      44.988  28.232  34.038  1.00  0.00    -0.203 F 
ATOM     92  F   UNL A   1      44.109  23.036  32.617  1.00  0.00    -0.200 F 
ATOM     93  C   UNL A   1      44.519  24.649  34.289  1.00  0.00     0.200 A 
ATOM     94  F   UNL A   1      45.005  26.289  35.916  1.00  0.00    -0.200 F 
ATOM     95  F   UNL A   1      44.558  23.689  35.223  1.00  0.00    -0.200 F 
ENDBRANCH  62  85
ENDBRANCH  36  37
ENDBRANCH  28  31
ENDBRANCH  26  27
ENDBRANCH  25  26
ENDBRANCH  24  25
ENDBRANCH   1  24
TORSDOF 15
ENDMDL
MODEL 3
REMARK VINA RESULT:     -12.4      3.110      5.164
REMARK SMILES C[C@H](C1CC1)n1c(SCC(=O)NCCCCNC(=O)c2ccc(-c3c4nc(c(-c5c(F)c(F)c(F)c(F)c5F)c5ccc([nH]5)c(-c5c(F)c(F)c(F)c(F)c5F)c5nc(c(-c6c(F)c(F)c(F)c(F)c6F)c6ccc3[nH]6)C=C5)C=C4)cc2)nc2cc(Cl)c(Cl)cc21
REMARK SMILES IDX 13 1 12 2 10 3 11 4 9 6 8 7 7 8 6 9 91 10 83 11 84 12 90 13
REMARK SMILES IDX 85 14 88 15 86 16 89 17 87 18 2 19 1 20 3 21 4 22 5 23 14 24
REMARK SMILES IDX 15 25 16 26 17 27 18 28 19 30 20 31 21 32 82 33 22 34 81 35
REMARK SMILES IDX 23 36 24 37 25 38 75 39 26 40 80 41 74 42 76 43 27 44 79 45
REMARK SMILES IDX 73 46 72 47 28 49 60 50 40 51 59 52 41 53 44 54 58 55 77 56
REMARK SMILES IDX 42 57 43 58 57 60 78 61 45 62 29 63 30 64 38 65 31 66 32 67
REMARK SMILES IDX 36 68 39 69 33 70 34 71 37 72 35 73 61 74 62 75 70 76 63 77
REMARK SMILES IDX 64 78 68 79 71 80 65 81 66 82 69 83 67 84 46 85 47 86 55 87
REMARK SMILES IDX 48 88 49 89 53 90 56 91 50 92 51 93 54 94 52 95
REMARK H PARENT 12 5 17 29 76 48 44 59
REMARK Flexibility Score: inf
ROOT
ATOM      1  C   UNL A   1      40.007  20.422  26.118  1.00  0.00     0.116 C 
ENDROOT
BRANCH   1   2
ATOM      2  N   UNL A   1      39.691  21.821  26.319  1.00  0.00    -0.355 N 
ATOM      3  C   UNL A   1      38.548  22.477  26.001  1.00  0.00     0.230 C 
ATOM      4  O   UNL A   1      38.523  23.699  26.156  1.00  0.00    -0.274 OA
ATOM      5  H   UNL A   1      40.396  22.364  26.740  1.00  0.00     0.163 HD
BRANCH   3   6
ATOM      6  C   UNL A   1      37.344  21.691  25.564  1.00  0.00     0.178 C 
BRANCH   6   7
ATOM      7  S   UNL A   1      36.611  22.152  24.006  1.00  0.00    -0.078 SA
BRANCH   7   8
ATOM      8  C   UNL A   1      35.115  23.021  24.133  1.00  0.00     0.169 A 
ATOM      9  N   UNL A   1      33.902  22.775  24.785  1.00  0.00    -0.316 N 
ATOM     10  C   UNL A   1      33.092  23.892  24.479  1.00  0.00     0.071 A 
ATOM     11  N   UNL A   1      35.001  24.029  23.290  1.00  0.00    -0.222 NA
ATOM     12  C   UNL A   1      33.759  24.540  23.444  1.00  0.00     0.091 A 
ATOM     13  C   UNL A   1      31.862  24.409  24.934  1.00  0.00     0.050 A 
ATOM     14  C   UNL A   1      33.153  25.589  22.732  1.00  0.00     0.052 A 
ATOM     15  C   UNL A   1      31.243  25.438  24.201  1.00  0.00     0.061 A 
ATOM     16  C   UNL A   1      31.870  26.004  23.091  1.00  0.00     0.061 A 
ATOM     17  Cl  UNL A   1      29.672  25.943  24.725  1.00  0.00    -0.083 Cl
ATOM     18  Cl  UNL A   1      31.125  27.235  22.132  1.00  0.00    -0.083 Cl
BRANCH   9  19
ATOM     19  C   UNL A   1      33.476  21.606  25.612  1.00  0.00     0.090 C 
ATOM     20  C   UNL A   1      34.074  21.551  27.030  1.00  0.00     0.032 C 
BRANCH  19  21
ATOM     21  C   UNL A   1      33.627  20.232  24.938  1.00  0.00     0.012 C 
ATOM     22  C   UNL A   1      32.894  18.984  25.372  1.00  0.00     0.006 C 
ATOM     23  C   UNL A   1      32.535  19.649  24.065  1.00  0.00     0.006 C 
ENDBRANCH  19  21
ENDBRANCH   9  19
ENDBRANCH   7   8
ENDBRANCH   6   7
ENDBRANCH   3   6
ENDBRANCH   1   2
BRANCH   1  24
ATOM     24  C   UNL A   1      41.446  20.139  26.518  1.00  0.00     0.023 C 
BRANCH  24  25
ATOM     25  C   UNL A   1      41.951  18.752  26.112  1.00  0.00     0.023 C 
BRANCH  25  26
ATOM     26  C   UNL A   1      43.476  18.582  26.133  1.00  0.00     0.116 C 
BRANCH  26  27
ATOM     27  N   UNL A   1      44.127  18.854  24.867  1.00  0.00    -0.352 N 
ATOM     28  C   UNL A   1      44.731  19.949  24.320  1.00  0.00     0.251 C 
ATOM     29  H   UNL A   1      44.136  18.074  24.267  1.00  0.00     0.163 HD
ATOM     30  O   UNL A   1      45.297  19.779  23.236  1.00  0.00    -0.269 OA
BRANCH  28  31
ATOM     31  C   UNL A   1      44.685  21.314  24.898  1.00  0.00     0.039 A 
ATOM     32  C   UNL A   1      45.511  21.776  25.920  1.00  0.00     0.014 A 
ATOM     33  C   UNL A   1      43.671  22.163  24.415  1.00  0.00     0.014 A 
ATOM     34  C   UNL A   1      45.234  22.972  26.555  1.00  0.00     0.010 A 
ATOM     35  C   UNL A   1      43.423  23.393  25.011  1.00  0.00     0.010 A 
ATOM     36  C   UNL A   1      44.168  23.763  26.123  1.00  0.00    -0.014 A 
BRANCH  36  37
ATOM     37  C   UNL A   1      43.952  25.009  26.844  1.00  0.00     0.031 A 
ATOM     38  C   UNL A   1      45.026  26.026  26.655  1.00  0.00     0.074 A 
ATOM     39  C   UNL A   1      42.876  25.246  27.615  1.00  0.00     0.049 A 
ATOM     40  N   UNL A   1      45.823  26.514  27.550  1.00  0.00    -0.248 NA
ATOM     41  C   UNL A   1      45.337  26.447  25.281  1.00  0.00     0.031 C 
ATOM     42  C   UNL A   1      41.645  24.466  27.746  1.00  0.00     0.029 A 
ATOM     43  N   UNL A   1      42.646  26.320  28.418  1.00  0.00    -0.354 N 
ATOM     44  C   UNL A   1      46.653  27.413  26.883  1.00  0.00     0.074 A 
ATOM     45  C   UNL A   1      46.385  27.248  25.479  1.00  0.00     0.031 C 
ATOM     46  C   UNL A   1      40.718  25.204  28.399  1.00  0.00     0.029 A 
ATOM     47  C   UNL A   1      41.336  26.437  28.855  1.00  0.00     0.049 A 
ATOM     48  H   UNL A   1      43.350  26.961  28.669  1.00  0.00     0.167 HD
ATOM     49  C   UNL A   1      47.380  28.348  27.555  1.00  0.00     0.037 A 
ATOM     50  C   UNL A   1      40.797  27.500  29.500  1.00  0.00     0.037 A 
ATOM     51  C   UNL A   1      47.554  27.983  28.935  1.00  0.00     0.049 A 
ATOM     52  C   UNL A   1      41.914  28.267  30.107  1.00  0.00     0.074 A 
ATOM     53  C   UNL A   1      48.188  26.943  29.588  1.00  0.00     0.029 A 
ATOM     54  N   UNL A   1      46.742  28.569  29.873  1.00  0.00    -0.354 N 
ATOM     55  N   UNL A   1      42.623  27.832  31.112  1.00  0.00    -0.248 NA
ATOM     56  C   UNL A   1      42.532  29.316  29.310  1.00  0.00     0.031 C 
ATOM     57  C   UNL A   1      47.363  26.658  30.713  1.00  0.00     0.029 A 
ATOM     58  C   UNL A   1      46.308  27.571  30.704  1.00  0.00     0.049 A 
ATOM     59  H   UNL A   1      46.516  29.526  29.937  1.00  0.00     0.167 HD
ATOM     60  C   UNL A   1      43.918  28.237  30.828  1.00  0.00     0.074 A 
ATOM     61  C   UNL A   1      43.789  29.218  29.753  1.00  0.00     0.031 C 
ATOM     62  C   UNL A   1      44.992  27.537  31.291  1.00  0.00     0.037 A 
BRANCH  49  63
ATOM     63  C   UNL A   1      47.641  29.747  27.056  1.00  0.00     0.064 A 
ATOM     64  C   UNL A   1      48.951  30.269  27.125  1.00  0.00     0.173 A 
ATOM     65  C   UNL A   1      46.621  30.693  26.822  1.00  0.00     0.173 A 
ATOM     66  F   UNL A   1      50.000  29.462  27.348  1.00  0.00    -0.203 F 
ATOM     67  C   UNL A   1      49.202  31.642  27.069  1.00  0.00     0.198 A 
ATOM     68  C   UNL A   1      46.883  32.058  26.715  1.00  0.00     0.198 A 
ATOM     69  F   UNL A   1      45.328  30.356  26.797  1.00  0.00    -0.203 F 
ATOM     70  F   UNL A   1      50.443  32.100  27.276  1.00  0.00    -0.200 F 
ATOM     71  C   UNL A   1      48.165  32.536  26.877  1.00  0.00     0.200 A 
ATOM     72  F   UNL A   1      45.863  32.910  26.542  1.00  0.00    -0.200 F 
ATOM     73  F   UNL A   1      48.392  33.856  26.894  1.00  0.00    -0.200 F 
ENDBRANCH  49  63
BRANCH  50  74
ATOM     74  C   UNL A   1      39.424  28.042  29.383  1.00  0.00     0.064 A 
ATOM     75  C   UNL A   1      38.604  28.205  30.511  1.00  0.00     0.173 A 
ATOM     76  C   UNL A   1      38.990  28.664  28.197  1.00  0.00     0.173 A 
ATOM     77  F   UNL A   1      38.971  27.687  31.692  1.00  0.00    -0.203 F 
ATOM     78  C   UNL A   1      37.427  28.960  30.458  1.00  0.00     0.198 A 
ATOM     79  C   UNL A   1      37.813  29.412  28.144  1.00  0.00     0.198 A 
ATOM     80  F   UNL A   1      39.746  28.639  27.090  1.00  0.00    -0.203 F 
ATOM     81  F   UNL A   1      36.700  29.142  31.569  1.00  0.00    -0.200 F 
ATOM     82  C   UNL A   1      37.038  29.570  29.278  1.00  0.00     0.200 A 
ATOM     83  F   UNL A   1      37.469  30.030  27.005  1.00  0.00    -0.200 F 
ATOM     84  F   UNL A   1      35.943  30.342  29.242  1.00  0.00    -0.200 F 
ENDBRANCH  50  74
BRANCH  62  85
ATOM     85  C   UNL A   1      44.749  26.454  32.301  1.00  0.00     0.064 A 
ATOM     86  C   UNL A   1      44.559  26.704  33.672  1.00  0.00     0.173 A 
ATOM     87  C   UNL A   1      44.494  25.158  31.836  1.00  0.00     0.173 A 
ATOM     88  F   UNL A   1      44.692  27.939  34.172  1.00  0.00    -0.203 F 
ATOM     89  C   UNL A   1      44.147  25.692  34.537  1.00  0.00     0.198 A 
ATOM     90  C   UNL A   1      44.050  24.159  32.697  1.00  0.00     0.198 A 
ATOM     91  F   UNL A   1      44.607  24.880  30.528  1.00  0.00    -0.203 F 
ATOM     92  F   UNL A   1      43.960  25.956  35.839  1.00  0.00    -0.200 F 
ATOM     93  C   UNL A   1      43.881  24.424  34.047  1.00  0.00     0.200 A 
ATOM     94  F   UNL A   1      43.745  22.948  32.209  1.00  0.00    -0.200 F 
ATOM     95  F   UNL A   1      43.426  23.468  34.868  1.00  0.00    -0.200 F 
ENDBRANCH  62  85
ENDBRANCH  36  37
ENDBRANCH  28  31
ENDBRANCH  26  27
ENDBRANCH  25  26
ENDBRANCH  24  25
ENDBRANCH   1  24
TORSDOF 15
ENDMDL
