MODEL 1
REMARK VINA RESULT:     -14.6      0.000      0.000
REMARK SMILES Cc1cc(F)cc(N[C@@](C)(C(=O)NCCCCNC(=O)c2ccc(-c3c4nc(c(-c5c(F)c(F)c(F)c(F)c5F)c5ccc([nH]5)c(-c5c(F)c(F)c(F)c(F)c5F)c5nc(c(-c6c(F)c(F)c(F)c(F)c6F)c6ccc3[nH]6)C=C5)C=C4)cc2)c2ccc(O)cc2)c1
REMARK SMILES IDX 15 1 14 2 13 3 11 4 12 5 9 7 10 8 8 9 7 11 1 12 2 13 3 14
REMARK SMILES IDX 91 15 4 16 5 17 6 18 84 19 85 20 90 21 86 22 89 23 87 24
REMARK SMILES IDX 88 25 16 27 17 28 18 29 19 30 20 32 21 33 22 34 83 35 23 36
REMARK SMILES IDX 82 37 24 38 25 39 26 40 76 41 27 42 81 43 75 44 77 45 28 46
REMARK SMILES IDX 80 47 74 48 73 49 29 51 61 52 41 53 60 54 42 55 45 56 59 57
REMARK SMILES IDX 78 58 43 59 44 60 58 62 79 63 46 64 30 65 31 66 39 67 32 68
REMARK SMILES IDX 33 69 37 70 40 71 34 72 35 73 38 74 36 75 62 76 63 77 71 78
REMARK SMILES IDX 64 79 65 80 69 81 72 82 66 83 67 84 70 85 68 86 47 87 48 88
REMARK SMILES IDX 56 89 49 90 50 91 54 92 57 93 51 94 52 95 55 96 53 97
REMARK H PARENT 13 6 8 10 88 26 18 31 77 50 45 61
REMARK Flexibility Score: inf
ROOT
ATOM      1  C   UNL A   1      32.253  29.511  26.747  1.00  0.00     0.023 C 
ENDROOT
BRANCH   1   2
ATOM      2  C   UNL A   1      31.643  29.231  25.372  1.00  0.00     0.116 C 
BRANCH   2   3
ATOM      3  N   UNL A   1      32.578  29.512  24.302  1.00  0.00    -0.354 N 
ATOM      4  C   UNL A   1      33.040  28.751  23.257  1.00  0.00     0.250 C 
ATOM      5  O   UNL A   1      34.042  29.226  22.708  1.00  0.00    -0.272 OA
ATOM      6  H   UNL A   1      32.954  30.422  24.329  1.00  0.00     0.163 HD
BRANCH   4   7
ATOM      7  C   UNL A   1      32.335  27.396  22.808  1.00  0.00     0.139 C 
ATOM      8  C   UNL A   1      33.259  26.637  21.822  1.00  0.00     0.051 C 
BRANCH   7   9
ATOM      9  N   UNL A   1      31.081  27.769  22.085  1.00  0.00    -0.368 N 
ATOM     10  H   UNL A   1      31.023  27.402  21.173  1.00  0.00     0.161 HD
BRANCH   9  11
ATOM     11  C   UNL A   1      29.988  28.530  22.455  1.00  0.00     0.038 A 
ATOM     12  C   UNL A   1      28.737  32.064  21.618  1.00  0.00     0.044 C 
ATOM     13  C   UNL A   1      28.767  30.647  22.103  1.00  0.00    -0.046 A 
ATOM     14  C   UNL A   1      27.608  30.058  22.605  1.00  0.00     0.042 A 
ATOM     15  C   UNL A   1      29.932  29.866  22.005  1.00  0.00     0.029 A 
ATOM     16  C   UNL A   1      27.675  28.778  23.132  1.00  0.00     0.125 A 
ATOM     17  F   UNL A   1      26.561  28.214  23.622  1.00  0.00    -0.207 F 
ATOM     18  C   UNL A   1      28.864  28.050  23.124  1.00  0.00     0.065 A 
ENDBRANCH   9  11
ENDBRANCH   7   9
BRANCH   7  19
ATOM     19  C   UNL A   1      32.125  26.357  23.946  1.00  0.00    -0.013 A 
ATOM     20  C   UNL A   1      30.860  25.773  24.172  1.00  0.00     0.010 A 
ATOM     21  C   UNL A   1      33.182  25.910  24.762  1.00  0.00     0.010 A 
ATOM     22  C   UNL A   1      30.621  24.965  25.287  1.00  0.00     0.046 A 
ATOM     23  C   UNL A   1      32.954  25.080  25.864  1.00  0.00     0.046 A 
ATOM     24  C   UNL A   1      31.665  24.653  26.142  1.00  0.00     0.115 A 
BRANCH  24  25
ATOM     25  O   UNL A   1      31.388  23.923  27.258  1.00  0.00    -0.508 OA
ATOM     26  H   UNL A   1      31.553  24.284  28.107  1.00  0.00     0.293 HD
ENDBRANCH  24  25
ENDBRANCH   7  19
ENDBRANCH   4   7
ENDBRANCH   2   3
ENDBRANCH   1   2
BRANCH   1  27
ATOM     27  C   UNL A   1      33.228  28.444  27.262  1.00  0.00     0.023 C 
BRANCH  27  28
ATOM     28  C   UNL A   1      34.684  28.751  26.959  1.00  0.00     0.116 C 
BRANCH  28  29
ATOM     29  N   UNL A   1      35.004  30.175  27.086  1.00  0.00    -0.352 N 
ATOM     30  C   UNL A   1      36.034  30.736  27.802  1.00  0.00     0.251 C 
ATOM     31  H   UNL A   1      34.416  30.800  26.604  1.00  0.00     0.163 HD
ATOM     32  O   UNL A   1      36.039  31.939  28.089  1.00  0.00    -0.269 OA
BRANCH  30  33
ATOM     33  C   UNL A   1      37.153  29.877  28.196  1.00  0.00     0.039 A 
ATOM     34  C   UNL A   1      37.151  29.121  29.375  1.00  0.00     0.014 A 
ATOM     35  C   UNL A   1      38.227  29.833  27.315  1.00  0.00     0.014 A 
ATOM     36  C   UNL A   1      38.227  28.274  29.641  1.00  0.00     0.010 A 
ATOM     37  C   UNL A   1      39.181  28.877  27.479  1.00  0.00     0.010 A 
ATOM     38  C   UNL A   1      39.232  28.163  28.679  1.00  0.00    -0.014 A 
BRANCH  38  39
ATOM     39  C   UNL A   1      40.477  27.434  28.836  1.00  0.00     0.031 A 
ATOM     40  C   UNL A   1      40.568  26.002  28.541  1.00  0.00     0.074 A 
ATOM     41  C   UNL A   1      41.555  28.227  29.025  1.00  0.00     0.049 A 
ATOM     42  N   UNL A   1      41.492  25.231  28.994  1.00  0.00    -0.248 NA
ATOM     43  C   UNL A   1      39.601  25.309  27.699  1.00  0.00     0.031 C 
ATOM     44  C   UNL A   1      42.969  27.952  28.846  1.00  0.00     0.029 A 
ATOM     45  N   UNL A   1      41.527  29.542  29.522  1.00  0.00    -0.354 N 
ATOM     46  C   UNL A   1      41.454  24.068  28.252  1.00  0.00     0.074 A 
ATOM     47  C   UNL A   1      40.182  24.110  27.568  1.00  0.00     0.031 C 
ATOM     48  C   UNL A   1      43.673  28.898  29.498  1.00  0.00     0.029 A 
ATOM     49  C   UNL A   1      42.720  29.716  30.236  1.00  0.00     0.049 A 
ATOM     50  H   UNL A   1      40.813  30.207  29.394  1.00  0.00     0.167 HD
ATOM     51  C   UNL A   1      42.595  23.320  28.158  1.00  0.00     0.037 A 
ATOM     52  C   UNL A   1      42.644  29.827  31.596  1.00  0.00     0.037 A 
ATOM     53  C   UNL A   1      43.663  23.953  28.939  1.00  0.00     0.049 A 
ATOM     54  C   UNL A   1      43.301  28.651  32.266  1.00  0.00     0.074 A 
ATOM     55  C   UNL A   1      44.688  24.803  28.556  1.00  0.00     0.029 A 
ATOM     56  N   UNL A   1      43.550  24.064  30.322  1.00  0.00    -0.354 N 
ATOM     57  N   UNL A   1      43.362  27.458  31.744  1.00  0.00    -0.248 NA
ATOM     58  C   UNL A   1      43.995  28.754  33.543  1.00  0.00     0.031 C 
ATOM     59  C   UNL A   1      45.135  25.494  29.709  1.00  0.00     0.029 A 
ATOM     60  C   UNL A   1      44.397  25.051  30.795  1.00  0.00     0.049 A 
ATOM     61  H   UNL A   1      42.954  23.518  30.885  1.00  0.00     0.167 HD
ATOM     62  C   UNL A   1      44.138  26.663  32.541  1.00  0.00     0.074 A 
ATOM     63  C   UNL A   1      44.492  27.512  33.666  1.00  0.00     0.031 C 
ATOM     64  C   UNL A   1      44.470  25.381  32.208  1.00  0.00     0.037 A 
BRANCH  51  65
ATOM     65  C   UNL A   1      42.876  22.258  27.107  1.00  0.00     0.064 A 
ATOM     66  C   UNL A   1      42.198  21.015  27.146  1.00  0.00     0.173 A 
ATOM     67  C   UNL A   1      43.819  22.366  26.067  1.00  0.00     0.173 A 
ATOM     68  F   UNL A   1      41.189  20.791  27.998  1.00  0.00    -0.203 F 
ATOM     69  C   UNL A   1      42.521  19.944  26.305  1.00  0.00     0.198 A 
ATOM     70  C   UNL A   1      44.164  21.285  25.244  1.00  0.00     0.198 A 
ATOM     71  F   UNL A   1      44.397  23.534  25.767  1.00  0.00    -0.203 F 
ATOM     72  F   UNL A   1      41.851  18.788  26.415  1.00  0.00    -0.200 F 
ATOM     73  C   UNL A   1      43.525  20.070  25.373  1.00  0.00     0.200 A 
ATOM     74  F   UNL A   1      45.124  21.436  24.319  1.00  0.00    -0.200 F 
ATOM     75  F   UNL A   1      43.855  19.038  24.584  1.00  0.00    -0.200 F 
ENDBRANCH  51  65
BRANCH  52  76
ATOM     76  C   UNL A   1      41.374  30.489  32.037  1.00  0.00     0.064 A 
ATOM     77  C   UNL A   1      41.148  31.812  31.595  1.00  0.00     0.173 A 
ATOM     78  C   UNL A   1      40.253  29.752  32.446  1.00  0.00     0.173 A 
ATOM     79  F   UNL A   1      42.183  32.567  31.193  1.00  0.00    -0.203 F 
ATOM     80  C   UNL A   1      39.858  32.310  31.419  1.00  0.00     0.198 A 
ATOM     81  C   UNL A   1      38.961  30.267  32.289  1.00  0.00     0.198 A 
ATOM     82  F   UNL A   1      40.393  28.494  32.888  1.00  0.00    -0.203 F 
ATOM     83  F   UNL A   1      39.679  33.514  30.856  1.00  0.00    -0.200 F 
ATOM     84  C   UNL A   1      38.764  31.524  31.737  1.00  0.00     0.200 A 
ATOM     85  F   UNL A   1      37.899  29.508  32.599  1.00  0.00    -0.200 F 
ATOM     86  F   UNL A   1      37.525  31.966  31.480  1.00  0.00    -0.200 F 
ENDBRANCH  52  76
BRANCH  64  87
ATOM     87  C   UNL A   1      45.052  24.375  33.164  1.00  0.00     0.064 A 
ATOM     88  C   UNL A   1      44.357  23.232  33.590  1.00  0.00     0.173 A 
ATOM     89  C   UNL A   1      46.402  24.462  33.575  1.00  0.00     0.173 A 
ATOM     90  F   UNL A   1      43.122  22.959  33.145  1.00  0.00    -0.203 F 
ATOM     91  C   UNL A   1      44.934  22.298  34.449  1.00  0.00     0.198 A 
ATOM     92  C   UNL A   1      46.996  23.492  34.377  1.00  0.00     0.198 A 
ATOM     93  F   UNL A   1      47.194  25.473  33.189  1.00  0.00    -0.203 F 
ATOM     94  F   UNL A   1      44.207  21.259  34.880  1.00  0.00    -0.200 F 
ATOM     95  C   UNL A   1      46.254  22.425  34.838  1.00  0.00     0.200 A 
ATOM     96  F   UNL A   1      48.296  23.592  34.688  1.00  0.00    -0.200 F 
ATOM     97  F   UNL A   1      46.816  21.507  35.634  1.00  0.00    -0.200 F 
ENDBRANCH  64  87
ENDBRANCH  38  39
ENDBRANCH  30  33
ENDBRANCH  28  29
ENDBRANCH  27  28
ENDBRANCH   1  27
TORSDOF 15
ENDMDL
MODEL 2
REMARK VINA RESULT:     -14.3      2.575      4.273
REMARK SMILES Cc1cc(F)cc(N[C@@](C)(C(=O)NCCCCNC(=O)c2ccc(-c3c4nc(c(-c5c(F)c(F)c(F)c(F)c5F)c5ccc([nH]5)c(-c5c(F)c(F)c(F)c(F)c5F)c5nc(c(-c6c(F)c(F)c(F)c(F)c6F)c6ccc3[nH]6)C=C5)C=C4)cc2)c2ccc(O)cc2)c1
REMARK SMILES IDX 15 1 14 2 13 3 11 4 12 5 9 7 10 8 8 9 7 11 1 12 2 13 3 14
REMARK SMILES IDX 91 15 4 16 5 17 6 18 84 19 85 20 90 21 86 22 89 23 87 24
REMARK SMILES IDX 88 25 16 27 17 28 18 29 19 30 20 32 21 33 22 34 83 35 23 36
REMARK SMILES IDX 82 37 24 38 25 39 26 40 76 41 27 42 81 43 75 44 77 45 28 46
REMARK SMILES IDX 80 47 74 48 73 49 29 51 61 52 41 53 60 54 42 55 45 56 59 57
REMARK SMILES IDX 78 58 43 59 44 60 58 62 79 63 46 64 30 65 31 66 39 67 32 68
REMARK SMILES IDX 33 69 37 70 40 71 34 72 35 73 38 74 36 75 62 76 63 77 71 78
REMARK SMILES IDX 64 79 65 80 69 81 72 82 66 83 67 84 70 85 68 86 47 87 48 88
REMARK SMILES IDX 56 89 49 90 50 91 54 92 57 93 51 94 52 95 55 96 53 97
REMARK H PARENT 13 6 8 10 88 26 18 31 77 50 45 61
REMARK Flexibility Score: inf
ROOT
ATOM      1  C   UNL A   1      32.439  27.462  26.673  1.00  0.00     0.023 C 
ENDROOT
BRANCH   1   2
ATOM      2  C   UNL A   1      32.100  26.195  25.884  1.00  0.00     0.116 C 
BRANCH   2   3
ATOM      3  N   UNL A   1      31.644  25.128  26.751  1.00  0.00    -0.354 N 
ATOM      4  C   UNL A   1      31.530  23.774  26.565  1.00  0.00     0.250 C 
ATOM      5  O   UNL A   1      30.840  23.214  27.426  1.00  0.00    -0.272 OA
ATOM      6  H   UNL A   1      31.362  25.433  27.643  1.00  0.00     0.163 HD
BRANCH   4   7
ATOM      7  C   UNL A   1      32.234  23.014  25.356  1.00  0.00     0.139 C 
ATOM      8  C   UNL A   1      31.699  23.575  24.013  1.00  0.00     0.051 C 
BRANCH   7   9
ATOM      9  N   UNL A   1      31.844  21.574  25.452  1.00  0.00    -0.368 N 
ATOM     10  H   UNL A   1      31.150  21.393  26.126  1.00  0.00     0.161 HD
BRANCH   9  11
ATOM     11  C   UNL A   1      32.274  20.449  24.772  1.00  0.00     0.038 A 
ATOM     12  C   UNL A   1      33.062  16.821  25.758  1.00  0.00     0.044 C 
ATOM     13  C   UNL A   1      32.757  18.033  24.931  1.00  0.00    -0.046 A 
ATOM     14  C   UNL A   1      32.599  17.914  23.551  1.00  0.00     0.042 A 
ATOM     15  C   UNL A   1      32.560  19.292  25.526  1.00  0.00     0.029 A 
ATOM     16  C   UNL A   1      32.407  19.058  22.793  1.00  0.00     0.125 A 
ATOM     17  F   UNL A   1      32.263  18.944  21.465  1.00  0.00    -0.207 F 
ATOM     18  C   UNL A   1      32.318  20.317  23.385  1.00  0.00     0.065 A 
ENDBRANCH   9  11
ENDBRANCH   7   9
BRANCH   7  19
ATOM     19  C   UNL A   1      33.766  23.248  25.236  1.00  0.00    -0.013 A 
ATOM     20  C   UNL A   1      34.372  23.464  23.979  1.00  0.00     0.010 A 
ATOM     21  C   UNL A   1      34.609  23.311  26.362  1.00  0.00     0.010 A 
ATOM     22  C   UNL A   1      35.762  23.515  23.840  1.00  0.00     0.046 A 
ATOM     23  C   UNL A   1      35.999  23.388  26.231  1.00  0.00     0.046 A 
ATOM     24  C   UNL A   1      36.565  23.442  24.966  1.00  0.00     0.115 A 
BRANCH  24  25
ATOM     25  O   UNL A   1      37.915  23.422  24.795  1.00  0.00    -0.508 OA
ATOM     26  H   UNL A   1      38.301  23.864  24.063  1.00  0.00     0.293 HD
ENDBRANCH  24  25
ENDBRANCH   7  19
ENDBRANCH   4   7
ENDBRANCH   2   3
ENDBRANCH   1   2
BRANCH   1  27
ATOM     27  C   UNL A   1      33.544  28.337  26.068  1.00  0.00     0.023 C 
BRANCH  27  28
ATOM     28  C   UNL A   1      34.678  28.640  27.030  1.00  0.00     0.116 C 
BRANCH  28  29
ATOM     29  N   UNL A   1      35.006  30.067  27.094  1.00  0.00    -0.352 N 
ATOM     30  C   UNL A   1      36.065  30.649  27.748  1.00  0.00     0.251 C 
ATOM     31  H   UNL A   1      34.400  30.676  26.614  1.00  0.00     0.163 HD
ATOM     32  O   UNL A   1      36.084  31.861  27.992  1.00  0.00    -0.269 OA
BRANCH  30  33
ATOM     33  C   UNL A   1      37.197  29.800  28.126  1.00  0.00     0.039 A 
ATOM     34  C   UNL A   1      37.230  29.065  29.318  1.00  0.00     0.014 A 
ATOM     35  C   UNL A   1      38.248  29.745  27.217  1.00  0.00     0.014 A 
ATOM     36  C   UNL A   1      38.316  28.227  29.569  1.00  0.00     0.010 A 
ATOM     37  C   UNL A   1      39.210  28.794  27.372  1.00  0.00     0.010 A 
ATOM     38  C   UNL A   1      39.295  28.102  28.582  1.00  0.00    -0.014 A 
BRANCH  38  39
ATOM     39  C   UNL A   1      40.547  27.380  28.718  1.00  0.00     0.031 A 
ATOM     40  C   UNL A   1      40.635  25.943  28.448  1.00  0.00     0.074 A 
ATOM     41  C   UNL A   1      41.627  28.180  28.862  1.00  0.00     0.049 A 
ATOM     42  N   UNL A   1      41.574  25.183  28.889  1.00  0.00    -0.248 NA
ATOM     43  C   UNL A   1      39.647  25.231  27.647  1.00  0.00     0.031 C 
ATOM     44  C   UNL A   1      43.036  27.905  28.649  1.00  0.00     0.029 A 
ATOM     45  N   UNL A   1      41.608  29.504  29.335  1.00  0.00    -0.354 N 
ATOM     46  C   UNL A   1      41.519  24.007  28.171  1.00  0.00     0.074 A 
ATOM     47  C   UNL A   1      40.229  24.032  27.522  1.00  0.00     0.031 C 
ATOM     48  C   UNL A   1      43.755  28.866  29.263  1.00  0.00     0.029 A 
ATOM     49  C   UNL A   1      42.819  29.695  30.012  1.00  0.00     0.049 A 
ATOM     50  H   UNL A   1      40.888  30.164  29.215  1.00  0.00     0.167 HD
ATOM     51  C   UNL A   1      42.661  23.261  28.059  1.00  0.00     0.037 A 
ATOM     52  C   UNL A   1      42.781  29.832  31.371  1.00  0.00     0.037 A 
ATOM     53  C   UNL A   1      43.747  23.911  28.798  1.00  0.00     0.049 A 
ATOM     54  C   UNL A   1      43.461  28.671  32.045  1.00  0.00     0.074 A 
ATOM     55  C   UNL A   1      44.758  24.757  28.371  1.00  0.00     0.029 A 
ATOM     56  N   UNL A   1      43.673  24.048  30.182  1.00  0.00    -0.354 N 
ATOM     57  N   UNL A   1      43.512  27.468  31.543  1.00  0.00    -0.248 NA
ATOM     58  C   UNL A   1      44.190  28.800  33.300  1.00  0.00     0.031 C 
ATOM     59  C   UNL A   1      45.235  25.471  29.498  1.00  0.00     0.029 A 
ATOM     60  C   UNL A   1      44.528  25.047  30.611  1.00  0.00     0.049 A 
ATOM     61  H   UNL A   1      43.094  23.511  30.771  1.00  0.00     0.167 HD
ATOM     62  C   UNL A   1      44.312  26.691  32.334  1.00  0.00     0.074 A 
ATOM     63  C   UNL A   1      44.695  27.562  33.432  1.00  0.00     0.031 C 
ATOM     64  C   UNL A   1      44.640  25.404  32.016  1.00  0.00     0.037 A 
BRANCH  51  65
ATOM     65  C   UNL A   1      42.916  22.180  27.021  1.00  0.00     0.064 A 
ATOM     66  C   UNL A   1      42.247  20.934  27.106  1.00  0.00     0.173 A 
ATOM     67  C   UNL A   1      43.825  22.273  25.951  1.00  0.00     0.173 A 
ATOM     68  F   UNL A   1      41.266  20.720  27.992  1.00  0.00    -0.203 F 
ATOM     69  C   UNL A   1      42.551  19.849  26.276  1.00  0.00     0.198 A 
ATOM     70  C   UNL A   1      44.152  21.177  25.139  1.00  0.00     0.198 A 
ATOM     71  F   UNL A   1      44.387  23.437  25.610  1.00  0.00    -0.203 F 
ATOM     72  F   UNL A   1      41.893  18.691  26.429  1.00  0.00    -0.200 F 
ATOM     73  C   UNL A   1      43.526  19.962  25.311  1.00  0.00     0.200 A 
ATOM     74  F   UNL A   1      45.082  21.315  24.182  1.00  0.00    -0.200 F 
ATOM     75  F   UNL A   1      43.837  18.917  24.532  1.00  0.00    -0.200 F 
ENDBRANCH  51  65
BRANCH  52  76
ATOM     76  C   UNL A   1      41.522  30.498  31.835  1.00  0.00     0.064 A 
ATOM     77  C   UNL A   1      41.281  31.814  31.379  1.00  0.00     0.173 A 
ATOM     78  C   UNL A   1      40.413  29.765  32.284  1.00  0.00     0.173 A 
ATOM     79  F   UNL A   1      42.304  32.565  30.939  1.00  0.00    -0.203 F 
ATOM     80  C   UNL A   1      39.986  32.307  31.229  1.00  0.00     0.198 A 
ATOM     81  C   UNL A   1      39.116  30.275  32.153  1.00  0.00     0.198 A 
ATOM     82  F   UNL A   1      40.567  28.514  32.741  1.00  0.00    -0.203 F 
ATOM     83  F   UNL A   1      39.790  33.502  30.653  1.00  0.00    -0.200 F 
ATOM     84  C   UNL A   1      38.903  31.524  31.586  1.00  0.00     0.200 A 
ATOM     85  F   UNL A   1      38.064  29.520  32.500  1.00  0.00    -0.200 F 
ATOM     86  F   UNL A   1      37.657  31.959  31.355  1.00  0.00    -0.200 F 
ENDBRANCH  52  76
BRANCH  64  87
ATOM     87  C   UNL A   1      45.252  24.418  32.974  1.00  0.00     0.064 A 
ATOM     88  C   UNL A   1      46.547  24.561  33.497  1.00  0.00     0.173 A 
ATOM     89  C   UNL A   1      44.485  23.359  33.512  1.00  0.00     0.173 A 
ATOM     90  F   UNL A   1      47.317  25.612  33.180  1.00  0.00    -0.203 F 
ATOM     91  C   UNL A   1      47.075  23.650  34.410  1.00  0.00     0.198 A 
ATOM     92  C   UNL A   1      44.992  22.492  34.476  1.00  0.00     0.198 A 
ATOM     93  F   UNL A   1      43.213  23.149  33.143  1.00  0.00    -0.203 F 
ATOM     94  F   UNL A   1      48.340  23.791  34.828  1.00  0.00    -0.200 F 
ATOM     95  C   UNL A   1      46.297  22.619  34.904  1.00  0.00     0.200 A 
ATOM     96  F   UNL A   1      44.203  21.542  34.996  1.00  0.00    -0.200 F 
ATOM     97  F   UNL A   1      46.797  21.768  35.808  1.00  0.00    -0.200 F 
ENDBRANCH  64  87
ENDBRANCH  38  39
ENDBRANCH  30  33
ENDBRANCH  28  29
ENDBRANCH  27  28
ENDBRANCH   1  27
TORSDOF 15
ENDMDL
MODEL 3
REMARK VINA RESULT:     -14.2      1.679      3.464
REMARK SMILES Cc1cc(F)cc(N[C@@](C)(C(=O)NCCCCNC(=O)c2ccc(-c3c4nc(c(-c5c(F)c(F)c(F)c(F)c5F)c5ccc([nH]5)c(-c5c(F)c(F)c(F)c(F)c5F)c5nc(c(-c6c(F)c(F)c(F)c(F)c6F)c6ccc3[nH]6)C=C5)C=C4)cc2)c2ccc(O)cc2)c1
REMARK SMILES IDX 15 1 14 2 13 3 11 4 12 5 9 7 10 8 8 9 7 11 1 12 2 13 3 14
REMARK SMILES IDX 91 15 4 16 5 17 6 18 84 19 85 20 90 21 86 22 89 23 87 24
REMARK SMILES IDX 88 25 16 27 17 28 18 29 19 30 20 32 21 33 22 34 83 35 23 36
REMARK SMILES IDX 82 37 24 38 25 39 26 40 76 41 27 42 81 43 75 44 77 45 28 46
REMARK SMILES IDX 80 47 74 48 73 49 29 51 61 52 41 53 60 54 42 55 45 56 59 57
REMARK SMILES IDX 78 58 43 59 44 60 58 62 79 63 46 64 30 65 31 66 39 67 32 68
REMARK SMILES IDX 33 69 37 70 40 71 34 72 35 73 38 74 36 75 62 76 63 77 71 78
REMARK SMILES IDX 64 79 65 80 69 81 72 82 66 83 67 84 70 85 68 86 47 87 48 88
REMARK SMILES IDX 56 89 49 90 50 91 54 92 57 93 51 94 52 95 55 96 53 97
REMARK H PARENT 13 6 8 10 88 26 18 31 77 50 45 61
REMARK Flexibility Score: inf
ROOT
ATOM      1  C   UNL A   1      32.908  28.062  27.130  1.00  0.00     0.023 C 
ENDROOT
BRANCH   1   2
ATOM      2  C   UNL A   1      31.404  28.042  26.849  1.00  0.00     0.116 C 
BRANCH   2   3
ATOM      3  N   UNL A   1      30.870  26.695  26.876  1.00  0.00    -0.354 N 
ATOM      4  C   UNL A   1      30.618  25.783  25.882  1.00  0.00     0.250 C 
ATOM      5  O   UNL A   1      29.902  24.843  26.246  1.00  0.00    -0.272 OA
ATOM      6  H   UNL A   1      30.645  26.374  27.779  1.00  0.00     0.163 HD
BRANCH   4   7
ATOM      7  C   UNL A   1      31.209  25.935  24.411  1.00  0.00     0.139 C 
ATOM      8  C   UNL A   1      30.640  24.810  23.509  1.00  0.00     0.051 C 
BRANCH   7   9
ATOM      9  N   UNL A   1      32.689  25.756  24.508  1.00  0.00    -0.368 N 
ATOM     10  H   UNL A   1      33.204  26.557  24.257  1.00  0.00     0.161 HD
BRANCH   9  11
ATOM     11  C   UNL A   1      33.471  24.680  24.885  1.00  0.00     0.038 A 
ATOM     12  C   UNL A   1      36.583  22.953  23.439  1.00  0.00     0.044 C 
ATOM     13  C   UNL A   1      35.504  23.369  24.393  1.00  0.00    -0.046 A 
ATOM     14  C   UNL A   1      35.521  22.908  25.708  1.00  0.00     0.042 A 
ATOM     15  C   UNL A   1      34.499  24.273  24.008  1.00  0.00     0.029 A 
ATOM     16  C   UNL A   1      34.469  23.230  26.550  1.00  0.00     0.125 A 
ATOM     17  F   UNL A   1      34.482  22.781  27.813  1.00  0.00    -0.207 F 
ATOM     18  C   UNL A   1      33.421  24.045  26.124  1.00  0.00     0.065 A 
ENDBRANCH   9  11
ENDBRANCH   7   9
BRANCH   7  19
ATOM     19  C   UNL A   1      30.774  27.225  23.660  1.00  0.00    -0.013 A 
ATOM     20  C   UNL A   1      29.410  27.560  23.519  1.00  0.00     0.010 A 
ATOM     21  C   UNL A   1      31.706  28.142  23.137  1.00  0.00     0.010 A 
ATOM     22  C   UNL A   1      29.002  28.625  22.711  1.00  0.00     0.046 A 
ATOM     23  C   UNL A   1      31.304  29.225  22.349  1.00  0.00     0.046 A 
ATOM     24  C   UNL A   1      29.954  29.428  22.106  1.00  0.00     0.115 A 
BRANCH  24  25
ATOM     25  O   UNL A   1      29.528  30.414  21.268  1.00  0.00    -0.508 OA
ATOM     26  H   UNL A   1      28.825  30.249  20.670  1.00  0.00     0.293 HD
ENDBRANCH  24  25
ENDBRANCH   7  19
ENDBRANCH   4   7
ENDBRANCH   2   3
ENDBRANCH   1   2
BRANCH   1  27
ATOM     27  C   UNL A   1      33.749  28.887  26.149  1.00  0.00     0.023 C 
BRANCH  27  28
ATOM     28  C   UNL A   1      35.121  29.256  26.682  1.00  0.00     0.116 C 
BRANCH  28  29
ATOM     29  N   UNL A   1      35.124  30.521  27.422  1.00  0.00    -0.352 N 
ATOM     30  C   UNL A   1      35.863  30.830  28.540  1.00  0.00     0.251 C 
ATOM     31  H   UNL A   1      34.530  31.228  27.081  1.00  0.00     0.163 HD
ATOM     32  O   UNL A   1      35.575  31.796  29.255  1.00  0.00    -0.269 OA
BRANCH  30  33
ATOM     33  C   UNL A   1      37.029  30.000  28.850  1.00  0.00     0.039 A 
ATOM     34  C   UNL A   1      37.021  29.024  29.855  1.00  0.00     0.014 A 
ATOM     35  C   UNL A   1      38.159  30.220  28.070  1.00  0.00     0.014 A 
ATOM     36  C   UNL A   1      38.153  28.230  30.040  1.00  0.00     0.010 A 
ATOM     37  C   UNL A   1      39.186  29.329  28.123  1.00  0.00     0.010 A 
ATOM     38  C   UNL A   1      39.225  28.395  29.161  1.00  0.00    -0.014 A 
BRANCH  38  39
ATOM     39  C   UNL A   1      40.520  27.751  29.276  1.00  0.00     0.031 A 
ATOM     40  C   UNL A   1      40.755  26.404  28.749  1.00  0.00     0.074 A 
ATOM     41  C   UNL A   1      41.511  28.581  29.670  1.00  0.00     0.049 A 
ATOM     42  N   UNL A   1      41.718  25.641  29.126  1.00  0.00    -0.248 NA
ATOM     43  C   UNL A   1      39.900  25.795  27.738  1.00  0.00     0.031 C 
ATOM     44  C   UNL A   1      42.951  28.454  29.544  1.00  0.00     0.029 A 
ATOM     45  N   UNL A   1      41.338  29.782  30.381  1.00  0.00    -0.354 N 
ATOM     46  C   UNL A   1      41.825  24.627  28.196  1.00  0.00     0.074 A 
ATOM     47  C   UNL A   1      40.592  24.687  27.445  1.00  0.00     0.031 C 
ATOM     48  C   UNL A   1      43.532  29.324  30.393  1.00  0.00     0.029 A 
ATOM     49  C   UNL A   1      42.471  29.923  31.193  1.00  0.00     0.049 A 
ATOM     50  H   UNL A   1      40.575  30.400  30.320  1.00  0.00     0.167 HD
ATOM     51  C   UNL A   1      43.032  24.000  28.055  1.00  0.00     0.037 A 
ATOM     52  C   UNL A   1      42.313  29.787  32.544  1.00  0.00     0.037 A 
ATOM     53  C   UNL A   1      43.995  24.568  29.003  1.00  0.00     0.049 A 
ATOM     54  C   UNL A   1      43.036  28.568  33.048  1.00  0.00     0.074 A 
ATOM     55  C   UNL A   1      44.959  25.551  28.841  1.00  0.00     0.029 A 
ATOM     56  N   UNL A   1      43.800  24.426  30.374  1.00  0.00    -0.354 N 
ATOM     57  N   UNL A   1      43.232  27.493  32.335  1.00  0.00    -0.248 NA
ATOM     58  C   UNL A   1      43.650  28.500  34.368  1.00  0.00     0.031 C 
ATOM     59  C   UNL A   1      45.280  26.062  30.122  1.00  0.00     0.029 A 
ATOM     60  C   UNL A   1      44.528  25.379  31.064  1.00  0.00     0.049 A 
ATOM     61  H   UNL A   1      43.225  23.745  30.793  1.00  0.00     0.167 HD
ATOM     62  C   UNL A   1      44.033  26.634  33.037  1.00  0.00     0.074 A 
ATOM     63  C   UNL A   1      44.249  27.299  34.311  1.00  0.00     0.031 C 
ATOM     64  C   UNL A   1      44.496  25.461  32.515  1.00  0.00     0.037 A 
BRANCH  51  65
ATOM     65  C   UNL A   1      43.463  23.164  26.860  1.00  0.00     0.064 A 
ATOM     66  C   UNL A   1      43.053  21.812  26.747  1.00  0.00     0.173 A 
ATOM     67  C   UNL A   1      44.304  23.599  25.818  1.00  0.00     0.173 A 
ATOM     68  F   UNL A   1      42.161  21.275  27.588  1.00  0.00    -0.203 F 
ATOM     69  C   UNL A   1      43.539  20.950  25.758  1.00  0.00     0.198 A 
ATOM     70  C   UNL A   1      44.814  22.729  24.845  1.00  0.00     0.198 A 
ATOM     71  F   UNL A   1      44.616  24.890  25.665  1.00  0.00    -0.203 F 
ATOM     72  F   UNL A   1      43.125  19.675  25.727  1.00  0.00    -0.200 F 
ATOM     73  C   UNL A   1      44.443  21.401  24.823  1.00  0.00     0.200 A 
ATOM     74  F   UNL A   1      45.670  23.194  23.922  1.00  0.00    -0.200 F 
ATOM     75  F   UNL A   1      44.930  20.571  23.891  1.00  0.00    -0.200 F 
ENDBRANCH  51  65
BRANCH  52  76
ATOM     76  C   UNL A   1      40.967  30.259  33.004  1.00  0.00     0.064 A 
ATOM     77  C   UNL A   1      40.659  31.624  32.807  1.00  0.00     0.173 A 
ATOM     78  C   UNL A   1      39.889  29.379  33.176  1.00  0.00     0.173 A 
ATOM     79  F   UNL A   1      41.651  32.514  32.639  1.00  0.00    -0.203 F 
ATOM     80  C   UNL A   1      39.346  32.055  32.630  1.00  0.00     0.198 A 
ATOM     81  C   UNL A   1      38.570  29.823  33.021  1.00  0.00     0.198 A 
ATOM     82  F   UNL A   1      40.105  28.072  33.379  1.00  0.00    -0.203 F 
ATOM     83  F   UNL A   1      39.102  33.332  32.296  1.00  0.00    -0.200 F 
ATOM     84  C   UNL A   1      38.304  31.148  32.705  1.00  0.00     0.200 A 
ATOM     85  F   UNL A   1      37.558  28.946  33.096  1.00  0.00    -0.200 F 
ATOM     86  F   UNL A   1      37.051  31.544  32.443  1.00  0.00    -0.200 F 
ENDBRANCH  52  76
BRANCH  64  87
ATOM     87  C   UNL A   1      45.113  24.353  33.323  1.00  0.00     0.064 A 
ATOM     88  C   UNL A   1      44.428  23.173  33.654  1.00  0.00     0.173 A 
ATOM     89  C   UNL A   1      46.483  24.387  33.672  1.00  0.00     0.173 A 
ATOM     90  F   UNL A   1      43.170  22.957  33.244  1.00  0.00    -0.203 F 
ATOM     91  C   UNL A   1      45.038  22.147  34.375  1.00  0.00     0.198 A 
ATOM     92  C   UNL A   1      47.107  23.331  34.331  1.00  0.00     0.198 A 
ATOM     93  F   UNL A   1      47.266  25.430  33.360  1.00  0.00    -0.203 F 
ATOM     94  F   UNL A   1      44.322  21.070  34.724  1.00  0.00    -0.200 F 
ATOM     95  C   UNL A   1      46.377  22.223  34.708  1.00  0.00     0.200 A 
ATOM     96  F   UNL A   1      48.421  23.389  34.584  1.00  0.00    -0.200 F 
ATOM     97  F   UNL A   1      46.967  21.219  35.368  1.00  0.00    -0.200 F 
ENDBRANCH  64  87
ENDBRANCH  38  39
ENDBRANCH  30  33
ENDBRANCH  28  29
ENDBRANCH  27  28
ENDBRANCH   1  27
TORSDOF 15
ENDMDL
