MODEL 1
REMARK VINA RESULT:     -14.1      0.000      0.000
REMARK SMILES Cc1c(-c2nn(-c3ccccc3)cc2/C=N/O)nnn1-c1ccc(C(=O)NCCCCNC(=O)c2ccc(-c3c4nc(c(-c5c(F)c(F)c(F)c(F)c5F)c5ccc([nH]5)c(-c5c(F)c(F)c(F)c(F)c5F)c5nc(c(-c6c(F)c(F)c(F)c(F)c6F)c6ccc3[nH]6)C=C5)C=C4)cc2)cc1
REMARK SMILES IDX 28 1 27 2 25 3 26 4 24 6 21 7 22 8 99 9 23 10 98 11 20 12
REMARK SMILES IDX 1 13 2 14 3 15 18 16 19 17 4 18 5 19 14 20 6 21 13 22 15 23
REMARK SMILES IDX 16 24 17 25 7 27 8 28 12 29 9 30 11 31 10 32 29 33 30 34
REMARK SMILES IDX 31 35 32 36 33 37 34 39 35 40 36 41 97 42 37 43 96 44 38 45
REMARK SMILES IDX 39 46 40 47 90 48 41 49 95 50 89 51 91 52 42 53 94 54 88 55
REMARK SMILES IDX 87 56 43 58 75 59 55 60 74 61 56 62 59 63 73 64 92 65 57 66
REMARK SMILES IDX 58 67 72 69 93 70 60 71 44 72 45 73 53 74 46 75 47 76 51 77
REMARK SMILES IDX 54 78 48 79 49 80 52 81 50 82 76 83 77 84 85 85 78 86 79 87
REMARK SMILES IDX 83 88 86 89 80 90 81 91 84 92 82 93 61 94 62 95 70 96 63 97
REMARK SMILES IDX 64 98 68 99 71 100 65 101 66 102 69 103 67 104
REMARK H PARENT 27 5 17 26 32 38 91 57 59 68
REMARK Flexibility Score: inf
ROOT
ATOM      1  C   UNL A   1      37.296  20.555  25.356  1.00  0.00     0.116 C 
ENDROOT
BRANCH   1   2
ATOM      2  N   UNL A   1      36.245  19.629  24.984  1.00  0.00    -0.352 N 
ATOM      3  C   UNL A   1      34.876  19.717  24.916  1.00  0.00     0.251 C 
ATOM      4  O   UNL A   1      34.285  18.701  24.544  1.00  0.00    -0.269 OA
ATOM      5  H   UNL A   1      36.586  18.743  24.722  1.00  0.00     0.163 HD
BRANCH   3   6
ATOM      6  C   UNL A   1      34.082  20.951  25.205  1.00  0.00     0.039 A 
ATOM      7  C   UNL A   1      32.611  23.338  25.486  1.00  0.00     0.067 A 
ATOM      8  C   UNL A   1      32.468  22.574  24.328  1.00  0.00     0.029 A 
ATOM      9  C   UNL A   1      33.419  22.882  26.531  1.00  0.00     0.029 A 
ATOM     10  C   UNL A   1      33.229  21.409  24.179  1.00  0.00     0.016 A 
ATOM     11  C   UNL A   1      34.106  21.668  26.404  1.00  0.00     0.016 A 
BRANCH   7  12
ATOM     12  N   UNL A   1      31.909  24.554  25.615  1.00  0.00    -0.217 N 
ATOM     13  C   UNL A   1      32.895  25.868  23.679  1.00  0.00     0.069 C 
ATOM     14  C   UNL A   1      32.099  25.735  24.922  1.00  0.00     0.071 A 
ATOM     15  C   UNL A   1      31.292  26.627  25.600  1.00  0.00     0.137 A 
ATOM     16  N   UNL A   1      30.578  25.977  26.564  1.00  0.00    -0.128 NA
ATOM     17  N   UNL A   1      30.905  24.691  26.511  1.00  0.00    -0.061 NA
BRANCH  15  18
ATOM     18  C   UNL A   1      31.071  28.040  25.317  1.00  0.00     0.124 A 
ATOM     19  N   UNL A   1      30.199  28.443  24.387  1.00  0.00    -0.165 NA
ATOM     20  C   UNL A   1      31.748  29.120  25.930  1.00  0.00     0.044 A 
ATOM     21  N   UNL A   1      30.375  29.778  24.315  1.00  0.00    -0.240 N 
ATOM     22  C   UNL A   1      31.312  30.224  25.219  1.00  0.00     0.125 A 
BRANCH  20  23
ATOM     23  C   UNL A   1      32.679  29.169  27.029  1.00  0.00     0.166 C 
ATOM     24  N   UNL A   1      33.949  29.095  26.809  1.00  0.00    -0.097 NA
BRANCH  24  25
ATOM     25  O   UNL A   1      34.630  29.124  28.032  1.00  0.00    -0.411 OA
ATOM     26  H   UNL A   1      35.511  29.441  28.071  1.00  0.00     0.330 HD
ENDBRANCH  24  25
ENDBRANCH  20  23
BRANCH  21  27
ATOM     27  C   UNL A   1      29.661  30.550  23.373  1.00  0.00     0.065 A 
ATOM     28  C   UNL A   1      29.181  31.811  23.749  1.00  0.00     0.028 A 
ATOM     29  C   UNL A   1      29.421  30.055  22.085  1.00  0.00     0.028 A 
ATOM     30  C   UNL A   1      28.485  32.589  22.823  1.00  0.00     0.002 A 
ATOM     31  C   UNL A   1      28.674  30.817  21.186  1.00  0.00     0.002 A 
ATOM     32  C   UNL A   1      28.220  32.088  21.549  1.00  0.00     0.000 A 
ENDBRANCH  21  27
ENDBRANCH  15  18
ENDBRANCH   7  12
ENDBRANCH   3   6
ENDBRANCH   1   2
BRANCH   1  33
ATOM     33  C   UNL A   1      37.401  21.711  24.354  1.00  0.00     0.023 C 
BRANCH  33  34
ATOM     34  C   UNL A   1      37.123  23.104  24.941  1.00  0.00     0.023 C 
BRANCH  34  35
ATOM     35  C   UNL A   1      38.006  23.494  26.123  1.00  0.00     0.116 C 
BRANCH  35  36
ATOM     36  N   UNL A   1      39.209  22.665  26.238  1.00  0.00    -0.352 N 
ATOM     37  C   UNL A   1      40.525  23.076  26.299  1.00  0.00     0.251 C 
ATOM     38  H   UNL A   1      39.059  21.692  26.276  1.00  0.00     0.163 HD
ATOM     39  O   UNL A   1      41.445  22.315  25.998  1.00  0.00    -0.269 OA
BRANCH  37  40
ATOM     40  C   UNL A   1      40.818  24.440  26.758  1.00  0.00     0.039 A 
ATOM     41  C   UNL A   1      40.456  25.566  26.015  1.00  0.00     0.014 A 
ATOM     42  C   UNL A   1      41.439  24.569  27.997  1.00  0.00     0.014 A 
ATOM     43  C   UNL A   1      40.648  26.827  26.575  1.00  0.00     0.010 A 
ATOM     44  C   UNL A   1      41.473  25.790  28.613  1.00  0.00     0.010 A 
ATOM     45  C   UNL A   1      41.139  26.927  27.888  1.00  0.00    -0.014 A 
BRANCH  45  46
ATOM     46  C   UNL A   1      41.180  28.210  28.583  1.00  0.00     0.031 A 
ATOM     47  C   UNL A   1      42.321  29.069  28.166  1.00  0.00     0.074 A 
ATOM     48  C   UNL A   1      40.143  28.668  29.321  1.00  0.00     0.049 A 
ATOM     49  N   UNL A   1      43.346  29.417  28.870  1.00  0.00    -0.248 NA
ATOM     50  C   UNL A   1      42.418  29.470  26.750  1.00  0.00     0.031 C 
ATOM     51  C   UNL A   1      38.822  28.041  29.475  1.00  0.00     0.029 A 
ATOM     52  N   UNL A   1      39.989  29.847  29.995  1.00  0.00    -0.354 N 
ATOM     53  C   UNL A   1      44.073  30.294  28.066  1.00  0.00     0.074 A 
ATOM     54  C   UNL A   1      43.595  30.101  26.726  1.00  0.00     0.031 C 
ATOM     55  C   UNL A   1      37.941  28.939  29.965  1.00  0.00     0.029 A 
ATOM     56  C   UNL A   1      38.671  30.132  30.346  1.00  0.00     0.049 A 
ATOM     57  H   UNL A   1      40.743  30.442  30.213  1.00  0.00     0.167 HD
ATOM     58  C   UNL A   1      44.739  31.338  28.637  1.00  0.00     0.037 A 
ATOM     59  C   UNL A   1      38.205  31.271  30.914  1.00  0.00     0.037 A 
ATOM     60  C   UNL A   1      44.816  31.156  30.063  1.00  0.00     0.049 A 
ATOM     61  C   UNL A   1      39.353  31.959  31.539  1.00  0.00     0.074 A 
ATOM     62  C   UNL A   1      45.566  30.418  30.950  1.00  0.00     0.029 A 
ATOM     63  N   UNL A   1      43.682  31.556  30.717  1.00  0.00    -0.354 N 
ATOM     64  N   UNL A   1      40.007  31.477  32.559  1.00  0.00    -0.248 NA
ATOM     65  C   UNL A   1      40.026  33.027  30.807  1.00  0.00     0.031 C 
ATOM     66  C   UNL A   1      44.783  30.303  32.138  1.00  0.00     0.029 A 
ATOM     67  C   UNL A   1      43.598  31.014  31.967  1.00  0.00     0.049 A 
ATOM     68  H   UNL A   1      43.009  32.162  30.332  1.00  0.00     0.167 HD
ATOM     69  C   UNL A   1      41.310  31.870  32.339  1.00  0.00     0.074 A 
ATOM     70  C   UNL A   1      41.237  32.951  31.364  1.00  0.00     0.031 C 
ATOM     71  C   UNL A   1      42.347  31.056  32.684  1.00  0.00     0.037 A 
BRANCH  58  72
ATOM     72  C   UNL A   1      44.850  32.739  28.055  1.00  0.00     0.064 A 
ATOM     73  C   UNL A   1      46.126  33.206  27.660  1.00  0.00     0.173 A 
ATOM     74  C   UNL A   1      43.861  33.737  28.177  1.00  0.00     0.173 A 
ATOM     75  F   UNL A   1      47.153  32.352  27.520  1.00  0.00    -0.203 F 
ATOM     76  C   UNL A   1      46.401  34.566  27.489  1.00  0.00     0.198 A 
ATOM     77  C   UNL A   1      44.129  35.090  27.956  1.00  0.00     0.198 A 
ATOM     78  F   UNL A   1      42.628  33.477  28.620  1.00  0.00    -0.203 F 
ATOM     79  F   UNL A   1      47.655  34.966  27.235  1.00  0.00    -0.200 F 
ATOM     80  C   UNL A   1      45.404  35.508  27.644  1.00  0.00     0.200 A 
ATOM     81  F   UNL A   1      43.151  35.990  28.135  1.00  0.00    -0.200 F 
ATOM     82  F   UNL A   1      45.675  36.815  27.541  1.00  0.00    -0.200 F 
ENDBRANCH  58  72
BRANCH  59  83
ATOM     83  C   UNL A   1      36.885  31.925  30.766  1.00  0.00     0.064 A 
ATOM     84  C   UNL A   1      35.951  31.929  31.815  1.00  0.00     0.173 A 
ATOM     85  C   UNL A   1      36.641  32.813  29.701  1.00  0.00     0.173 A 
ATOM     86  F   UNL A   1      36.132  31.137  32.881  1.00  0.00    -0.203 F 
ATOM     87  C   UNL A   1      34.857  32.802  31.817  1.00  0.00     0.198 A 
ATOM     88  C   UNL A   1      35.549  33.682  29.705  1.00  0.00     0.198 A 
ATOM     89  F   UNL A   1      37.515  32.919  28.690  1.00  0.00    -0.203 F 
ATOM     90  F   UNL A   1      34.022  32.824  32.866  1.00  0.00    -0.200 F 
ATOM     91  C   UNL A   1      34.665  33.688  30.770  1.00  0.00     0.200 A 
ATOM     92  F   UNL A   1      35.396  34.562  28.705  1.00  0.00    -0.200 F 
ATOM     93  F   UNL A   1      33.660  34.573  30.806  1.00  0.00    -0.200 F 
ENDBRANCH  59  83
BRANCH  71  94
ATOM     94  C   UNL A   1      42.118  30.056  33.769  1.00  0.00     0.064 A 
ATOM     95  C   UNL A   1      41.699  28.732  33.563  1.00  0.00     0.173 A 
ATOM     96  C   UNL A   1      42.428  30.447  35.076  1.00  0.00     0.173 A 
ATOM     97  F   UNL A   1      41.446  28.271  32.331  1.00  0.00    -0.203 F 
ATOM     98  C   UNL A   1      41.580  27.848  34.634  1.00  0.00     0.198 A 
ATOM     99  C   UNL A   1      42.341  29.555  36.137  1.00  0.00     0.198 A 
ATOM    100  F   UNL A   1      42.863  31.695  35.317  1.00  0.00    -0.203 F 
ATOM    101  F   UNL A   1      41.171  26.587  34.425  1.00  0.00    -0.200 F 
ATOM    102  C   UNL A   1      41.909  28.258  35.918  1.00  0.00     0.200 A 
ATOM    103  F   UNL A   1      42.699  29.948  37.366  1.00  0.00    -0.200 F 
ATOM    104  F   UNL A   1      41.832  27.396  36.942  1.00  0.00    -0.200 F 
ENDBRANCH  71  94
ENDBRANCH  45  46
ENDBRANCH  37  40
ENDBRANCH  35  36
ENDBRANCH  34  35
ENDBRANCH  33  34
ENDBRANCH   1  33
TORSDOF 16
ENDMDL
MODEL 2
REMARK VINA RESULT:     -14.0      2.306      2.970
REMARK SMILES Cc1c(-c2nn(-c3ccccc3)cc2/C=N/O)nnn1-c1ccc(C(=O)NCCCCNC(=O)c2ccc(-c3c4nc(c(-c5c(F)c(F)c(F)c(F)c5F)c5ccc([nH]5)c(-c5c(F)c(F)c(F)c(F)c5F)c5nc(c(-c6c(F)c(F)c(F)c(F)c6F)c6ccc3[nH]6)C=C5)C=C4)cc2)cc1
REMARK SMILES IDX 28 1 27 2 25 3 26 4 24 6 21 7 22 8 99 9 23 10 98 11 20 12
REMARK SMILES IDX 1 13 2 14 3 15 18 16 19 17 4 18 5 19 14 20 6 21 13 22 15 23
REMARK SMILES IDX 16 24 17 25 7 27 8 28 12 29 9 30 11 31 10 32 29 33 30 34
REMARK SMILES IDX 31 35 32 36 33 37 34 39 35 40 36 41 97 42 37 43 96 44 38 45
REMARK SMILES IDX 39 46 40 47 90 48 41 49 95 50 89 51 91 52 42 53 94 54 88 55
REMARK SMILES IDX 87 56 43 58 75 59 55 60 74 61 56 62 59 63 73 64 92 65 57 66
REMARK SMILES IDX 58 67 72 69 93 70 60 71 44 72 45 73 53 74 46 75 47 76 51 77
REMARK SMILES IDX 54 78 48 79 49 80 52 81 50 82 76 83 77 84 85 85 78 86 79 87
REMARK SMILES IDX 83 88 86 89 80 90 81 91 84 92 82 93 61 94 62 95 70 96 63 97
REMARK SMILES IDX 64 98 68 99 71 100 65 101 66 102 69 103 67 104
REMARK H PARENT 27 5 17 26 32 38 91 57 59 68
REMARK Flexibility Score: inf
ROOT
ATOM      1  C   UNL A   1      38.749  21.969  25.784  1.00  0.00     0.116 C 
ENDROOT
BRANCH   1   2
ATOM      2  N   UNL A   1      37.983  20.815  25.357  1.00  0.00    -0.352 N 
ATOM      3  C   UNL A   1      36.650  20.592  25.114  1.00  0.00     0.251 C 
ATOM      4  O   UNL A   1      36.348  19.453  24.750  1.00  0.00    -0.269 OA
ATOM      5  H   UNL A   1      38.540  20.017  25.208  1.00  0.00     0.163 HD
BRANCH   3   6
ATOM      6  C   UNL A   1      35.576  21.630  25.208  1.00  0.00     0.039 A 
ATOM      7  C   UNL A   1      33.571  23.606  25.114  1.00  0.00     0.067 A 
ATOM      8  C   UNL A   1      33.643  22.651  24.101  1.00  0.00     0.029 A 
ATOM      9  C   UNL A   1      34.440  23.536  26.206  1.00  0.00     0.029 A 
ATOM     10  C   UNL A   1      34.664  21.694  24.135  1.00  0.00     0.016 A 
ATOM     11  C   UNL A   1      35.399  22.518  26.271  1.00  0.00     0.016 A 
BRANCH   7  12
ATOM     12  N   UNL A   1      32.596  24.623  25.051  1.00  0.00    -0.217 N 
ATOM     13  C   UNL A   1      33.971  26.529  24.091  1.00  0.00     0.069 C 
ATOM     14  C   UNL A   1      32.762  25.957  24.730  1.00  0.00     0.071 A 
ATOM     15  C   UNL A   1      31.533  26.507  25.034  1.00  0.00     0.137 A 
ATOM     16  N   UNL A   1      30.658  25.527  25.401  1.00  0.00    -0.128 NA
ATOM     17  N   UNL A   1      31.297  24.365  25.331  1.00  0.00    -0.061 NA
BRANCH  15  18
ATOM     18  C   UNL A   1      31.103  27.892  24.892  1.00  0.00     0.124 A 
ATOM     19  N   UNL A   1      30.238  28.265  23.942  1.00  0.00    -0.165 NA
ATOM     20  C   UNL A   1      31.553  28.982  25.673  1.00  0.00     0.044 A 
ATOM     21  N   UNL A   1      30.198  29.610  24.032  1.00  0.00    -0.240 N 
ATOM     22  C   UNL A   1      30.989  30.083  25.053  1.00  0.00     0.125 A 
BRANCH  20  23
ATOM     23  C   UNL A   1      32.391  29.040  26.844  1.00  0.00     0.166 C 
ATOM     24  N   UNL A   1      33.658  28.807  26.749  1.00  0.00    -0.097 NA
BRANCH  24  25
ATOM     25  O   UNL A   1      34.235  28.886  28.022  1.00  0.00    -0.411 OA
ATOM     26  H   UNL A   1      34.264  29.706  28.474  1.00  0.00     0.330 HD
ENDBRANCH  24  25
ENDBRANCH  20  23
BRANCH  21  27
ATOM     27  C   UNL A   1      29.428  30.371  23.124  1.00  0.00     0.065 A 
ATOM     28  C   UNL A   1      28.952  31.627  23.520  1.00  0.00     0.028 A 
ATOM     29  C   UNL A   1      29.131  29.869  21.852  1.00  0.00     0.028 A 
ATOM     30  C   UNL A   1      28.202  32.394  22.629  1.00  0.00     0.002 A 
ATOM     31  C   UNL A   1      28.331  30.620  20.988  1.00  0.00     0.002 A 
ATOM     32  C   UNL A   1      27.881  31.886  21.371  1.00  0.00     0.000 A 
ENDBRANCH  21  27
ENDBRANCH  15  18
ENDBRANCH   7  12
ENDBRANCH   3   6
ENDBRANCH   1   2
BRANCH   1  33
ATOM     33  C   UNL A   1      39.894  21.563  26.718  1.00  0.00     0.023 C 
BRANCH  33  34
ATOM     34  C   UNL A   1      40.593  20.243  26.353  1.00  0.00     0.023 C 
BRANCH  34  35
ATOM     35  C   UNL A   1      41.930  20.008  27.049  1.00  0.00     0.116 C 
BRANCH  35  36
ATOM     36  N   UNL A   1      43.025  19.743  26.113  1.00  0.00    -0.352 N 
ATOM     37  C   UNL A   1      43.702  20.642  25.315  1.00  0.00     0.251 C 
ATOM     38  H   UNL A   1      43.316  18.804  26.044  1.00  0.00     0.163 HD
ATOM     39  O   UNL A   1      44.305  20.273  24.307  1.00  0.00    -0.269 OA
BRANCH  37  40
ATOM     40  C   UNL A   1      43.714  22.059  25.701  1.00  0.00     0.039 A 
ATOM     41  C   UNL A   1      42.794  22.977  25.186  1.00  0.00     0.014 A 
ATOM     42  C   UNL A   1      44.659  22.448  26.645  1.00  0.00     0.014 A 
ATOM     43  C   UNL A   1      42.783  24.272  25.699  1.00  0.00     0.010 A 
ATOM     44  C   UNL A   1      44.539  23.662  27.265  1.00  0.00     0.010 A 
ATOM     45  C   UNL A   1      43.647  24.599  26.756  1.00  0.00    -0.014 A 
BRANCH  45  46
ATOM     46  C   UNL A   1      43.543  25.879  27.449  1.00  0.00     0.031 A 
ATOM     47  C   UNL A   1      44.557  26.873  27.007  1.00  0.00     0.074 A 
ATOM     48  C   UNL A   1      42.472  26.206  28.209  1.00  0.00     0.049 A 
ATOM     49  N   UNL A   1      45.546  27.349  27.689  1.00  0.00    -0.248 NA
ATOM     50  C   UNL A   1      44.574  27.278  25.589  1.00  0.00     0.031 C 
ATOM     51  C   UNL A   1      41.243  25.420  28.392  1.00  0.00     0.029 A 
ATOM     52  N   UNL A   1      42.186  27.359  28.885  1.00  0.00    -0.354 N 
ATOM     53  C   UNL A   1      46.140  28.307  26.868  1.00  0.00     0.074 A 
ATOM     54  C   UNL A   1      45.662  28.051  25.539  1.00  0.00     0.031 C 
ATOM     55  C   UNL A   1      40.268  26.202  28.900  1.00  0.00     0.029 A 
ATOM     56  C   UNL A   1      40.850  27.478  29.264  1.00  0.00     0.049 A 
ATOM     57  H   UNL A   1      42.864  28.045  29.086  1.00  0.00     0.167 HD
ATOM     58  C   UNL A   1      46.682  29.428  27.424  1.00  0.00     0.037 A 
ATOM     59  C   UNL A   1      40.257  28.552  29.841  1.00  0.00     0.037 A 
ATOM     60  C   UNL A   1      46.811  29.262  28.849  1.00  0.00     0.049 A 
ATOM     61  C   UNL A   1      41.324  29.381  30.440  1.00  0.00     0.074 A 
ATOM     62  C   UNL A   1      47.666  28.628  29.720  1.00  0.00     0.029 A 
ATOM     63  N   UNL A   1      45.651  29.520  29.526  1.00  0.00    -0.354 N 
ATOM     64  N   UNL A   1      42.054  28.988  31.447  1.00  0.00    -0.248 NA
ATOM     65  C   UNL A   1      41.841  30.522  29.693  1.00  0.00     0.031 C 
ATOM     66  C   UNL A   1      46.929  28.420  30.925  1.00  0.00     0.029 A 
ATOM     67  C   UNL A   1      45.662  28.976  30.778  1.00  0.00     0.049 A 
ATOM     68  H   UNL A   1      44.899  30.035  29.155  1.00  0.00     0.167 HD
ATOM     69  C   UNL A   1      43.292  29.540  31.198  1.00  0.00     0.074 A 
ATOM     70  C   UNL A   1      43.064  30.600  30.224  1.00  0.00     0.031 C 
ATOM     71  C   UNL A   1      44.430  28.863  31.522  1.00  0.00     0.037 A 
BRANCH  58  72
ATOM     72  C   UNL A   1      46.605  30.830  26.839  1.00  0.00     0.064 A 
ATOM     73  C   UNL A   1      47.769  31.633  26.856  1.00  0.00     0.173 A 
ATOM     74  C   UNL A   1      45.405  31.525  26.581  1.00  0.00     0.173 A 
ATOM     75  F   UNL A   1      48.972  31.088  27.101  1.00  0.00    -0.203 F 
ATOM     76  C   UNL A   1      47.718  33.023  26.714  1.00  0.00     0.198 A 
ATOM     77  C   UNL A   1      45.364  32.908  26.390  1.00  0.00     0.198 A 
ATOM     78  F   UNL A   1      44.209  30.930  26.613  1.00  0.00    -0.203 F 
ATOM     79  F   UNL A   1      48.834  33.750  26.861  1.00  0.00    -0.200 F 
ATOM     80  C   UNL A   1      46.514  33.661  26.488  1.00  0.00     0.200 A 
ATOM     81  F   UNL A   1      44.181  33.509  26.195  1.00  0.00    -0.200 F 
ATOM     82  F   UNL A   1      46.450  34.996  26.411  1.00  0.00    -0.200 F 
ENDBRANCH  58  72
BRANCH  59  83
ATOM     83  C   UNL A   1      38.863  29.035  29.721  1.00  0.00     0.064 A 
ATOM     84  C   UNL A   1      38.047  29.198  30.852  1.00  0.00     0.173 A 
ATOM     85  C   UNL A   1      38.411  29.629  28.527  1.00  0.00     0.173 A 
ATOM     86  F   UNL A   1      38.426  28.692  32.034  1.00  0.00    -0.203 F 
ATOM     87  C   UNL A   1      36.866  29.947  30.801  1.00  0.00     0.198 A 
ATOM     88  C   UNL A   1      37.233  30.376  28.478  1.00  0.00     0.198 A 
ATOM     89  F   UNL A   1      39.160  29.577  27.415  1.00  0.00    -0.203 F 
ATOM     90  F   UNL A   1      36.146  30.137  31.916  1.00  0.00    -0.200 F 
ATOM     91  C   UNL A   1      36.469  30.549  29.618  1.00  0.00     0.200 A 
ATOM     92  F   UNL A   1      36.879  30.986  27.338  1.00  0.00    -0.200 F 
ATOM     93  F   UNL A   1      35.377  31.326  29.587  1.00  0.00    -0.200 F 
ENDBRANCH  59  83
BRANCH  71  94
ATOM     94  C   UNL A   1      44.351  27.847  32.612  1.00  0.00     0.064 A 
ATOM     95  C   UNL A   1      44.195  26.467  32.411  1.00  0.00     0.173 A 
ATOM     96  C   UNL A   1      44.533  28.299  33.924  1.00  0.00     0.173 A 
ATOM     97  F   UNL A   1      44.080  25.956  31.178  1.00  0.00    -0.203 F 
ATOM     98  C   UNL A   1      44.203  25.583  33.490  1.00  0.00     0.198 A 
ATOM     99  C   UNL A   1      44.574  27.414  34.993  1.00  0.00     0.198 A 
ATOM    100  F   UNL A   1      44.718  29.608  34.161  1.00  0.00    -0.203 F 
ATOM    101  F   UNL A   1      44.045  24.267  33.284  1.00  0.00    -0.200 F 
ATOM    102  C   UNL A   1      44.401  26.058  34.778  1.00  0.00     0.200 A 
ATOM    103  F   UNL A   1      44.806  27.877  36.229  1.00  0.00    -0.200 F 
ATOM    104  F   UNL A   1      44.448  25.205  35.812  1.00  0.00    -0.200 F 
ENDBRANCH  71  94
ENDBRANCH  45  46
ENDBRANCH  37  40
ENDBRANCH  35  36
ENDBRANCH  34  35
ENDBRANCH  33  34
ENDBRANCH   1  33
TORSDOF 16
ENDMDL
MODEL 3
REMARK VINA RESULT:     -14.0      2.984      9.589
REMARK SMILES Cc1c(-c2nn(-c3ccccc3)cc2/C=N/O)nnn1-c1ccc(C(=O)NCCCCNC(=O)c2ccc(-c3c4nc(c(-c5c(F)c(F)c(F)c(F)c5F)c5ccc([nH]5)c(-c5c(F)c(F)c(F)c(F)c5F)c5nc(c(-c6c(F)c(F)c(F)c(F)c6F)c6ccc3[nH]6)C=C5)C=C4)cc2)cc1
REMARK SMILES IDX 28 1 27 2 25 3 26 4 24 6 21 7 22 8 99 9 23 10 98 11 20 12
REMARK SMILES IDX 1 13 2 14 3 15 18 16 19 17 4 18 5 19 14 20 6 21 13 22 15 23
REMARK SMILES IDX 16 24 17 25 7 27 8 28 12 29 9 30 11 31 10 32 29 33 30 34
REMARK SMILES IDX 31 35 32 36 33 37 34 39 35 40 36 41 97 42 37 43 96 44 38 45
REMARK SMILES IDX 39 46 40 47 90 48 41 49 95 50 89 51 91 52 42 53 94 54 88 55
REMARK SMILES IDX 87 56 43 58 75 59 55 60 74 61 56 62 59 63 73 64 92 65 57 66
REMARK SMILES IDX 58 67 72 69 93 70 60 71 44 72 45 73 53 74 46 75 47 76 51 77
REMARK SMILES IDX 54 78 48 79 49 80 52 81 50 82 76 83 77 84 85 85 78 86 79 87
REMARK SMILES IDX 83 88 86 89 80 90 81 91 84 92 82 93 61 94 62 95 70 96 63 97
REMARK SMILES IDX 64 98 68 99 71 100 65 101 66 102 69 103 67 104
REMARK H PARENT 27 5 17 26 32 38 91 57 59 68
REMARK Flexibility Score: inf
ROOT
ATOM      1  C   UNL A   1      31.704  31.234  26.122  1.00  0.00     0.116 C 
ENDROOT
BRANCH   1   2
ATOM      2  N   UNL A   1      30.697  31.122  25.086  1.00  0.00    -0.352 N 
ATOM      3  C   UNL A   1      30.358  30.141  24.188  1.00  0.00     0.251 C 
ATOM      4  O   UNL A   1      29.416  30.396  23.434  1.00  0.00    -0.269 OA
ATOM      5  H   UNL A   1      30.132  31.924  25.011  1.00  0.00     0.163 HD
BRANCH   3   6
ATOM      6  C   UNL A   1      31.007  28.795  24.103  1.00  0.00     0.039 A 
ATOM      7  C   UNL A   1      32.375  26.360  23.737  1.00  0.00     0.067 A 
ATOM      8  C   UNL A   1      33.056  27.563  23.563  1.00  0.00     0.029 A 
ATOM      9  C   UNL A   1      31.044  26.362  24.164  1.00  0.00     0.029 A 
ATOM     10  C   UNL A   1      32.361  28.770  23.711  1.00  0.00     0.016 A 
ATOM     11  C   UNL A   1      30.388  27.577  24.395  1.00  0.00     0.016 A 
BRANCH   7  12
ATOM     12  N   UNL A   1      33.042  25.137  23.514  1.00  0.00    -0.217 N 
ATOM     13  C   UNL A   1      32.250  23.800  25.520  1.00  0.00     0.069 C 
ATOM     14  C   UNL A   1      33.117  24.034  24.341  1.00  0.00     0.071 A 
ATOM     15  C   UNL A   1      34.057  23.238  23.717  1.00  0.00     0.137 A 
ATOM     16  N   UNL A   1      34.425  23.793  22.525  1.00  0.00    -0.128 NA
ATOM     17  N   UNL A   1      33.737  24.918  22.373  1.00  0.00    -0.061 NA
BRANCH  15  18
ATOM     18  C   UNL A   1      34.546  21.927  24.125  1.00  0.00     0.124 A 
ATOM     19  N   UNL A   1      33.795  20.827  24.001  1.00  0.00    -0.165 NA
ATOM     20  C   UNL A   1      35.803  21.662  24.716  1.00  0.00     0.044 A 
ATOM     21  N   UNL A   1      34.515  19.858  24.604  1.00  0.00    -0.240 N 
ATOM     22  C   UNL A   1      35.725  20.325  25.062  1.00  0.00     0.125 A 
BRANCH  20  23
ATOM     23  C   UNL A   1      36.950  22.503  24.948  1.00  0.00     0.166 C 
ATOM     24  N   UNL A   1      37.927  22.083  25.682  1.00  0.00    -0.097 NA
BRANCH  24  25
ATOM     25  O   UNL A   1      38.891  23.093  25.784  1.00  0.00    -0.411 OA
ATOM     26  H   UNL A   1      39.798  22.889  25.661  1.00  0.00     0.330 HD
ENDBRANCH  24  25
ENDBRANCH  20  23
BRANCH  21  27
ATOM     27  C   UNL A   1      33.999  18.550  24.732  1.00  0.00     0.065 A 
ATOM     28  C   UNL A   1      34.538  17.525  23.945  1.00  0.00     0.028 A 
ATOM     29  C   UNL A   1      32.950  18.285  25.621  1.00  0.00     0.028 A 
ATOM     30  C   UNL A   1      34.046  16.226  24.071  1.00  0.00     0.002 A 
ATOM     31  C   UNL A   1      32.427  16.993  25.697  1.00  0.00     0.002 A 
ATOM     32  C   UNL A   1      32.983  15.963  24.935  1.00  0.00     0.000 A 
ENDBRANCH  21  27
ENDBRANCH  15  18
ENDBRANCH   7  12
ENDBRANCH   3   6
ENDBRANCH   1   2
BRANCH   1  33
ATOM     33  C   UNL A   1      31.794  29.950  26.955  1.00  0.00     0.023 C 
BRANCH  33  34
ATOM     34  C   UNL A   1      33.164  29.691  27.601  1.00  0.00     0.023 C 
BRANCH  34  35
ATOM     35  C   UNL A   1      34.156  30.846  27.495  1.00  0.00     0.116 C 
BRANCH  35  36
ATOM     36  N   UNL A   1      34.164  31.706  28.680  1.00  0.00    -0.352 N 
ATOM     37  C   UNL A   1      35.045  31.686  29.743  1.00  0.00     0.251 C 
ATOM     38  H   UNL A   1      33.452  32.385  28.725  1.00  0.00     0.163 HD
ATOM     39  O   UNL A   1      34.736  32.160  30.836  1.00  0.00    -0.269 OA
BRANCH  37  40
ATOM     40  C   UNL A   1      36.379  31.106  29.542  1.00  0.00     0.039 A 
ATOM     41  C   UNL A   1      37.508  31.901  29.324  1.00  0.00     0.014 A 
ATOM     42  C   UNL A   1      36.484  29.721  29.622  1.00  0.00     0.014 A 
ATOM     43  C   UNL A   1      38.758  31.288  29.275  1.00  0.00     0.010 A 
ATOM     44  C   UNL A   1      37.718  29.141  29.742  1.00  0.00     0.010 A 
ATOM     45  C   UNL A   1      38.854  29.906  29.508  1.00  0.00    -0.014 A 
BRANCH  45  46
ATOM     46  C   UNL A   1      40.151  29.252  29.652  1.00  0.00     0.031 A 
ATOM     47  C   UNL A   1      40.593  29.125  31.067  1.00  0.00     0.074 A 
ATOM     48  C   UNL A   1      40.750  28.597  28.631  1.00  0.00     0.049 A 
ATOM     49  N   UNL A   1      41.583  29.722  31.642  1.00  0.00    -0.248 NA
ATOM     50  C   UNL A   1      39.745  28.362  32.002  1.00  0.00     0.031 C 
ATOM     51  C   UNL A   1      40.197  28.353  27.291  1.00  0.00     0.029 A 
ATOM     52  N   UNL A   1      41.925  27.900  28.595  1.00  0.00    -0.354 N 
ATOM     53  C   UNL A   1      41.636  29.201  32.934  1.00  0.00     0.074 A 
ATOM     54  C   UNL A   1      40.368  28.569  33.165  1.00  0.00     0.031 C 
ATOM     55  C   UNL A   1      40.896  27.375  26.676  1.00  0.00     0.029 A 
ATOM     56  C   UNL A   1      42.056  27.065  27.487  1.00  0.00     0.049 A 
ATOM     57  H   UNL A   1      42.617  27.979  29.292  1.00  0.00     0.167 HD
ATOM     58  C   UNL A   1      42.844  29.034  33.546  1.00  0.00     0.037 A 
ATOM     59  C   UNL A   1      43.052  26.178  27.245  1.00  0.00     0.037 A 
ATOM     60  C   UNL A   1      43.868  29.741  32.820  1.00  0.00     0.049 A 
ATOM     61  C   UNL A   1      44.207  26.568  28.080  1.00  0.00     0.074 A 
ATOM     62  C   UNL A   1      44.305  31.040  32.696  1.00  0.00     0.029 A 
ATOM     63  N   UNL A   1      44.345  29.042  31.746  1.00  0.00    -0.354 N 
ATOM     64  N   UNL A   1      44.875  27.674  27.904  1.00  0.00    -0.248 NA
ATOM     65  C   UNL A   1      44.415  25.903  29.361  1.00  0.00     0.031 C 
ATOM     66  C   UNL A   1      44.982  31.116  31.441  1.00  0.00     0.029 A 
ATOM     67  C   UNL A   1      44.984  29.854  30.853  1.00  0.00     0.049 A 
ATOM     68  H   UNL A   1      44.240  28.070  31.630  1.00  0.00     0.167 HD
ATOM     69  C   UNL A   1      45.236  28.054  29.179  1.00  0.00     0.074 A 
ATOM     70  C   UNL A   1      45.088  26.861  30.003  1.00  0.00     0.031 C 
ATOM     71  C   UNL A   1      45.274  29.371  29.525  1.00  0.00     0.037 A 
BRANCH  58  72
ATOM     72  C   UNL A   1      43.231  27.859  34.431  1.00  0.00     0.064 A 
ATOM     73  C   UNL A   1      43.303  26.572  33.849  1.00  0.00     0.173 A 
ATOM     74  C   UNL A   1      43.205  27.876  35.841  1.00  0.00     0.173 A 
ATOM     75  F   UNL A   1      43.324  26.425  32.515  1.00  0.00    -0.203 F 
ATOM     76  C   UNL A   1      43.263  25.404  34.617  1.00  0.00     0.198 A 
ATOM     77  C   UNL A   1      43.215  26.708  36.606  1.00  0.00     0.198 A 
ATOM     78  F   UNL A   1      43.055  29.003  36.543  1.00  0.00    -0.203 F 
ATOM     79  F   UNL A   1      43.209  24.210  34.012  1.00  0.00    -0.200 F 
ATOM     80  C   UNL A   1      43.211  25.473  35.996  1.00  0.00     0.200 A 
ATOM     81  F   UNL A   1      43.141  26.798  37.942  1.00  0.00    -0.200 F 
ATOM     82  F   UNL A   1      43.112  24.360  36.733  1.00  0.00    -0.200 F 
ENDBRANCH  58  72
BRANCH  59  83
ATOM     83  C   UNL A   1      43.008  24.889  26.520  1.00  0.00     0.064 A 
ATOM     84  C   UNL A   1      43.746  24.688  25.341  1.00  0.00     0.173 A 
ATOM     85  C   UNL A   1      42.481  23.738  27.136  1.00  0.00     0.173 A 
ATOM     86  F   UNL A   1      44.310  25.731  24.715  1.00  0.00    -0.203 F 
ATOM     87  C   UNL A   1      43.976  23.406  24.831  1.00  0.00     0.198 A 
ATOM     88  C   UNL A   1      42.711  22.460  26.625  1.00  0.00     0.198 A 
ATOM     89  F   UNL A   1      41.818  23.832  28.298  1.00  0.00    -0.203 F 
ATOM     90  F   UNL A   1      44.740  23.248  23.740  1.00  0.00    -0.200 F 
ATOM     91  C   UNL A   1      43.472  22.292  25.482  1.00  0.00     0.200 A 
ATOM     92  F   UNL A   1      42.252  21.387  27.285  1.00  0.00    -0.200 F 
ATOM     93  F   UNL A   1      43.753  21.060  25.034  1.00  0.00    -0.200 F 
ENDBRANCH  59  83
BRANCH  71  94
ATOM     94  C   UNL A   1      45.485  30.373  28.438  1.00  0.00     0.064 A 
ATOM     95  C   UNL A   1      44.458  31.028  27.742  1.00  0.00     0.173 A 
ATOM     96  C   UNL A   1      46.805  30.744  28.157  1.00  0.00     0.173 A 
ATOM     97  F   UNL A   1      43.170  30.768  28.005  1.00  0.00    -0.203 F 
ATOM     98  C   UNL A   1      44.751  32.003  26.789  1.00  0.00     0.198 A 
ATOM     99  C   UNL A   1      47.093  31.739  27.231  1.00  0.00     0.198 A 
ATOM    100  F   UNL A   1      47.820  30.167  28.821  1.00  0.00    -0.203 F 
ATOM    101  F   UNL A   1      43.759  32.616  26.125  1.00  0.00    -0.200 F 
ATOM    102  C   UNL A   1      46.067  32.363  26.542  1.00  0.00     0.200 A 
ATOM    103  F   UNL A   1      48.365  32.108  27.028  1.00  0.00    -0.200 F 
ATOM    104  F   UNL A   1      46.348  33.327  25.654  1.00  0.00    -0.200 F 
ENDBRANCH  71  94
ENDBRANCH  45  46
ENDBRANCH  37  40
ENDBRANCH  35  36
ENDBRANCH  34  35
ENDBRANCH  33  34
ENDBRANCH   1  33
TORSDOF 16
ENDMDL
