MODEL 1
REMARK VINA RESULT:     -12.7      0.000      0.000
REMARK SMILES O=C(NCCCCNC(=O)[C@@H]1C=C[C@@H](NS(=O)(=O)c2ccc(F)c(F)c2F)C1)c1ccc(-c2c3nc(c(-c4c(F)c(F)c(F)c(F)c4F)c4ccc([nH]4)c(-c4c(F)c(F)c(F)c(F)c4F)c4nc(c(-c5c(F)c(F)c(F)c(F)c5F)c5ccc2[nH]5)C=C4)C=C3)cc1
REMARK SMILES IDX 6 1 5 2 4 3 3 4 1 5 2 6 29 8 30 9 91 10 31 11 90 12 32 13
REMARK SMILES IDX 33 14 34 15 84 16 35 17 89 18 83 19 85 20 36 21 88 22 82 23
REMARK SMILES IDX 81 24 37 26 69 27 49 28 68 29 50 30 53 31 67 32 86 33 51 34
REMARK SMILES IDX 52 35 66 37 87 38 54 39 38 40 39 41 47 42 40 43 41 44 45 45
REMARK SMILES IDX 48 46 42 47 43 48 46 49 44 50 70 51 71 52 79 53 72 54 73 55
REMARK SMILES IDX 77 56 80 57 74 58 75 59 78 60 76 61 55 62 56 63 64 64 57 65
REMARK SMILES IDX 58 66 62 67 65 68 59 69 60 70 63 71 61 72 7 73 8 74 9 75
REMARK SMILES IDX 10 77 11 78 12 79 28 80 13 81 14 82 15 83 16 85 17 86 18 87
REMARK SMILES IDX 19 88 20 89 26 90 21 91 24 92 27 93 22 94 25 95 23 96
REMARK H PARENT 3 7 85 25 53 36 8 76 15 84
REMARK Flexibility Score: inf
ROOT
ATOM      1  C   UNL A   1      31.833  30.957  26.172  1.00  0.00     0.023 C 
ENDROOT
BRANCH   1   2
ATOM      2  C   UNL A   1      31.515  32.297  26.832  1.00  0.00     0.023 C 
BRANCH   2   3
ATOM      3  C   UNL A   1      32.710  33.006  27.448  1.00  0.00     0.116 C 
BRANCH   3   4
ATOM      4  N   UNL A   1      32.432  34.381  27.841  1.00  0.00    -0.352 N 
ATOM      5  O   UNL A   1      32.632  36.245  29.112  1.00  0.00    -0.269 OA
ATOM      6  C   UNL A   1      33.053  35.133  28.814  1.00  0.00     0.251 C 
ATOM      7  H   UNL A   1      31.708  34.830  27.349  1.00  0.00     0.163 HD
BRANCH   6   8
ATOM      8  C   UNL A   1      34.218  34.562  29.520  1.00  0.00     0.039 A 
ATOM      9  C   UNL A   1      35.491  34.685  28.965  1.00  0.00     0.014 A 
ATOM     10  C   UNL A   1      34.030  33.846  30.706  1.00  0.00     0.014 A 
ATOM     11  C   UNL A   1      36.537  33.942  29.488  1.00  0.00     0.010 A 
ATOM     12  C   UNL A   1      35.116  33.198  31.302  1.00  0.00     0.010 A 
ATOM     13  C   UNL A   1      36.373  33.213  30.679  1.00  0.00    -0.014 A 
BRANCH  13  14
ATOM     14  C   UNL A   1      37.571  32.568  31.279  1.00  0.00     0.031 A 
ATOM     15  C   UNL A   1      38.048  32.907  32.662  1.00  0.00     0.074 A 
ATOM     16  C   UNL A   1      38.179  31.598  30.567  1.00  0.00     0.049 A 
ATOM     17  N   UNL A   1      39.027  32.366  33.345  1.00  0.00    -0.248 NA
ATOM     18  C   UNL A   1      37.353  33.989  33.376  1.00  0.00     0.031 C 
ATOM     19  C   UNL A   1      37.801  31.196  29.208  1.00  0.00     0.029 A 
ATOM     20  N   UNL A   1      39.200  30.742  30.890  1.00  0.00    -0.354 N 
ATOM     21  C   UNL A   1      39.074  33.044  34.555  1.00  0.00     0.074 A 
ATOM     22  C   UNL A   1      38.041  34.056  34.510  1.00  0.00     0.031 C 
ATOM     23  C   UNL A   1      38.513  30.119  28.851  1.00  0.00     0.029 A 
ATOM     24  C   UNL A   1      39.461  29.810  29.914  1.00  0.00     0.049 A 
ATOM     25  H   UNL A   1      39.699  30.793  31.737  1.00  0.00     0.167 HD
ATOM     26  C   UNL A   1      39.901  32.827  35.606  1.00  0.00     0.037 A 
ATOM     27  C   UNL A   1      40.371  28.820  29.870  1.00  0.00     0.037 A 
ATOM     28  C   UNL A   1      40.911  31.799  35.646  1.00  0.00     0.049 A 
ATOM     29  C   UNL A   1      41.290  28.633  31.040  1.00  0.00     0.074 A 
ATOM     30  C   UNL A   1      41.775  31.484  36.682  1.00  0.00     0.029 A 
ATOM     31  N   UNL A   1      41.194  30.919  34.612  1.00  0.00    -0.354 N 
ATOM     32  N   UNL A   1      41.304  29.266  32.187  1.00  0.00    -0.248 NA
ATOM     33  C   UNL A   1      42.328  27.604  30.906  1.00  0.00     0.031 C 
ATOM     34  C   UNL A   1      42.615  30.454  36.256  1.00  0.00     0.029 A 
ATOM     35  C   UNL A   1      42.239  30.083  34.976  1.00  0.00     0.049 A 
ATOM     36  H   UNL A   1      40.722  30.893  33.748  1.00  0.00     0.167 HD
ATOM     37  C   UNL A   1      42.344  28.708  32.914  1.00  0.00     0.074 A 
ATOM     38  C   UNL A   1      42.914  27.660  32.093  1.00  0.00     0.031 C 
ATOM     39  C   UNL A   1      42.796  29.045  34.147  1.00  0.00     0.037 A 
BRANCH  26  40
ATOM     40  C   UNL A   1      39.768  33.703  36.819  1.00  0.00     0.064 A 
ATOM     41  C   UNL A   1      38.951  33.310  37.891  1.00  0.00     0.173 A 
ATOM     42  C   UNL A   1      40.323  34.990  36.858  1.00  0.00     0.173 A 
ATOM     43  F   UNL A   1      38.387  32.092  37.898  1.00  0.00    -0.203 F 
ATOM     44  C   UNL A   1      38.669  34.183  38.939  1.00  0.00     0.198 A 
ATOM     45  C   UNL A   1      40.059  35.853  37.920  1.00  0.00     0.198 A 
ATOM     46  F   UNL A   1      41.117  35.413  35.862  1.00  0.00    -0.203 F 
ATOM     47  F   UNL A   1      37.843  33.802  39.922  1.00  0.00    -0.200 F 
ATOM     48  C   UNL A   1      39.220  35.454  38.950  1.00  0.00     0.200 A 
ATOM     49  F   UNL A   1      40.606  37.077  37.939  1.00  0.00    -0.200 F 
ATOM     50  F   UNL A   1      38.938  36.299  39.951  1.00  0.00    -0.200 F 
ENDBRANCH  26  40
BRANCH  27  51
ATOM     51  C   UNL A   1      40.451  27.940  28.673  1.00  0.00     0.064 A 
ATOM     52  C   UNL A   1      41.201  28.308  27.546  1.00  0.00     0.173 A 
ATOM     53  C   UNL A   1      39.763  26.720  28.627  1.00  0.00     0.173 A 
ATOM     54  F   UNL A   1      41.875  29.468  27.535  1.00  0.00    -0.203 F 
ATOM     55  C   UNL A   1      41.240  27.502  26.411  1.00  0.00     0.198 A 
ATOM     56  C   UNL A   1      39.834  25.896  27.506  1.00  0.00     0.198 A 
ATOM     57  F   UNL A   1      39.047  26.315  29.686  1.00  0.00    -0.203 F 
ATOM     58  F   UNL A   1      41.927  27.901  25.332  1.00  0.00    -0.200 F 
ATOM     59  C   UNL A   1      40.564  26.292  26.396  1.00  0.00     0.200 A 
ATOM     60  F   UNL A   1      39.203  24.714  27.506  1.00  0.00    -0.200 F 
ATOM     61  F   UNL A   1      40.619  25.506  25.312  1.00  0.00    -0.200 F 
ENDBRANCH  27  51
BRANCH  39  62
ATOM     62  C   UNL A   1      43.961  28.268  34.687  1.00  0.00     0.064 A 
ATOM     63  C   UNL A   1      45.276  28.699  34.456  1.00  0.00     0.173 A 
ATOM     64  C   UNL A   1      43.776  27.069  35.391  1.00  0.00     0.173 A 
ATOM     65  F   UNL A   1      45.507  29.835  33.781  1.00  0.00    -0.203 F 
ATOM     66  C   UNL A   1      46.363  27.954  34.903  1.00  0.00     0.198 A 
ATOM     67  C   UNL A   1      44.865  26.345  35.867  1.00  0.00     0.198 A 
ATOM     68  F   UNL A   1      42.538  26.622  35.651  1.00  0.00    -0.203 F 
ATOM     69  F   UNL A   1      47.610  28.369  34.643  1.00  0.00    -0.200 F 
ATOM     70  C   UNL A   1      46.157  26.782  35.614  1.00  0.00     0.200 A 
ATOM     71  F   UNL A   1      44.663  25.228  36.581  1.00  0.00    -0.200 F 
ATOM     72  F   UNL A   1      47.203  26.076  36.062  1.00  0.00    -0.200 F 
ENDBRANCH  39  62
ENDBRANCH  13  14
ENDBRANCH   6   8
ENDBRANCH   3   4
ENDBRANCH   2   3
ENDBRANCH   1   2
BRANCH   1  73
ATOM     73  C   UNL A   1      32.543  29.964  27.087  1.00  0.00     0.116 C 
BRANCH  73  74
ATOM     74  N   UNL A   1      31.729  28.788  27.333  1.00  0.00    -0.356 N 
ATOM     75  C   UNL A   1      31.814  27.540  26.791  1.00  0.00     0.226 C 
ATOM     76  H   UNL A   1      31.007  28.909  27.991  1.00  0.00     0.163 HD
ATOM     77  O   UNL A   1      31.001  26.688  27.159  1.00  0.00    -0.274 OA
BRANCH  75  78
ATOM     78  C   UNL A   1      32.918  27.228  25.784  1.00  0.00     0.103 C 
ATOM     79  C   UNL A   1      32.485  27.539  24.388  1.00  0.00    -0.016 C 
ATOM     80  C   UNL A   1      33.188  25.718  25.747  1.00  0.00     0.042 C 
ATOM     81  C   UNL A   1      32.300  26.431  23.669  1.00  0.00    -0.011 C 
ATOM     82  C   UNL A   1      32.514  25.193  24.469  1.00  0.00     0.093 C 
BRANCH  82  83
ATOM     83  N   UNL A   1      33.395  24.253  23.800  1.00  0.00    -0.204 NA
ATOM     84  H   UNL A   1      34.343  24.586  23.980  1.00  0.00     0.142 HD
BRANCH  83  85
ATOM     85  S   UNL A   1      33.422  22.616  24.121  1.00  0.00     0.244 S 
ATOM     86  O   UNL A   1      32.627  22.355  25.300  1.00  0.00    -0.207 OA
ATOM     87  O   UNL A   1      33.106  21.970  22.868  1.00  0.00    -0.207 OA
BRANCH  85  88
ATOM     88  C   UNL A   1      35.104  22.306  24.545  1.00  0.00     0.121 A 
ATOM     89  C   UNL A   1      35.946  23.407  24.779  1.00  0.00     0.028 A 
ATOM     90  C   UNL A   1      35.579  21.012  24.710  1.00  0.00     0.181 A 
ATOM     91  C   UNL A   1      37.278  23.202  25.136  1.00  0.00     0.044 A 
ATOM     92  C   UNL A   1      36.904  20.815  25.088  1.00  0.00     0.195 A 
ATOM     93  F   UNL A   1      34.803  19.941  24.503  1.00  0.00    -0.202 F 
ATOM     94  C   UNL A   1      37.747  21.902  25.292  1.00  0.00     0.161 A 
ATOM     95  F   UNL A   1      37.373  19.570  25.255  1.00  0.00    -0.200 F 
ATOM     96  F   UNL A   1      39.025  21.709  25.644  1.00  0.00    -0.204 F 
ENDBRANCH  85  88
ENDBRANCH  83  85
ENDBRANCH  82  83
ENDBRANCH  75  78
ENDBRANCH  73  74
ENDBRANCH   1  73
TORSDOF 14
ENDMDL
MODEL 2
REMARK VINA RESULT:     -12.7      2.165      7.645
REMARK SMILES O=C(NCCCCNC(=O)[C@@H]1C=C[C@@H](NS(=O)(=O)c2ccc(F)c(F)c2F)C1)c1ccc(-c2c3nc(c(-c4c(F)c(F)c(F)c(F)c4F)c4ccc([nH]4)c(-c4c(F)c(F)c(F)c(F)c4F)c4nc(c(-c5c(F)c(F)c(F)c(F)c5F)c5ccc2[nH]5)C=C4)C=C3)cc1
REMARK SMILES IDX 6 1 5 2 4 3 3 4 1 5 2 6 29 8 30 9 91 10 31 11 90 12 32 13
REMARK SMILES IDX 33 14 34 15 84 16 35 17 89 18 83 19 85 20 36 21 88 22 82 23
REMARK SMILES IDX 81 24 37 26 69 27 49 28 68 29 50 30 53 31 67 32 86 33 51 34
REMARK SMILES IDX 52 35 66 37 87 38 54 39 38 40 39 41 47 42 40 43 41 44 45 45
REMARK SMILES IDX 48 46 42 47 43 48 46 49 44 50 70 51 71 52 79 53 72 54 73 55
REMARK SMILES IDX 77 56 80 57 74 58 75 59 78 60 76 61 55 62 56 63 64 64 57 65
REMARK SMILES IDX 58 66 62 67 65 68 59 69 60 70 63 71 61 72 7 73 8 74 9 75
REMARK SMILES IDX 10 77 11 78 12 79 28 80 13 81 14 82 15 83 16 85 17 86 18 87
REMARK SMILES IDX 19 88 20 89 26 90 21 91 24 92 27 93 22 94 25 95 23 96
REMARK H PARENT 3 7 85 25 53 36 8 76 15 84
REMARK Flexibility Score: inf
ROOT
ATOM      1  C   UNL A   1      34.485  33.515  29.148  1.00  0.00     0.023 C 
ENDROOT
BRANCH   1   2
ATOM      2  C   UNL A   1      33.252  34.400  28.976  1.00  0.00     0.023 C 
BRANCH   2   3
ATOM      3  C   UNL A   1      33.441  35.848  29.397  1.00  0.00     0.116 C 
BRANCH   3   4
ATOM      4  N   UNL A   1      32.528  36.271  30.451  1.00  0.00    -0.352 N 
ATOM      5  O   UNL A   1      31.656  36.290  32.541  1.00  0.00    -0.269 OA
ATOM      6  C   UNL A   1      32.562  35.949  31.790  1.00  0.00     0.251 C 
ATOM      7  H   UNL A   1      31.794  36.863  30.171  1.00  0.00     0.163 HD
BRANCH   6   8
ATOM      8  C   UNL A   1      33.695  35.151  32.301  1.00  0.00     0.039 A 
ATOM      9  C   UNL A   1      34.988  35.673  32.248  1.00  0.00     0.014 A 
ATOM     10  C   UNL A   1      33.476  33.854  32.775  1.00  0.00     0.014 A 
ATOM     11  C   UNL A   1      36.069  34.841  32.489  1.00  0.00     0.010 A 
ATOM     12  C   UNL A   1      34.566  33.056  33.137  1.00  0.00     0.010 A 
ATOM     13  C   UNL A   1      35.874  33.532  32.966  1.00  0.00    -0.014 A 
BRANCH  13  14
ATOM     14  C   UNL A   1      37.070  32.743  33.360  1.00  0.00     0.031 A 
ATOM     15  C   UNL A   1      37.695  31.732  32.441  1.00  0.00     0.074 A 
ATOM     16  C   UNL A   1      37.635  33.021  34.553  1.00  0.00     0.049 A 
ATOM     17  N   UNL A   1      38.788  31.031  32.619  1.00  0.00    -0.248 NA
ATOM     18  C   UNL A   1      37.017  31.462  31.164  1.00  0.00     0.031 C 
ATOM     19  C   UNL A   1      37.104  33.979  35.527  1.00  0.00     0.029 A 
ATOM     20  N   UNL A   1      38.794  32.573  35.132  1.00  0.00    -0.354 N 
ATOM     21  C   UNL A   1      38.921  30.232  31.491  1.00  0.00     0.074 A 
ATOM     22  C   UNL A   1      37.786  30.514  30.640  1.00  0.00     0.031 C 
ATOM     23  C   UNL A   1      37.975  34.116  36.534  1.00  0.00     0.029 A 
ATOM     24  C   UNL A   1      39.081  33.189  36.327  1.00  0.00     0.049 A 
ATOM     25  H   UNL A   1      39.364  31.877  34.732  1.00  0.00     0.167 HD
ATOM     26  C   UNL A   1      39.911  29.355  31.198  1.00  0.00     0.037 A 
ATOM     27  C   UNL A   1      40.114  33.021  37.173  1.00  0.00     0.037 A 
ATOM     28  C   UNL A   1      41.050  29.101  32.045  1.00  0.00     0.049 A 
ATOM     29  C   UNL A   1      41.173  32.016  36.827  1.00  0.00     0.074 A 
ATOM     30  C   UNL A   1      42.119  28.253  31.814  1.00  0.00     0.029 A 
ATOM     31  N   UNL A   1      41.271  29.692  33.280  1.00  0.00    -0.354 N 
ATOM     32  N   UNL A   1      41.297  31.289  35.745  1.00  0.00    -0.248 NA
ATOM     33  C   UNL A   1      42.226  31.799  37.825  1.00  0.00     0.031 C 
ATOM     34  C   UNL A   1      42.956  28.286  32.931  1.00  0.00     0.029 A 
ATOM     35  C   UNL A   1      42.444  29.201  33.834  1.00  0.00     0.049 A 
ATOM     36  H   UNL A   1      40.682  30.359  33.701  1.00  0.00     0.167 HD
ATOM     37  C   UNL A   1      42.445  30.533  35.927  1.00  0.00     0.074 A 
ATOM     38  C   UNL A   1      43.001  30.919  37.208  1.00  0.00     0.031 C 
ATOM     39  C   UNL A   1      42.983  29.594  35.111  1.00  0.00     0.037 A 
BRANCH  26  40
ATOM     40  C   UNL A   1      39.835  28.591  29.907  1.00  0.00     0.064 A 
ATOM     41  C   UNL A   1      39.314  27.287  29.885  1.00  0.00     0.173 A 
ATOM     42  C   UNL A   1      40.412  29.085  28.728  1.00  0.00     0.173 A 
ATOM     43  F   UNL A   1      38.759  26.763  30.989  1.00  0.00    -0.203 F 
ATOM     44  C   UNL A   1      39.402  26.497  28.741  1.00  0.00     0.198 A 
ATOM     45  C   UNL A   1      40.476  28.300  27.578  1.00  0.00     0.198 A 
ATOM     46  F   UNL A   1      40.918  30.327  28.693  1.00  0.00    -0.203 F 
ATOM     47  F   UNL A   1      38.945  25.238  28.762  1.00  0.00    -0.200 F 
ATOM     48  C   UNL A   1      39.986  27.003  27.591  1.00  0.00     0.200 A 
ATOM     49  F   UNL A   1      41.026  28.796  26.461  1.00  0.00    -0.200 F 
ATOM     50  F   UNL A   1      40.083  26.238  26.495  1.00  0.00    -0.200 F 
ENDBRANCH  26  40
BRANCH  27  51
ATOM     51  C   UNL A   1      40.185  33.823  38.424  1.00  0.00     0.064 A 
ATOM     52  C   UNL A   1      40.950  34.997  38.495  1.00  0.00     0.173 A 
ATOM     53  C   UNL A   1      39.504  33.419  39.579  1.00  0.00     0.173 A 
ATOM     54  F   UNL A   1      41.626  35.427  37.420  1.00  0.00    -0.203 F 
ATOM     55  C   UNL A   1      41.049  35.722  39.680  1.00  0.00     0.198 A 
ATOM     56  C   UNL A   1      39.573  34.165  40.753  1.00  0.00     0.198 A 
ATOM     57  F   UNL A   1      38.746  32.313  39.557  1.00  0.00    -0.203 F 
ATOM     58  F   UNL A   1      41.824  36.814  39.731  1.00  0.00    -0.200 F 
ATOM     59  C   UNL A   1      40.353  35.311  40.805  1.00  0.00     0.200 A 
ATOM     60  F   UNL A   1      38.876  33.781  41.830  1.00  0.00    -0.200 F 
ATOM     61  F   UNL A   1      40.431  36.020  41.939  1.00  0.00    -0.200 F 
ENDBRANCH  27  51
BRANCH  39  62
ATOM     62  C   UNL A   1      44.241  28.921  35.577  1.00  0.00     0.064 A 
ATOM     63  C   UNL A   1      45.498  29.458  35.259  1.00  0.00     0.173 A 
ATOM     64  C   UNL A   1      44.203  27.718  36.297  1.00  0.00     0.173 A 
ATOM     65  F   UNL A   1      45.589  30.602  34.565  1.00  0.00    -0.203 F 
ATOM     66  C   UNL A   1      46.669  28.809  35.638  1.00  0.00     0.198 A 
ATOM     67  C   UNL A   1      45.376  27.091  36.704  1.00  0.00     0.198 A 
ATOM     68  F   UNL A   1      43.025  27.173  36.639  1.00  0.00    -0.203 F 
ATOM     69  F   UNL A   1      47.858  29.324  35.295  1.00  0.00    -0.200 F 
ATOM     70  C   UNL A   1      46.609  27.631  36.366  1.00  0.00     0.200 A 
ATOM     71  F   UNL A   1      45.315  25.969  37.435  1.00  0.00    -0.200 F 
ATOM     72  F   UNL A   1      47.737  27.019  36.748  1.00  0.00    -0.200 F 
ENDBRANCH  39  62
ENDBRANCH  13  14
ENDBRANCH   6   8
ENDBRANCH   3   4
ENDBRANCH   2   3
ENDBRANCH   1   2
BRANCH   1  73
ATOM     73  C   UNL A   1      34.345  32.124  28.537  1.00  0.00     0.116 C 
BRANCH  73  74
ATOM     74  N   UNL A   1      33.237  32.059  27.603  1.00  0.00    -0.356 N 
ATOM     75  C   UNL A   1      32.599  30.973  27.082  1.00  0.00     0.226 C 
ATOM     76  H   UNL A   1      32.895  32.930  27.299  1.00  0.00     0.163 HD
ATOM     77  O   UNL A   1      31.670  31.166  26.293  1.00  0.00    -0.274 OA
BRANCH  75  78
ATOM     78  C   UNL A   1      33.024  29.571  27.508  1.00  0.00     0.103 C 
ATOM     79  C   UNL A   1      34.081  29.024  26.605  1.00  0.00    -0.016 C 
ATOM     80  C   UNL A   1      31.859  28.588  27.332  1.00  0.00     0.042 C 
ATOM     81  C   UNL A   1      33.616  28.033  25.842  1.00  0.00    -0.011 C 
ATOM     82  C   UNL A   1      32.163  27.787  26.055  1.00  0.00     0.093 C 
BRANCH  82  83
ATOM     83  N   UNL A   1      31.870  26.383  26.275  1.00  0.00    -0.204 NA
ATOM     84  H   UNL A   1      31.797  26.271  27.287  1.00  0.00     0.142 HD
BRANCH  83  85
ATOM     85  S   UNL A   1      30.543  25.600  25.636  1.00  0.00     0.244 S 
ATOM     86  O   UNL A   1      29.613  25.305  26.703  1.00  0.00    -0.207 OA
ATOM     87  O   UNL A   1      30.129  26.397  24.505  1.00  0.00    -0.207 OA
BRANCH  85  88
ATOM     88  C   UNL A   1      31.200  24.064  25.076  1.00  0.00     0.121 A 
ATOM     89  C   UNL A   1      31.140  23.775  23.702  1.00  0.00     0.028 A 
ATOM     90  C   UNL A   1      31.823  23.184  25.951  1.00  0.00     0.181 A 
ATOM     91  C   UNL A   1      31.668  22.579  23.217  1.00  0.00     0.044 A 
ATOM     92  C   UNL A   1      32.367  22.002  25.458  1.00  0.00     0.195 A 
ATOM     93  F   UNL A   1      31.905  23.431  27.264  1.00  0.00    -0.202 F 
ATOM     94  C   UNL A   1      32.283  21.700  24.103  1.00  0.00     0.161 A 
ATOM     95  F   UNL A   1      32.975  21.147  26.293  1.00  0.00    -0.200 F 
ATOM     96  F   UNL A   1      32.797  20.556  23.633  1.00  0.00    -0.204 F 
ENDBRANCH  85  88
ENDBRANCH  83  85
ENDBRANCH  82  83
ENDBRANCH  75  78
ENDBRANCH  73  74
ENDBRANCH   1  73
TORSDOF 14
ENDMDL
MODEL 3
REMARK VINA RESULT:     -12.5      6.154     10.896
REMARK SMILES O=C(NCCCCNC(=O)[C@@H]1C=C[C@@H](NS(=O)(=O)c2ccc(F)c(F)c2F)C1)c1ccc(-c2c3nc(c(-c4c(F)c(F)c(F)c(F)c4F)c4ccc([nH]4)c(-c4c(F)c(F)c(F)c(F)c4F)c4nc(c(-c5c(F)c(F)c(F)c(F)c5F)c5ccc2[nH]5)C=C4)C=C3)cc1
REMARK SMILES IDX 6 1 5 2 4 3 3 4 1 5 2 6 29 8 30 9 91 10 31 11 90 12 32 13
REMARK SMILES IDX 33 14 34 15 84 16 35 17 89 18 83 19 85 20 36 21 88 22 82 23
REMARK SMILES IDX 81 24 37 26 69 27 49 28 68 29 50 30 53 31 67 32 86 33 51 34
REMARK SMILES IDX 52 35 66 37 87 38 54 39 38 40 39 41 47 42 40 43 41 44 45 45
REMARK SMILES IDX 48 46 42 47 43 48 46 49 44 50 70 51 71 52 79 53 72 54 73 55
REMARK SMILES IDX 77 56 80 57 74 58 75 59 78 60 76 61 55 62 56 63 64 64 57 65
REMARK SMILES IDX 58 66 62 67 65 68 59 69 60 70 63 71 61 72 7 73 8 74 9 75
REMARK SMILES IDX 10 77 11 78 12 79 28 80 13 81 14 82 15 83 16 85 17 86 18 87
REMARK SMILES IDX 19 88 20 89 26 90 21 91 24 92 27 93 22 94 25 95 23 96
REMARK H PARENT 3 7 85 25 53 36 8 76 15 84
REMARK Flexibility Score: inf
ROOT
ATOM      1  C   UNL A   1      41.321  21.455  26.569  1.00  0.00     0.023 C 
ENDROOT
BRANCH   1   2
ATOM      2  C   UNL A   1      41.435  20.059  25.960  1.00  0.00     0.023 C 
BRANCH   2   3
ATOM      3  C   UNL A   1      42.611  19.237  26.462  1.00  0.00     0.116 C 
BRANCH   3   4
ATOM      4  N   UNL A   1      43.462  18.727  25.395  1.00  0.00    -0.352 N 
ATOM      5  O   UNL A   1      44.920  18.875  23.669  1.00  0.00    -0.269 OA
ATOM      6  C   UNL A   1      44.354  19.421  24.609  1.00  0.00     0.251 C 
ATOM      7  H   UNL A   1      43.390  17.763  25.213  1.00  0.00     0.163 HD
BRANCH   6   8
ATOM      8  C   UNL A   1      44.592  20.851  24.895  1.00  0.00     0.039 A 
ATOM      9  C   UNL A   1      45.170  21.226  26.109  1.00  0.00     0.014 A 
ATOM     10  C   UNL A   1      44.179  21.822  23.979  1.00  0.00     0.014 A 
ATOM     11  C   UNL A   1      45.163  22.560  26.483  1.00  0.00     0.010 A 
ATOM     12  C   UNL A   1      44.289  23.177  24.311  1.00  0.00     0.010 A 
ATOM     13  C   UNL A   1      44.751  23.556  25.580  1.00  0.00    -0.014 A 
BRANCH  13  14
ATOM     14  C   UNL A   1      44.918  24.978  25.978  1.00  0.00     0.031 A 
ATOM     15  C   UNL A   1      43.801  25.766  26.601  1.00  0.00     0.074 A 
ATOM     16  C   UNL A   1      46.142  25.526  25.837  1.00  0.00     0.049 A 
ATOM     17  N   UNL A   1      43.827  26.988  27.074  1.00  0.00    -0.248 NA
ATOM     18  C   UNL A   1      42.486  25.116  26.707  1.00  0.00     0.031 C 
ATOM     19  C   UNL A   1      47.296  24.850  25.235  1.00  0.00     0.029 A 
ATOM     20  N   UNL A   1      46.640  26.743  26.226  1.00  0.00    -0.354 N 
ATOM     21  C   UNL A   1      42.540  27.256  27.519  1.00  0.00     0.074 A 
ATOM     22  C   UNL A   1      41.745  26.080  27.241  1.00  0.00     0.031 C 
ATOM     23  C   UNL A   1      48.382  25.620  25.377  1.00  0.00     0.029 A 
ATOM     24  C   UNL A   1      47.988  26.880  25.994  1.00  0.00     0.049 A 
ATOM     25  H   UNL A   1      46.086  27.449  26.629  1.00  0.00     0.167 HD
ATOM     26  C   UNL A   1      42.077  28.382  28.115  1.00  0.00     0.037 A 
ATOM     27  C   UNL A   1      48.818  27.910  26.239  1.00  0.00     0.037 A 
ATOM     28  C   UNL A   1      42.887  29.538  28.408  1.00  0.00     0.049 A 
ATOM     29  C   UNL A   1      48.259  29.152  26.870  1.00  0.00     0.074 A 
ATOM     30  C   UNL A   1      42.510  30.712  29.039  1.00  0.00     0.029 A 
ATOM     31  N   UNL A   1      44.231  29.669  28.096  1.00  0.00    -0.354 N 
ATOM     32  N   UNL A   1      47.046  29.379  27.308  1.00  0.00    -0.248 NA
ATOM     33  C   UNL A   1      49.180  30.283  27.028  1.00  0.00     0.031 C 
ATOM     34  C   UNL A   1      43.609  31.573  29.057  1.00  0.00     0.029 A 
ATOM     35  C   UNL A   1      44.689  30.916  28.494  1.00  0.00     0.049 A 
ATOM     36  H   UNL A   1      44.779  28.979  27.655  1.00  0.00     0.167 HD
ATOM     37  C   UNL A   1      47.059  30.675  27.801  1.00  0.00     0.074 A 
ATOM     38  C   UNL A   1      48.411  31.170  27.642  1.00  0.00     0.031 C 
ATOM     39  C   UNL A   1      46.037  31.395  28.326  1.00  0.00     0.037 A 
BRANCH  26  40
ATOM     40  C   UNL A   1      40.628  28.444  28.506  1.00  0.00     0.064 A 
ATOM     41  C   UNL A   1      39.680  28.998  27.630  1.00  0.00     0.173 A 
ATOM     42  C   UNL A   1      40.202  28.098  29.797  1.00  0.00     0.173 A 
ATOM     43  F   UNL A   1      40.038  29.354  26.387  1.00  0.00    -0.203 F 
ATOM     44  C   UNL A   1      38.371  29.232  28.041  1.00  0.00     0.198 A 
ATOM     45  C   UNL A   1      38.884  28.311  30.197  1.00  0.00     0.198 A 
ATOM     46  F   UNL A   1      41.066  27.559  30.670  1.00  0.00    -0.203 F 
ATOM     47  F   UNL A   1      37.500  29.810  27.204  1.00  0.00    -0.200 F 
ATOM     48  C   UNL A   1      37.975  28.892  29.326  1.00  0.00     0.200 A 
ATOM     49  F   UNL A   1      38.499  27.967  31.434  1.00  0.00    -0.200 F 
ATOM     50  F   UNL A   1      36.719  29.130  29.726  1.00  0.00    -0.200 F 
ENDBRANCH  26  40
BRANCH  27  51
ATOM     51  C   UNL A   1      50.257  27.805  25.880  1.00  0.00     0.064 A 
ATOM     52  C   UNL A   1      50.688  27.916  24.549  1.00  0.00     0.173 A 
ATOM     53  C   UNL A   1      51.230  27.570  26.860  1.00  0.00     0.173 A 
ATOM     54  F   UNL A   1      49.798  28.135  23.569  1.00  0.00    -0.203 F 
ATOM     55  C   UNL A   1      52.031  27.774  24.211  1.00  0.00     0.198 A 
ATOM     56  C   UNL A   1      52.578  27.467  26.526  1.00  0.00     0.198 A 
ATOM     57  F   UNL A   1      50.871  27.474  28.149  1.00  0.00    -0.203 F 
ATOM     58  F   UNL A   1      52.407  27.840  22.927  1.00  0.00    -0.200 F 
ATOM     59  C   UNL A   1      52.976  27.559  25.201  1.00  0.00     0.200 A 
ATOM     60  F   UNL A   1      53.492  27.288  27.489  1.00  0.00    -0.200 F 
ATOM     61  F   UNL A   1      54.272  27.444  24.879  1.00  0.00    -0.200 F 
ENDBRANCH  27  51
BRANCH  39  62
ATOM     62  C   UNL A   1      46.344  32.795  28.773  1.00  0.00     0.064 A 
ATOM     63  C   UNL A   1      46.732  33.053  30.096  1.00  0.00     0.173 A 
ATOM     64  C   UNL A   1      46.208  33.886  27.903  1.00  0.00     0.173 A 
ATOM     65  F   UNL A   1      46.870  32.044  30.971  1.00  0.00    -0.203 F 
ATOM     66  C   UNL A   1      46.962  34.353  30.534  1.00  0.00     0.198 A 
ATOM     67  C   UNL A   1      46.473  35.182  28.335  1.00  0.00     0.198 A 
ATOM     68  F   UNL A   1      45.854  33.689  26.623  1.00  0.00    -0.203 F 
ATOM     69  F   UNL A   1      47.301  34.579  31.811  1.00  0.00    -0.200 F 
ATOM     70  C   UNL A   1      46.840  35.416  29.652  1.00  0.00     0.200 A 
ATOM     71  F   UNL A   1      46.384  36.204  27.472  1.00  0.00    -0.200 F 
ATOM     72  F   UNL A   1      47.083  36.666  30.068  1.00  0.00    -0.200 F 
ENDBRANCH  39  62
ENDBRANCH  13  14
ENDBRANCH   6   8
ENDBRANCH   3   4
ENDBRANCH   2   3
ENDBRANCH   1   2
BRANCH   1  73
ATOM     73  C   UNL A   1      40.004  22.163  26.266  1.00  0.00     0.116 C 
BRANCH  73  74
ATOM     74  N   UNL A   1      38.979  21.227  25.845  1.00  0.00    -0.356 N 
ATOM     75  C   UNL A   1      37.805  21.456  25.191  1.00  0.00     0.226 C 
ATOM     76  H   UNL A   1      39.158  20.284  26.064  1.00  0.00     0.163 HD
ATOM     77  O   UNL A   1      37.082  20.490  24.935  1.00  0.00    -0.274 OA
BRANCH  75  78
ATOM     78  C   UNL A   1      37.439  22.877  24.772  1.00  0.00     0.103 C 
ATOM     79  C   UNL A   1      36.542  23.527  25.774  1.00  0.00    -0.016 C 
ATOM     80  C   UNL A   1      36.589  22.849  23.495  1.00  0.00     0.042 C 
ATOM     81  C   UNL A   1      35.302  23.679  25.304  1.00  0.00    -0.011 C 
ATOM     82  C   UNL A   1      35.139  23.106  23.939  1.00  0.00     0.093 C 
BRANCH  82  83
ATOM     83  N   UNL A   1      34.503  24.037  23.026  1.00  0.00    -0.204 NA
ATOM     84  H   UNL A   1      35.212  24.269  22.329  1.00  0.00     0.142 HD
BRANCH  83  85
ATOM     85  S   UNL A   1      33.117  23.691  22.163  1.00  0.00     0.244 S 
ATOM     86  O   UNL A   1      33.402  23.806  20.751  1.00  0.00    -0.207 OA
ATOM     87  O   UNL A   1      32.618  22.451  22.710  1.00  0.00    -0.207 OA
BRANCH  85  88
ATOM     88  C   UNL A   1      32.029  25.010  22.587  1.00  0.00     0.121 A 
ATOM     89  C   UNL A   1      30.864  24.707  23.314  1.00  0.00     0.028 A 
ATOM     90  C   UNL A   1      32.336  26.328  22.273  1.00  0.00     0.181 A 
ATOM     91  C   UNL A   1      29.988  25.726  23.685  1.00  0.00     0.044 A 
ATOM     92  C   UNL A   1      31.468  27.342  22.665  1.00  0.00     0.195 A 
ATOM     93  F   UNL A   1      33.439  26.653  21.589  1.00  0.00    -0.202 F 
ATOM     94  C   UNL A   1      30.301  27.042  23.359  1.00  0.00     0.161 A 
ATOM     95  F   UNL A   1      31.757  28.619  22.371  1.00  0.00    -0.200 F 
ATOM     96  F   UNL A   1      29.462  28.020  23.725  1.00  0.00    -0.204 F 
ENDBRANCH  85  88
ENDBRANCH  83  85
ENDBRANCH  82  83
ENDBRANCH  75  78
ENDBRANCH  73  74
ENDBRANCH   1  73
TORSDOF 14
ENDMDL
