MODEL 1
REMARK VINA RESULT:     -12.0      0.000      0.000
REMARK SMILES C#CC[N@@H+](CC(=O)NCCCCNC(=O)c1ccc(-c2c3nc(c(-c4c(F)c(F)c(F)c(F)c4F)c4ccc([nH]4)c(-c4c(F)c(F)c(F)c(F)c4F)c4nc(c(-c5c(F)c(F)c(F)c(F)c5F)c5ccc2[nH]5)C=C4)C=C3)cc1)Cc1cccc2ccccc12
REMARK SMILES IDX 10 1 9 2 8 3 6 4 7 5 5 7 4 8 3 10 2 11 1 12 79 13 80 14
REMARK SMILES IDX 81 15 89 16 82 17 84 18 88 19 83 20 85 21 87 22 86 23 11 24
REMARK SMILES IDX 12 25 13 26 14 27 15 29 16 30 17 31 78 32 18 33 77 34 19 35
REMARK SMILES IDX 20 36 21 37 71 38 22 39 76 40 70 41 72 42 23 43 75 44 69 45
REMARK SMILES IDX 68 46 24 48 56 49 36 50 55 51 37 52 40 53 54 54 73 55 38 56
REMARK SMILES IDX 39 57 53 59 74 60 41 61 25 62 26 63 34 64 27 65 28 66 32 67
REMARK SMILES IDX 35 68 29 69 30 70 33 71 31 72 57 73 58 74 66 75 59 76 60 77
REMARK SMILES IDX 64 78 67 79 61 80 62 81 65 82 63 83 42 84 43 85 51 86 44 87
REMARK SMILES IDX 45 88 49 89 52 90 46 91 47 92 50 93 48 94
REMARK H PARENT 8 6 4 9 13 28 72 47 40 58
REMARK Flexibility Score: inf
ROOT
ATOM      1  C   UNL A   1      31.378  29.164  24.860  1.00  0.00     0.023 C 
ENDROOT
BRANCH   1   2
ATOM      2  C   UNL A   1      31.217  28.895  23.339  1.00  0.00     0.116 C 
BRANCH   2   3
ATOM      3  N   UNL A   1      32.451  28.729  22.575  1.00  0.00    -0.351 N 
ATOM      4  C   UNL A   1      33.398  27.761  22.380  1.00  0.00     0.275 C 
ATOM      5  O   UNL A   1      34.209  28.038  21.479  1.00  0.00    -0.269 OA
ATOM      6  H   UNL A   1      32.659  29.538  22.055  1.00  0.00     0.163 HD
BRANCH   4   7
ATOM      7  C   UNL A   1      33.562  26.404  23.104  1.00  0.00     0.364 C 
BRANCH   7   8
ATOM      8  N   UNL A   1      32.577  25.328  22.909  1.00  0.00    -0.313 N 
ATOM      9  H   UNL A   1      32.089  25.626  22.065  1.00  0.00     0.349 HD
BRANCH   8  10
ATOM     10  C   UNL A   1      31.630  25.292  23.976  1.00  0.00     0.354 C 
BRANCH  10  11
ATOM     11  C   UNL A   1      32.033  24.740  25.333  1.00  0.00    -0.047 C 
ATOM     12  C   UNL A   1      32.378  24.266  26.498  1.00  0.00     0.010 C 
ENDBRANCH  10  11
ENDBRANCH   8  10
BRANCH   8  13
ATOM     13  C   UNL A   1      32.911  24.080  22.202  1.00  0.00     0.300 C 
BRANCH  13  14
ATOM     14  C   UNL A   1      33.230  22.748  22.892  1.00  0.00     0.014 A 
ATOM     15  C   UNL A   1      32.270  21.748  23.029  1.00  0.00     0.010 A 
ATOM     16  C   UNL A   1      34.471  22.525  23.573  1.00  0.00    -0.010 A 
ATOM     17  C   UNL A   1      32.372  20.690  23.924  1.00  0.00     0.001 A 
ATOM     18  C   UNL A   1      34.577  21.434  24.489  1.00  0.00    -0.018 A 
ATOM     19  C   UNL A   1      35.640  23.299  23.382  1.00  0.00     0.009 A 
ATOM     20  C   UNL A   1      33.507  20.564  24.692  1.00  0.00     0.009 A 
ATOM     21  C   UNL A   1      35.762  21.191  25.194  1.00  0.00     0.009 A 
ATOM     22  C   UNL A   1      36.838  23.001  24.046  1.00  0.00     0.001 A 
ATOM     23  C   UNL A   1      36.894  21.959  24.962  1.00  0.00     0.001 A 
ENDBRANCH  13  14
ENDBRANCH   8  13
ENDBRANCH   7   8
ENDBRANCH   4   7
ENDBRANCH   2   3
ENDBRANCH   1   2
BRANCH   1  24
ATOM     24  C   UNL A   1      32.658  29.758  25.360  1.00  0.00     0.023 C 
BRANCH  24  25
ATOM     25  C   UNL A   1      32.625  30.112  26.812  1.00  0.00     0.116 C 
BRANCH  25  26
ATOM     26  N   UNL A   1      32.526  31.546  27.080  1.00  0.00    -0.352 N 
ATOM     27  C   UNL A   1      33.497  32.377  27.593  1.00  0.00     0.251 C 
ATOM     28  H   UNL A   1      31.662  31.968  26.869  1.00  0.00     0.163 HD
ATOM     29  O   UNL A   1      33.278  33.556  27.845  1.00  0.00    -0.269 OA
BRANCH  27  30
ATOM     30  C   UNL A   1      34.808  31.768  27.875  1.00  0.00     0.039 A 
ATOM     31  C   UNL A   1      35.922  32.587  28.055  1.00  0.00     0.014 A 
ATOM     32  C   UNL A   1      34.837  30.417  28.217  1.00  0.00     0.014 A 
ATOM     33  C   UNL A   1      37.049  32.061  28.686  1.00  0.00     0.010 A 
ATOM     34  C   UNL A   1      35.873  29.965  29.009  1.00  0.00     0.010 A 
ATOM     35  C   UNL A   1      37.009  30.765  29.220  1.00  0.00    -0.014 A 
BRANCH  35  36
ATOM     36  C   UNL A   1      38.156  30.135  29.914  1.00  0.00     0.031 A 
ATOM     37  C   UNL A   1      38.395  30.525  31.349  1.00  0.00     0.074 A 
ATOM     38  C   UNL A   1      39.024  29.339  29.264  1.00  0.00     0.049 A 
ATOM     39  N   UNL A   1      39.458  30.367  32.091  1.00  0.00    -0.248 NA
ATOM     40  C   UNL A   1      37.314  31.282  32.010  1.00  0.00     0.031 C 
ATOM     41  C   UNL A   1      38.930  28.924  27.863  1.00  0.00     0.029 A 
ATOM     42  N   UNL A   1      40.178  28.742  29.707  1.00  0.00    -0.354 N 
ATOM     43  C   UNL A   1      39.195  31.066  33.262  1.00  0.00     0.074 A 
ATOM     44  C   UNL A   1      37.919  31.720  33.100  1.00  0.00     0.031 C 
ATOM     45  C   UNL A   1      39.959  28.108  27.574  1.00  0.00     0.029 A 
ATOM     46  C   UNL A   1      40.812  27.984  28.752  1.00  0.00     0.049 A 
ATOM     47  H   UNL A   1      40.520  28.848  30.624  1.00  0.00     0.167 HD
ATOM     48  C   UNL A   1      39.931  31.119  34.395  1.00  0.00     0.037 A 
ATOM     49  C   UNL A   1      41.955  27.277  28.833  1.00  0.00     0.037 A 
ATOM     50  C   UNL A   1      41.139  30.370  34.583  1.00  0.00     0.049 A 
ATOM     51  C   UNL A   1      42.720  27.287  30.132  1.00  0.00     0.074 A 
ATOM     52  C   UNL A   1      41.939  30.285  35.706  1.00  0.00     0.029 A 
ATOM     53  N   UNL A   1      41.697  29.538  33.621  1.00  0.00    -0.354 N 
ATOM     54  N   UNL A   1      42.458  27.934  31.243  1.00  0.00    -0.248 NA
ATOM     55  C   UNL A   1      43.938  26.466  30.192  1.00  0.00     0.031 C 
ATOM     56  C   UNL A   1      42.988  29.405  35.421  1.00  0.00     0.029 A 
ATOM     57  C   UNL A   1      42.822  28.920  34.133  1.00  0.00     0.049 A 
ATOM     58  H   UNL A   1      41.343  29.408  32.712  1.00  0.00     0.167 HD
ATOM     59  C   UNL A   1      43.449  27.566  32.143  1.00  0.00     0.074 A 
ATOM     60  C   UNL A   1      44.318  26.638  31.449  1.00  0.00     0.031 C 
ATOM     61  C   UNL A   1      43.629  27.960  33.427  1.00  0.00     0.037 A 
BRANCH  48  62
ATOM     62  C   UNL A   1      39.418  31.976  35.513  1.00  0.00     0.064 A 
ATOM     63  C   UNL A   1      39.826  33.310  35.664  1.00  0.00     0.173 A 
ATOM     64  C   UNL A   1      38.512  31.457  36.450  1.00  0.00     0.173 A 
ATOM     65  F   UNL A   1      40.708  33.848  34.808  1.00  0.00    -0.203 F 
ATOM     66  C   UNL A   1      39.381  34.080  36.734  1.00  0.00     0.198 A 
ATOM     67  C   UNL A   1      38.041  32.242  37.499  1.00  0.00     0.198 A 
ATOM     68  F   UNL A   1      38.091  30.187  36.353  1.00  0.00    -0.203 F 
ATOM     69  F   UNL A   1      39.843  35.328  36.896  1.00  0.00    -0.200 F 
ATOM     70  C   UNL A   1      38.483  33.548  37.647  1.00  0.00     0.200 A 
ATOM     71  F   UNL A   1      37.165  31.731  38.375  1.00  0.00    -0.200 F 
ATOM     72  F   UNL A   1      38.053  34.291  38.675  1.00  0.00    -0.200 F 
ENDBRANCH  48  62
BRANCH  49  73
ATOM     73  C   UNL A   1      42.423  26.463  27.681  1.00  0.00     0.064 A 
ATOM     74  C   UNL A   1      41.942  25.159  27.489  1.00  0.00     0.173 A 
ATOM     75  C   UNL A   1      43.367  26.949  26.766  1.00  0.00     0.173 A 
ATOM     76  F   UNL A   1      41.052  24.642  28.349  1.00  0.00    -0.203 F 
ATOM     77  C   UNL A   1      42.407  24.363  26.444  1.00  0.00     0.198 A 
ATOM     78  C   UNL A   1      43.813  26.161  25.706  1.00  0.00     0.198 A 
ATOM     79  F   UNL A   1      43.855  28.190  26.899  1.00  0.00    -0.203 F 
ATOM     80  F   UNL A   1      41.969  23.104  26.317  1.00  0.00    -0.200 F 
ATOM     81  C   UNL A   1      43.341  24.865  25.551  1.00  0.00     0.200 A 
ATOM     82  F   UNL A   1      44.707  26.653  24.836  1.00  0.00    -0.200 F 
ATOM     83  F   UNL A   1      43.793  24.098  24.550  1.00  0.00    -0.200 F 
ENDBRANCH  49  73
BRANCH  61  84
ATOM     84  C   UNL A   1      44.754  27.334  34.190  1.00  0.00     0.064 A 
ATOM     85  C   UNL A   1      46.022  27.925  34.248  1.00  0.00     0.173 A 
ATOM     86  C   UNL A   1      44.528  26.170  34.940  1.00  0.00     0.173 A 
ATOM     87  F   UNL A   1      46.284  29.033  33.539  1.00  0.00    -0.203 F 
ATOM     88  C   UNL A   1      47.032  27.365  35.024  1.00  0.00     0.198 A 
ATOM     89  C   UNL A   1      45.532  25.626  35.733  1.00  0.00     0.198 A 
ATOM     90  F   UNL A   1      43.325  25.576  34.920  1.00  0.00    -0.203 F 
ATOM     91  F   UNL A   1      48.247  27.929  35.046  1.00  0.00    -0.200 F 
ATOM     92  C   UNL A   1      46.783  26.223  35.773  1.00  0.00     0.200 A 
ATOM     93  F   UNL A   1      45.287  24.533  36.467  1.00  0.00    -0.200 F 
ATOM     94  F   UNL A   1      47.753  25.695  36.532  1.00  0.00    -0.200 F 
ENDBRANCH  61  84
ENDBRANCH  35  36
ENDBRANCH  27  30
ENDBRANCH  25  26
ENDBRANCH  24  25
ENDBRANCH   1  24
TORSDOF 16
ENDMDL
MODEL 2
REMARK VINA RESULT:     -12.0      2.449      4.511
REMARK SMILES C#CC[N@@H+](CC(=O)NCCCCNC(=O)c1ccc(-c2c3nc(c(-c4c(F)c(F)c(F)c(F)c4F)c4ccc([nH]4)c(-c4c(F)c(F)c(F)c(F)c4F)c4nc(c(-c5c(F)c(F)c(F)c(F)c5F)c5ccc2[nH]5)C=C4)C=C3)cc1)Cc1cccc2ccccc12
REMARK SMILES IDX 10 1 9 2 8 3 6 4 7 5 5 7 4 8 3 10 2 11 1 12 79 13 80 14
REMARK SMILES IDX 81 15 89 16 82 17 84 18 88 19 83 20 85 21 87 22 86 23 11 24
REMARK SMILES IDX 12 25 13 26 14 27 15 29 16 30 17 31 78 32 18 33 77 34 19 35
REMARK SMILES IDX 20 36 21 37 71 38 22 39 76 40 70 41 72 42 23 43 75 44 69 45
REMARK SMILES IDX 68 46 24 48 56 49 36 50 55 51 37 52 40 53 54 54 73 55 38 56
REMARK SMILES IDX 39 57 53 59 74 60 41 61 25 62 26 63 34 64 27 65 28 66 32 67
REMARK SMILES IDX 35 68 29 69 30 70 33 71 31 72 57 73 58 74 66 75 59 76 60 77
REMARK SMILES IDX 64 78 67 79 61 80 62 81 65 82 63 83 42 84 43 85 51 86 44 87
REMARK SMILES IDX 45 88 49 89 52 90 46 91 47 92 50 93 48 94
REMARK H PARENT 8 6 4 9 13 28 72 47 40 58
REMARK Flexibility Score: inf
ROOT
ATOM      1  C   UNL A   1      34.597  32.862  28.712  1.00  0.00     0.023 C 
ENDROOT
BRANCH   1   2
ATOM      2  C   UNL A   1      34.538  31.678  27.709  1.00  0.00     0.116 C 
BRANCH   2   3
ATOM      3  N   UNL A   1      33.380  30.793  27.817  1.00  0.00    -0.351 N 
ATOM      4  C   UNL A   1      32.616  30.019  26.986  1.00  0.00     0.275 C 
ATOM      5  O   UNL A   1      31.807  29.296  27.590  1.00  0.00    -0.269 OA
ATOM      6  H   UNL A   1      33.060  30.738  28.746  1.00  0.00     0.163 HD
BRANCH   4   7
ATOM      7  C   UNL A   1      32.654  29.926  25.442  1.00  0.00     0.364 C 
BRANCH   7   8
ATOM      8  N   UNL A   1      33.514  28.936  24.773  1.00  0.00    -0.313 N 
ATOM      9  H   UNL A   1      34.447  29.323  24.916  1.00  0.00     0.349 HD
BRANCH   8  10
ATOM     10  C   UNL A   1      33.264  28.899  23.369  1.00  0.00     0.354 C 
BRANCH  10  11
ATOM     11  C   UNL A   1      31.839  28.788  22.852  1.00  0.00    -0.047 C 
ATOM     12  C   UNL A   1      30.617  28.693  22.409  1.00  0.00     0.010 C 
ENDBRANCH  10  11
ENDBRANCH   8  10
BRANCH   8  13
ATOM     13  C   UNL A   1      33.982  27.717  25.453  1.00  0.00     0.300 C 
BRANCH  13  14
ATOM     14  C   UNL A   1      33.148  26.439  25.617  1.00  0.00     0.014 A 
ATOM     15  C   UNL A   1      31.760  26.481  25.726  1.00  0.00     0.010 A 
ATOM     16  C   UNL A   1      33.757  25.160  25.830  1.00  0.00    -0.010 A 
ATOM     17  C   UNL A   1      30.986  25.436  26.216  1.00  0.00     0.001 A 
ATOM     18  C   UNL A   1      32.960  24.084  26.329  1.00  0.00    -0.018 A 
ATOM     19  C   UNL A   1      35.110  24.859  25.549  1.00  0.00     0.009 A 
ATOM     20  C   UNL A   1      31.597  24.254  26.566  1.00  0.00     0.009 A 
ATOM     21  C   UNL A   1      33.515  22.823  26.575  1.00  0.00     0.009 A 
ATOM     22  C   UNL A   1      35.634  23.572  25.738  1.00  0.00     0.001 A 
ATOM     23  C   UNL A   1      34.842  22.561  26.266  1.00  0.00     0.001 A 
ENDBRANCH  13  14
ENDBRANCH   8  13
ENDBRANCH   7   8
ENDBRANCH   4   7
ENDBRANCH   2   3
ENDBRANCH   1   2
BRANCH   1  24
ATOM     24  C   UNL A   1      33.511  33.891  28.683  1.00  0.00     0.023 C 
BRANCH  24  25
ATOM     25  C   UNL A   1      33.927  35.214  29.242  1.00  0.00     0.116 C 
BRANCH  25  26
ATOM     26  N   UNL A   1      32.897  35.886  30.032  1.00  0.00    -0.352 N 
ATOM     27  C   UNL A   1      32.738  35.869  31.400  1.00  0.00     0.251 C 
ATOM     28  H   UNL A   1      32.237  36.414  29.526  1.00  0.00     0.163 HD
ATOM     29  O   UNL A   1      31.789  36.413  31.952  1.00  0.00    -0.269 OA
BRANCH  27  30
ATOM     30  C   UNL A   1      33.742  35.119  32.173  1.00  0.00     0.039 A 
ATOM     31  C   UNL A   1      33.479  33.800  32.544  1.00  0.00     0.014 A 
ATOM     32  C   UNL A   1      35.022  35.660  32.274  1.00  0.00     0.014 A 
ATOM     33  C   UNL A   1      34.544  32.983  32.923  1.00  0.00     0.010 A 
ATOM     34  C   UNL A   1      36.084  34.799  32.460  1.00  0.00     0.010 A 
ATOM     35  C   UNL A   1      35.860  33.461  32.826  1.00  0.00    -0.014 A 
BRANCH  35  36
ATOM     36  C   UNL A   1      37.047  32.656  33.198  1.00  0.00     0.031 A 
ATOM     37  C   UNL A   1      37.680  32.933  34.536  1.00  0.00     0.074 A 
ATOM     38  C   UNL A   1      37.613  31.794  32.334  1.00  0.00     0.049 A 
ATOM     39  N   UNL A   1      38.861  32.603  34.985  1.00  0.00    -0.248 NA
ATOM     40  C   UNL A   1      36.906  33.782  35.462  1.00  0.00     0.031 C 
ATOM     41  C   UNL A   1      37.124  31.472  30.992  1.00  0.00     0.029 A 
ATOM     42  N   UNL A   1      38.749  31.034  32.460  1.00  0.00    -0.354 N 
ATOM     43  C   UNL A   1      38.989  33.263  36.199  1.00  0.00     0.074 A 
ATOM     44  C   UNL A   1      37.813  34.080  36.375  1.00  0.00     0.031 C 
ATOM     45  C   UNL A   1      37.931  30.550  30.438  1.00  0.00     0.029 A 
ATOM     46  C   UNL A   1      39.021  30.256  31.361  1.00  0.00     0.049 A 
ATOM     47  H   UNL A   1      39.316  31.046  33.265  1.00  0.00     0.167 HD
ATOM     48  C   UNL A   1      39.981  33.162  37.113  1.00  0.00     0.037 A 
ATOM     49  C   UNL A   1      40.043  29.408  31.138  1.00  0.00     0.037 A 
ATOM     50  C   UNL A   1      41.086  32.258  36.976  1.00  0.00     0.049 A 
ATOM     51  C   UNL A   1      41.097  29.250  32.205  1.00  0.00     0.074 A 
ATOM     52  C   UNL A   1      42.117  32.013  37.861  1.00  0.00     0.029 A 
ATOM     53  N   UNL A   1      41.273  31.417  35.888  1.00  0.00    -0.354 N 
ATOM     54  N   UNL A   1      41.205  29.864  33.360  1.00  0.00    -0.248 NA
ATOM     55  C   UNL A   1      42.170  28.281  31.940  1.00  0.00     0.031 C 
ATOM     56  C   UNL A   1      42.936  31.025  37.304  1.00  0.00     0.029 A 
ATOM     57  C   UNL A   1      42.395  30.636  36.088  1.00  0.00     0.049 A 
ATOM     58  H   UNL A   1      40.694  31.382  35.093  1.00  0.00     0.167 HD
ATOM     59  C   UNL A   1      42.328  29.326  33.975  1.00  0.00     0.074 A 
ATOM     60  C   UNL A   1      42.867  28.335  33.066  1.00  0.00     0.031 C 
ATOM     61  C   UNL A   1      42.868  29.623  35.181  1.00  0.00     0.037 A 
BRANCH  48  62
ATOM     62  C   UNL A   1      39.877  34.014  38.342  1.00  0.00     0.064 A 
ATOM     63  C   UNL A   1      39.181  33.580  39.481  1.00  0.00     0.173 A 
ATOM     64  C   UNL A   1      40.475  35.282  38.382  1.00  0.00     0.173 A 
ATOM     65  F   UNL A   1      38.573  32.384  39.486  1.00  0.00    -0.203 F 
ATOM     66  C   UNL A   1      39.050  34.400  40.598  1.00  0.00     0.198 A 
ATOM     67  C   UNL A   1      40.372  36.085  39.515  1.00  0.00     0.198 A 
ATOM     68  F   UNL A   1      41.151  35.746  37.320  1.00  0.00    -0.203 F 
ATOM     69  F   UNL A   1      38.319  33.991  41.644  1.00  0.00    -0.200 F 
ATOM     70  C   UNL A   1      39.652  35.649  40.617  1.00  0.00     0.200 A 
ATOM     71  F   UNL A   1      40.963  37.288  39.537  1.00  0.00    -0.200 F 
ATOM     72  F   UNL A   1      39.528  36.436  41.694  1.00  0.00    -0.200 F 
ENDBRANCH  48  62
BRANCH  49  73
ATOM     73  C   UNL A   1      40.100  28.606  29.889  1.00  0.00     0.064 A 
ATOM     74  C   UNL A   1      40.735  29.113  28.745  1.00  0.00     0.173 A 
ATOM     75  C   UNL A   1      39.512  27.336  29.797  1.00  0.00     0.173 A 
ATOM     76  F   UNL A   1      41.296  30.330  28.777  1.00  0.00    -0.203 F 
ATOM     77  C   UNL A   1      40.754  28.396  27.550  1.00  0.00     0.198 A 
ATOM     78  C   UNL A   1      39.553  26.609  28.608  1.00  0.00     0.198 A 
ATOM     79  F   UNL A   1      38.899  26.801  30.862  1.00  0.00    -0.203 F 
ATOM     80  F   UNL A   1      41.321  28.929  26.460  1.00  0.00    -0.200 F 
ATOM     81  C   UNL A   1      40.165  27.143  27.483  1.00  0.00     0.200 A 
ATOM     82  F   UNL A   1      38.994  25.392  28.549  1.00  0.00    -0.200 F 
ATOM     83  F   UNL A   1      40.178  26.455  26.333  1.00  0.00    -0.200 F 
ENDBRANCH  49  73
BRANCH  61  84
ATOM     84  C   UNL A   1      44.050  28.820  35.625  1.00  0.00     0.064 A 
ATOM     85  C   UNL A   1      43.902  27.634  36.355  1.00  0.00     0.173 A 
ATOM     86  C   UNL A   1      45.343  29.204  35.236  1.00  0.00     0.173 A 
ATOM     87  F   UNL A   1      42.685  27.235  36.755  1.00  0.00    -0.203 F 
ATOM     88  C   UNL A   1      45.010  26.864  36.692  1.00  0.00     0.198 A 
ATOM     89  C   UNL A   1      46.446  28.420  35.555  1.00  0.00     0.198 A 
ATOM     90  F   UNL A   1      45.529  30.328  34.528  1.00  0.00    -0.203 F 
ATOM     91  F   UNL A   1      44.852  25.747  37.415  1.00  0.00    -0.200 F 
ATOM     92  C   UNL A   1      46.279  27.252  36.284  1.00  0.00     0.200 A 
ATOM     93  F   UNL A   1      47.668  28.787  35.148  1.00  0.00    -0.200 F 
ATOM     94  F   UNL A   1      47.343  26.500  36.596  1.00  0.00    -0.200 F 
ENDBRANCH  61  84
ENDBRANCH  35  36
ENDBRANCH  27  30
ENDBRANCH  25  26
ENDBRANCH  24  25
ENDBRANCH   1  24
TORSDOF 16
ENDMDL
MODEL 3
REMARK VINA RESULT:     -11.8      1.594      2.115
REMARK SMILES C#CC[N@@H+](CC(=O)NCCCCNC(=O)c1ccc(-c2c3nc(c(-c4c(F)c(F)c(F)c(F)c4F)c4ccc([nH]4)c(-c4c(F)c(F)c(F)c(F)c4F)c4nc(c(-c5c(F)c(F)c(F)c(F)c5F)c5ccc2[nH]5)C=C4)C=C3)cc1)Cc1cccc2ccccc12
REMARK SMILES IDX 10 1 9 2 8 3 6 4 7 5 5 7 4 8 3 10 2 11 1 12 79 13 80 14
REMARK SMILES IDX 81 15 89 16 82 17 84 18 88 19 83 20 85 21 87 22 86 23 11 24
REMARK SMILES IDX 12 25 13 26 14 27 15 29 16 30 17 31 78 32 18 33 77 34 19 35
REMARK SMILES IDX 20 36 21 37 71 38 22 39 76 40 70 41 72 42 23 43 75 44 69 45
REMARK SMILES IDX 68 46 24 48 56 49 36 50 55 51 37 52 40 53 54 54 73 55 38 56
REMARK SMILES IDX 39 57 53 59 74 60 41 61 25 62 26 63 34 64 27 65 28 66 32 67
REMARK SMILES IDX 35 68 29 69 30 70 33 71 31 72 57 73 58 74 66 75 59 76 60 77
REMARK SMILES IDX 64 78 67 79 61 80 62 81 65 82 63 83 42 84 43 85 51 86 44 87
REMARK SMILES IDX 45 88 49 89 52 90 46 91 47 92 50 93 48 94
REMARK H PARENT 8 6 4 9 13 28 72 47 40 58
REMARK Flexibility Score: inf
ROOT
ATOM      1  C   UNL A   1      32.583  30.491  26.847  1.00  0.00     0.023 C 
ENDROOT
BRANCH   1   2
ATOM      2  C   UNL A   1      32.038  29.666  25.650  1.00  0.00     0.116 C 
BRANCH   2   3
ATOM      3  N   UNL A   1      32.914  29.554  24.486  1.00  0.00    -0.351 N 
ATOM      4  C   UNL A   1      33.555  28.565  23.792  1.00  0.00     0.275 C 
ATOM      5  O   UNL A   1      34.076  28.960  22.735  1.00  0.00    -0.269 OA
ATOM      6  H   UNL A   1      33.094  30.437  24.091  1.00  0.00     0.163 HD
BRANCH   4   7
ATOM      7  C   UNL A   1      33.684  27.063  24.141  1.00  0.00     0.364 C 
BRANCH   7   8
ATOM      8  N   UNL A   1      32.853  26.061  23.457  1.00  0.00    -0.313 N 
ATOM      9  H   UNL A   1      32.576  26.548  22.604  1.00  0.00     0.349 HD
BRANCH   8  10
ATOM     10  C   UNL A   1      31.670  25.773  24.201  1.00  0.00     0.354 C 
BRANCH  10  11
ATOM     11  C   UNL A   1      31.754  24.945  25.473  1.00  0.00    -0.047 C 
ATOM     12  C   UNL A   1      31.827  24.234  26.564  1.00  0.00     0.010 C 
ENDBRANCH  10  11
ENDBRANCH   8  10
BRANCH   8  13
ATOM     13  C   UNL A   1      33.434  25.016  22.597  1.00  0.00     0.300 C 
BRANCH  13  14
ATOM     14  C   UNL A   1      33.541  23.534  22.981  1.00  0.00     0.014 A 
ATOM     15  C   UNL A   1      32.569  22.610  22.603  1.00  0.00     0.010 A 
ATOM     16  C   UNL A   1      34.548  23.055  23.880  1.00  0.00    -0.010 A 
ATOM     17  C   UNL A   1      32.414  21.360  23.191  1.00  0.00     0.001 A 
ATOM     18  C   UNL A   1      34.391  21.768  24.481  1.00  0.00    -0.018 A 
ATOM     19  C   UNL A   1      35.733  23.757  24.204  1.00  0.00     0.009 A 
ATOM     20  C   UNL A   1      33.297  20.962  24.169  1.00  0.00     0.009 A 
ATOM     21  C   UNL A   1      35.338  21.268  25.382  1.00  0.00     0.009 A 
ATOM     22  C   UNL A   1      36.703  23.213  25.057  1.00  0.00     0.001 A 
ATOM     23  C   UNL A   1      36.498  21.978  25.658  1.00  0.00     0.001 A 
ENDBRANCH  13  14
ENDBRANCH   8  13
ENDBRANCH   7   8
ENDBRANCH   4   7
ENDBRANCH   2   3
ENDBRANCH   1   2
BRANCH   1  24
ATOM     24  C   UNL A   1      32.062  31.876  27.071  1.00  0.00     0.023 C 
BRANCH  24  25
ATOM     25  C   UNL A   1      33.136  32.884  27.326  1.00  0.00     0.116 C 
BRANCH  25  26
ATOM     26  N   UNL A   1      32.642  34.222  27.650  1.00  0.00    -0.352 N 
ATOM     27  C   UNL A   1      33.059  35.050  28.669  1.00  0.00     0.251 C 
ATOM     28  H   UNL A   1      31.926  34.572  27.072  1.00  0.00     0.163 HD
ATOM     29  O   UNL A   1      32.520  36.128  28.892  1.00  0.00    -0.269 OA
BRANCH  27  30
ATOM     30  C   UNL A   1      34.157  34.557  29.516  1.00  0.00     0.039 A 
ATOM     31  C   UNL A   1      33.866  33.782  30.639  1.00  0.00     0.014 A 
ATOM     32  C   UNL A   1      35.456  34.654  29.018  1.00  0.00     0.014 A 
ATOM     33  C   UNL A   1      34.879  33.011  31.206  1.00  0.00     0.010 A 
ATOM     34  C   UNL A   1      36.396  33.746  29.461  1.00  0.00     0.010 A 
ATOM     35  C   UNL A   1      36.135  32.942  30.584  1.00  0.00    -0.014 A 
BRANCH  35  36
ATOM     36  C   UNL A   1      37.262  32.139  31.113  1.00  0.00     0.031 A 
ATOM     37  C   UNL A   1      37.759  32.470  32.496  1.00  0.00     0.074 A 
ATOM     38  C   UNL A   1      37.898  31.229  30.353  1.00  0.00     0.049 A 
ATOM     39  N   UNL A   1      38.881  32.145  33.080  1.00  0.00    -0.248 NA
ATOM     40  C   UNL A   1      36.909  33.373  33.297  1.00  0.00     0.031 C 
ATOM     41  C   UNL A   1      37.544  30.851  28.984  1.00  0.00     0.029 A 
ATOM     42  N   UNL A   1      39.000  30.460  30.632  1.00  0.00    -0.354 N 
ATOM     43  C   UNL A   1      38.895  32.861  34.270  1.00  0.00     0.074 A 
ATOM     44  C   UNL A   1      37.723  33.702  34.285  1.00  0.00     0.031 C 
ATOM     45  C   UNL A   1      38.386  29.892  28.559  1.00  0.00     0.029 A 
ATOM     46  C   UNL A   1      39.369  29.627  29.604  1.00  0.00     0.049 A 
ATOM     47  H   UNL A   1      39.481  30.502  31.490  1.00  0.00     0.167 HD
ATOM     48  C   UNL A   1      39.785  32.788  35.285  1.00  0.00     0.037 A 
ATOM     49  C   UNL A   1      40.392  28.755  29.528  1.00  0.00     0.037 A 
ATOM     50  C   UNL A   1      40.881  31.863  35.306  1.00  0.00     0.049 A 
ATOM     51  C   UNL A   1      41.328  28.633  30.704  1.00  0.00     0.074 A 
ATOM     52  C   UNL A   1      41.810  31.645  36.304  1.00  0.00     0.029 A 
ATOM     53  N   UNL A   1      41.164  30.969  34.282  1.00  0.00    -0.354 N 
ATOM     54  N   UNL A   1      41.327  29.299  31.835  1.00  0.00    -0.248 NA
ATOM     55  C   UNL A   1      42.403  27.637  30.597  1.00  0.00     0.031 C 
ATOM     56  C   UNL A   1      42.663  30.621  35.881  1.00  0.00     0.029 A 
ATOM     57  C   UNL A   1      42.243  30.182  34.634  1.00  0.00     0.049 A 
ATOM     58  H   UNL A   1      40.668  30.905  33.434  1.00  0.00     0.167 HD
ATOM     59  C   UNL A   1      42.370  28.774  32.588  1.00  0.00     0.074 A 
ATOM     60  C   UNL A   1      42.980  27.734  31.786  1.00  0.00     0.031 C 
ATOM     61  C   UNL A   1      42.788  29.121  33.829  1.00  0.00     0.037 A 
BRANCH  48  62
ATOM     62  C   UNL A   1      39.572  33.699  36.457  1.00  0.00     0.064 A 
ATOM     63  C   UNL A   1      40.114  34.993  36.491  1.00  0.00     0.173 A 
ATOM     64  C   UNL A   1      38.822  33.272  37.564  1.00  0.00     0.173 A 
ATOM     65  F   UNL A   1      40.858  35.441  35.468  1.00  0.00    -0.203 F 
ATOM     66  C   UNL A   1      39.951  35.810  37.606  1.00  0.00     0.198 A 
ATOM     67  C   UNL A   1      38.630  34.107  38.661  1.00  0.00     0.198 A 
ATOM     68  F   UNL A   1      38.282  32.044  37.583  1.00  0.00    -0.203 F 
ATOM     69  F   UNL A   1      40.540  37.013  37.643  1.00  0.00    -0.200 F 
ATOM     70  C   UNL A   1      39.203  35.370  38.687  1.00  0.00     0.200 A 
ATOM     71  F   UNL A   1      37.899  33.685  39.701  1.00  0.00    -0.200 F 
ATOM     72  F   UNL A   1      39.044  36.158  39.758  1.00  0.00    -0.200 F 
ENDBRANCH  48  62
BRANCH  49  73
ATOM     73  C   UNL A   1      40.563  27.893  28.329  1.00  0.00     0.064 A 
ATOM     74  C   UNL A   1      39.996  26.611  28.287  1.00  0.00     0.173 A 
ATOM     75  C   UNL A   1      41.305  28.313  27.215  1.00  0.00     0.173 A 
ATOM     76  F   UNL A   1      39.294  26.156  29.335  1.00  0.00    -0.203 F 
ATOM     77  C   UNL A   1      40.188  25.770  27.192  1.00  0.00     0.198 A 
ATOM     78  C   UNL A   1      41.475  27.481  26.109  1.00  0.00     0.198 A 
ATOM     79  F   UNL A   1      41.862  29.532  27.199  1.00  0.00    -0.203 F 
ATOM     80  F   UNL A   1      39.680  24.531  27.204  1.00  0.00    -0.200 F 
ATOM     81  C   UNL A   1      40.926  26.207  26.103  1.00  0.00     0.200 A 
ATOM     82  F   UNL A   1      42.178  27.910  25.052  1.00  0.00    -0.200 F 
ATOM     83  F   UNL A   1      41.116  25.397  25.052  1.00  0.00    -0.200 F 
ENDBRANCH  49  73
BRANCH  61  84
ATOM     84  C   UNL A   1      43.902  28.323  34.429  1.00  0.00     0.064 A 
ATOM     85  C   UNL A   1      45.237  28.736  34.334  1.00  0.00     0.173 A 
ATOM     86  C   UNL A   1      43.614  27.174  35.182  1.00  0.00     0.173 A 
ATOM     87  F   UNL A   1      45.558  29.823  33.616  1.00  0.00    -0.203 F 
ATOM     88  C   UNL A   1      46.249  28.018  34.963  1.00  0.00     0.198 A 
ATOM     89  C   UNL A   1      44.625  26.473  35.829  1.00  0.00     0.198 A 
ATOM     90  F   UNL A   1      42.348  26.748  35.306  1.00  0.00    -0.203 F 
ATOM     91  F   UNL A   1      47.524  28.413  34.838  1.00  0.00    -0.200 F 
ATOM     92  C   UNL A   1      45.942  26.894  35.718  1.00  0.00     0.200 A 
ATOM     93  F   UNL A   1      44.326  25.397  36.568  1.00  0.00    -0.200 F 
ATOM     94  F   UNL A   1      46.917  26.215  36.336  1.00  0.00    -0.200 F 
ENDBRANCH  61  84
ENDBRANCH  35  36
ENDBRANCH  27  30
ENDBRANCH  25  26
ENDBRANCH  24  25
ENDBRANCH   1  24
TORSDOF 16
ENDMDL
