MODEL 1
REMARK VINA RESULT:     -12.7      0.000      0.000
REMARK SMILES O=C(NCCCCNC(=O)c1cc(Br)ccc1OC(=O)c1ccc(F)cc1)c1ccc(-c2c3nc(c(-c4c(F)c(F)c(F)c(F)c4F)c4ccc([nH]4)c(-c4c(F)c(F)c(F)c(F)c4F)c4nc(c(-c5c(F)c(F)c(F)c(F)c5F)c5ccc2[nH]5)C=C4)C=C3)cc1
REMARK SMILES IDX 6 1 5 2 4 3 3 4 1 5 2 6 28 8 29 9 90 10 30 11 89 12 31 13
REMARK SMILES IDX 32 14 33 15 83 16 34 17 88 18 82 19 84 20 35 21 87 22 81 23
REMARK SMILES IDX 80 24 36 26 68 27 48 28 67 29 49 30 52 31 66 32 85 33 50 34
REMARK SMILES IDX 51 35 65 37 86 38 53 39 37 40 38 41 46 42 39 43 40 44 44 45
REMARK SMILES IDX 47 46 41 47 42 48 45 49 43 50 69 51 70 52 78 53 71 54 72 55
REMARK SMILES IDX 76 56 79 57 73 58 74 59 77 60 75 61 54 62 55 63 63 64 56 65
REMARK SMILES IDX 57 66 61 67 64 68 58 69 59 70 62 71 60 72 7 73 8 74 9 75
REMARK SMILES IDX 10 77 11 78 12 79 17 80 13 81 16 82 14 83 15 84 18 85 19 86
REMARK SMILES IDX 20 87 21 88 22 89 27 90 23 91 26 92 24 93 25 94
REMARK H PARENT 3 7 84 25 52 36 8 76
REMARK Flexibility Score: inf
ROOT
ATOM      1  C   UNL A   1      37.167  20.801  24.542  1.00  0.00     0.023 C 
ENDROOT
BRANCH   1   2
ATOM      2  C   UNL A   1      38.072  19.659  24.998  1.00  0.00     0.023 C 
BRANCH   2   3
ATOM      3  C   UNL A   1      39.169  20.040  25.982  1.00  0.00     0.116 C 
BRANCH   3   4
ATOM      4  N   UNL A   1      40.287  19.112  25.993  1.00  0.00    -0.352 N 
ATOM      5  O   UNL A   1      42.450  18.472  26.025  1.00  0.00    -0.269 OA
ATOM      6  C   UNL A   1      41.627  19.375  26.133  1.00  0.00     0.251 C 
ATOM      7  H   UNL A   1      40.050  18.163  25.884  1.00  0.00     0.163 HD
BRANCH   6   8
ATOM      8  C   UNL A   1      42.085  20.760  26.387  1.00  0.00     0.039 A 
ATOM      9  C   UNL A   1      42.251  21.667  25.338  1.00  0.00     0.014 A 
ATOM     10  C   UNL A   1      42.336  21.157  27.704  1.00  0.00     0.014 A 
ATOM     11  C   UNL A   1      42.778  22.929  25.591  1.00  0.00     0.010 A 
ATOM     12  C   UNL A   1      42.796  22.451  27.966  1.00  0.00     0.010 A 
ATOM     13  C   UNL A   1      43.037  23.341  26.908  1.00  0.00    -0.014 A 
BRANCH  13  14
ATOM     14  C   UNL A   1      43.454  24.741  27.161  1.00  0.00     0.031 A 
ATOM     15  C   UNL A   1      42.504  25.752  27.732  1.00  0.00     0.074 A 
ATOM     16  C   UNL A   1      44.725  25.087  26.875  1.00  0.00     0.049 A 
ATOM     17  N   UNL A   1      42.719  27.013  28.010  1.00  0.00    -0.248 NA
ATOM     18  C   UNL A   1      41.137  25.299  28.027  1.00  0.00     0.031 C 
ATOM     19  C   UNL A   1      45.729  24.187  26.301  1.00  0.00     0.029 A 
ATOM     20  N   UNL A   1      45.395  26.271  27.035  1.00  0.00    -0.354 N 
ATOM     21  C   UNL A   1      41.517  27.507  28.499  1.00  0.00     0.074 A 
ATOM     22  C   UNL A   1      40.568  26.415  28.467  1.00  0.00     0.031 C 
ATOM     23  C   UNL A   1      46.893  24.840  26.191  1.00  0.00     0.029 A 
ATOM     24  C   UNL A   1      46.705  26.218  26.629  1.00  0.00     0.049 A 
ATOM     25  H   UNL A   1      44.977  27.082  27.405  1.00  0.00     0.167 HD
ATOM     26  C   UNL A   1      41.244  28.757  28.942  1.00  0.00     0.037 A 
ATOM     27  C   UNL A   1      47.649  27.177  26.592  1.00  0.00     0.037 A 
ATOM     28  C   UNL A   1      42.205  29.829  28.997  1.00  0.00     0.049 A 
ATOM     29  C   UNL A   1      47.305  28.558  27.064  1.00  0.00     0.074 A 
ATOM     30  C   UNL A   1      42.034  31.110  29.494  1.00  0.00     0.029 A 
ATOM     31  N   UNL A   1      43.510  29.749  28.536  1.00  0.00    -0.354 N 
ATOM     32  N   UNL A   1      46.177  29.000  27.563  1.00  0.00    -0.248 NA
ATOM     33  C   UNL A   1      48.357  29.578  26.958  1.00  0.00     0.031 C 
ATOM     34  C   UNL A   1      43.223  31.819  29.294  1.00  0.00     0.029 A 
ATOM     35  C   UNL A   1      44.146  30.969  28.708  1.00  0.00     0.049 A 
ATOM     36  H   UNL A   1      43.923  28.946  28.145  1.00  0.00     0.167 HD
ATOM     37  C   UNL A   1      46.379  30.345  27.828  1.00  0.00     0.074 A 
ATOM     38  C   UNL A   1      47.747  30.644  27.460  1.00  0.00     0.031 C 
ATOM     39  C   UNL A   1      45.503  31.251  28.322  1.00  0.00     0.037 A 
BRANCH  26  40
ATOM     40  C   UNL A   1      39.854  29.060  29.413  1.00  0.00     0.064 A 
ATOM     41  C   UNL A   1      39.492  28.820  30.747  1.00  0.00     0.173 A 
ATOM     42  C   UNL A   1      38.851  29.456  28.518  1.00  0.00     0.173 A 
ATOM     43  F   UNL A   1      40.415  28.428  31.638  1.00  0.00    -0.203 F 
ATOM     44  C   UNL A   1      38.168  28.943  31.162  1.00  0.00     0.198 A 
ATOM     45  C   UNL A   1      37.531  29.595  28.941  1.00  0.00     0.198 A 
ATOM     46  F   UNL A   1      39.150  29.701  27.234  1.00  0.00    -0.203 F 
ATOM     47  F   UNL A   1      37.837  28.669  32.432  1.00  0.00    -0.200 F 
ATOM     48  C   UNL A   1      37.189  29.327  30.259  1.00  0.00     0.200 A 
ATOM     49  F   UNL A   1      36.587  29.977  28.070  1.00  0.00    -0.200 F 
ATOM     50  F   UNL A   1      35.914  29.434  30.656  1.00  0.00    -0.200 F 
ENDBRANCH  26  40
BRANCH  27  51
ATOM     51  C   UNL A   1      48.999  26.853  26.067  1.00  0.00     0.064 A 
ATOM     52  C   UNL A   1      50.017  26.399  26.921  1.00  0.00     0.173 A 
ATOM     53  C   UNL A   1      49.309  27.025  24.713  1.00  0.00     0.173 A 
ATOM     54  F   UNL A   1      49.770  26.224  28.227  1.00  0.00    -0.203 F 
ATOM     55  C   UNL A   1      51.301  26.153  26.441  1.00  0.00     0.198 A 
ATOM     56  C   UNL A   1      50.586  26.752  24.228  1.00  0.00     0.198 A 
ATOM     57  F   UNL A   1      48.362  27.438  23.857  1.00  0.00    -0.203 F 
ATOM     58  F   UNL A   1      52.264  25.757  27.284  1.00  0.00    -0.200 F 
ATOM     59  C   UNL A   1      51.583  26.325  25.094  1.00  0.00     0.200 A 
ATOM     60  F   UNL A   1      50.850  26.897  22.924  1.00  0.00    -0.200 F 
ATOM     61  F   UNL A   1      52.815  26.077  24.630  1.00  0.00    -0.200 F 
ENDBRANCH  27  51
BRANCH  39  62
ATOM     62  C   UNL A   1      45.988  32.659  28.482  1.00  0.00     0.064 A 
ATOM     63  C   UNL A   1      46.569  33.086  29.686  1.00  0.00     0.173 A 
ATOM     64  C   UNL A   1      45.815  33.604  27.461  1.00  0.00     0.173 A 
ATOM     65  F   UNL A   1      46.750  32.218  30.692  1.00  0.00    -0.203 F 
ATOM     66  C   UNL A   1      46.944  34.413  29.866  1.00  0.00     0.198 A 
ATOM     67  C   UNL A   1      46.212  34.926  27.637  1.00  0.00     0.198 A 
ATOM     68  F   UNL A   1      45.278  33.238  26.286  1.00  0.00    -0.203 F 
ATOM     69  F   UNL A   1      47.470  34.806  31.035  1.00  0.00    -0.200 F 
ATOM     70  C   UNL A   1      46.766  35.331  28.842  1.00  0.00     0.200 A 
ATOM     71  F   UNL A   1      46.060  35.808  26.639  1.00  0.00    -0.200 F 
ATOM     72  F   UNL A   1      47.135  36.608  29.014  1.00  0.00    -0.200 F 
ENDBRANCH  39  62
ENDBRANCH  13  14
ENDBRANCH   6   8
ENDBRANCH   3   4
ENDBRANCH   2   3
ENDBRANCH   1   2
BRANCH   1  73
ATOM     73  C   UNL A   1      37.086  21.998  25.487  1.00  0.00     0.116 C 
BRANCH  73  74
ATOM     74  N   UNL A   1      36.050  21.869  26.501  1.00  0.00    -0.352 N 
ATOM     75  C   UNL A   1      34.765  22.355  26.509  1.00  0.00     0.255 C 
ATOM     76  H   UNL A   1      36.308  21.356  27.301  1.00  0.00     0.163 HD
ATOM     77  O   UNL A   1      34.067  22.243  27.512  1.00  0.00    -0.269 OA
BRANCH  75  78
ATOM     78  C   UNL A   1      34.225  23.017  25.307  1.00  0.00     0.083 A 
ATOM     79  C   UNL A   1      34.240  24.416  25.233  1.00  0.00     0.033 A 
ATOM     80  C   UNL A   1      33.741  22.275  24.223  1.00  0.00     0.144 A 
ATOM     81  C   UNL A   1      33.692  25.055  24.123  1.00  0.00     0.019 A 
ATOM     82  C   UNL A   1      33.215  22.920  23.102  1.00  0.00     0.049 A 
ATOM     83  Br  UNL A   1      33.653  26.944  24.060  1.00  0.00    -0.051 Br
ATOM     84  C   UNL A   1      33.169  24.315  23.063  1.00  0.00     0.019 A 
BRANCH  80  85
ATOM     85  O   UNL A   1      33.862  20.880  24.134  1.00  0.00    -0.422 OA
BRANCH  85  86
ATOM     86  C   UNL A   1      32.866  20.128  24.724  1.00  0.00     0.343 C 
ATOM     87  O   UNL A   1      31.759  20.521  25.074  1.00  0.00    -0.246 OA
BRANCH  86  88
ATOM     88  C   UNL A   1      33.332  18.724  24.882  1.00  0.00     0.060 A 
ATOM     89  C   UNL A   1      34.527  18.262  24.306  1.00  0.00     0.019 A 
ATOM     90  C   UNL A   1      32.528  17.833  25.610  1.00  0.00     0.019 A 
ATOM     91  C   UNL A   1      34.909  16.926  24.456  1.00  0.00     0.040 A 
ATOM     92  C   UNL A   1      32.916  16.499  25.762  1.00  0.00     0.040 A 
ATOM     93  C   UNL A   1      34.101  16.059  25.182  1.00  0.00     0.123 A 
ATOM     94  F   UNL A   1      34.468  14.778  25.320  1.00  0.00    -0.207 F 
ENDBRANCH  86  88
ENDBRANCH  85  86
ENDBRANCH  80  85
ENDBRANCH  75  78
ENDBRANCH  73  74
ENDBRANCH   1  73
TORSDOF 14
ENDMDL
MODEL 2
REMARK VINA RESULT:     -12.7      0.236      1.680
REMARK SMILES O=C(NCCCCNC(=O)c1cc(Br)ccc1OC(=O)c1ccc(F)cc1)c1ccc(-c2c3nc(c(-c4c(F)c(F)c(F)c(F)c4F)c4ccc([nH]4)c(-c4c(F)c(F)c(F)c(F)c4F)c4nc(c(-c5c(F)c(F)c(F)c(F)c5F)c5ccc2[nH]5)C=C4)C=C3)cc1
REMARK SMILES IDX 6 1 5 2 4 3 3 4 1 5 2 6 28 8 29 9 90 10 30 11 89 12 31 13
REMARK SMILES IDX 32 14 33 15 83 16 34 17 88 18 82 19 84 20 35 21 87 22 81 23
REMARK SMILES IDX 80 24 36 26 68 27 48 28 67 29 49 30 52 31 66 32 85 33 50 34
REMARK SMILES IDX 51 35 65 37 86 38 53 39 37 40 38 41 46 42 39 43 40 44 44 45
REMARK SMILES IDX 47 46 41 47 42 48 45 49 43 50 69 51 70 52 78 53 71 54 72 55
REMARK SMILES IDX 76 56 79 57 73 58 74 59 77 60 75 61 54 62 55 63 63 64 56 65
REMARK SMILES IDX 57 66 61 67 64 68 58 69 59 70 62 71 60 72 7 73 8 74 9 75
REMARK SMILES IDX 10 77 11 78 12 79 17 80 13 81 16 82 14 83 15 84 18 85 19 86
REMARK SMILES IDX 20 87 21 88 22 89 27 90 23 91 26 92 24 93 25 94
REMARK H PARENT 3 7 84 25 52 36 8 76
REMARK Flexibility Score: inf
ROOT
ATOM      1  C   UNL A   1      37.107  20.830  24.542  1.00  0.00     0.023 C 
ENDROOT
BRANCH   1   2
ATOM      2  C   UNL A   1      38.041  19.703  24.974  1.00  0.00     0.023 C 
BRANCH   2   3
ATOM      3  C   UNL A   1      39.172  20.108  25.909  1.00  0.00     0.116 C 
BRANCH   3   4
ATOM      4  N   UNL A   1      40.284  19.171  25.912  1.00  0.00    -0.352 N 
ATOM      5  O   UNL A   1      42.442  18.516  25.960  1.00  0.00    -0.269 OA
ATOM      6  C   UNL A   1      41.624  19.421  26.079  1.00  0.00     0.251 C 
ATOM      7  H   UNL A   1      40.042  18.227  25.777  1.00  0.00     0.163 HD
BRANCH   6   8
ATOM      8  C   UNL A   1      42.087  20.796  26.373  1.00  0.00     0.039 A 
ATOM      9  C   UNL A   1      42.283  21.725  25.348  1.00  0.00     0.014 A 
ATOM     10  C   UNL A   1      42.313  21.162  27.704  1.00  0.00     0.014 A 
ATOM     11  C   UNL A   1      42.815  22.976  25.640  1.00  0.00     0.010 A 
ATOM     12  C   UNL A   1      42.778  22.446  28.004  1.00  0.00     0.010 A 
ATOM     13  C   UNL A   1      43.049  23.356  26.972  1.00  0.00    -0.014 A 
BRANCH  13  14
ATOM     14  C   UNL A   1      43.472  24.747  27.265  1.00  0.00     0.031 A 
ATOM     15  C   UNL A   1      42.516  25.755  27.833  1.00  0.00     0.074 A 
ATOM     16  C   UNL A   1      44.753  25.087  27.018  1.00  0.00     0.049 A 
ATOM     17  N   UNL A   1      42.736  27.008  28.143  1.00  0.00    -0.248 NA
ATOM     18  C   UNL A   1      41.138  25.308  28.084  1.00  0.00     0.031 C 
ATOM     19  C   UNL A   1      45.763  24.190  26.451  1.00  0.00     0.029 A 
ATOM     20  N   UNL A   1      45.428  26.261  27.220  1.00  0.00    -0.354 N 
ATOM     21  C   UNL A   1      41.526  27.502  28.612  1.00  0.00     0.074 A 
ATOM     22  C   UNL A   1      40.568  26.421  28.533  1.00  0.00     0.031 C 
ATOM     23  C   UNL A   1      46.935  24.834  26.384  1.00  0.00     0.029 A 
ATOM     24  C   UNL A   1      46.748  26.204  26.847  1.00  0.00     0.049 A 
ATOM     25  H   UNL A   1      45.009  27.068  27.597  1.00  0.00     0.167 HD
ATOM     26  C   UNL A   1      41.253  28.745  29.074  1.00  0.00     0.037 A 
ATOM     27  C   UNL A   1      47.701  27.155  26.854  1.00  0.00     0.037 A 
ATOM     28  C   UNL A   1      42.222  29.807  29.176  1.00  0.00     0.049 A 
ATOM     29  C   UNL A   1      47.358  28.529  27.346  1.00  0.00     0.074 A 
ATOM     30  C   UNL A   1      42.050  31.078  29.696  1.00  0.00     0.029 A 
ATOM     31  N   UNL A   1      43.537  29.725  28.747  1.00  0.00    -0.354 N 
ATOM     32  N   UNL A   1      46.221  28.970  27.825  1.00  0.00    -0.248 NA
ATOM     33  C   UNL A   1      48.421  29.541  27.289  1.00  0.00     0.031 C 
ATOM     34  C   UNL A   1      43.249  31.780  29.541  1.00  0.00     0.029 A 
ATOM     35  C   UNL A   1      44.179  30.934  28.961  1.00  0.00     0.049 A 
ATOM     36  H   UNL A   1      43.953  28.925  28.349  1.00  0.00     0.167 HD
ATOM     37  C   UNL A   1      46.428  30.308  28.124  1.00  0.00     0.074 A 
ATOM     38  C   UNL A   1      47.808  30.602  27.797  1.00  0.00     0.031 C 
ATOM     39  C   UNL A   1      45.548  31.212  28.615  1.00  0.00     0.037 A 
BRANCH  26  40
ATOM     40  C   UNL A   1      39.854  29.052  29.516  1.00  0.00     0.064 A 
ATOM     41  C   UNL A   1      39.468  28.828  30.846  1.00  0.00     0.173 A 
ATOM     42  C   UNL A   1      38.867  29.434  28.598  1.00  0.00     0.173 A 
ATOM     43  F   UNL A   1      40.376  28.450  31.759  1.00  0.00    -0.203 F 
ATOM     44  C   UNL A   1      38.137  28.953  31.236  1.00  0.00     0.198 A 
ATOM     45  C   UNL A   1      37.539  29.576  28.995  1.00  0.00     0.198 A 
ATOM     46  F   UNL A   1      39.189  29.663  27.316  1.00  0.00    -0.203 F 
ATOM     47  F   UNL A   1      37.784  28.696  32.503  1.00  0.00    -0.200 F 
ATOM     48  C   UNL A   1      37.174  29.324  30.310  1.00  0.00     0.200 A 
ATOM     49  F   UNL A   1      36.610  29.945  28.103  1.00  0.00    -0.200 F 
ATOM     50  F   UNL A   1      35.892  29.433  30.683  1.00  0.00    -0.200 F 
ENDBRANCH  26  40
BRANCH  27  51
ATOM     51  C   UNL A   1      49.061  26.829  26.356  1.00  0.00     0.064 A 
ATOM     52  C   UNL A   1      49.403  27.018  25.008  1.00  0.00     0.173 A 
ATOM     53  C   UNL A   1      50.032  26.288  27.208  1.00  0.00     0.173 A 
ATOM     54  F   UNL A   1      48.506  27.529  24.153  1.00  0.00    -0.203 F 
ATOM     55  C   UNL A   1      50.659  26.657  24.527  1.00  0.00     0.198 A 
ATOM     56  C   UNL A   1      51.297  25.951  26.732  1.00  0.00     0.198 A 
ATOM     57  F   UNL A   1      49.756  26.107  28.508  1.00  0.00    -0.203 F 
ATOM     58  F   UNL A   1      50.947  26.813  23.229  1.00  0.00    -0.200 F 
ATOM     59  C   UNL A   1      51.606  26.128  25.391  1.00  0.00     0.200 A 
ATOM     60  F   UNL A   1      52.218  25.462  27.572  1.00  0.00    -0.200 F 
ATOM     61  F   UNL A   1      52.818  25.790  24.930  1.00  0.00    -0.200 F 
ENDBRANCH  27  51
BRANCH  39  62
ATOM     62  C   UNL A   1      46.042  32.612  28.817  1.00  0.00     0.064 A 
ATOM     63  C   UNL A   1      45.916  33.570  27.801  1.00  0.00     0.173 A 
ATOM     64  C   UNL A   1      46.701  32.982  29.998  1.00  0.00     0.173 A 
ATOM     65  F   UNL A   1      45.298  33.258  26.652  1.00  0.00    -0.203 F 
ATOM     66  C   UNL A   1      46.449  34.846  27.954  1.00  0.00     0.198 A 
ATOM     67  C   UNL A   1      47.212  34.267  30.156  1.00  0.00     0.198 A 
ATOM     68  F   UNL A   1      46.831  32.103  31.004  1.00  0.00    -0.203 F 
ATOM     69  F   UNL A   1      46.344  35.737  26.958  1.00  0.00    -0.200 F 
ATOM     70  C   UNL A   1      47.094  35.193  29.131  1.00  0.00     0.200 A 
ATOM     71  F   UNL A   1      47.816  34.609  31.302  1.00  0.00    -0.200 F 
ATOM     72  F   UNL A   1      47.600  36.426  29.280  1.00  0.00    -0.200 F 
ENDBRANCH  39  62
ENDBRANCH  13  14
ENDBRANCH   6   8
ENDBRANCH   3   4
ENDBRANCH   2   3
ENDBRANCH   1   2
BRANCH   1  73
ATOM     73  C   UNL A   1      37.065  22.046  25.465  1.00  0.00     0.116 C 
BRANCH  73  74
ATOM     74  N   UNL A   1      36.065  21.942  26.518  1.00  0.00    -0.352 N 
ATOM     75  C   UNL A   1      34.790  22.452  26.571  1.00  0.00     0.255 C 
ATOM     76  H   UNL A   1      36.343  21.428  27.310  1.00  0.00     0.163 HD
ATOM     77  O   UNL A   1      34.129  22.359  27.600  1.00  0.00    -0.269 OA
BRANCH  75  78
ATOM     78  C   UNL A   1      34.219  23.118  25.385  1.00  0.00     0.083 A 
ATOM     79  C   UNL A   1      34.248  24.517  25.308  1.00  0.00     0.033 A 
ATOM     80  C   UNL A   1      33.688  22.379  24.321  1.00  0.00     0.144 A 
ATOM     81  C   UNL A   1      33.671  25.160  24.215  1.00  0.00     0.019 A 
ATOM     82  C   UNL A   1      33.133  23.028  23.217  1.00  0.00     0.049 A 
ATOM     83  Br  UNL A   1      33.654  27.049  24.148  1.00  0.00    -0.051 Br
ATOM     84  C   UNL A   1      33.103  24.424  23.175  1.00  0.00     0.019 A 
BRANCH  80  85
ATOM     85  O   UNL A   1      33.789  20.983  24.232  1.00  0.00    -0.422 OA
BRANCH  85  86
ATOM     86  C   UNL A   1      32.792  20.245  24.838  1.00  0.00     0.343 C 
ATOM     87  O   UNL A   1      31.703  20.658  25.220  1.00  0.00    -0.246 OA
BRANCH  86  88
ATOM     88  C   UNL A   1      33.230  18.830  24.966  1.00  0.00     0.060 A 
ATOM     89  C   UNL A   1      32.489  17.878  25.687  1.00  0.00     0.019 A 
ATOM     90  C   UNL A   1      34.440  18.450  24.365  1.00  0.00     0.019 A 
ATOM     91  C   UNL A   1      32.956  16.567  25.804  1.00  0.00     0.040 A 
ATOM     92  C   UNL A   1      34.901  17.137  24.482  1.00  0.00     0.040 A 
ATOM     93  C   UNL A   1      34.156  16.209  25.201  1.00  0.00     0.123 A 
ATOM     94  F   UNL A   1      34.603  14.952  25.320  1.00  0.00    -0.207 F 
ENDBRANCH  86  88
ENDBRANCH  85  86
ENDBRANCH  80  85
ENDBRANCH  75  78
ENDBRANCH  73  74
ENDBRANCH   1  73
TORSDOF 14
ENDMDL
MODEL 3
REMARK VINA RESULT:     -12.7      6.423     11.907
REMARK SMILES O=C(NCCCCNC(=O)c1cc(Br)ccc1OC(=O)c1ccc(F)cc1)c1ccc(-c2c3nc(c(-c4c(F)c(F)c(F)c(F)c4F)c4ccc([nH]4)c(-c4c(F)c(F)c(F)c(F)c4F)c4nc(c(-c5c(F)c(F)c(F)c(F)c5F)c5ccc2[nH]5)C=C4)C=C3)cc1
REMARK SMILES IDX 6 1 5 2 4 3 3 4 1 5 2 6 28 8 29 9 90 10 30 11 89 12 31 13
REMARK SMILES IDX 32 14 33 15 83 16 34 17 88 18 82 19 84 20 35 21 87 22 81 23
REMARK SMILES IDX 80 24 36 26 68 27 48 28 67 29 49 30 52 31 66 32 85 33 50 34
REMARK SMILES IDX 51 35 65 37 86 38 53 39 37 40 38 41 46 42 39 43 40 44 44 45
REMARK SMILES IDX 47 46 41 47 42 48 45 49 43 50 69 51 70 52 78 53 71 54 72 55
REMARK SMILES IDX 76 56 79 57 73 58 74 59 77 60 75 61 54 62 55 63 63 64 56 65
REMARK SMILES IDX 57 66 61 67 64 68 58 69 59 70 62 71 60 72 7 73 8 74 9 75
REMARK SMILES IDX 10 77 11 78 12 79 17 80 13 81 16 82 14 83 15 84 18 85 19 86
REMARK SMILES IDX 20 87 21 88 22 89 27 90 23 91 26 92 24 93 25 94
REMARK H PARENT 3 7 84 25 52 36 8 76
REMARK Flexibility Score: inf
ROOT
ATOM      1  C   UNL A   1      31.378  30.764  26.491  1.00  0.00     0.023 C 
ENDROOT
BRANCH   1   2
ATOM      2  C   UNL A   1      31.380  32.290  26.536  1.00  0.00     0.023 C 
BRANCH   2   3
ATOM      3  C   UNL A   1      32.625  32.929  27.135  1.00  0.00     0.116 C 
BRANCH   3   4
ATOM      4  N   UNL A   1      32.402  34.274  27.636  1.00  0.00    -0.352 N 
ATOM      5  O   UNL A   1      32.662  36.044  29.012  1.00  0.00    -0.269 OA
ATOM      6  C   UNL A   1      33.043  34.934  28.656  1.00  0.00     0.251 C 
ATOM      7  H   UNL A   1      31.693  34.783  27.181  1.00  0.00     0.163 HD
BRANCH   6   8
ATOM      8  C   UNL A   1      34.182  34.291  29.350  1.00  0.00     0.039 A 
ATOM      9  C   UNL A   1      33.977  33.470  30.461  1.00  0.00     0.014 A 
ATOM     10  C   UNL A   1      35.476  34.505  28.865  1.00  0.00     0.014 A 
ATOM     11  C   UNL A   1      35.068  32.960  31.156  1.00  0.00     0.010 A 
ATOM     12  C   UNL A   1      36.569  33.931  29.521  1.00  0.00     0.010 A 
ATOM     13  C   UNL A   1      36.374  33.169  30.682  1.00  0.00    -0.014 A 
BRANCH  13  14
ATOM     14  C   UNL A   1      37.506  32.489  31.355  1.00  0.00     0.031 A 
ATOM     15  C   UNL A   1      38.256  31.371  30.692  1.00  0.00     0.074 A 
ATOM     16  C   UNL A   1      37.860  32.910  32.586  1.00  0.00     0.049 A 
ATOM     17  N   UNL A   1      39.268  30.678  31.151  1.00  0.00    -0.248 NA
ATOM     18  C   UNL A   1      37.819  30.973  29.346  1.00  0.00     0.031 C 
ATOM     19  C   UNL A   1      37.189  33.978  33.330  1.00  0.00     0.029 A 
ATOM     20  N   UNL A   1      38.869  32.507  33.421  1.00  0.00    -0.354 N 
ATOM     21  C   UNL A   1      39.580  29.757  30.160  1.00  0.00     0.074 A 
ATOM     22  C   UNL A   1      38.642  29.965  29.078  1.00  0.00     0.031 C 
ATOM     23  C   UNL A   1      37.824  34.170  34.494  1.00  0.00     0.029 A 
ATOM     24  C   UNL A   1      38.909  33.202  34.604  1.00  0.00     0.049 A 
ATOM     25  H   UNL A   1      39.503  31.790  33.195  1.00  0.00     0.167 HD
ATOM     26  C   UNL A   1      40.569  28.832  30.159  1.00  0.00     0.037 A 
ATOM     27  C   UNL A   1      39.716  33.064  35.673  1.00  0.00     0.037 A 
ATOM     28  C   UNL A   1      41.517  28.652  31.229  1.00  0.00     0.049 A 
ATOM     29  C   UNL A   1      40.784  32.011  35.650  1.00  0.00     0.074 A 
ATOM     30  C   UNL A   1      42.594  27.784  31.284  1.00  0.00     0.029 A 
ATOM     31  N   UNL A   1      41.499  29.344  32.429  1.00  0.00    -0.354 N 
ATOM     32  N   UNL A   1      41.093  31.175  34.689  1.00  0.00    -0.248 NA
ATOM     33  C   UNL A   1      41.605  31.870  36.859  1.00  0.00     0.031 C 
ATOM     34  C   UNL A   1      43.202  27.921  32.536  1.00  0.00     0.029 A 
ATOM     35  C   UNL A   1      42.527  28.900  33.245  1.00  0.00     0.049 A 
ATOM     36  H   UNL A   1      40.851  30.047  32.667  1.00  0.00     0.167 HD
ATOM     37  C   UNL A   1      42.141  30.408  35.176  1.00  0.00     0.074 A 
ATOM     38  C   UNL A   1      42.433  30.895  36.508  1.00  0.00     0.031 C 
ATOM     39  C   UNL A   1      42.793  29.386  34.573  1.00  0.00     0.037 A 
BRANCH  26  40
ATOM     40  C   UNL A   1      40.701  27.929  28.970  1.00  0.00     0.064 A 
ATOM     41  C   UNL A   1      41.544  28.282  27.905  1.00  0.00     0.173 A 
ATOM     42  C   UNL A   1      39.896  26.792  28.825  1.00  0.00     0.173 A 
ATOM     43  F   UNL A   1      42.326  29.368  27.993  1.00  0.00    -0.203 F 
ATOM     44  C   UNL A   1      41.557  27.539  26.727  1.00  0.00     0.198 A 
ATOM     45  C   UNL A   1      39.925  26.041  27.651  1.00  0.00     0.198 A 
ATOM     46  F   UNL A   1      39.077  26.413  29.817  1.00  0.00    -0.203 F 
ATOM     47  F   UNL A   1      42.341  27.917  25.707  1.00  0.00    -0.200 F 
ATOM     48  C   UNL A   1      40.746  26.423  26.600  1.00  0.00     0.200 A 
ATOM     49  F   UNL A   1      39.148  24.955  27.533  1.00  0.00    -0.200 F 
ATOM     50  F   UNL A   1      40.750  25.716  25.461  1.00  0.00    -0.200 F 
ENDBRANCH  26  40
BRANCH  27  51
ATOM     51  C   UNL A   1      39.519  33.939  36.855  1.00  0.00     0.064 A 
ATOM     52  C   UNL A   1      40.126  35.203  36.928  1.00  0.00     0.173 A 
ATOM     53  C   UNL A   1      38.754  33.517  37.948  1.00  0.00     0.173 A 
ATOM     54  F   UNL A   1      40.873  35.650  35.907  1.00  0.00    -0.203 F 
ATOM     55  C   UNL A   1      39.992  36.001  38.061  1.00  0.00     0.198 A 
ATOM     56  C   UNL A   1      38.597  34.327  39.071  1.00  0.00     0.198 A 
ATOM     57  F   UNL A   1      38.139  32.325  37.914  1.00  0.00    -0.203 F 
ATOM     58  F   UNL A   1      40.612  37.186  38.120  1.00  0.00    -0.200 F 
ATOM     59  C   UNL A   1      39.224  35.564  39.130  1.00  0.00     0.200 A 
ATOM     60  F   UNL A   1      37.837  33.913  40.092  1.00  0.00    -0.200 F 
ATOM     61  F   UNL A   1      39.085  36.336  40.216  1.00  0.00    -0.200 F 
ENDBRANCH  27  51
BRANCH  39  62
ATOM     62  C   UNL A   1      43.880  28.711  35.352  1.00  0.00     0.064 A 
ATOM     63  C   UNL A   1      43.585  27.654  36.226  1.00  0.00     0.173 A 
ATOM     64  C   UNL A   1      45.206  29.159  35.280  1.00  0.00     0.173 A 
ATOM     65  F   UNL A   1      42.329  27.196  36.331  1.00  0.00    -0.203 F 
ATOM     66  C   UNL A   1      44.578  27.081  37.013  1.00  0.00     0.198 A 
ATOM     67  C   UNL A   1      46.201  28.567  36.053  1.00  0.00     0.198 A 
ATOM     68  F   UNL A   1      45.538  30.157  34.447  1.00  0.00    -0.203 F 
ATOM     69  F   UNL A   1      44.269  26.092  37.863  1.00  0.00    -0.200 F 
ATOM     70  C   UNL A   1      45.885  27.537  36.925  1.00  0.00     0.200 A 
ATOM     71  F   UNL A   1      47.468  28.994  35.951  1.00  0.00    -0.200 F 
ATOM     72  F   UNL A   1      46.843  26.978  37.678  1.00  0.00    -0.200 F 
ENDBRANCH  39  62
ENDBRANCH  13  14
ENDBRANCH   6   8
ENDBRANCH   3   4
ENDBRANCH   2   3
ENDBRANCH   1   2
BRANCH   1  73
ATOM     73  C   UNL A   1      32.747  30.104  26.346  1.00  0.00     0.116 C 
BRANCH  73  74
ATOM     74  N   UNL A   1      33.196  29.993  24.966  1.00  0.00    -0.352 N 
ATOM     75  C   UNL A   1      33.232  28.896  24.140  1.00  0.00     0.255 C 
ATOM     76  H   UNL A   1      33.523  30.831  24.563  1.00  0.00     0.163 HD
ATOM     77  O   UNL A   1      33.757  28.971  23.034  1.00  0.00    -0.269 OA
BRANCH  75  78
ATOM     78  C   UNL A   1      32.639  27.622  24.590  1.00  0.00     0.083 A 
ATOM     79  C   UNL A   1      33.473  26.636  25.133  1.00  0.00     0.033 A 
ATOM     80  C   UNL A   1      31.259  27.399  24.524  1.00  0.00     0.144 A 
ATOM     81  C   UNL A   1      32.933  25.412  25.519  1.00  0.00     0.019 A 
ATOM     82  C   UNL A   1      30.719  26.179  24.935  1.00  0.00     0.049 A 
ATOM     83  Br  UNL A   1      34.072  24.060  26.188  1.00  0.00    -0.051 Br
ATOM     84  C   UNL A   1      31.562  25.173  25.412  1.00  0.00     0.019 A 
BRANCH  80  85
ATOM     85  O   UNL A   1      30.337  28.397  24.172  1.00  0.00    -0.422 OA
BRANCH  85  86
ATOM     86  C   UNL A   1      30.084  28.566  22.826  1.00  0.00     0.343 C 
ATOM     87  O   UNL A   1      30.304  27.759  21.931  1.00  0.00    -0.246 OA
BRANCH  86  88
ATOM     88  C   UNL A   1      29.483  29.908  22.600  1.00  0.00     0.060 A 
ATOM     89  C   UNL A   1      29.085  30.346  21.326  1.00  0.00     0.019 A 
ATOM     90  C   UNL A   1      29.338  30.767  23.701  1.00  0.00     0.019 A 
ATOM     91  C   UNL A   1      28.552  31.626  21.158  1.00  0.00     0.040 A 
ATOM     92  C   UNL A   1      28.801  32.045  23.529  1.00  0.00     0.040 A 
ATOM     93  C   UNL A   1      28.415  32.463  22.260  1.00  0.00     0.123 A 
ATOM     94  F   UNL A   1      27.909  33.691  22.094  1.00  0.00    -0.207 F 
ENDBRANCH  86  88
ENDBRANCH  85  86
ENDBRANCH  80  85
ENDBRANCH  75  78
ENDBRANCH  73  74
ENDBRANCH   1  73
TORSDOF 14
ENDMDL
