MODEL 1
REMARK VINA RESULT:     -13.1      0.000      0.000
REMARK SMILES Cc1nc(SCc2cccc(Cl)c2)[nH]c(=O)c1CC(=O)NCCCCNC(=O)c1ccc(-c2c3nc(c(-c4c(F)c(F)c(F)c(F)c4F)c4ccc([nH]4)c(-c4c(F)c(F)c(F)c(F)c4F)c4nc(c(-c5c(F)c(F)c(F)c(F)c5F)c5ccc2[nH]5)C=C4)C=C3)cc1
REMARK SMILES IDX 22 1 21 2 19 3 20 4 18 6 17 7 1 8 2 9 3 10 4 11 15 12 14 13
REMARK SMILES IDX 16 14 5 16 6 17 7 18 8 19 13 20 9 21 11 22 10 23 12 24 23 25
REMARK SMILES IDX 24 26 25 27 26 28 27 29 28 31 29 32 30 33 91 34 31 35 90 36
REMARK SMILES IDX 32 37 33 38 34 39 84 40 35 41 89 42 83 43 85 44 36 45 88 46
REMARK SMILES IDX 82 47 81 48 37 50 69 51 49 52 68 53 50 54 53 55 67 56 86 57
REMARK SMILES IDX 51 58 52 59 66 61 87 62 54 63 38 64 39 65 47 66 40 67 41 68
REMARK SMILES IDX 45 69 48 70 42 71 43 72 46 73 44 74 70 75 71 76 79 77 72 78
REMARK SMILES IDX 73 79 77 80 80 81 74 82 75 83 78 84 76 85 55 86 56 87 64 88
REMARK SMILES IDX 57 89 58 90 62 91 65 92 59 93 60 94 63 95 61 96
REMARK H PARENT 21 5 14 15 26 30 85 49 53 60
REMARK Flexibility Score: inf
ROOT
ATOM      1  C   UNL A   1      31.760  29.883  25.112  1.00  0.00     0.116 C 
ENDROOT
BRANCH   1   2
ATOM      2  N   UNL A   1      32.969  29.603  24.364  1.00  0.00    -0.356 N 
ATOM      3  C   UNL A   1      33.235  28.646  23.429  1.00  0.00     0.224 C 
ATOM      4  O   UNL A   1      34.342  28.676  22.886  1.00  0.00    -0.275 OA
ATOM      5  H   UNL A   1      33.725  30.202  24.566  1.00  0.00     0.163 HD
BRANCH   3   6
ATOM      6  C   UNL A   1      32.165  27.653  22.977  1.00  0.00     0.143 C 
BRANCH   6   7
ATOM      7  C   UNL A   1      32.396  26.230  23.397  1.00  0.00     0.048 A 
ATOM      8  C   UNL A   1      31.063  26.382  25.520  1.00  0.00     0.067 C 
ATOM      9  C   UNL A   1      31.932  25.652  24.524  1.00  0.00     0.049 A 
ATOM     10  N   UNL A   1      32.294  24.392  24.937  1.00  0.00    -0.229 NA
ATOM     11  C   UNL A   1      33.175  23.763  24.241  1.00  0.00     0.168 A 
ATOM     12  C   UNL A   1      33.251  25.391  22.518  1.00  0.00     0.255 A 
ATOM     13  N   UNL A   1      33.658  24.207  23.058  1.00  0.00    -0.301 N 
ATOM     14  O   UNL A   1      33.591  25.740  21.400  1.00  0.00    -0.269 OA
ATOM     15  H   UNL A   1      34.321  23.663  22.575  1.00  0.00     0.172 HD
BRANCH  11  16
ATOM     16  S   UNL A   1      33.884  22.263  24.743  1.00  0.00    -0.083 SA
BRANCH  16  17
ATOM     17  C   UNL A   1      32.482  21.119  24.579  1.00  0.00     0.113 C 
BRANCH  17  18
ATOM     18  C   UNL A   1      32.840  19.753  24.034  1.00  0.00    -0.036 A 
ATOM     19  C   UNL A   1      32.198  19.240  22.897  1.00  0.00     0.005 A 
ATOM     20  C   UNL A   1      33.789  18.942  24.674  1.00  0.00     0.025 A 
ATOM     21  C   UNL A   1      32.500  17.958  22.421  1.00  0.00     0.002 A 
ATOM     22  C   UNL A   1      34.104  17.673  24.188  1.00  0.00     0.041 A 
ATOM     23  C   UNL A   1      33.462  17.176  23.060  1.00  0.00     0.020 A 
ATOM     24  Cl  UNL A   1      35.292  16.727  24.998  1.00  0.00    -0.084 Cl
ENDBRANCH  17  18
ENDBRANCH  16  17
ENDBRANCH  11  16
ENDBRANCH   6   7
ENDBRANCH   3   6
ENDBRANCH   1   2
BRANCH   1  25
ATOM     25  C   UNL A   1      32.071  30.362  26.528  1.00  0.00     0.023 C 
BRANCH  25  26
ATOM     26  C   UNL A   1      31.712  31.824  26.799  1.00  0.00     0.023 C 
BRANCH  26  27
ATOM     27  C   UNL A   1      32.811  32.662  27.443  1.00  0.00     0.116 C 
BRANCH  27  28
ATOM     28  N   UNL A   1      32.426  34.044  27.687  1.00  0.00    -0.352 N 
ATOM     29  C   UNL A   1      32.972  34.953  28.564  1.00  0.00     0.251 C 
ATOM     30  H   UNL A   1      31.669  34.374  27.152  1.00  0.00     0.163 HD
ATOM     31  O   UNL A   1      32.450  36.049  28.736  1.00  0.00    -0.269 OA
BRANCH  29  32
ATOM     32  C   UNL A   1      34.174  34.580  29.342  1.00  0.00     0.039 A 
ATOM     33  C   UNL A   1      34.010  34.094  30.642  1.00  0.00     0.014 A 
ATOM     34  C   UNL A   1      35.448  34.651  28.773  1.00  0.00     0.014 A 
ATOM     35  C   UNL A   1      35.112  33.588  31.335  1.00  0.00     0.010 A 
ATOM     36  C   UNL A   1      36.531  34.077  29.433  1.00  0.00     0.010 A 
ATOM     37  C   UNL A   1      36.372  33.524  30.714  1.00  0.00    -0.014 A 
BRANCH  37  38
ATOM     38  C   UNL A   1      37.521  32.846  31.367  1.00  0.00     0.031 A 
ATOM     39  C   UNL A   1      38.172  31.658  30.717  1.00  0.00     0.074 A 
ATOM     40  C   UNL A   1      37.921  33.246  32.591  1.00  0.00     0.049 A 
ATOM     41  N   UNL A   1      39.119  30.879  31.175  1.00  0.00    -0.248 NA
ATOM     42  C   UNL A   1      37.674  31.277  29.386  1.00  0.00     0.031 C 
ATOM     43  C   UNL A   1      37.336  34.350  33.353  1.00  0.00     0.029 A 
ATOM     44  N   UNL A   1      38.902  32.758  33.418  1.00  0.00    -0.354 N 
ATOM     45  C   UNL A   1      39.317  29.911  30.200  1.00  0.00     0.074 A 
ATOM     46  C   UNL A   1      38.359  30.169  29.146  1.00  0.00     0.031 C 
ATOM     47  C   UNL A   1      37.978  34.466  34.526  1.00  0.00     0.029 A 
ATOM     48  C   UNL A   1      38.990  33.418  34.620  1.00  0.00     0.049 A 
ATOM     49  H   UNL A   1      39.489  32.005  33.174  1.00  0.00     0.167 HD
ATOM     50  C   UNL A   1      40.229  28.909  30.177  1.00  0.00     0.037 A 
ATOM     51  C   UNL A   1      39.784  33.196  35.686  1.00  0.00     0.037 A 
ATOM     52  C   UNL A   1      41.197  28.670  31.214  1.00  0.00     0.049 A 
ATOM     53  C   UNL A   1      40.781  32.070  35.637  1.00  0.00     0.074 A 
ATOM     54  C   UNL A   1      42.212  27.729  31.245  1.00  0.00     0.029 A 
ATOM     55  N   UNL A   1      41.267  29.372  32.408  1.00  0.00    -0.354 N 
ATOM     56  N   UNL A   1      41.014  31.212  34.674  1.00  0.00    -0.248 NA
ATOM     57  C   UNL A   1      41.627  31.881  36.824  1.00  0.00     0.031 C 
ATOM     58  C   UNL A   1      42.861  27.826  32.480  1.00  0.00     0.029 A 
ATOM     59  C   UNL A   1      42.288  28.864  33.196  1.00  0.00     0.049 A 
ATOM     60  H   UNL A   1      40.678  30.121  32.659  1.00  0.00     0.167 HD
ATOM     61  C   UNL A   1      42.047  30.401  35.126  1.00  0.00     0.074 A 
ATOM     62  C   UNL A   1      42.407  30.880  36.444  1.00  0.00     0.031 C 
ATOM     63  C   UNL A   1      42.641  29.354  34.504  1.00  0.00     0.037 A 
BRANCH  50  64
ATOM     64  C   UNL A   1      40.226  27.992  28.988  1.00  0.00     0.064 A 
ATOM     65  C   UNL A   1      40.946  28.293  27.823  1.00  0.00     0.173 A 
ATOM     66  C   UNL A   1      39.532  26.773  29.032  1.00  0.00     0.173 A 
ATOM     67  F   UNL A   1      41.619  29.450  27.725  1.00  0.00    -0.203 F 
ATOM     68  C   UNL A   1      40.951  27.422  26.737  1.00  0.00     0.198 A 
ATOM     69  C   UNL A   1      39.564  25.889  27.957  1.00  0.00     0.198 A 
ATOM     70  F   UNL A   1      38.833  26.432  30.125  1.00  0.00    -0.203 F 
ATOM     71  F   UNL A   1      41.608  27.753  25.616  1.00  0.00    -0.200 F 
ATOM     72  C   UNL A   1      40.267  26.218  26.808  1.00  0.00     0.200 A 
ATOM     73  F   UNL A   1      38.916  24.719  28.033  1.00  0.00    -0.200 F 
ATOM     74  F   UNL A   1      40.280  25.376  25.765  1.00  0.00    -0.200 F 
ENDBRANCH  50  64
BRANCH  51  75
ATOM     75  C   UNL A   1      39.676  34.064  36.889  1.00  0.00     0.064 A 
ATOM     76  C   UNL A   1      40.386  35.269  36.973  1.00  0.00     0.173 A 
ATOM     77  C   UNL A   1      38.871  33.703  37.979  1.00  0.00     0.173 A 
ATOM     78  F   UNL A   1      41.187  35.646  35.966  1.00  0.00    -0.203 F 
ATOM     79  C   UNL A   1      40.313  36.070  38.111  1.00  0.00     0.198 A 
ATOM     80  C   UNL A   1      38.775  34.520  39.105  1.00  0.00     0.198 A 
ATOM     81  F   UNL A   1      38.167  32.563  37.947  1.00  0.00    -0.203 F 
ATOM     82  F   UNL A   1      41.042  37.192  38.186  1.00  0.00    -0.200 F 
ATOM     83  C   UNL A   1      39.504  35.697  39.174  1.00  0.00     0.200 A 
ATOM     84  F   UNL A   1      37.980  34.164  40.123  1.00  0.00    -0.200 F 
ATOM     85  F   UNL A   1      39.432  36.470  40.267  1.00  0.00    -0.200 F 
ENDBRANCH  51  75
BRANCH  63  86
ATOM     86  C   UNL A   1      43.764  28.668  35.227  1.00  0.00     0.064 A 
ATOM     87  C   UNL A   1      43.538  27.569  36.066  1.00  0.00     0.173 A 
ATOM     88  C   UNL A   1      45.091  29.086  35.035  1.00  0.00     0.173 A 
ATOM     89  F   UNL A   1      42.286  27.142  36.296  1.00  0.00    -0.203 F 
ATOM     90  C   UNL A   1      44.596  26.925  36.705  1.00  0.00     0.198 A 
ATOM     91  C   UNL A   1      46.148  28.421  35.648  1.00  0.00     0.198 A 
ATOM     92  F   UNL A   1      45.362  30.129  34.235  1.00  0.00    -0.203 F 
ATOM     93  F   UNL A   1      44.352  25.904  37.538  1.00  0.00    -0.200 F 
ATOM     94  C   UNL A   1      45.899  27.346  36.487  1.00  0.00     0.200 A 
ATOM     95  F   UNL A   1      47.408  28.819  35.426  1.00  0.00    -0.200 F 
ATOM     96  F   UNL A   1      46.916  26.717  37.093  1.00  0.00    -0.200 F 
ENDBRANCH  63  86
ENDBRANCH  37  38
ENDBRANCH  29  32
ENDBRANCH  27  28
ENDBRANCH  26  27
ENDBRANCH  25  26
ENDBRANCH   1  25
TORSDOF 15
ENDMDL
MODEL 2
REMARK VINA RESULT:     -13.1      3.899      8.807
REMARK SMILES Cc1nc(SCc2cccc(Cl)c2)[nH]c(=O)c1CC(=O)NCCCCNC(=O)c1ccc(-c2c3nc(c(-c4c(F)c(F)c(F)c(F)c4F)c4ccc([nH]4)c(-c4c(F)c(F)c(F)c(F)c4F)c4nc(c(-c5c(F)c(F)c(F)c(F)c5F)c5ccc2[nH]5)C=C4)C=C3)cc1
REMARK SMILES IDX 22 1 21 2 19 3 20 4 18 6 17 7 1 8 2 9 3 10 4 11 15 12 14 13
REMARK SMILES IDX 16 14 5 16 6 17 7 18 8 19 13 20 9 21 11 22 10 23 12 24 23 25
REMARK SMILES IDX 24 26 25 27 26 28 27 29 28 31 29 32 30 33 91 34 31 35 90 36
REMARK SMILES IDX 32 37 33 38 34 39 84 40 35 41 89 42 83 43 85 44 36 45 88 46
REMARK SMILES IDX 82 47 81 48 37 50 69 51 49 52 68 53 50 54 53 55 67 56 86 57
REMARK SMILES IDX 51 58 52 59 66 61 87 62 54 63 38 64 39 65 47 66 40 67 41 68
REMARK SMILES IDX 45 69 48 70 42 71 43 72 46 73 44 74 70 75 71 76 79 77 72 78
REMARK SMILES IDX 73 79 77 80 80 81 74 82 75 83 78 84 76 85 55 86 56 87 64 88
REMARK SMILES IDX 57 89 58 90 62 91 65 92 59 93 60 94 63 95 61 96
REMARK H PARENT 21 5 14 15 26 30 85 49 53 60
REMARK Flexibility Score: inf
ROOT
ATOM      1  C   UNL A   1      31.661  29.447  24.893  1.00  0.00     0.116 C 
ENDROOT
BRANCH   1   2
ATOM      2  N   UNL A   1      31.126  29.590  23.554  1.00  0.00    -0.356 N 
ATOM      3  C   UNL A   1      30.375  28.736  22.801  1.00  0.00     0.224 C 
ATOM      4  O   UNL A   1      29.984  29.142  21.703  1.00  0.00    -0.275 OA
ATOM      5  H   UNL A   1      31.341  30.445  23.115  1.00  0.00     0.163 HD
BRANCH   3   6
ATOM      6  C   UNL A   1      29.925  27.379  23.341  1.00  0.00     0.143 C 
BRANCH   6   7
ATOM      7  C   UNL A   1      31.001  26.334  23.418  1.00  0.00     0.048 A 
ATOM      8  C   UNL A   1      30.860  26.020  25.907  1.00  0.00     0.067 C 
ATOM      9  C   UNL A   1      31.441  25.732  24.543  1.00  0.00     0.049 A 
ATOM     10  N   UNL A   1      32.528  24.892  24.580  1.00  0.00    -0.229 NA
ATOM     11  C   UNL A   1      33.198  24.731  23.493  1.00  0.00     0.168 A 
ATOM     12  C   UNL A   1      31.679  25.959  22.150  1.00  0.00     0.255 A 
ATOM     13  N   UNL A   1      32.816  25.223  22.292  1.00  0.00    -0.301 N 
ATOM     14  O   UNL A   1      31.266  26.305  21.056  1.00  0.00    -0.269 OA
ATOM     15  H   UNL A   1      33.374  25.044  21.501  1.00  0.00     0.172 HD
BRANCH  11  16
ATOM     16  S   UNL A   1      34.704  23.874  23.427  1.00  0.00    -0.083 SA
BRANCH  16  17
ATOM     17  C   UNL A   1      35.348  24.127  25.108  1.00  0.00     0.113 C 
BRANCH  17  18
ATOM     18  C   UNL A   1      36.584  23.320  25.440  1.00  0.00    -0.036 A 
ATOM     19  C   UNL A   1      37.655  23.897  26.140  1.00  0.00     0.005 A 
ATOM     20  C   UNL A   1      36.718  21.989  25.016  1.00  0.00     0.025 A 
ATOM     21  C   UNL A   1      38.815  23.161  26.407  1.00  0.00     0.002 A 
ATOM     22  C   UNL A   1      37.866  21.251  25.300  1.00  0.00     0.041 A 
ATOM     23  C   UNL A   1      38.919  21.831  25.996  1.00  0.00     0.020 A 
ATOM     24  Cl  UNL A   1      37.970  19.613  24.777  1.00  0.00    -0.084 Cl
ENDBRANCH  17  18
ENDBRANCH  16  17
ENDBRANCH  11  16
ENDBRANCH   6   7
ENDBRANCH   3   6
ENDBRANCH   1   2
BRANCH   1  25
ATOM     25  C   UNL A   1      33.186  29.355  24.884  1.00  0.00     0.023 C 
BRANCH  25  26
ATOM     26  C   UNL A   1      33.769  28.354  25.883  1.00  0.00     0.023 C 
BRANCH  26  27
ATOM     27  C   UNL A   1      33.470  28.642  27.350  1.00  0.00     0.116 C 
BRANCH  27  28
ATOM     28  N   UNL A   1      33.509  30.058  27.688  1.00  0.00    -0.352 N 
ATOM     29  C   UNL A   1      34.539  30.789  28.234  1.00  0.00     0.251 C 
ATOM     30  H   UNL A   1      32.685  30.562  27.502  1.00  0.00     0.163 HD
ATOM     31  O   UNL A   1      34.369  31.955  28.571  1.00  0.00    -0.269 OA
BRANCH  29  32
ATOM     32  C   UNL A   1      35.850  30.140  28.459  1.00  0.00     0.039 A 
ATOM     33  C   UNL A   1      36.803  30.179  27.438  1.00  0.00     0.014 A 
ATOM     34  C   UNL A   1      36.158  29.552  29.688  1.00  0.00     0.014 A 
ATOM     35  C   UNL A   1      38.098  29.716  27.684  1.00  0.00     0.010 A 
ATOM     36  C   UNL A   1      37.468  29.162  29.956  1.00  0.00     0.010 A 
ATOM     37  C   UNL A   1      38.456  29.255  28.963  1.00  0.00    -0.014 A 
BRANCH  37  38
ATOM     38  C   UNL A   1      39.862  28.908  29.294  1.00  0.00     0.031 A 
ATOM     39  C   UNL A   1      40.729  29.882  30.041  1.00  0.00     0.074 A 
ATOM     40  C   UNL A   1      40.386  27.751  28.842  1.00  0.00     0.049 A 
ATOM     41  N   UNL A   1      42.002  29.800  30.336  1.00  0.00    -0.248 NA
ATOM     42  C   UNL A   1      40.087  31.126  30.493  1.00  0.00     0.031 C 
ATOM     43  C   UNL A   1      39.665  26.746  28.058  1.00  0.00     0.029 A 
ATOM     44  N   UNL A   1      41.651  27.232  28.959  1.00  0.00    -0.354 N 
ATOM     45  C   UNL A   1      42.315  30.984  30.991  1.00  0.00     0.074 A 
ATOM     46  C   UNL A   1      41.113  31.789  31.007  1.00  0.00     0.031 C 
ATOM     47  C   UNL A   1      40.492  25.727  27.780  1.00  0.00     0.029 A 
ATOM     48  C   UNL A   1      41.814  26.024  28.325  1.00  0.00     0.049 A 
ATOM     49  H   UNL A   1      42.376  27.683  29.451  1.00  0.00     0.167 HD
ATOM     50  C   UNL A   1      43.493  31.356  31.545  1.00  0.00     0.037 A 
ATOM     51  C   UNL A   1      42.907  25.249  28.184  1.00  0.00     0.037 A 
ATOM     52  C   UNL A   1      44.681  30.542  31.549  1.00  0.00     0.049 A 
ATOM     53  C   UNL A   1      44.206  25.692  28.801  1.00  0.00     0.074 A 
ATOM     54  C   UNL A   1      45.900  30.799  32.153  1.00  0.00     0.029 A 
ATOM     55  N   UNL A   1      44.801  29.315  30.913  1.00  0.00    -0.354 N 
ATOM     56  N   UNL A   1      44.469  26.776  29.489  1.00  0.00    -0.248 NA
ATOM     57  C   UNL A   1      45.363  24.802  28.623  1.00  0.00     0.031 C 
ATOM     58  C   UNL A   1      46.773  29.754  31.837  1.00  0.00     0.029 A 
ATOM     59  C   UNL A   1      46.084  28.818  31.083  1.00  0.00     0.049 A 
ATOM     60  H   UNL A   1      44.082  28.864  30.414  1.00  0.00     0.167 HD
ATOM     61  C   UNL A   1      45.807  26.687  29.848  1.00  0.00     0.074 A 
ATOM     62  C   UNL A   1      46.299  25.434  29.315  1.00  0.00     0.031 C 
ATOM     63  C   UNL A   1      46.560  27.566  30.553  1.00  0.00     0.037 A 
BRANCH  50  64
ATOM     64  C   UNL A   1      43.561  32.706  32.197  1.00  0.00     0.064 A 
ATOM     65  C   UNL A   1      43.865  33.864  31.466  1.00  0.00     0.173 A 
ATOM     66  C   UNL A   1      43.272  32.852  33.563  1.00  0.00     0.173 A 
ATOM     67  F   UNL A   1      44.159  33.780  30.159  1.00  0.00    -0.203 F 
ATOM     68  C   UNL A   1      43.904  35.112  32.081  1.00  0.00     0.198 A 
ATOM     69  C   UNL A   1      43.281  34.105  34.169  1.00  0.00     0.198 A 
ATOM     70  F   UNL A   1      42.968  31.778  34.308  1.00  0.00    -0.203 F 
ATOM     71  F   UNL A   1      44.243  36.198  31.372  1.00  0.00    -0.200 F 
ATOM     72  C   UNL A   1      43.604  35.233  33.429  1.00  0.00     0.200 A 
ATOM     73  F   UNL A   1      42.975  34.222  35.469  1.00  0.00    -0.200 F 
ATOM     74  F   UNL A   1      43.632  36.436  34.019  1.00  0.00    -0.200 F 
ENDBRANCH  50  64
BRANCH  51  75
ATOM     75  C   UNL A   1      42.820  23.969  27.433  1.00  0.00     0.064 A 
ATOM     76  C   UNL A   1      42.411  22.788  28.067  1.00  0.00     0.173 A 
ATOM     77  C   UNL A   1      43.153  23.897  26.072  1.00  0.00     0.173 A 
ATOM     78  F   UNL A   1      42.105  22.801  29.373  1.00  0.00    -0.203 F 
ATOM     79  C   UNL A   1      42.359  21.579  27.376  1.00  0.00     0.198 A 
ATOM     80  C   UNL A   1      43.071  22.693  25.374  1.00  0.00     0.198 A 
ATOM     81  F   UNL A   1      43.545  24.998  25.417  1.00  0.00    -0.203 F 
ATOM     82  F   UNL A   1      42.012  20.457  28.019  1.00  0.00    -0.200 F 
ATOM     83  C   UNL A   1      42.683  21.534  26.028  1.00  0.00     0.200 A 
ATOM     84  F   UNL A   1      43.370  22.656  24.068  1.00  0.00    -0.200 F 
ATOM     85  F   UNL A   1      42.630  20.372  25.364  1.00  0.00    -0.200 F 
ENDBRANCH  51  75
BRANCH  63  86
ATOM     86  C   UNL A   1      47.990  27.194  30.818  1.00  0.00     0.064 A 
ATOM     87  C   UNL A   1      49.020  27.555  29.939  1.00  0.00     0.173 A 
ATOM     88  C   UNL A   1      48.339  26.513  31.994  1.00  0.00     0.173 A 
ATOM     89  F   UNL A   1      48.736  28.193  28.792  1.00  0.00    -0.203 F 
ATOM     90  C   UNL A   1      50.346  27.229  30.215  1.00  0.00     0.198 A 
ATOM     91  C   UNL A   1      49.668  26.216  32.284  1.00  0.00     0.198 A 
ATOM     92  F   UNL A   1      47.392  26.151  32.874  1.00  0.00    -0.203 F 
ATOM     93  F   UNL A   1      51.309  27.545  29.339  1.00  0.00    -0.200 F 
ATOM     94  C   UNL A   1      50.669  26.569  31.391  1.00  0.00     0.200 A 
ATOM     95  F   UNL A   1      49.980  25.591  33.428  1.00  0.00    -0.200 F 
ATOM     96  F   UNL A   1      51.946  26.267  31.662  1.00  0.00    -0.200 F 
ENDBRANCH  63  86
ENDBRANCH  37  38
ENDBRANCH  29  32
ENDBRANCH  27  28
ENDBRANCH  26  27
ENDBRANCH  25  26
ENDBRANCH   1  25
TORSDOF 15
ENDMDL
MODEL 3
REMARK VINA RESULT:     -12.9      1.213      7.391
REMARK SMILES Cc1nc(SCc2cccc(Cl)c2)[nH]c(=O)c1CC(=O)NCCCCNC(=O)c1ccc(-c2c3nc(c(-c4c(F)c(F)c(F)c(F)c4F)c4ccc([nH]4)c(-c4c(F)c(F)c(F)c(F)c4F)c4nc(c(-c5c(F)c(F)c(F)c(F)c5F)c5ccc2[nH]5)C=C4)C=C3)cc1
REMARK SMILES IDX 22 1 21 2 19 3 20 4 18 6 17 7 1 8 2 9 3 10 4 11 15 12 14 13
REMARK SMILES IDX 16 14 5 16 6 17 7 18 8 19 13 20 9 21 11 22 10 23 12 24 23 25
REMARK SMILES IDX 24 26 25 27 26 28 27 29 28 31 29 32 30 33 91 34 31 35 90 36
REMARK SMILES IDX 32 37 33 38 34 39 84 40 35 41 89 42 83 43 85 44 36 45 88 46
REMARK SMILES IDX 82 47 81 48 37 50 69 51 49 52 68 53 50 54 53 55 67 56 86 57
REMARK SMILES IDX 51 58 52 59 66 61 87 62 54 63 38 64 39 65 47 66 40 67 41 68
REMARK SMILES IDX 45 69 48 70 42 71 43 72 46 73 44 74 70 75 71 76 79 77 72 78
REMARK SMILES IDX 73 79 77 80 80 81 74 82 75 83 78 84 76 85 55 86 56 87 64 88
REMARK SMILES IDX 57 89 58 90 62 91 65 92 59 93 60 94 63 95 61 96
REMARK H PARENT 21 5 14 15 26 30 85 49 53 60
REMARK Flexibility Score: inf
ROOT
ATOM      1  C   UNL A   1      32.816  29.968  25.803  1.00  0.00     0.116 C 
ENDROOT
BRANCH   1   2
ATOM      2  N   UNL A   1      32.222  29.747  24.500  1.00  0.00    -0.356 N 
ATOM      3  C   UNL A   1      32.523  28.839  23.528  1.00  0.00     0.224 C 
ATOM      4  O   UNL A   1      31.800  28.818  22.528  1.00  0.00    -0.275 OA
ATOM      5  H   UNL A   1      31.477  30.353  24.280  1.00  0.00     0.163 HD
BRANCH   3   6
ATOM      6  C   UNL A   1      33.631  27.803  23.718  1.00  0.00     0.143 C 
BRANCH   6   7
ATOM      7  C   UNL A   1      33.178  26.372  23.697  1.00  0.00     0.048 A 
ATOM      8  C   UNL A   1      32.416  26.321  26.090  1.00  0.00     0.067 C 
ATOM      9  C   UNL A   1      32.653  25.692  24.738  1.00  0.00     0.049 A 
ATOM     10  N   UNL A   1      32.392  24.344  24.711  1.00  0.00    -0.229 NA
ATOM     11  C   UNL A   1      32.733  23.688  23.658  1.00  0.00     0.168 A 
ATOM     12  C   UNL A   1      33.366  25.616  22.431  1.00  0.00     0.255 A 
ATOM     13  N   UNL A   1      33.200  24.267  22.528  1.00  0.00    -0.301 N 
ATOM     14  O   UNL A   1      33.672  26.155  21.382  1.00  0.00    -0.269 OA
ATOM     15  H   UNL A   1      33.426  23.700  21.756  1.00  0.00     0.172 HD
BRANCH  11  16
ATOM     16  S   UNL A   1      32.661  21.959  23.553  1.00  0.00    -0.083 SA
BRANCH  16  17
ATOM     17  C   UNL A   1      33.471  21.461  25.101  1.00  0.00     0.113 C 
BRANCH  17  18
ATOM     18  C   UNL A   1      34.972  21.658  25.121  1.00  0.00    -0.036 A 
ATOM     19  C   UNL A   1      35.529  22.943  25.203  1.00  0.00     0.005 A 
ATOM     20  C   UNL A   1      35.848  20.568  25.010  1.00  0.00     0.025 A 
ATOM     21  C   UNL A   1      36.917  23.125  25.177  1.00  0.00     0.002 A 
ATOM     22  C   UNL A   1      37.231  20.748  25.004  1.00  0.00     0.041 A 
ATOM     23  C   UNL A   1      37.772  22.026  25.088  1.00  0.00     0.020 A 
ATOM     24  Cl  UNL A   1      38.263  19.375  24.888  1.00  0.00    -0.084 Cl
ENDBRANCH  17  18
ENDBRANCH  16  17
ENDBRANCH  11  16
ENDBRANCH   6   7
ENDBRANCH   3   6
ENDBRANCH   1   2
BRANCH   1  25
ATOM     25  C   UNL A   1      31.791  30.483  26.811  1.00  0.00     0.023 C 
BRANCH  25  26
ATOM     26  C   UNL A   1      31.591  31.999  26.798  1.00  0.00     0.023 C 
BRANCH  26  27
ATOM     27  C   UNL A   1      32.790  32.823  27.257  1.00  0.00     0.116 C 
BRANCH  27  28
ATOM     28  N   UNL A   1      32.453  34.191  27.623  1.00  0.00    -0.352 N 
ATOM     29  C   UNL A   1      32.999  34.983  28.607  1.00  0.00     0.251 C 
ATOM     30  H   UNL A   1      31.734  34.607  27.096  1.00  0.00     0.163 HD
ATOM     31  O   UNL A   1      32.516  36.080  28.867  1.00  0.00    -0.269 OA
BRANCH  29  32
ATOM     32  C   UNL A   1      34.150  34.481  29.389  1.00  0.00     0.039 A 
ATOM     33  C   UNL A   1      33.905  33.792  30.579  1.00  0.00     0.014 A 
ATOM     34  C   UNL A   1      35.457  34.634  28.920  1.00  0.00     0.014 A 
ATOM     35  C   UNL A   1      34.963  33.172  31.250  1.00  0.00     0.010 A 
ATOM     36  C   UNL A   1      36.498  33.953  29.546  1.00  0.00     0.010 A 
ATOM     37  C   UNL A   1      36.259  33.201  30.707  1.00  0.00    -0.014 A 
BRANCH  37  38
ATOM     38  C   UNL A   1      37.367  32.418  31.314  1.00  0.00     0.031 A 
ATOM     39  C   UNL A   1      37.900  32.781  32.670  1.00  0.00     0.074 A 
ATOM     40  C   UNL A   1      37.953  31.434  30.603  1.00  0.00     0.049 A 
ATOM     41  N   UNL A   1      38.920  32.281  33.321  1.00  0.00    -0.248 NA
ATOM     42  C   UNL A   1      37.213  33.872  33.380  1.00  0.00     0.031 C 
ATOM     43  C   UNL A   1      37.565  31.019  29.253  1.00  0.00     0.029 A 
ATOM     44  N   UNL A   1      39.012  30.615  30.907  1.00  0.00    -0.354 N 
ATOM     45  C   UNL A   1      39.007  33.004  34.503  1.00  0.00     0.074 A 
ATOM     46  C   UNL A   1      37.968  34.011  34.461  1.00  0.00     0.031 C 
ATOM     47  C   UNL A   1      38.362  30.016  28.854  1.00  0.00     0.029 A 
ATOM     48  C   UNL A   1      39.346  29.744  29.898  1.00  0.00     0.049 A 
ATOM     49  H   UNL A   1      39.489  30.647  31.769  1.00  0.00     0.167 HD
ATOM     50  C   UNL A   1      39.862  32.831  35.538  1.00  0.00     0.037 A 
ATOM     51  C   UNL A   1      40.341  28.840  29.814  1.00  0.00     0.037 A 
ATOM     52  C   UNL A   1      40.878  31.813  35.589  1.00  0.00     0.049 A 
ATOM     53  C   UNL A   1      41.284  28.676  30.975  1.00  0.00     0.074 A 
ATOM     54  C   UNL A   1      41.742  31.508  36.627  1.00  0.00     0.029 A 
ATOM     55  N   UNL A   1      41.173  30.937  34.555  1.00  0.00    -0.354 N 
ATOM     56  N   UNL A   1      41.303  29.310  32.122  1.00  0.00    -0.248 NA
ATOM     57  C   UNL A   1      42.344  27.667  30.831  1.00  0.00     0.031 C 
ATOM     58  C   UNL A   1      42.595  30.485  36.201  1.00  0.00     0.029 A 
ATOM     59  C   UNL A   1      42.227  30.113  34.918  1.00  0.00     0.049 A 
ATOM     60  H   UNL A   1      40.703  30.906  33.690  1.00  0.00     0.167 HD
ATOM     61  C   UNL A   1      42.355  28.763  32.844  1.00  0.00     0.074 A 
ATOM     62  C   UNL A   1      42.940  27.732  32.012  1.00  0.00     0.031 C 
ATOM     63  C   UNL A   1      42.797  29.087  34.084  1.00  0.00     0.037 A 
BRANCH  50  64
ATOM     64  C   UNL A   1      39.739  33.764  36.708  1.00  0.00     0.064 A 
ATOM     65  C   UNL A   1      40.402  35.000  36.739  1.00  0.00     0.173 A 
ATOM     66  C   UNL A   1      38.910  33.439  37.793  1.00  0.00     0.173 A 
ATOM     67  F   UNL A   1      41.215  35.356  35.731  1.00  0.00    -0.203 F 
ATOM     68  C   UNL A   1      40.261  35.863  37.822  1.00  0.00     0.198 A 
ATOM     69  C   UNL A   1      38.746  34.318  38.860  1.00  0.00     0.198 A 
ATOM     70  F   UNL A   1      38.247  32.273  37.812  1.00  0.00    -0.203 F 
ATOM     71  F   UNL A   1      40.941  37.018  37.850  1.00  0.00    -0.200 F 
ATOM     72  C   UNL A   1      39.427  35.526  38.877  1.00  0.00     0.200 A 
ATOM     73  F   UNL A   1      37.928  33.997  39.872  1.00  0.00    -0.200 F 
ATOM     74  F   UNL A   1      39.285  36.362  39.915  1.00  0.00    -0.200 F 
ENDBRANCH  50  64
BRANCH  51  75
ATOM     75  C   UNL A   1      40.493  28.012  28.588  1.00  0.00     0.064 A 
ATOM     76  C   UNL A   1      39.838  26.779  28.466  1.00  0.00     0.173 A 
ATOM     77  C   UNL A   1      41.301  28.430  27.521  1.00  0.00     0.173 A 
ATOM     78  F   UNL A   1      39.073  26.325  29.469  1.00  0.00    -0.203 F 
ATOM     79  C   UNL A   1      40.004  25.984  27.333  1.00  0.00     0.198 A 
ATOM     80  C   UNL A   1      41.441  27.648  26.375  1.00  0.00     0.198 A 
ATOM     81  F   UNL A   1      41.946  29.604  27.585  1.00  0.00    -0.203 F 
ATOM     82  F   UNL A   1      39.406  24.788  27.264  1.00  0.00    -0.200 F 
ATOM     83  C   UNL A   1      40.801  26.423  26.286  1.00  0.00     0.200 A 
ATOM     84  F   UNL A   1      42.200  28.083  25.359  1.00  0.00    -0.200 F 
ATOM     85  F   UNL A   1      40.957  25.660  25.196  1.00  0.00    -0.200 F 
ENDBRANCH  51  75
BRANCH  63  86
ATOM     86  C   UNL A   1      43.952  28.301  34.633  1.00  0.00     0.064 A 
ATOM     87  C   UNL A   1      43.761  27.094  35.320  1.00  0.00     0.173 A 
ATOM     88  C   UNL A   1      45.269  28.737  34.425  1.00  0.00     0.173 A 
ATOM     89  F   UNL A   1      42.520  26.642  35.560  1.00  0.00    -0.203 F 
ATOM     90  C   UNL A   1      44.846  26.361  35.796  1.00  0.00     0.198 A 
ATOM     91  C   UNL A   1      46.353  27.988  34.874  1.00  0.00     0.198 A 
ATOM     92  F   UNL A   1      45.507  29.882  33.767  1.00  0.00    -0.203 F 
ATOM     93  F   UNL A   1      44.639  25.233  36.488  1.00  0.00    -0.200 F 
ATOM     94  C   UNL A   1      46.140  26.804  35.565  1.00  0.00     0.200 A 
ATOM     95  F   UNL A   1      47.603  28.409  34.637  1.00  0.00    -0.200 F 
ATOM     96  F   UNL A   1      47.183  26.092  36.013  1.00  0.00    -0.200 F 
ENDBRANCH  63  86
ENDBRANCH  37  38
ENDBRANCH  29  32
ENDBRANCH  27  28
ENDBRANCH  26  27
ENDBRANCH  25  26
ENDBRANCH   1  25
TORSDOF 15
ENDMDL
