MODEL 1
REMARK VINA RESULT:     -12.6      0.000      0.000
REMARK SMILES COc1cc([C@@H]2[NH2+][C@H](C(=O)NCCCCNC(=O)c3ccc(-c4c5nc(c(-c6c(F)c(F)c(F)c(F)c6F)c6ccc([nH]6)c(-c6c(F)c(F)c(F)c(F)c6F)c6nc(c(-c7c(F)c(F)c(F)c(F)c7F)c7ccc4[nH]7)C=C6)C=C5)cc3)CS2)ccc1OCc1ccc(Cl)cc1
REMARK SMILES IDX 12 1 11 2 9 3 10 4 8 6 6 7 7 8 83 9 82 12 5 13 3 14 4 15
REMARK SMILES IDX 86 16 85 17 84 18 2 19 1 20 87 21 88 22 89 23 90 24 95 25
REMARK SMILES IDX 91 26 94 27 92 28 93 29 13 30 14 31 15 32 16 33 17 34 18 36
REMARK SMILES IDX 19 37 20 38 81 39 21 40 80 41 22 42 23 43 24 44 74 45 25 46
REMARK SMILES IDX 79 47 73 48 75 49 26 50 78 51 72 52 71 53 27 55 59 56 39 57
REMARK SMILES IDX 58 58 40 59 43 60 57 61 76 62 41 63 42 64 56 66 77 67 44 68
REMARK SMILES IDX 28 69 29 70 37 71 30 72 31 73 35 74 38 75 32 76 33 77 36 78
REMARK SMILES IDX 34 79 60 80 61 81 69 82 62 83 63 84 67 85 70 86 64 87 65 88
REMARK SMILES IDX 68 89 66 90 45 91 46 92 54 93 47 94 48 95 52 96 55 97 49 98
REMARK SMILES IDX 50 99 53 100 51 101
REMARK H PARENT 11 5 7 10 7 11 16 35 75 54 43 65
REMARK Flexibility Score: inf
ROOT
ATOM      1  C   UNL A   1      35.058  32.580  28.040  1.00  0.00     0.116 C 
ENDROOT
BRANCH   1   2
ATOM      2  N   UNL A   1      35.196  31.143  28.199  1.00  0.00    -0.351 N 
ATOM      3  C   UNL A   1      34.609  30.102  27.541  1.00  0.00     0.279 C 
ATOM      4  O   UNL A   1      34.932  28.964  27.900  1.00  0.00    -0.268 OA
ATOM      5  H   UNL A   1      35.825  30.872  28.907  1.00  0.00     0.163 HD
BRANCH   3   6
ATOM      6  C   UNL A   1      33.614  30.289  26.383  1.00  0.00     0.283 C 
ATOM      7  C   UNL A   1      32.847  29.181  24.362  1.00  0.00     0.274 C 
ATOM      8  N   UNL A   1      34.003  29.479  25.217  1.00  0.00    -0.321 N 
ATOM      9  S   UNL A   1      31.355  29.816  25.191  1.00  0.00    -0.088 SA
ATOM     10  H   UNL A   1      34.696  29.992  24.672  1.00  0.00     0.348 HD
ATOM     11  H   UNL A   1      34.390  28.597  25.554  1.00  0.00     0.348 HD
ATOM     12  C   UNL A   1      32.182  29.994  26.790  1.00  0.00     0.151 C 
BRANCH   7  13
ATOM     13  C   UNL A   1      32.881  27.677  24.103  1.00  0.00     0.024 A 
ATOM     14  C   UNL A   1      33.424  25.950  22.440  1.00  0.00     0.161 A 
ATOM     15  C   UNL A   1      32.893  27.209  22.767  1.00  0.00     0.061 A 
ATOM     16  C   UNL A   1      33.977  25.179  23.458  1.00  0.00     0.161 A 
ATOM     17  C   UNL A   1      33.744  25.536  24.789  1.00  0.00     0.051 A 
ATOM     18  C   UNL A   1      33.196  26.766  25.117  1.00  0.00     0.015 A 
BRANCH  14  19
ATOM     19  O   UNL A   1      33.558  25.653  21.112  1.00  0.00    -0.493 OA
ATOM     20  C   UNL A   1      32.281  25.566  20.471  1.00  0.00     0.278 C 
ENDBRANCH  14  19
BRANCH  16  21
ATOM     21  O   UNL A   1      35.023  24.305  23.344  1.00  0.00    -0.485 OA
BRANCH  21  22
ATOM     22  C   UNL A   1      35.017  23.023  23.946  1.00  0.00     0.265 C 
BRANCH  22  23
ATOM     23  C   UNL A   1      36.270  22.702  24.724  1.00  0.00    -0.011 A 
ATOM     24  C   UNL A   1      36.828  21.415  24.722  1.00  0.00     0.009 A 
ATOM     25  C   UNL A   1      36.894  23.701  25.478  1.00  0.00     0.009 A 
ATOM     26  C   UNL A   1      38.052  21.159  25.329  1.00  0.00     0.021 A 
ATOM     27  C   UNL A   1      38.111  23.443  26.110  1.00  0.00     0.021 A 
ATOM     28  C   UNL A   1      38.700  22.183  26.006  1.00  0.00     0.041 A 
ATOM     29  Cl  UNL A   1      40.239  21.894  26.712  1.00  0.00    -0.084 Cl
ENDBRANCH  22  23
ENDBRANCH  21  22
ENDBRANCH  16  21
ENDBRANCH   7  13
ENDBRANCH   3   6
ENDBRANCH   1   2
BRANCH   1  30
ATOM     30  C   UNL A   1      34.369  33.226  29.240  1.00  0.00     0.023 C 
BRANCH  30  31
ATOM     31  C   UNL A   1      33.333  34.326  28.980  1.00  0.00     0.023 C 
BRANCH  31  32
ATOM     32  C   UNL A   1      33.645  35.780  29.317  1.00  0.00     0.116 C 
BRANCH  32  33
ATOM     33  N   UNL A   1      32.820  36.392  30.348  1.00  0.00    -0.352 N 
ATOM     34  C   UNL A   1      32.814  36.184  31.710  1.00  0.00     0.251 C 
ATOM     35  H   UNL A   1      32.168  37.055  30.023  1.00  0.00     0.163 HD
ATOM     36  O   UNL A   1      32.020  36.769  32.447  1.00  0.00    -0.269 OA
BRANCH  34  37
ATOM     37  C   UNL A   1      33.784  35.245  32.295  1.00  0.00     0.039 A 
ATOM     38  C   UNL A   1      33.375  34.006  32.808  1.00  0.00     0.014 A 
ATOM     39  C   UNL A   1      35.129  35.603  32.282  1.00  0.00     0.014 A 
ATOM     40  C   UNL A   1      34.339  33.080  33.219  1.00  0.00     0.010 A 
ATOM     41  C   UNL A   1      36.082  34.656  32.598  1.00  0.00     0.010 A 
ATOM     42  C   UNL A   1      35.697  33.395  33.085  1.00  0.00    -0.014 A 
BRANCH  42  43
ATOM     43  C   UNL A   1      36.794  32.507  33.527  1.00  0.00     0.031 A 
ATOM     44  C   UNL A   1      37.483  32.851  34.815  1.00  0.00     0.074 A 
ATOM     45  C   UNL A   1      37.288  31.574  32.694  1.00  0.00     0.049 A 
ATOM     46  N   UNL A   1      38.653  32.482  35.262  1.00  0.00    -0.248 NA
ATOM     47  C   UNL A   1      36.785  33.821  35.676  1.00  0.00     0.031 C 
ATOM     48  C   UNL A   1      36.723  31.214  31.394  1.00  0.00     0.029 A 
ATOM     49  N   UNL A   1      38.418  30.805  32.795  1.00  0.00    -0.354 N 
ATOM     50  C   UNL A   1      38.854  33.221  36.421  1.00  0.00     0.074 A 
ATOM     51  C   UNL A   1      37.715  34.098  36.573  1.00  0.00     0.031 C 
ATOM     52  C   UNL A   1      37.522  30.307  30.807  1.00  0.00     0.029 A 
ATOM     53  C   UNL A   1      38.672  30.058  31.671  1.00  0.00     0.049 A 
ATOM     54  H   UNL A   1      38.992  30.789  33.595  1.00  0.00     0.167 HD
ATOM     55  C   UNL A   1      39.894  33.158  37.285  1.00  0.00     0.037 A 
ATOM     56  C   UNL A   1      39.733  29.286  31.369  1.00  0.00     0.037 A 
ATOM     57  C   UNL A   1      40.991  32.241  37.124  1.00  0.00     0.049 A 
ATOM     58  C   UNL A   1      40.846  29.168  32.376  1.00  0.00     0.074 A 
ATOM     59  C   UNL A   1      42.052  32.000  37.976  1.00  0.00     0.029 A 
ATOM     60  N   UNL A   1      41.156  31.405  36.027  1.00  0.00    -0.354 N 
ATOM     61  N   UNL A   1      41.003  29.809  33.510  1.00  0.00    -0.248 NA
ATOM     62  C   UNL A   1      41.919  28.215  32.071  1.00  0.00     0.031 C 
ATOM     63  C   UNL A   1      42.883  31.049  37.372  1.00  0.00     0.029 A 
ATOM     64  C   UNL A   1      42.312  30.657  36.170  1.00  0.00     0.049 A 
ATOM     65  H   UNL A   1      40.542  31.352  35.259  1.00  0.00     0.167 HD
ATOM     66  C   UNL A   1      42.178  29.324  34.066  1.00  0.00     0.074 A 
ATOM     67  C   UNL A   1      42.685  28.323  33.147  1.00  0.00     0.031 C 
ATOM     68  C   UNL A   1      42.785  29.669  35.231  1.00  0.00     0.037 A 
BRANCH  55  69
ATOM     69  C   UNL A   1      39.883  34.104  38.453  1.00  0.00     0.064 A 
ATOM     70  C   UNL A   1      40.507  35.362  38.398  1.00  0.00     0.173 A 
ATOM     71  C   UNL A   1      39.266  33.738  39.659  1.00  0.00     0.173 A 
ATOM     72  F   UNL A   1      41.123  35.761  37.275  1.00  0.00    -0.203 F 
ATOM     73  C   UNL A   1      40.566  36.187  39.519  1.00  0.00     0.198 A 
ATOM     74  C   UNL A   1      39.291  34.584  40.766  1.00  0.00     0.198 A 
ATOM     75  F   UNL A   1      38.650  32.552  39.773  1.00  0.00    -0.203 F 
ATOM     76  F   UNL A   1      41.243  37.342  39.462  1.00  0.00    -0.200 F 
ATOM     77  C   UNL A   1      39.954  35.799  40.701  1.00  0.00     0.200 A 
ATOM     78  F   UNL A   1      38.687  34.214  41.904  1.00  0.00    -0.200 F 
ATOM     79  F   UNL A   1      40.017  36.591  41.780  1.00  0.00    -0.200 F 
ENDBRANCH  55  69
BRANCH  56  80
ATOM     80  C   UNL A   1      39.760  28.549  30.078  1.00  0.00     0.064 A 
ATOM     81  C   UNL A   1      40.355  29.116  28.943  1.00  0.00     0.173 A 
ATOM     82  C   UNL A   1      39.253  27.246  29.965  1.00  0.00     0.173 A 
ATOM     83  F   UNL A   1      40.841  30.365  28.997  1.00  0.00    -0.203 F 
ATOM     84  C   UNL A   1      40.439  28.411  27.743  1.00  0.00     0.198 A 
ATOM     85  C   UNL A   1      39.359  26.533  28.771  1.00  0.00     0.198 A 
ATOM     86  F   UNL A   1      38.683  26.652  31.024  1.00  0.00    -0.203 F 
ATOM     87  F   UNL A   1      40.994  28.987  26.669  1.00  0.00    -0.200 F 
ATOM     88  C   UNL A   1      39.950  27.116  27.661  1.00  0.00     0.200 A 
ATOM     89  F   UNL A   1      38.902  25.274  28.702  1.00  0.00    -0.200 F 
ATOM     90  F   UNL A   1      40.051  26.431  26.514  1.00  0.00    -0.200 F 
ENDBRANCH  56  80
BRANCH  68  91
ATOM     91  C   UNL A   1      44.047  28.940  35.584  1.00  0.00     0.064 A 
ATOM     92  C   UNL A   1      44.024  27.727  36.288  1.00  0.00     0.173 A 
ATOM     93  C   UNL A   1      45.290  29.435  35.163  1.00  0.00     0.173 A 
ATOM     94  F   UNL A   1      42.860  27.220  36.722  1.00  0.00    -0.203 F 
ATOM     95  C   UNL A   1      45.203  27.050  36.580  1.00  0.00     0.198 A 
ATOM     96  C   UNL A   1      46.464  28.739  35.429  1.00  0.00     0.198 A 
ATOM     97  F   UNL A   1      45.363  30.586  34.478  1.00  0.00    -0.203 F 
ATOM     98  F   UNL A   1      45.163  25.916  37.293  1.00  0.00    -0.200 F 
ATOM     99  C   UNL A   1      46.421  27.550  36.143  1.00  0.00     0.200 A 
ATOM    100  F   UNL A   1      47.638  29.216  34.992  1.00  0.00    -0.200 F 
ATOM    101  F   UNL A   1      47.555  26.890  36.415  1.00  0.00    -0.200 F 
ENDBRANCH  68  91
ENDBRANCH  42  43
ENDBRANCH  34  37
ENDBRANCH  32  33
ENDBRANCH  31  32
ENDBRANCH  30  31
ENDBRANCH   1  30
TORSDOF 16
ENDMDL
MODEL 2
REMARK VINA RESULT:     -12.4      1.467      2.017
REMARK SMILES COc1cc([C@@H]2[NH2+][C@H](C(=O)NCCCCNC(=O)c3ccc(-c4c5nc(c(-c6c(F)c(F)c(F)c(F)c6F)c6ccc([nH]6)c(-c6c(F)c(F)c(F)c(F)c6F)c6nc(c(-c7c(F)c(F)c(F)c(F)c7F)c7ccc4[nH]7)C=C6)C=C5)cc3)CS2)ccc1OCc1ccc(Cl)cc1
REMARK SMILES IDX 12 1 11 2 9 3 10 4 8 6 6 7 7 8 83 9 82 12 5 13 3 14 4 15
REMARK SMILES IDX 86 16 85 17 84 18 2 19 1 20 87 21 88 22 89 23 90 24 95 25
REMARK SMILES IDX 91 26 94 27 92 28 93 29 13 30 14 31 15 32 16 33 17 34 18 36
REMARK SMILES IDX 19 37 20 38 81 39 21 40 80 41 22 42 23 43 24 44 74 45 25 46
REMARK SMILES IDX 79 47 73 48 75 49 26 50 78 51 72 52 71 53 27 55 59 56 39 57
REMARK SMILES IDX 58 58 40 59 43 60 57 61 76 62 41 63 42 64 56 66 77 67 44 68
REMARK SMILES IDX 28 69 29 70 37 71 30 72 31 73 35 74 38 75 32 76 33 77 36 78
REMARK SMILES IDX 34 79 60 80 61 81 69 82 62 83 63 84 67 85 70 86 64 87 65 88
REMARK SMILES IDX 68 89 66 90 45 91 46 92 54 93 47 94 48 95 52 96 55 97 49 98
REMARK SMILES IDX 50 99 53 100 51 101
REMARK H PARENT 11 5 7 10 7 11 16 35 75 54 43 65
REMARK Flexibility Score: inf
ROOT
ATOM      1  C   UNL A   1      34.491  32.580  27.732  1.00  0.00     0.116 C 
ENDROOT
BRANCH   1   2
ATOM      2  N   UNL A   1      35.236  31.350  27.927  1.00  0.00    -0.351 N 
ATOM      3  C   UNL A   1      34.949  30.058  27.595  1.00  0.00     0.279 C 
ATOM      4  O   UNL A   1      35.794  29.206  27.891  1.00  0.00    -0.268 OA
ATOM      5  H   UNL A   1      36.102  31.469  28.381  1.00  0.00     0.163 HD
BRANCH   3   6
ATOM      6  C   UNL A   1      33.664  29.643  26.859  1.00  0.00     0.283 C 
ATOM      7  C   UNL A   1      32.924  28.296  24.977  1.00  0.00     0.274 C 
ATOM      8  N   UNL A   1      33.962  29.201  25.486  1.00  0.00    -0.321 N 
ATOM      9  S   UNL A   1      31.755  27.961  26.332  1.00  0.00    -0.088 SA
ATOM     10  H   UNL A   1      34.017  30.019  24.879  1.00  0.00     0.348 HD
ATOM     11  H   UNL A   1      34.851  28.700  25.496  1.00  0.00     0.348 HD
ATOM     12  C   UNL A   1      32.879  28.580  27.607  1.00  0.00     0.151 C 
BRANCH   7  13
ATOM     13  C   UNL A   1      33.655  27.082  24.408  1.00  0.00     0.024 A 
ATOM     14  C   UNL A   1      34.438  24.807  24.911  1.00  0.00     0.161 A 
ATOM     15  C   UNL A   1      34.222  26.139  25.300  1.00  0.00     0.061 A 
ATOM     16  C   UNL A   1      34.047  24.416  23.634  1.00  0.00     0.161 A 
ATOM     17  C   UNL A   1      33.719  25.395  22.691  1.00  0.00     0.051 A 
ATOM     18  C   UNL A   1      33.531  26.717  23.064  1.00  0.00     0.015 A 
BRANCH  14  19
ATOM     19  O   UNL A   1      34.820  23.925  25.884  1.00  0.00    -0.493 OA
ATOM     20  C   UNL A   1      36.191  23.544  25.726  1.00  0.00     0.278 C 
ENDBRANCH  14  19
BRANCH  16  21
ATOM     21  O   UNL A   1      33.593  23.182  23.260  1.00  0.00    -0.485 OA
BRANCH  21  22
ATOM     22  C   UNL A   1      32.698  22.423  24.053  1.00  0.00     0.265 C 
BRANCH  22  23
ATOM     23  C   UNL A   1      32.952  20.937  24.019  1.00  0.00    -0.011 A 
ATOM     24  C   UNL A   1      32.150  20.070  23.262  1.00  0.00     0.009 A 
ATOM     25  C   UNL A   1      34.005  20.396  24.764  1.00  0.00     0.009 A 
ATOM     26  C   UNL A   1      32.471  18.723  23.128  1.00  0.00     0.021 A 
ATOM     27  C   UNL A   1      34.316  19.039  24.652  1.00  0.00     0.021 A 
ATOM     28  C   UNL A   1      33.567  18.217  23.811  1.00  0.00     0.041 A 
ATOM     29  Cl  UNL A   1      34.007  16.568  23.609  1.00  0.00    -0.084 Cl
ENDBRANCH  22  23
ENDBRANCH  21  22
ENDBRANCH  16  21
ENDBRANCH   7  13
ENDBRANCH   3   6
ENDBRANCH   1   2
BRANCH   1  30
ATOM     30  C   UNL A   1      34.332  33.367  29.030  1.00  0.00     0.023 C 
BRANCH  30  31
ATOM     31  C   UNL A   1      33.231  34.433  29.105  1.00  0.00     0.023 C 
BRANCH  31  32
ATOM     32  C   UNL A   1      33.567  35.869  29.495  1.00  0.00     0.116 C 
BRANCH  32  33
ATOM     33  N   UNL A   1      32.750  36.458  30.544  1.00  0.00    -0.352 N 
ATOM     34  C   UNL A   1      32.761  36.228  31.903  1.00  0.00     0.251 C 
ATOM     35  H   UNL A   1      32.090  37.121  30.238  1.00  0.00     0.163 HD
ATOM     36  O   UNL A   1      31.971  36.795  32.659  1.00  0.00    -0.269 OA
BRANCH  34  37
ATOM     37  C   UNL A   1      33.744  35.286  32.462  1.00  0.00     0.039 A 
ATOM     38  C   UNL A   1      33.359  34.014  32.906  1.00  0.00     0.014 A 
ATOM     39  C   UNL A   1      35.080  35.679  32.494  1.00  0.00     0.014 A 
ATOM     40  C   UNL A   1      34.339  33.094  33.291  1.00  0.00     0.010 A 
ATOM     41  C   UNL A   1      36.051  34.742  32.783  1.00  0.00     0.010 A 
ATOM     42  C   UNL A   1      35.691  33.449  33.200  1.00  0.00    -0.014 A 
BRANCH  42  43
ATOM     43  C   UNL A   1      36.802  32.570  33.621  1.00  0.00     0.031 A 
ATOM     44  C   UNL A   1      37.499  32.905  34.907  1.00  0.00     0.074 A 
ATOM     45  C   UNL A   1      37.299  31.654  32.772  1.00  0.00     0.049 A 
ATOM     46  N   UNL A   1      38.677  32.545  35.339  1.00  0.00    -0.248 NA
ATOM     47  C   UNL A   1      36.796  33.856  35.787  1.00  0.00     0.031 C 
ATOM     48  C   UNL A   1      36.727  31.303  31.472  1.00  0.00     0.029 A 
ATOM     49  N   UNL A   1      38.440  30.897  32.852  1.00  0.00    -0.354 N 
ATOM     50  C   UNL A   1      38.879  33.271  36.505  1.00  0.00     0.074 A 
ATOM     51  C   UNL A   1      37.731  34.133  36.679  1.00  0.00     0.031 C 
ATOM     52  C   UNL A   1      37.531  30.414  30.867  1.00  0.00     0.029 A 
ATOM     53  C   UNL A   1      38.692  30.168  31.717  1.00  0.00     0.049 A 
ATOM     54  H   UNL A   1      39.021  30.877  33.648  1.00  0.00     0.167 HD
ATOM     55  C   UNL A   1      39.928  33.210  37.359  1.00  0.00     0.037 A 
ATOM     56  C   UNL A   1      39.760  29.412  31.396  1.00  0.00     0.037 A 
ATOM     57  C   UNL A   1      41.034  32.309  37.177  1.00  0.00     0.049 A 
ATOM     58  C   UNL A   1      40.883  29.295  32.391  1.00  0.00     0.074 A 
ATOM     59  C   UNL A   1      42.106  32.070  38.016  1.00  0.00     0.029 A 
ATOM     60  N   UNL A   1      41.200  31.489  36.067  1.00  0.00    -0.354 N 
ATOM     61  N   UNL A   1      41.043  29.923  33.532  1.00  0.00    -0.248 NA
ATOM     62  C   UNL A   1      41.965  28.359  32.064  1.00  0.00     0.031 C 
ATOM     63  C   UNL A   1      42.943  31.137  37.393  1.00  0.00     0.029 A 
ATOM     64  C   UNL A   1      42.365  30.753  36.191  1.00  0.00     0.049 A 
ATOM     65  H   UNL A   1      40.579  31.438  35.305  1.00  0.00     0.167 HD
ATOM     66  C   UNL A   1      42.228  29.445  34.071  1.00  0.00     0.074 A 
ATOM     67  C   UNL A   1      42.739  28.463  33.135  1.00  0.00     0.031 C 
ATOM     68  C   UNL A   1      42.841  29.783  35.235  1.00  0.00     0.037 A 
BRANCH  55  69
ATOM     69  C   UNL A   1      39.915  34.141  38.539  1.00  0.00     0.064 A 
ATOM     70  C   UNL A   1      40.528  35.405  38.497  1.00  0.00     0.173 A 
ATOM     71  C   UNL A   1      39.310  33.754  39.744  1.00  0.00     0.173 A 
ATOM     72  F   UNL A   1      41.134  35.824  37.375  1.00  0.00    -0.203 F 
ATOM     73  C   UNL A   1      40.587  36.216  39.628  1.00  0.00     0.198 A 
ATOM     74  C   UNL A   1      39.334  34.586  40.862  1.00  0.00     0.198 A 
ATOM     75  F   UNL A   1      38.705  32.561  39.847  1.00  0.00    -0.203 F 
ATOM     76  F   UNL A   1      41.254  37.378  39.582  1.00  0.00    -0.200 F 
ATOM     77  C   UNL A   1      39.986  35.808  40.808  1.00  0.00     0.200 A 
ATOM     78  F   UNL A   1      38.741  34.196  41.999  1.00  0.00    -0.200 F 
ATOM     79  F   UNL A   1      40.049  36.587  41.897  1.00  0.00    -0.200 F 
ENDBRANCH  55  69
BRANCH  56  80
ATOM     80  C   UNL A   1      39.784  28.692  30.095  1.00  0.00     0.064 A 
ATOM     81  C   UNL A   1      40.382  29.272  28.968  1.00  0.00     0.173 A 
ATOM     82  C   UNL A   1      39.272  27.393  29.965  1.00  0.00     0.173 A 
ATOM     83  F   UNL A   1      40.873  30.517  29.038  1.00  0.00    -0.203 F 
ATOM     84  C   UNL A   1      40.462  28.582  27.759  1.00  0.00     0.198 A 
ATOM     85  C   UNL A   1      39.374  26.695  28.762  1.00  0.00     0.198 A 
ATOM     86  F   UNL A   1      38.699  26.787  31.016  1.00  0.00    -0.203 F 
ATOM     87  F   UNL A   1      41.021  29.170  26.693  1.00  0.00    -0.200 F 
ATOM     88  C   UNL A   1      39.968  27.291  27.660  1.00  0.00     0.200 A 
ATOM     89  F   UNL A   1      38.913  25.439  28.676  1.00  0.00    -0.200 F 
ATOM     90  F   UNL A   1      40.067  26.620  26.503  1.00  0.00    -0.200 F 
ENDBRANCH  56  80
BRANCH  68  91
ATOM     91  C   UNL A   1      44.115  29.064  35.567  1.00  0.00     0.064 A 
ATOM     92  C   UNL A   1      44.115  27.858  36.283  1.00  0.00     0.173 A 
ATOM     93  C   UNL A   1      45.346  29.564  35.115  1.00  0.00     0.173 A 
ATOM     94  F   UNL A   1      42.964  27.349  36.746  1.00  0.00    -0.203 F 
ATOM     95  C   UNL A   1      45.305  27.191  36.556  1.00  0.00     0.198 A 
ATOM     96  C   UNL A   1      46.530  28.877  35.362  1.00  0.00     0.198 A 
ATOM     97  F   UNL A   1      45.397  30.709  34.419  1.00  0.00    -0.203 F 
ATOM     98  F   UNL A   1      45.287  26.064  37.279  1.00  0.00    -0.200 F 
ATOM     99  C   UNL A   1      46.510  27.695  36.088  1.00  0.00     0.200 A 
ATOM    100  F   UNL A   1      47.691  29.357  34.896  1.00  0.00    -0.200 F 
ATOM    101  F   UNL A   1      47.653  27.044  36.342  1.00  0.00    -0.200 F 
ENDBRANCH  68  91
ENDBRANCH  42  43
ENDBRANCH  34  37
ENDBRANCH  32  33
ENDBRANCH  31  32
ENDBRANCH  30  31
ENDBRANCH   1  30
TORSDOF 16
ENDMDL
MODEL 3
REMARK VINA RESULT:     -12.3      1.281      1.899
REMARK SMILES COc1cc([C@@H]2[NH2+][C@H](C(=O)NCCCCNC(=O)c3ccc(-c4c5nc(c(-c6c(F)c(F)c(F)c(F)c6F)c6ccc([nH]6)c(-c6c(F)c(F)c(F)c(F)c6F)c6nc(c(-c7c(F)c(F)c(F)c(F)c7F)c7ccc4[nH]7)C=C6)C=C5)cc3)CS2)ccc1OCc1ccc(Cl)cc1
REMARK SMILES IDX 12 1 11 2 9 3 10 4 8 6 6 7 7 8 83 9 82 12 5 13 3 14 4 15
REMARK SMILES IDX 86 16 85 17 84 18 2 19 1 20 87 21 88 22 89 23 90 24 95 25
REMARK SMILES IDX 91 26 94 27 92 28 93 29 13 30 14 31 15 32 16 33 17 34 18 36
REMARK SMILES IDX 19 37 20 38 81 39 21 40 80 41 22 42 23 43 24 44 74 45 25 46
REMARK SMILES IDX 79 47 73 48 75 49 26 50 78 51 72 52 71 53 27 55 59 56 39 57
REMARK SMILES IDX 58 58 40 59 43 60 57 61 76 62 41 63 42 64 56 66 77 67 44 68
REMARK SMILES IDX 28 69 29 70 37 71 30 72 31 73 35 74 38 75 32 76 33 77 36 78
REMARK SMILES IDX 34 79 60 80 61 81 69 82 62 83 63 84 67 85 70 86 64 87 65 88
REMARK SMILES IDX 68 89 66 90 45 91 46 92 54 93 47 94 48 95 52 96 55 97 49 98
REMARK SMILES IDX 50 99 53 100 51 101
REMARK H PARENT 11 5 7 10 7 11 16 35 75 54 43 65
REMARK Flexibility Score: inf
ROOT
ATOM      1  C   UNL A   1      34.557  32.615  27.892  1.00  0.00     0.116 C 
ENDROOT
BRANCH   1   2
ATOM      2  N   UNL A   1      34.663  31.197  28.187  1.00  0.00    -0.351 N 
ATOM      3  C   UNL A   1      34.192  30.101  27.526  1.00  0.00     0.279 C 
ATOM      4  O   UNL A   1      34.447  28.998  28.024  1.00  0.00    -0.268 OA
ATOM      5  H   UNL A   1      35.162  30.991  29.011  1.00  0.00     0.163 HD
BRANCH   3   6
ATOM      6  C   UNL A   1      33.407  30.185  26.206  1.00  0.00     0.283 C 
ATOM      7  C   UNL A   1      32.875  28.853  24.245  1.00  0.00     0.274 C 
ATOM      8  N   UNL A   1      33.905  29.197  25.233  1.00  0.00    -0.321 N 
ATOM      9  S   UNL A   1      31.330  29.686  24.728  1.00  0.00    -0.088 SA
ATOM     10  H   UNL A   1      34.714  29.586  24.749  1.00  0.00     0.348 HD
ATOM     11  H   UNL A   1      34.161  28.349  25.739  1.00  0.00     0.348 HD
ATOM     12  C   UNL A   1      31.910  30.036  26.405  1.00  0.00     0.151 C 
BRANCH   7  13
ATOM     13  C   UNL A   1      32.825  27.328  24.190  1.00  0.00     0.024 A 
ATOM     14  C   UNL A   1      33.307  25.365  22.791  1.00  0.00     0.161 A 
ATOM     15  C   UNL A   1      32.844  26.684  22.929  1.00  0.00     0.061 A 
ATOM     16  C   UNL A   1      33.786  24.709  23.920  1.00  0.00     0.161 A 
ATOM     17  C   UNL A   1      33.540  25.254  25.184  1.00  0.00     0.051 A 
ATOM     18  C   UNL A   1      33.058  26.547  25.326  1.00  0.00     0.015 A 
BRANCH  14  19
ATOM     19  O   UNL A   1      33.457  24.884  21.519  1.00  0.00    -0.493 OA
ATOM     20  C   UNL A   1      32.600  25.573  20.602  1.00  0.00     0.278 C 
ENDBRANCH  14  19
BRANCH  16  21
ATOM     21  O   UNL A   1      34.779  23.770  23.960  1.00  0.00    -0.485 OA
BRANCH  21  22
ATOM     22  C   UNL A   1      34.974  22.908  25.067  1.00  0.00     0.265 C 
BRANCH  22  23
ATOM     23  C   UNL A   1      34.321  21.556  24.917  1.00  0.00    -0.011 A 
ATOM     24  C   UNL A   1      35.078  20.386  24.755  1.00  0.00     0.009 A 
ATOM     25  C   UNL A   1      32.926  21.455  24.928  1.00  0.00     0.009 A 
ATOM     26  C   UNL A   1      34.477  19.133  24.753  1.00  0.00     0.021 A 
ATOM     27  C   UNL A   1      32.316  20.199  24.901  1.00  0.00     0.021 A 
ATOM     28  C   UNL A   1      33.095  19.044  24.846  1.00  0.00     0.041 A 
ATOM     29  Cl  UNL A   1      32.345  17.499  24.901  1.00  0.00    -0.084 Cl
ENDBRANCH  22  23
ENDBRANCH  21  22
ENDBRANCH  16  21
ENDBRANCH   7  13
ENDBRANCH   3   6
ENDBRANCH   1   2
BRANCH   1  30
ATOM     30  C   UNL A   1      34.366  33.451  29.155  1.00  0.00     0.023 C 
BRANCH  30  31
ATOM     31  C   UNL A   1      33.247  34.500  29.172  1.00  0.00     0.023 C 
BRANCH  31  32
ATOM     32  C   UNL A   1      33.542  35.943  29.566  1.00  0.00     0.116 C 
BRANCH  32  33
ATOM     33  N   UNL A   1      32.712  36.505  30.620  1.00  0.00    -0.352 N 
ATOM     34  C   UNL A   1      32.713  36.245  31.974  1.00  0.00     0.251 C 
ATOM     35  H   UNL A   1      32.051  37.170  30.323  1.00  0.00     0.163 HD
ATOM     36  O   UNL A   1      31.913  36.791  32.734  1.00  0.00    -0.269 OA
BRANCH  34  37
ATOM     37  C   UNL A   1      33.697  35.298  32.521  1.00  0.00     0.039 A 
ATOM     38  C   UNL A   1      33.320  34.005  32.911  1.00  0.00     0.014 A 
ATOM     39  C   UNL A   1      35.026  35.707  32.595  1.00  0.00     0.014 A 
ATOM     40  C   UNL A   1      34.305  33.086  33.285  1.00  0.00     0.010 A 
ATOM     41  C   UNL A   1      36.004  34.774  32.873  1.00  0.00     0.010 A 
ATOM     42  C   UNL A   1      35.653  33.462  33.237  1.00  0.00    -0.014 A 
BRANCH  42  43
ATOM     43  C   UNL A   1      36.768  32.583  33.651  1.00  0.00     0.031 A 
ATOM     44  C   UNL A   1      37.467  32.915  34.936  1.00  0.00     0.074 A 
ATOM     45  C   UNL A   1      37.264  31.672  32.797  1.00  0.00     0.049 A 
ATOM     46  N   UNL A   1      38.647  32.556  35.363  1.00  0.00    -0.248 NA
ATOM     47  C   UNL A   1      36.765  33.861  35.821  1.00  0.00     0.031 C 
ATOM     48  C   UNL A   1      36.688  31.324  31.498  1.00  0.00     0.029 A 
ATOM     49  N   UNL A   1      38.406  30.917  32.871  1.00  0.00    -0.354 N 
ATOM     50  C   UNL A   1      38.851  33.278  36.532  1.00  0.00     0.074 A 
ATOM     51  C   UNL A   1      37.702  34.137  36.712  1.00  0.00     0.031 C 
ATOM     52  C   UNL A   1      37.493  30.439  30.886  1.00  0.00     0.029 A 
ATOM     53  C   UNL A   1      38.657  30.193  31.732  1.00  0.00     0.049 A 
ATOM     54  H   UNL A   1      38.990  30.896  33.665  1.00  0.00     0.167 HD
ATOM     55  C   UNL A   1      39.903  33.215  37.383  1.00  0.00     0.037 A 
ATOM     56  C   UNL A   1      39.725  29.441  31.405  1.00  0.00     0.037 A 
ATOM     57  C   UNL A   1      41.010  32.317  37.194  1.00  0.00     0.049 A 
ATOM     58  C   UNL A   1      40.851  29.322  32.396  1.00  0.00     0.074 A 
ATOM     59  C   UNL A   1      42.085  32.077  38.028  1.00  0.00     0.029 A 
ATOM     60  N   UNL A   1      41.174  31.502  36.080  1.00  0.00    -0.354 N 
ATOM     61  N   UNL A   1      41.013  29.946  33.539  1.00  0.00    -0.248 NA
ATOM     62  C   UNL A   1      41.934  28.390  32.063  1.00  0.00     0.031 C 
ATOM     63  C   UNL A   1      42.922  31.148  37.399  1.00  0.00     0.029 A 
ATOM     64  C   UNL A   1      42.342  30.769  36.197  1.00  0.00     0.049 A 
ATOM     65  H   UNL A   1      40.551  31.453  35.319  1.00  0.00     0.167 HD
ATOM     66  C   UNL A   1      42.202  29.468  34.073  1.00  0.00     0.074 A 
ATOM     67  C   UNL A   1      42.712  28.491  33.132  1.00  0.00     0.031 C 
ATOM     68  C   UNL A   1      42.817  29.803  35.236  1.00  0.00     0.037 A 
BRANCH  55  69
ATOM     69  C   UNL A   1      39.892  34.142  38.566  1.00  0.00     0.064 A 
ATOM     70  C   UNL A   1      39.267  33.796  39.777  1.00  0.00     0.173 A 
ATOM     71  C   UNL A   1      40.487  35.410  38.482  1.00  0.00     0.173 A 
ATOM     72  F   UNL A   1      38.671  32.602  39.911  1.00  0.00    -0.203 F 
ATOM     73  C   UNL A   1      39.186  34.704  40.831  1.00  0.00     0.198 A 
ATOM     74  C   UNL A   1      40.441  36.300  39.554  1.00  0.00     0.198 A 
ATOM     75  F   UNL A   1      41.102  35.797  37.355  1.00  0.00    -0.203 F 
ATOM     76  F   UNL A   1      38.508  34.378  41.940  1.00  0.00    -0.200 F 
ATOM     77  C   UNL A   1      39.777  35.953  40.720  1.00  0.00     0.200 A 
ATOM     78  F   UNL A   1      41.024  37.502  39.451  1.00  0.00    -0.200 F 
ATOM     79  F   UNL A   1      39.693  36.826  41.733  1.00  0.00    -0.200 F 
ENDBRANCH  55  69
BRANCH  56  80
ATOM     80  C   UNL A   1      39.747  28.726  30.101  1.00  0.00     0.064 A 
ATOM     81  C   UNL A   1      40.318  29.321  28.968  1.00  0.00     0.173 A 
ATOM     82  C   UNL A   1      39.260  27.417  29.973  1.00  0.00     0.173 A 
ATOM     83  F   UNL A   1      40.784  30.577  29.037  1.00  0.00    -0.203 F 
ATOM     84  C   UNL A   1      40.397  28.638  27.756  1.00  0.00     0.198 A 
ATOM     85  C   UNL A   1      39.361  26.725  28.766  1.00  0.00     0.198 A 
ATOM     86  F   UNL A   1      38.714  26.796  31.029  1.00  0.00    -0.203 F 
ATOM     87  F   UNL A   1      40.929  29.240  26.685  1.00  0.00    -0.200 F 
ATOM     88  C   UNL A   1      39.928  27.337  27.658  1.00  0.00     0.200 A 
ATOM     89  F   UNL A   1      38.924  25.460  28.682  1.00  0.00    -0.200 F 
ATOM     90  F   UNL A   1      40.025  26.672  26.498  1.00  0.00    -0.200 F 
ENDBRANCH  56  80
BRANCH  68  91
ATOM     91  C   UNL A   1      44.094  29.086  35.562  1.00  0.00     0.064 A 
ATOM     92  C   UNL A   1      44.095  27.856  36.236  1.00  0.00     0.173 A 
ATOM     93  C   UNL A   1      45.326  29.612  35.145  1.00  0.00     0.173 A 
ATOM     94  F   UNL A   1      42.943  27.320  36.665  1.00  0.00    -0.203 F 
ATOM     95  C   UNL A   1      45.288  27.191  36.503  1.00  0.00     0.198 A 
ATOM     96  C   UNL A   1      46.513  28.929  35.385  1.00  0.00     0.198 A 
ATOM     97  F   UNL A   1      45.374  30.781  34.489  1.00  0.00    -0.203 F 
ATOM     98  F   UNL A   1      45.272  26.039  37.187  1.00  0.00    -0.200 F 
ATOM     99  C   UNL A   1      46.494  27.722  36.070  1.00  0.00     0.200 A 
ATOM    100  F   UNL A   1      47.675  29.436  34.952  1.00  0.00    -0.200 F 
ATOM    101  F   UNL A   1      47.640  27.074  36.318  1.00  0.00    -0.200 F 
ENDBRANCH  68  91
ENDBRANCH  42  43
ENDBRANCH  34  37
ENDBRANCH  32  33
ENDBRANCH  31  32
ENDBRANCH  30  31
ENDBRANCH   1  30
TORSDOF 16
ENDMDL
