MODEL 1
REMARK VINA RESULT:     -11.4      0.000      0.000
REMARK SMILES C[C@@H](O)[C@@H](NC(=O)CN(C)C(=O)c1cccs1)C(=O)NCCCCNC(=O)c1ccc(-c2c3nc(c(-c4c(F)c(F)c(F)c(F)c4F)c4ccc([nH]4)c(-c4c(F)c(F)c(F)c(F)c4F)c4nc(c(-c5c(F)c(F)c(F)c(F)c5F)c5ccc2[nH]5)C=C4)C=C3)cc1
REMARK SMILES IDX 21 1 20 2 18 3 19 4 4 6 2 7 1 8 3 9 5 11 6 12 7 14 8 15 9 16
REMARK SMILES IDX 10 17 11 18 12 19 13 20 14 21 17 22 15 23 16 24 22 25 23 26
REMARK SMILES IDX 24 27 25 28 26 29 27 31 28 32 29 33 90 34 30 35 89 36 31 37
REMARK SMILES IDX 32 38 33 39 83 40 34 41 88 42 82 43 84 44 35 45 87 46 81 47
REMARK SMILES IDX 80 48 36 50 68 51 48 52 67 53 49 54 52 55 66 56 85 57 50 58
REMARK SMILES IDX 51 59 65 61 86 62 53 63 37 64 38 65 46 66 39 67 40 68 44 69
REMARK SMILES IDX 47 70 41 71 42 72 45 73 43 74 69 75 70 76 78 77 71 78 72 79
REMARK SMILES IDX 76 80 79 81 73 82 74 83 77 84 75 85 54 86 55 87 63 88 56 89
REMARK SMILES IDX 57 90 61 91 64 92 58 93 59 94 62 95 60 96
REMARK H PARENT 20 5 3 10 5 13 25 30 84 49 52 60
REMARK Flexibility Score: inf
ROOT
ATOM      1  C   UNL A   1      32.383  29.801  26.090  1.00  0.00     0.116 C 
ENDROOT
BRANCH   1   2
ATOM      2  N   UNL A   1      33.137  29.569  24.876  1.00  0.00    -0.354 N 
ATOM      3  C   UNL A   1      32.730  29.096  23.647  1.00  0.00     0.245 C 
ATOM      4  O   UNL A   1      33.529  29.297  22.721  1.00  0.00    -0.273 OA
ATOM      5  H   UNL A   1      34.096  29.784  24.938  1.00  0.00     0.163 HD
BRANCH   3   6
ATOM      6  C   UNL A   1      31.358  28.392  23.336  1.00  0.00     0.200 C 
BRANCH   6   7
ATOM      7  C   UNL A   1      30.332  29.160  22.461  1.00  0.00     0.143 C 
ATOM      8  C   UNL A   1      29.394  30.050  23.291  1.00  0.00     0.041 C 
BRANCH   7   9
ATOM      9  O   UNL A   1      31.013  30.079  21.593  1.00  0.00    -0.391 OA
ATOM     10  H   UNL A   1      30.375  30.483  20.986  1.00  0.00     0.211 HD
ENDBRANCH   7   9
ENDBRANCH   6   7
BRANCH   6  11
ATOM     11  N   UNL A   1      31.186  26.910  23.315  1.00  0.00    -0.341 N 
ATOM     12  C   UNL A   1      31.719  25.802  22.749  1.00  0.00     0.240 C 
ATOM     13  H   UNL A   1      30.440  26.655  23.907  1.00  0.00     0.164 HD
ATOM     14  O   UNL A   1      31.038  24.774  22.849  1.00  0.00    -0.273 OA
BRANCH  12  15
ATOM     15  C   UNL A   1      33.167  25.693  22.317  1.00  0.00     0.219 C 
BRANCH  15  16
ATOM     16  N   UNL A   1      34.022  24.981  23.246  1.00  0.00    -0.332 N 
ATOM     17  C   UNL A   1      33.976  25.622  24.550  1.00  0.00     0.147 C 
BRANCH  16  18
ATOM     18  C   UNL A   1      34.296  23.619  22.866  1.00  0.00     0.264 C 
ATOM     19  O   UNL A   1      33.818  23.234  21.794  1.00  0.00    -0.268 OA
BRANCH  18  20
ATOM     20  C   UNL A   1      35.278  22.725  23.535  1.00  0.00     0.092 A 
ATOM     21  C   UNL A   1      36.660  22.597  23.550  1.00  0.00     0.025 A 
ATOM     22  S   UNL A   1      34.652  21.780  24.859  1.00  0.00    -0.139 S 
ATOM     23  C   UNL A   1      37.189  21.718  24.541  1.00  0.00     0.012 A 
ATOM     24  C   UNL A   1      36.197  21.233  25.347  1.00  0.00     0.065 A 
ENDBRANCH  18  20
ENDBRANCH  16  18
ENDBRANCH  15  16
ENDBRANCH  12  15
ENDBRANCH   6  11
ENDBRANCH   3   6
ENDBRANCH   1   2
BRANCH   1  25
ATOM     25  C   UNL A   1      31.404  31.016  26.164  1.00  0.00     0.023 C 
BRANCH  25  26
ATOM     26  C   UNL A   1      31.578  32.454  26.766  1.00  0.00     0.023 C 
BRANCH  26  27
ATOM     27  C   UNL A   1      32.791  33.365  27.200  1.00  0.00     0.116 C 
BRANCH  27  28
ATOM     28  N   UNL A   1      32.658  34.568  28.006  1.00  0.00    -0.352 N 
ATOM     29  C   UNL A   1      33.297  35.001  29.143  1.00  0.00     0.251 C 
ATOM     30  H   UNL A   1      31.975  35.194  27.672  1.00  0.00     0.163 HD
ATOM     31  O   UNL A   1      32.960  36.036  29.700  1.00  0.00    -0.269 OA
BRANCH  29  32
ATOM     32  C   UNL A   1      34.383  34.210  29.689  1.00  0.00     0.039 A 
ATOM     33  C   UNL A   1      35.705  34.466  29.310  1.00  0.00     0.014 A 
ATOM     34  C   UNL A   1      34.037  33.192  30.568  1.00  0.00     0.014 A 
ATOM     35  C   UNL A   1      36.719  33.705  29.878  1.00  0.00     0.010 A 
ATOM     36  C   UNL A   1      35.044  32.473  31.166  1.00  0.00     0.010 A 
ATOM     37  C   UNL A   1      36.383  32.719  30.816  1.00  0.00    -0.014 A 
BRANCH  37  38
ATOM     38  C   UNL A   1      37.379  31.840  31.445  1.00  0.00     0.031 A 
ATOM     39  C   UNL A   1      37.850  32.196  32.820  1.00  0.00     0.074 A 
ATOM     40  C   UNL A   1      37.991  30.915  30.688  1.00  0.00     0.049 A 
ATOM     41  N   UNL A   1      38.930  31.825  33.449  1.00  0.00    -0.248 NA
ATOM     42  C   UNL A   1      37.026  33.175  33.554  1.00  0.00     0.031 C 
ATOM     43  C   UNL A   1      37.631  30.570  29.311  1.00  0.00     0.029 A 
ATOM     44  N   UNL A   1      39.086  30.142  30.954  1.00  0.00    -0.354 N 
ATOM     45  C   UNL A   1      38.946  32.563  34.625  1.00  0.00     0.074 A 
ATOM     46  C   UNL A   1      37.790  33.432  34.603  1.00  0.00     0.031 C 
ATOM     47  C   UNL A   1      38.505  29.663  28.845  1.00  0.00     0.029 A 
ATOM     48  C   UNL A   1      39.498  29.394  29.879  1.00  0.00     0.049 A 
ATOM     49  H   UNL A   1      39.537  30.124  31.830  1.00  0.00     0.167 HD
ATOM     50  C   UNL A   1      39.849  32.504  35.630  1.00  0.00     0.037 A 
ATOM     51  C   UNL A   1      40.572  28.596  29.757  1.00  0.00     0.037 A 
ATOM     52  C   UNL A   1      40.959  31.588  35.632  1.00  0.00     0.049 A 
ATOM     53  C   UNL A   1      41.490  28.458  30.939  1.00  0.00     0.074 A 
ATOM     54  C   UNL A   1      41.901  31.368  36.619  1.00  0.00     0.029 A 
ATOM     55  N   UNL A   1      41.257  30.723  34.587  1.00  0.00    -0.354 N 
ATOM     56  N   UNL A   1      41.478  29.114  32.075  1.00  0.00    -0.248 NA
ATOM     57  C   UNL A   1      42.555  27.454  30.833  1.00  0.00     0.031 C 
ATOM     58  C   UNL A   1      42.779  30.378  36.163  1.00  0.00     0.029 A 
ATOM     59  C   UNL A   1      42.362  29.955  34.910  1.00  0.00     0.049 A 
ATOM     60  H   UNL A   1      40.758  30.666  33.741  1.00  0.00     0.167 HD
ATOM     61  C   UNL A   1      42.508  28.580  32.835  1.00  0.00     0.074 A 
ATOM     62  C   UNL A   1      43.116  27.538  32.030  1.00  0.00     0.031 C 
ATOM     63  C   UNL A   1      42.921  28.916  34.083  1.00  0.00     0.037 A 
BRANCH  50  64
ATOM     64  C   UNL A   1      39.661  33.433  36.793  1.00  0.00     0.064 A 
ATOM     65  C   UNL A   1      40.278  34.693  36.838  1.00  0.00     0.173 A 
ATOM     66  C   UNL A   1      38.843  33.069  37.873  1.00  0.00     0.173 A 
ATOM     67  F   UNL A   1      41.084  35.087  35.839  1.00  0.00    -0.203 F 
ATOM     68  C   UNL A   1      40.110  35.539  37.932  1.00  0.00     0.198 A 
ATOM     69  C   UNL A   1      38.652  33.930  38.951  1.00  0.00     0.198 A 
ATOM     70  F   UNL A   1      38.230  31.876  37.886  1.00  0.00    -0.203 F 
ATOM     71  F   UNL A   1      40.757  36.712  37.975  1.00  0.00    -0.200 F 
ATOM     72  C   UNL A   1      39.291  35.160  38.984  1.00  0.00     0.200 A 
ATOM     73  F   UNL A   1      37.851  33.567  39.963  1.00  0.00    -0.200 F 
ATOM     74  F   UNL A   1      39.125  35.976  40.034  1.00  0.00    -0.200 F 
ENDBRANCH  50  64
BRANCH  51  75
ATOM     75  C   UNL A   1      40.785  27.826  28.506  1.00  0.00     0.064 A 
ATOM     76  C   UNL A   1      40.180  26.573  28.334  1.00  0.00     0.173 A 
ATOM     77  C   UNL A   1      41.559  28.327  27.451  1.00  0.00     0.173 A 
ATOM     78  F   UNL A   1      39.433  26.051  29.319  1.00  0.00    -0.203 F 
ATOM     79  C   UNL A   1      40.363  25.838  27.166  1.00  0.00     0.198 A 
ATOM     80  C   UNL A   1      41.722  27.601  26.272  1.00  0.00     0.198 A 
ATOM     81  F   UNL A   1      42.141  29.530  27.557  1.00  0.00    -0.203 F 
ATOM     82  F   UNL A   1      39.804  24.626  27.047  1.00  0.00    -0.200 F 
ATOM     83  C   UNL A   1      41.129  26.355  26.133  1.00  0.00     0.200 A 
ATOM     84  F   UNL A   1      42.446  28.113  25.267  1.00  0.00    -0.200 F 
ATOM     85  F   UNL A   1      41.300  25.650  25.006  1.00  0.00    -0.200 F 
ENDBRANCH  51  75
BRANCH  63  86
ATOM     86  C   UNL A   1      44.041  28.107  34.660  1.00  0.00     0.064 A 
ATOM     87  C   UNL A   1      45.380  28.495  34.514  1.00  0.00     0.173 A 
ATOM     88  C   UNL A   1      43.764  26.939  35.385  1.00  0.00     0.173 A 
ATOM     89  F   UNL A   1      45.691  29.597  33.815  1.00  0.00    -0.203 F 
ATOM     90  C   UNL A   1      46.407  27.720  35.043  1.00  0.00     0.198 A 
ATOM     91  C   UNL A   1      44.792  26.182  35.938  1.00  0.00     0.198 A 
ATOM     92  F   UNL A   1      42.497  26.534  35.558  1.00  0.00    -0.203 F 
ATOM     93  F   UNL A   1      47.683  28.077  34.844  1.00  0.00    -0.200 F 
ATOM     94  C   UNL A   1      46.112  26.568  35.758  1.00  0.00     0.200 A 
ATOM     95  F   UNL A   1      44.505  25.077  36.639  1.00  0.00    -0.200 F 
ATOM     96  F   UNL A   1      47.103  25.822  36.266  1.00  0.00    -0.200 F 
ENDBRANCH  63  86
ENDBRANCH  37  38
ENDBRANCH  29  32
ENDBRANCH  27  28
ENDBRANCH  26  27
ENDBRANCH  25  26
ENDBRANCH   1  25
TORSDOF 18
ENDMDL
MODEL 2
REMARK VINA RESULT:     -11.4      1.240      7.450
REMARK SMILES C[C@@H](O)[C@@H](NC(=O)CN(C)C(=O)c1cccs1)C(=O)NCCCCNC(=O)c1ccc(-c2c3nc(c(-c4c(F)c(F)c(F)c(F)c4F)c4ccc([nH]4)c(-c4c(F)c(F)c(F)c(F)c4F)c4nc(c(-c5c(F)c(F)c(F)c(F)c5F)c5ccc2[nH]5)C=C4)C=C3)cc1
REMARK SMILES IDX 21 1 20 2 18 3 19 4 4 6 2 7 1 8 3 9 5 11 6 12 7 14 8 15 9 16
REMARK SMILES IDX 10 17 11 18 12 19 13 20 14 21 17 22 15 23 16 24 22 25 23 26
REMARK SMILES IDX 24 27 25 28 26 29 27 31 28 32 29 33 90 34 30 35 89 36 31 37
REMARK SMILES IDX 32 38 33 39 83 40 34 41 88 42 82 43 84 44 35 45 87 46 81 47
REMARK SMILES IDX 80 48 36 50 68 51 48 52 67 53 49 54 52 55 66 56 85 57 50 58
REMARK SMILES IDX 51 59 65 61 86 62 53 63 37 64 38 65 46 66 39 67 40 68 44 69
REMARK SMILES IDX 47 70 41 71 42 72 45 73 43 74 69 75 70 76 78 77 71 78 72 79
REMARK SMILES IDX 76 80 79 81 73 82 74 83 77 84 75 85 54 86 55 87 63 88 56 89
REMARK SMILES IDX 57 90 61 91 64 92 58 93 59 94 62 95 60 96
REMARK H PARENT 20 5 3 10 5 13 25 30 84 49 52 60
REMARK Flexibility Score: inf
ROOT
ATOM      1  C   UNL A   1      33.653  29.196  26.641  1.00  0.00     0.116 C 
ENDROOT
BRANCH   1   2
ATOM      2  N   UNL A   1      34.030  28.960  25.263  1.00  0.00    -0.354 N 
ATOM      3  C   UNL A   1      33.252  28.758  24.145  1.00  0.00     0.245 C 
ATOM      4  O   UNL A   1      33.847  28.892  23.065  1.00  0.00    -0.273 OA
ATOM      5  H   UNL A   1      35.001  28.941  25.099  1.00  0.00     0.163 HD
BRANCH   3   6
ATOM      6  C   UNL A   1      31.713  28.432  24.136  1.00  0.00     0.200 C 
BRANCH   6   7
ATOM      7  C   UNL A   1      30.954  28.557  22.787  1.00  0.00     0.143 C 
ATOM      8  C   UNL A   1      29.452  28.819  22.974  1.00  0.00     0.041 C 
BRANCH   7   9
ATOM      9  O   UNL A   1      31.424  29.703  22.060  1.00  0.00    -0.391 OA
ATOM     10  H   UNL A   1      31.540  30.447  22.671  1.00  0.00     0.211 HD
ENDBRANCH   7   9
ENDBRANCH   6   7
BRANCH   6  11
ATOM     11  N   UNL A   1      31.066  27.509  25.113  1.00  0.00    -0.341 N 
ATOM     12  C   UNL A   1      30.741  26.203  25.263  1.00  0.00     0.240 C 
ATOM     13  H   UNL A   1      30.784  28.015  25.910  1.00  0.00     0.164 HD
ATOM     14  O   UNL A   1      29.950  25.954  26.181  1.00  0.00    -0.273 OA
BRANCH  12  15
ATOM     15  C   UNL A   1      31.506  25.068  24.614  1.00  0.00     0.219 C 
BRANCH  15  16
ATOM     16  N   UNL A   1      32.442  24.392  25.492  1.00  0.00    -0.332 N 
ATOM     17  C   UNL A   1      31.848  23.164  25.995  1.00  0.00     0.147 C 
BRANCH  16  18
ATOM     18  C   UNL A   1      33.817  24.768  25.286  1.00  0.00     0.264 C 
ATOM     19  O   UNL A   1      34.172  25.854  25.754  1.00  0.00    -0.268 OA
BRANCH  18  20
ATOM     20  C   UNL A   1      34.880  23.870  24.763  1.00  0.00     0.092 A 
ATOM     21  C   UNL A   1      35.345  23.501  23.508  1.00  0.00     0.025 A 
ATOM     22  S   UNL A   1      36.062  23.345  25.933  1.00  0.00    -0.139 S 
ATOM     23  C   UNL A   1      36.567  22.765  23.494  1.00  0.00     0.012 A 
ATOM     24  C   UNL A   1      37.082  22.642  24.755  1.00  0.00     0.065 A 
ENDBRANCH  18  20
ENDBRANCH  16  18
ENDBRANCH  15  16
ENDBRANCH  12  15
ENDBRANCH   6  11
ENDBRANCH   3   6
ENDBRANCH   1   2
BRANCH   1  25
ATOM     25  C   UNL A   1      34.310  30.377  27.424  1.00  0.00     0.023 C 
BRANCH  25  26
ATOM     26  C   UNL A   1      33.791  31.818  27.757  1.00  0.00     0.023 C 
BRANCH  26  27
ATOM     27  C   UNL A   1      32.695  32.794  27.176  1.00  0.00     0.116 C 
BRANCH  27  28
ATOM     28  N   UNL A   1      32.448  34.134  27.682  1.00  0.00    -0.352 N 
ATOM     29  C   UNL A   1      33.041  34.878  28.675  1.00  0.00     0.251 C 
ATOM     30  H   UNL A   1      31.711  34.600  27.225  1.00  0.00     0.163 HD
ATOM     31  O   UNL A   1      32.606  35.979  28.982  1.00  0.00    -0.269 OA
BRANCH  29  32
ATOM     32  C   UNL A   1      34.194  34.339  29.369  1.00  0.00     0.039 A 
ATOM     33  C   UNL A   1      34.028  33.561  30.520  1.00  0.00     0.014 A 
ATOM     34  C   UNL A   1      35.443  34.656  28.851  1.00  0.00     0.014 A 
ATOM     35  C   UNL A   1      35.158  33.040  31.139  1.00  0.00     0.010 A 
ATOM     36  C   UNL A   1      36.555  34.099  29.435  1.00  0.00     0.010 A 
ATOM     37  C   UNL A   1      36.418  33.301  30.584  1.00  0.00    -0.014 A 
BRANCH  37  38
ATOM     38  C   UNL A   1      37.671  32.825  31.185  1.00  0.00     0.031 A 
ATOM     39  C   UNL A   1      38.380  31.694  30.506  1.00  0.00     0.074 A 
ATOM     40  C   UNL A   1      37.996  33.247  32.417  1.00  0.00     0.049 A 
ATOM     41  N   UNL A   1      39.273  30.872  30.982  1.00  0.00    -0.248 NA
ATOM     42  C   UNL A   1      37.957  31.400  29.125  1.00  0.00     0.031 C 
ATOM     43  C   UNL A   1      37.301  34.294  33.167  1.00  0.00     0.029 A 
ATOM     44  N   UNL A   1      38.959  32.799  33.276  1.00  0.00    -0.354 N 
ATOM     45  C   UNL A   1      39.480  29.932  29.981  1.00  0.00     0.074 A 
ATOM     46  C   UNL A   1      38.590  30.261  28.890  1.00  0.00     0.031 C 
ATOM     47  C   UNL A   1      37.851  34.396  34.388  1.00  0.00     0.029 A 
ATOM     48  C   UNL A   1      38.910  33.401  34.509  1.00  0.00     0.049 A 
ATOM     49  H   UNL A   1      39.623  32.111  33.037  1.00  0.00     0.167 HD
ATOM     50  C   UNL A   1      40.347  28.893  29.984  1.00  0.00     0.037 A 
ATOM     51  C   UNL A   1      39.639  33.152  35.610  1.00  0.00     0.037 A 
ATOM     52  C   UNL A   1      41.250  28.630  31.072  1.00  0.00     0.049 A 
ATOM     53  C   UNL A   1      40.681  32.070  35.539  1.00  0.00     0.074 A 
ATOM     54  C   UNL A   1      42.233  27.664  31.172  1.00  0.00     0.029 A 
ATOM     55  N   UNL A   1      41.284  29.365  32.251  1.00  0.00    -0.354 N 
ATOM     56  N   UNL A   1      40.918  31.213  34.574  1.00  0.00    -0.248 NA
ATOM     57  C   UNL A   1      41.571  31.936  36.697  1.00  0.00     0.031 C 
ATOM     58  C   UNL A   1      42.852  27.805  32.419  1.00  0.00     0.029 A 
ATOM     59  C   UNL A   1      42.282  28.883  33.080  1.00  0.00     0.049 A 
ATOM     60  H   UNL A   1      40.687  30.116  32.466  1.00  0.00     0.167 HD
ATOM     61  C   UNL A   1      42.006  30.460  34.990  1.00  0.00     0.074 A 
ATOM     62  C   UNL A   1      42.387  30.973  36.293  1.00  0.00     0.031 C 
ATOM     63  C   UNL A   1      42.636  29.437  34.361  1.00  0.00     0.037 A 
BRANCH  50  64
ATOM     64  C   UNL A   1      40.362  27.994  28.783  1.00  0.00     0.064 A 
ATOM     65  C   UNL A   1      39.637  26.793  28.751  1.00  0.00     0.173 A 
ATOM     66  C   UNL A   1      41.101  28.340  27.641  1.00  0.00     0.173 A 
ATOM     67  F   UNL A   1      38.927  26.404  29.821  1.00  0.00    -0.203 F 
ATOM     68  C   UNL A   1      39.675  25.957  27.637  1.00  0.00     0.198 A 
ATOM     69  C   UNL A   1      41.111  27.518  26.516  1.00  0.00     0.198 A 
ATOM     70  F   UNL A   1      41.815  29.475  27.615  1.00  0.00    -0.203 F 
ATOM     71  F   UNL A   1      39.020  24.788  27.656  1.00  0.00    -0.200 F 
ATOM     72  C   UNL A   1      40.406  26.324  26.518  1.00  0.00     0.200 A 
ATOM     73  F   UNL A   1      41.809  27.880  25.430  1.00  0.00    -0.200 F 
ATOM     74  F   UNL A   1      40.437  25.524  25.444  1.00  0.00    -0.200 F 
ENDBRANCH  50  64
BRANCH  51  75
ATOM     75  C   UNL A   1      39.454  33.982  36.826  1.00  0.00     0.064 A 
ATOM     76  C   UNL A   1      38.709  33.494  37.909  1.00  0.00     0.173 A 
ATOM     77  C   UNL A   1      40.032  35.252  36.951  1.00  0.00     0.173 A 
ATOM     78  F   UNL A   1      38.132  32.286  37.833  1.00  0.00    -0.203 F 
ATOM     79  C   UNL A   1      38.527  34.255  39.061  1.00  0.00     0.198 A 
ATOM     80  C   UNL A   1      39.871  36.003  38.114  1.00  0.00     0.198 A 
ATOM     81  F   UNL A   1      40.772  35.755  35.952  1.00  0.00    -0.203 F 
ATOM     82  F   UNL A   1      37.778  33.779  40.064  1.00  0.00    -0.200 F 
ATOM     83  C   UNL A   1      39.113  35.507  39.165  1.00  0.00     0.200 A 
ATOM     84  F   UNL A   1      40.456  37.204  38.220  1.00  0.00    -0.200 F 
ATOM     85  F   UNL A   1      38.945  36.237  40.276  1.00  0.00    -0.200 F 
ENDBRANCH  51  75
BRANCH  63  86
ATOM     86  C   UNL A   1      43.830  28.857  35.054  1.00  0.00     0.064 A 
ATOM     87  C   UNL A   1      45.113  29.398  34.890  1.00  0.00     0.173 A 
ATOM     88  C   UNL A   1      43.680  27.756  35.910  1.00  0.00     0.173 A 
ATOM     89  F   UNL A   1      45.304  30.442  34.069  1.00  0.00    -0.203 F 
ATOM     90  C   UNL A   1      46.211  28.833  35.529  1.00  0.00     0.198 A 
ATOM     91  C   UNL A   1      44.776  27.212  36.571  1.00  0.00     0.198 A 
ATOM     92  F   UNL A   1      42.470  27.210  36.104  1.00  0.00    -0.203 F 
ATOM     93  F   UNL A   1      47.437  29.329  35.314  1.00  0.00    -0.200 F 
ATOM     94  C   UNL A   1      46.041  27.745  36.373  1.00  0.00     0.200 A 
ATOM     95  F   UNL A   1      44.609  26.168  37.395  1.00  0.00    -0.200 F 
ATOM     96  F   UNL A   1      47.101  27.201  36.988  1.00  0.00    -0.200 F 
ENDBRANCH  63  86
ENDBRANCH  37  38
ENDBRANCH  29  32
ENDBRANCH  27  28
ENDBRANCH  26  27
ENDBRANCH  25  26
ENDBRANCH   1  25
TORSDOF 18
ENDMDL
MODEL 3
REMARK VINA RESULT:     -11.3      2.181      8.092
REMARK SMILES C[C@@H](O)[C@@H](NC(=O)CN(C)C(=O)c1cccs1)C(=O)NCCCCNC(=O)c1ccc(-c2c3nc(c(-c4c(F)c(F)c(F)c(F)c4F)c4ccc([nH]4)c(-c4c(F)c(F)c(F)c(F)c4F)c4nc(c(-c5c(F)c(F)c(F)c(F)c5F)c5ccc2[nH]5)C=C4)C=C3)cc1
REMARK SMILES IDX 21 1 20 2 18 3 19 4 4 6 2 7 1 8 3 9 5 11 6 12 7 14 8 15 9 16
REMARK SMILES IDX 10 17 11 18 12 19 13 20 14 21 17 22 15 23 16 24 22 25 23 26
REMARK SMILES IDX 24 27 25 28 26 29 27 31 28 32 29 33 90 34 30 35 89 36 31 37
REMARK SMILES IDX 32 38 33 39 83 40 34 41 88 42 82 43 84 44 35 45 87 46 81 47
REMARK SMILES IDX 80 48 36 50 68 51 48 52 67 53 49 54 52 55 66 56 85 57 50 58
REMARK SMILES IDX 51 59 65 61 86 62 53 63 37 64 38 65 46 66 39 67 40 68 44 69
REMARK SMILES IDX 47 70 41 71 42 72 45 73 43 74 69 75 70 76 78 77 71 78 72 79
REMARK SMILES IDX 76 80 79 81 73 82 74 83 77 84 75 85 54 86 55 87 63 88 56 89
REMARK SMILES IDX 57 90 61 91 64 92 58 93 59 94 62 95 60 96
REMARK H PARENT 20 5 3 10 5 13 25 30 84 49 52 60
REMARK Flexibility Score: inf
ROOT
ATOM      1  C   UNL A   1      33.835  24.443  25.934  1.00  0.00     0.116 C 
ENDROOT
BRANCH   1   2
ATOM      2  N   UNL A   1      32.563  23.858  26.303  1.00  0.00    -0.354 N 
ATOM      3  C   UNL A   1      31.427  23.641  25.554  1.00  0.00     0.245 C 
ATOM      4  O   UNL A   1      30.615  22.849  26.055  1.00  0.00    -0.273 OA
ATOM      5  H   UNL A   1      32.499  23.568  27.242  1.00  0.00     0.163 HD
BRANCH   3   6
ATOM      6  C   UNL A   1      31.119  24.263  24.142  1.00  0.00     0.200 C 
BRANCH   6   7
ATOM      7  C   UNL A   1      30.499  25.686  24.098  1.00  0.00     0.143 C 
ATOM      8  C   UNL A   1      31.001  26.514  22.906  1.00  0.00     0.041 C 
BRANCH   7   9
ATOM      9  O   UNL A   1      29.080  25.600  23.895  1.00  0.00    -0.391 OA
ATOM     10  H   UNL A   1      28.655  26.399  24.242  1.00  0.00     0.211 HD
ENDBRANCH   7   9
ENDBRANCH   6   7
BRANCH   6  11
ATOM     11  N   UNL A   1      31.854  23.882  22.902  1.00  0.00    -0.341 N 
ATOM     12  C   UNL A   1      33.002  23.281  22.508  1.00  0.00     0.240 C 
ATOM     13  H   UNL A   1      31.334  24.157  22.111  1.00  0.00     0.164 HD
ATOM     14  O   UNL A   1      33.300  23.434  21.316  1.00  0.00    -0.273 OA
BRANCH  12  15
ATOM     15  C   UNL A   1      33.719  22.224  23.322  1.00  0.00     0.219 C 
BRANCH  15  16
ATOM     16  N   UNL A   1      32.920  21.055  23.631  1.00  0.00    -0.332 N 
ATOM     17  C   UNL A   1      32.127  20.679  22.471  1.00  0.00     0.147 C 
BRANCH  16  18
ATOM     18  C   UNL A   1      33.421  20.275  24.733  1.00  0.00     0.264 C 
ATOM     19  O   UNL A   1      33.433  20.822  25.840  1.00  0.00    -0.268 OA
BRANCH  18  20
ATOM     20  C   UNL A   1      33.706  18.816  24.689  1.00  0.00     0.092 A 
ATOM     21  C   UNL A   1      34.793  18.024  24.346  1.00  0.00     0.025 A 
ATOM     22  S   UNL A   1      32.564  17.802  25.531  1.00  0.00    -0.139 S 
ATOM     23  C   UNL A   1      34.681  16.643  24.684  1.00  0.00     0.012 A 
ATOM     24  C   UNL A   1      33.524  16.396  25.369  1.00  0.00     0.065 A 
ENDBRANCH  18  20
ENDBRANCH  16  18
ENDBRANCH  15  16
ENDBRANCH  12  15
ENDBRANCH   6  11
ENDBRANCH   3   6
ENDBRANCH   1   2
BRANCH   1  25
ATOM     25  C   UNL A   1      33.869  25.872  25.305  1.00  0.00     0.023 C 
BRANCH  25  26
ATOM     26  C   UNL A   1      33.593  27.285  25.926  1.00  0.00     0.023 C 
BRANCH  26  27
ATOM     27  C   UNL A   1      33.936  28.779  25.549  1.00  0.00     0.116 C 
BRANCH  27  28
ATOM     28  N   UNL A   1      33.202  29.932  26.042  1.00  0.00    -0.352 N 
ATOM     29  C   UNL A   1      33.476  30.862  27.017  1.00  0.00     0.251 C 
ATOM     30  H   UNL A   1      32.338  30.074  25.591  1.00  0.00     0.163 HD
ATOM     31  O   UNL A   1      32.658  31.720  27.318  1.00  0.00    -0.269 OA
BRANCH  29  32
ATOM     32  C   UNL A   1      34.755  30.816  27.699  1.00  0.00     0.039 A 
ATOM     33  C   UNL A   1      35.611  31.921  27.674  1.00  0.00     0.014 A 
ATOM     34  C   UNL A   1      35.081  29.628  28.341  1.00  0.00     0.014 A 
ATOM     35  C   UNL A   1      36.815  31.846  28.364  1.00  0.00     0.010 A 
ATOM     36  C   UNL A   1      36.247  29.573  29.064  1.00  0.00     0.010 A 
ATOM     37  C   UNL A   1      37.121  30.674  29.069  1.00  0.00    -0.014 A 
BRANCH  37  38
ATOM     38  C   UNL A   1      38.382  30.486  29.799  1.00  0.00     0.031 A 
ATOM     39  C   UNL A   1      39.377  29.524  29.229  1.00  0.00     0.074 A 
ATOM     40  C   UNL A   1      38.489  30.985  31.041  1.00  0.00     0.049 A 
ATOM     41  N   UNL A   1      40.374  28.919  29.813  1.00  0.00    -0.248 NA
ATOM     42  C   UNL A   1      39.163  29.127  27.825  1.00  0.00     0.031 C 
ATOM     43  C   UNL A   1      37.517  31.869  31.687  1.00  0.00     0.029 A 
ATOM     44  N   UNL A   1      39.436  30.765  32.001  1.00  0.00    -0.354 N 
ATOM     45  C   UNL A   1      40.872  28.031  28.868  1.00  0.00     0.074 A 
ATOM     46  C   UNL A   1      40.043  28.147  27.689  1.00  0.00     0.031 C 
ATOM     47  C   UNL A   1      37.911  32.103  32.949  1.00  0.00     0.029 A 
ATOM     48  C   UNL A   1      39.140  31.360  33.202  1.00  0.00     0.049 A 
ATOM     49  H   UNL A   1      40.250  30.233  31.847  1.00  0.00     0.167 HD
ATOM     50  C   UNL A   1      41.935  27.203  28.987  1.00  0.00     0.037 A 
ATOM     51  C   UNL A   1      39.795  31.288  34.374  1.00  0.00     0.037 A 
ATOM     52  C   UNL A   1      42.762  27.155  30.162  1.00  0.00     0.049 A 
ATOM     53  C   UNL A   1      41.044  30.454  34.437  1.00  0.00     0.074 A 
ATOM     54  C   UNL A   1      43.913  26.423  30.385  1.00  0.00     0.029 A 
ATOM     55  N   UNL A   1      42.525  27.896  31.313  1.00  0.00    -0.354 N 
ATOM     56  N   UNL A   1      41.550  29.654  33.528  1.00  0.00    -0.248 NA
ATOM     57  C   UNL A   1      41.825  30.529  35.676  1.00  0.00     0.031 C 
ATOM     58  C   UNL A   1      44.364  26.711  31.679  1.00  0.00     0.029 A 
ATOM     59  C   UNL A   1      43.516  27.651  32.247  1.00  0.00     0.049 A 
ATOM     60  H   UNL A   1      41.763  28.505  31.446  1.00  0.00     0.167 HD
ATOM     61  C   UNL A   1      42.727  29.158  34.068  1.00  0.00     0.074 A 
ATOM     62  C   UNL A   1      42.862  29.759  35.382  1.00  0.00     0.031 C 
ATOM     63  C   UNL A   1      43.618  28.286  33.535  1.00  0.00     0.037 A 
BRANCH  50  64
ATOM     64  C   UNL A   1      42.258  26.311  27.824  1.00  0.00     0.064 A 
ATOM     65  C   UNL A   1      41.595  25.090  27.623  1.00  0.00     0.173 A 
ATOM     66  C   UNL A   1      43.234  26.684  26.887  1.00  0.00     0.173 A 
ATOM     67  F   UNL A   1      40.664  24.676  28.497  1.00  0.00    -0.203 F 
ATOM     68  C   UNL A   1      41.917  24.263  26.551  1.00  0.00     0.198 A 
ATOM     69  C   UNL A   1      43.531  25.870  25.797  1.00  0.00     0.198 A 
ATOM     70  F   UNL A   1      43.901  27.839  27.029  1.00  0.00    -0.203 F 
ATOM     71  F   UNL A   1      41.309  23.076  26.416  1.00  0.00    -0.200 F 
ATOM     72  C   UNL A   1      42.880  24.657  25.634  1.00  0.00     0.200 A 
ATOM     73  F   UNL A   1      44.455  26.257  24.905  1.00  0.00    -0.200 F 
ATOM     74  F   UNL A   1      43.185  23.863  24.598  1.00  0.00    -0.200 F 
ENDBRANCH  50  64
BRANCH  51  75
ATOM     75  C   UNL A   1      39.320  32.076  35.538  1.00  0.00     0.064 A 
ATOM     76  C   UNL A   1      39.674  33.426  35.671  1.00  0.00     0.173 A 
ATOM     77  C   UNL A   1      38.486  31.520  36.518  1.00  0.00     0.173 A 
ATOM     78  F   UNL A   1      40.475  33.999  34.761  1.00  0.00    -0.203 F 
ATOM     79  C   UNL A   1      39.235  34.184  36.753  1.00  0.00     0.198 A 
ATOM     80  C   UNL A   1      38.025  32.287  37.587  1.00  0.00     0.198 A 
ATOM     81  F   UNL A   1      38.100  30.240  36.424  1.00  0.00    -0.203 F 
ATOM     82  F   UNL A   1      39.622  35.461  36.875  1.00  0.00    -0.200 F 
ATOM     83  C   UNL A   1      38.406  33.615  37.708  1.00  0.00     0.200 A 
ATOM     84  F   UNL A   1      37.207  31.740  38.498  1.00  0.00    -0.200 F 
ATOM     85  F   UNL A   1      37.976  34.346  38.746  1.00  0.00    -0.200 F 
ENDBRANCH  51  75
BRANCH  63  86
ATOM     86  C   UNL A   1      44.834  27.984  34.356  1.00  0.00     0.064 A 
ATOM     87  C   UNL A   1      44.868  26.908  35.255  1.00  0.00     0.173 A 
ATOM     88  C   UNL A   1      45.987  28.773  34.222  1.00  0.00     0.173 A 
ATOM     89  F   UNL A   1      43.783  26.138  35.425  1.00  0.00    -0.203 F 
ATOM     90  C   UNL A   1      46.001  26.656  36.020  1.00  0.00     0.198 A 
ATOM     91  C   UNL A   1      47.129  28.499  34.967  1.00  0.00     0.198 A 
ATOM     92  F   UNL A   1      46.003  29.807  33.368  1.00  0.00    -0.203 F 
ATOM     93  F   UNL A   1      45.994  25.659  36.914  1.00  0.00    -0.200 F 
ATOM     94  C   UNL A   1      47.132  27.447  35.872  1.00  0.00     0.200 A 
ATOM     95  F   UNL A   1      48.223  29.256  34.815  1.00  0.00    -0.200 F 
ATOM     96  F   UNL A   1      48.223  27.202  36.611  1.00  0.00    -0.200 F 
ENDBRANCH  63  86
ENDBRANCH  37  38
ENDBRANCH  29  32
ENDBRANCH  27  28
ENDBRANCH  26  27
ENDBRANCH  25  26
ENDBRANCH   1  25
TORSDOF 18
ENDMDL
