MODEL 1
REMARK VINA RESULT:     -11.7      0.000      0.000
REMARK SMILES COC[C@@H](NS(=O)(=O)c1ccc(C(=O)NCCCCNC(=O)c2ccc(-c3c4nc(c(-c5c(F)c(F)c(F)c(F)c5F)c5ccc([nH]5)c(-c5c(F)c(F)c(F)c(F)c5F)c5nc(c(-c6c(F)c(F)c(F)c(F)c6F)c6ccc3[nH]6)C=C5)C=C4)cc2)cc1F)C(C)C
REMARK SMILES IDX 16 1 15 2 13 3 14 4 12 6 9 7 10 8 87 9 11 10 86 11 88 12
REMARK SMILES IDX 6 13 7 14 8 15 5 16 4 18 3 19 2 20 1 21 89 22 90 23 91 24
REMARK SMILES IDX 17 25 18 26 19 27 20 28 21 29 22 31 23 32 24 33 85 34 25 35
REMARK SMILES IDX 84 36 26 37 27 38 28 39 78 40 29 41 83 42 77 43 79 44 30 45
REMARK SMILES IDX 82 46 76 47 75 48 31 50 63 51 43 52 62 53 44 54 47 55 61 56
REMARK SMILES IDX 80 57 45 58 46 59 60 61 81 62 48 63 32 64 33 65 41 66 34 67
REMARK SMILES IDX 35 68 39 69 42 70 36 71 37 72 40 73 38 74 64 75 65 76 73 77
REMARK SMILES IDX 66 78 67 79 71 80 74 81 68 82 69 83 72 84 70 85 49 86 50 87
REMARK SMILES IDX 58 88 51 89 52 90 56 91 59 92 53 93 54 94 57 95 55 96
REMARK H PARENT 15 5 5 17 20 30 79 49 47 60
REMARK Flexibility Score: inf
ROOT
ATOM      1  C   UNL A   1      32.497  29.974  25.626  1.00  0.00     0.116 C 
ENDROOT
BRANCH   1   2
ATOM      2  N   UNL A   1      32.639  29.474  24.276  1.00  0.00    -0.352 N 
ATOM      3  C   UNL A   1      32.568  28.191  23.815  1.00  0.00     0.251 C 
ATOM      4  O   UNL A   1      32.671  27.969  22.612  1.00  0.00    -0.269 OA
ATOM      5  H   UNL A   1      32.811  30.159  23.590  1.00  0.00     0.163 HD
BRANCH   3   6
ATOM      6  C   UNL A   1      32.346  27.056  24.737  1.00  0.00     0.042 A 
ATOM      7  C   UNL A   1      31.871  24.657  26.059  1.00  0.00     0.118 A 
ATOM      8  C   UNL A   1      30.790  25.379  25.542  1.00  0.00     0.026 A 
ATOM      9  C   UNL A   1      33.159  25.181  26.016  1.00  0.00     0.144 A 
ATOM     10  C   UNL A   1      31.036  26.575  24.865  1.00  0.00     0.015 A 
ATOM     11  C   UNL A   1      33.407  26.372  25.339  1.00  0.00     0.054 A 
ATOM     12  F   UNL A   1      34.205  24.506  26.510  1.00  0.00    -0.205 F 
BRANCH   7  13
ATOM     13  S   UNL A   1      31.663  22.969  26.535  1.00  0.00     0.243 S 
ATOM     14  O   UNL A   1      30.317  22.568  26.178  1.00  0.00    -0.207 OA
ATOM     15  O   UNL A   1      32.158  22.828  27.880  1.00  0.00    -0.207 OA
BRANCH  13  16
ATOM     16  N   UNL A   1      32.766  22.181  25.514  1.00  0.00    -0.205 NA
ATOM     17  H   UNL A   1      33.606  22.761  25.489  1.00  0.00     0.141 HD
BRANCH  16  18
ATOM     18  C   UNL A   1      32.412  21.884  24.093  1.00  0.00     0.098 C 
BRANCH  18  19
ATOM     19  C   UNL A   1      32.523  20.351  23.866  1.00  0.00     0.180 C 
BRANCH  19  20
ATOM     20  O   UNL A   1      32.092  19.599  24.997  1.00  0.00    -0.383 OA
ATOM     21  C   UNL A   1      32.897  18.471  25.301  1.00  0.00     0.194 C 
ENDBRANCH  19  20
ENDBRANCH  18  19
BRANCH  18  22
ATOM     22  C   UNL A   1      33.373  22.590  23.088  1.00  0.00     0.003 C 
ATOM     23  C   UNL A   1      32.749  23.896  22.569  1.00  0.00     0.009 C 
ATOM     24  C   UNL A   1      34.750  22.940  23.635  1.00  0.00     0.009 C 
ENDBRANCH  18  22
ENDBRANCH  16  18
ENDBRANCH  13  16
ENDBRANCH   7  13
ENDBRANCH   3   6
ENDBRANCH   1   2
BRANCH   1  25
ATOM     25  C   UNL A   1      31.349  30.977  25.700  1.00  0.00     0.023 C 
BRANCH  25  26
ATOM     26  C   UNL A   1      31.405  31.897  26.924  1.00  0.00     0.023 C 
BRANCH  26  27
ATOM     27  C   UNL A   1      32.654  32.766  27.010  1.00  0.00     0.116 C 
BRANCH  27  28
ATOM     28  N   UNL A   1      32.383  34.100  27.523  1.00  0.00    -0.352 N 
ATOM     29  C   UNL A   1      33.010  34.768  28.543  1.00  0.00     0.251 C 
ATOM     30  H   UNL A   1      31.653  34.588  27.078  1.00  0.00     0.163 HD
ATOM     31  O   UNL A   1      32.576  35.845  28.938  1.00  0.00    -0.269 OA
BRANCH  29  32
ATOM     32  C   UNL A   1      34.191  34.163  29.185  1.00  0.00     0.039 A 
ATOM     33  C   UNL A   1      33.993  33.237  30.208  1.00  0.00     0.014 A 
ATOM     34  C   UNL A   1      35.483  34.504  28.773  1.00  0.00     0.014 A 
ATOM     35  C   UNL A   1      35.096  32.620  30.797  1.00  0.00     0.010 A 
ATOM     36  C   UNL A   1      36.576  33.830  29.305  1.00  0.00     0.010 A 
ATOM     37  C   UNL A   1      36.393  32.897  30.335  1.00  0.00    -0.014 A 
BRANCH  37  38
ATOM     38  C   UNL A   1      37.567  32.229  30.946  1.00  0.00     0.031 A 
ATOM     39  C   UNL A   1      38.011  32.608  32.330  1.00  0.00     0.074 A 
ATOM     40  C   UNL A   1      38.241  31.300  30.242  1.00  0.00     0.049 A 
ATOM     41  N   UNL A   1      39.000  32.125  33.040  1.00  0.00    -0.248 NA
ATOM     42  C   UNL A   1      37.264  33.684  32.999  1.00  0.00     0.031 C 
ATOM     43  C   UNL A   1      37.934  30.896  28.869  1.00  0.00     0.029 A 
ATOM     44  N   UNL A   1      39.317  30.522  30.587  1.00  0.00    -0.354 N 
ATOM     45  C   UNL A   1      38.994  32.841  34.228  1.00  0.00     0.074 A 
ATOM     46  C   UNL A   1      37.950  33.835  34.122  1.00  0.00     0.031 C 
ATOM     47  C   UNL A   1      38.773  29.913  28.504  1.00  0.00     0.029 A 
ATOM     48  C   UNL A   1      39.694  29.641  29.604  1.00  0.00     0.049 A 
ATOM     49  H   UNL A   1      39.775  30.589  31.455  1.00  0.00     0.167 HD
ATOM     50  C   UNL A   1      39.769  32.662  35.324  1.00  0.00     0.037 A 
ATOM     51  C   UNL A   1      40.665  28.708  29.597  1.00  0.00     0.037 A 
ATOM     52  C   UNL A   1      40.788  31.652  35.431  1.00  0.00     0.049 A 
ATOM     53  C   UNL A   1      41.502  28.517  30.832  1.00  0.00     0.074 A 
ATOM     54  C   UNL A   1      41.599  31.358  36.513  1.00  0.00     0.029 A 
ATOM     55  N   UNL A   1      41.135  30.769  34.418  1.00  0.00    -0.354 N 
ATOM     56  N   UNL A   1      41.448  29.158  31.974  1.00  0.00    -0.248 NA
ATOM     57  C   UNL A   1      42.524  27.463  30.784  1.00  0.00     0.031 C 
ATOM     58  C   UNL A   1      42.467  30.328  36.140  1.00  0.00     0.029 A 
ATOM     59  C   UNL A   1      42.158  29.938  34.846  1.00  0.00     0.049 A 
ATOM     60  H   UNL A   1      40.715  30.738  33.528  1.00  0.00     0.167 HD
ATOM     61  C   UNL A   1      42.406  28.570  32.789  1.00  0.00     0.074 A 
ATOM     62  C   UNL A   1      43.016  27.510  32.014  1.00  0.00     0.031 C 
ATOM     63  C   UNL A   1      42.748  28.882  34.064  1.00  0.00     0.037 A 
BRANCH  50  64
ATOM     64  C   UNL A   1      39.536  33.564  36.501  1.00  0.00     0.064 A 
ATOM     65  C   UNL A   1      40.186  34.804  36.589  1.00  0.00     0.173 A 
ATOM     66  C   UNL A   1      38.716  33.176  37.572  1.00  0.00     0.173 A 
ATOM     67  F   UNL A   1      40.985  35.223  35.595  1.00  0.00    -0.203 F 
ATOM     68  C   UNL A   1      40.034  35.615  37.710  1.00  0.00     0.198 A 
ATOM     69  C   UNL A   1      38.541  34.004  38.677  1.00  0.00     0.198 A 
ATOM     70  F   UNL A   1      38.060  32.007  37.530  1.00  0.00    -0.203 F 
ATOM     71  F   UNL A   1      40.690  36.782  37.787  1.00  0.00    -0.200 F 
ATOM     72  C   UNL A   1      39.207  35.217  38.750  1.00  0.00     0.200 A 
ATOM     73  F   UNL A   1      37.719  33.630  39.668  1.00  0.00    -0.200 F 
ATOM     74  F   UNL A   1      39.050  36.005  39.824  1.00  0.00    -0.200 F 
ENDBRANCH  50  64
BRANCH  51  75
ATOM     75  C   UNL A   1      40.848  27.850  28.399  1.00  0.00     0.064 A 
ATOM     76  C   UNL A   1      41.671  28.246  27.334  1.00  0.00     0.173 A 
ATOM     77  C   UNL A   1      40.168  26.629  28.278  1.00  0.00     0.173 A 
ATOM     78  F   UNL A   1      42.335  29.409  27.396  1.00  0.00    -0.203 F 
ATOM     79  C   UNL A   1      41.793  27.462  26.188  1.00  0.00     0.198 A 
ATOM     80  C   UNL A   1      40.313  25.833  27.144  1.00  0.00     0.198 A 
ATOM     81  F   UNL A   1      39.383  26.199  29.277  1.00  0.00    -0.203 F 
ATOM     82  F   UNL A   1      42.556  27.882  25.171  1.00  0.00    -0.200 F 
ATOM     83  C   UNL A   1      41.118  26.255  26.096  1.00  0.00     0.200 A 
ATOM     84  F   UNL A   1      39.676  24.657  27.068  1.00  0.00    -0.200 F 
ATOM     85  F   UNL A   1      41.243  25.497  24.998  1.00  0.00    -0.200 F 
ENDBRANCH  51  75
BRANCH  63  86
ATOM     86  C   UNL A   1      43.810  28.048  34.721  1.00  0.00     0.064 A 
ATOM     87  C   UNL A   1      43.462  26.876  35.412  1.00  0.00     0.173 A 
ATOM     88  C   UNL A   1      45.156  28.438  34.724  1.00  0.00     0.173 A 
ATOM     89  F   UNL A   1      42.186  26.465  35.447  1.00  0.00    -0.203 F 
ATOM     90  C   UNL A   1      44.423  26.133  36.091  1.00  0.00     0.198 A 
ATOM     91  C   UNL A   1      46.120  27.674  35.378  1.00  0.00     0.198 A 
ATOM     92  F   UNL A   1      45.541  29.544  34.070  1.00  0.00    -0.203 F 
ATOM     93  F   UNL A   1      44.062  25.037  36.772  1.00  0.00    -0.200 F 
ATOM     94  C   UNL A   1      45.751  26.528  36.067  1.00  0.00     0.200 A 
ATOM     95  F   UNL A   1      47.407  28.042  35.332  1.00  0.00    -0.200 F 
ATOM     96  F   UNL A   1      46.678  25.802  36.707  1.00  0.00    -0.200 F 
ENDBRANCH  63  86
ENDBRANCH  37  38
ENDBRANCH  29  32
ENDBRANCH  27  28
ENDBRANCH  26  27
ENDBRANCH  25  26
ENDBRANCH   1  25
TORSDOF 17
ENDMDL
MODEL 2
REMARK VINA RESULT:     -10.8      5.357      9.848
REMARK SMILES COC[C@@H](NS(=O)(=O)c1ccc(C(=O)NCCCCNC(=O)c2ccc(-c3c4nc(c(-c5c(F)c(F)c(F)c(F)c5F)c5ccc([nH]5)c(-c5c(F)c(F)c(F)c(F)c5F)c5nc(c(-c6c(F)c(F)c(F)c(F)c6F)c6ccc3[nH]6)C=C5)C=C4)cc2)cc1F)C(C)C
REMARK SMILES IDX 16 1 15 2 13 3 14 4 12 6 9 7 10 8 87 9 11 10 86 11 88 12
REMARK SMILES IDX 6 13 7 14 8 15 5 16 4 18 3 19 2 20 1 21 89 22 90 23 91 24
REMARK SMILES IDX 17 25 18 26 19 27 20 28 21 29 22 31 23 32 24 33 85 34 25 35
REMARK SMILES IDX 84 36 26 37 27 38 28 39 78 40 29 41 83 42 77 43 79 44 30 45
REMARK SMILES IDX 82 46 76 47 75 48 31 50 63 51 43 52 62 53 44 54 47 55 61 56
REMARK SMILES IDX 80 57 45 58 46 59 60 61 81 62 48 63 32 64 33 65 41 66 34 67
REMARK SMILES IDX 35 68 39 69 42 70 36 71 37 72 40 73 38 74 64 75 65 76 73 77
REMARK SMILES IDX 66 78 67 79 71 80 74 81 68 82 69 83 72 84 70 85 49 86 50 87
REMARK SMILES IDX 58 88 51 89 52 90 56 91 59 92 53 93 54 94 57 95 55 96
REMARK H PARENT 15 5 5 17 20 30 79 49 47 60
REMARK Flexibility Score: inf
ROOT
ATOM      1  C   UNL A   1      37.292  21.450  25.376  1.00  0.00     0.116 C 
ENDROOT
BRANCH   1   2
ATOM      2  N   UNL A   1      37.311  22.081  24.075  1.00  0.00    -0.352 N 
ATOM      3  C   UNL A   1      36.384  22.898  23.494  1.00  0.00     0.251 C 
ATOM      4  O   UNL A   1      36.604  23.378  22.384  1.00  0.00    -0.269 OA
ATOM      5  H   UNL A   1      38.108  21.894  23.528  1.00  0.00     0.163 HD
BRANCH   3   6
ATOM      6  C   UNL A   1      35.122  23.240  24.184  1.00  0.00     0.042 A 
ATOM      7  C   UNL A   1      32.722  24.250  25.158  1.00  0.00     0.118 A 
ATOM      8  C   UNL A   1      33.922  24.877  25.510  1.00  0.00     0.026 A 
ATOM      9  C   UNL A   1      32.729  23.068  24.424  1.00  0.00     0.144 A 
ATOM     10  C   UNL A   1      35.123  24.375  25.006  1.00  0.00     0.015 A 
ATOM     11  C   UNL A   1      33.925  22.568  23.916  1.00  0.00     0.054 A 
ATOM     12  F   UNL A   1      31.591  22.451  24.080  1.00  0.00    -0.205 F 
BRANCH   7  13
ATOM     13  S   UNL A   1      31.182  25.076  25.410  1.00  0.00     0.243 S 
ATOM     14  O   UNL A   1      30.648  24.643  26.686  1.00  0.00    -0.207 OA
ATOM     15  O   UNL A   1      30.416  24.958  24.196  1.00  0.00    -0.207 OA
BRANCH  13  16
ATOM     16  N   UNL A   1      31.672  26.695  25.535  1.00  0.00    -0.205 NA
ATOM     17  H   UNL A   1      31.050  27.137  26.213  1.00  0.00     0.141 HD
BRANCH  16  18
ATOM     18  C   UNL A   1      31.688  27.582  24.332  1.00  0.00     0.098 C 
BRANCH  18  19
ATOM     19  C   UNL A   1      33.148  28.057  24.088  1.00  0.00     0.180 C 
BRANCH  19  20
ATOM     20  O   UNL A   1      33.570  27.852  22.743  1.00  0.00    -0.383 OA
ATOM     21  C   UNL A   1      33.340  26.545  22.241  1.00  0.00     0.194 C 
ENDBRANCH  19  20
ENDBRANCH  18  19
BRANCH  18  22
ATOM     22  C   UNL A   1      30.796  28.847  24.523  1.00  0.00     0.003 C 
ATOM     23  C   UNL A   1      31.570  29.947  25.268  1.00  0.00     0.009 C 
ATOM     24  C   UNL A   1      30.258  29.469  23.243  1.00  0.00     0.009 C 
ENDBRANCH  18  22
ENDBRANCH  16  18
ENDBRANCH  13  16
ENDBRANCH   7  13
ENDBRANCH   3   6
ENDBRANCH   1   2
BRANCH   1  25
ATOM     25  C   UNL A   1      37.192  19.934  25.228  1.00  0.00     0.023 C 
BRANCH  25  26
ATOM     26  C   UNL A   1      38.537  19.244  24.983  1.00  0.00     0.023 C 
BRANCH  26  27
ATOM     27  C   UNL A   1      39.680  19.748  25.856  1.00  0.00     0.116 C 
BRANCH  27  28
ATOM     28  N   UNL A   1      40.760  18.784  25.990  1.00  0.00    -0.352 N 
ATOM     29  C   UNL A   1      42.093  19.018  26.209  1.00  0.00     0.251 C 
ATOM     30  H   UNL A   1      40.500  17.839  25.914  1.00  0.00     0.163 HD
ATOM     31  O   UNL A   1      42.899  18.095  26.171  1.00  0.00    -0.269 OA
BRANCH  29  32
ATOM     32  C   UNL A   1      42.555  20.396  26.456  1.00  0.00     0.039 A 
ATOM     33  C   UNL A   1      42.999  21.155  25.373  1.00  0.00     0.014 A 
ATOM     34  C   UNL A   1      42.541  20.936  27.745  1.00  0.00     0.014 A 
ATOM     35  C   UNL A   1      43.396  22.475  25.578  1.00  0.00     0.010 A 
ATOM     36  C   UNL A   1      42.861  22.275  27.935  1.00  0.00     0.010 A 
ATOM     37  C   UNL A   1      43.310  23.051  26.857  1.00  0.00    -0.014 A 
BRANCH  37  38
ATOM     38  C   UNL A   1      43.714  24.459  27.076  1.00  0.00     0.031 A 
ATOM     39  C   UNL A   1      42.704  25.468  27.545  1.00  0.00     0.074 A 
ATOM     40  C   UNL A   1      44.985  24.829  26.832  1.00  0.00     0.049 A 
ATOM     41  N   UNL A   1      42.870  26.739  27.810  1.00  0.00    -0.248 NA
ATOM     42  C   UNL A   1      41.321  24.996  27.717  1.00  0.00     0.031 C 
ATOM     43  C   UNL A   1      46.035  23.947  26.319  1.00  0.00     0.029 A 
ATOM     44  N   UNL A   1      45.612  26.039  26.989  1.00  0.00    -0.354 N 
ATOM     45  C   UNL A   1      41.617  27.214  28.172  1.00  0.00     0.074 A 
ATOM     46  C   UNL A   1      40.688  26.116  28.030  1.00  0.00     0.031 C 
ATOM     47  C   UNL A   1      47.187  24.634  26.247  1.00  0.00     0.029 A 
ATOM     48  C   UNL A   1      46.949  26.009  26.677  1.00  0.00     0.049 A 
ATOM     49  H   UNL A   1      45.148  26.851  27.295  1.00  0.00     0.167 HD
ATOM     50  C   UNL A   1      41.280  28.448  28.616  1.00  0.00     0.037 A 
ATOM     51  C   UNL A   1      47.881  26.978  26.745  1.00  0.00     0.037 A 
ATOM     52  C   UNL A   1      42.216  29.527  28.781  1.00  0.00     0.049 A 
ATOM     53  C   UNL A   1      47.484  28.336  27.257  1.00  0.00     0.074 A 
ATOM     54  C   UNL A   1      41.985  30.802  29.266  1.00  0.00     0.029 A 
ATOM     55  N   UNL A   1      43.566  29.456  28.466  1.00  0.00    -0.354 N 
ATOM     56  N   UNL A   1      46.309  28.758  27.656  1.00  0.00    -0.248 NA
ATOM     57  C   UNL A   1      48.546  29.348  27.345  1.00  0.00     0.031 C 
ATOM     58  C   UNL A   1      43.185  31.517  29.202  1.00  0.00     0.029 A 
ATOM     59  C   UNL A   1      44.177  30.670  28.734  1.00  0.00     0.049 A 
ATOM     60  H   UNL A   1      44.021  28.660  28.106  1.00  0.00     0.167 HD
ATOM     61  C   UNL A   1      46.493  30.072  28.066  1.00  0.00     0.074 A 
ATOM     62  C   UNL A   1      47.898  30.372  27.883  1.00  0.00     0.031 C 
ATOM     63  C   UNL A   1      45.580  30.949  28.552  1.00  0.00     0.037 A 
BRANCH  50  64
ATOM     64  C   UNL A   1      39.842  28.694  28.973  1.00  0.00     0.064 A 
ATOM     65  C   UNL A   1      38.952  29.221  28.025  1.00  0.00     0.173 A 
ATOM     66  C   UNL A   1      39.359  28.465  30.271  1.00  0.00     0.173 A 
ATOM     67  F   UNL A   1      39.363  29.461  26.770  1.00  0.00    -0.203 F 
ATOM     68  C   UNL A   1      37.636  29.521  28.366  1.00  0.00     0.198 A 
ATOM     69  C   UNL A   1      38.034  28.737  30.599  1.00  0.00     0.198 A 
ATOM     70  F   UNL A   1      40.164  27.948  31.210  1.00  0.00    -0.203 F 
ATOM     71  F   UNL A   1      36.813  30.054  27.452  1.00  0.00    -0.200 F 
ATOM     72  C   UNL A   1      37.176  29.274  29.651  1.00  0.00     0.200 A 
ATOM     73  F   UNL A   1      37.584  28.471  31.834  1.00  0.00    -0.200 F 
ATOM     74  F   UNL A   1      35.906  29.551  29.975  1.00  0.00    -0.200 F 
ENDBRANCH  50  64
BRANCH  51  75
ATOM     75  C   UNL A   1      49.286  26.673  26.374  1.00  0.00     0.064 A 
ATOM     76  C   UNL A   1      50.221  26.254  27.333  1.00  0.00     0.173 A 
ATOM     77  C   UNL A   1      49.733  26.833  25.055  1.00  0.00     0.173 A 
ATOM     78  F   UNL A   1      49.846  26.094  28.610  1.00  0.00    -0.203 F 
ATOM     79  C   UNL A   1      51.551  26.024  26.989  1.00  0.00     0.198 A 
ATOM     80  C   UNL A   1      51.057  26.577  24.707  1.00  0.00     0.198 A 
ATOM     81  F   UNL A   1      48.873  27.216  24.100  1.00  0.00    -0.203 F 
ATOM     82  F   UNL A   1      52.431  25.661  27.931  1.00  0.00    -0.200 F 
ATOM     83  C   UNL A   1      51.967  26.181  25.675  1.00  0.00     0.200 A 
ATOM     84  F   UNL A   1      51.450  26.708  23.433  1.00  0.00    -0.200 F 
ATOM     85  F   UNL A   1      53.245  25.951  25.343  1.00  0.00    -0.200 F 
ENDBRANCH  51  75
BRANCH  63  86
ATOM     86  C   UNL A   1      46.069  32.310  28.952  1.00  0.00     0.064 A 
ATOM     87  C   UNL A   1      46.489  32.551  30.271  1.00  0.00     0.173 A 
ATOM     88  C   UNL A   1      46.063  33.389  28.057  1.00  0.00     0.173 A 
ATOM     89  F   UNL A   1      46.504  31.556  31.169  1.00  0.00    -0.203 F 
ATOM     90  C   UNL A   1      46.874  33.825  30.678  1.00  0.00     0.198 A 
ATOM     91  C   UNL A   1      46.480  34.655  28.460  1.00  0.00     0.198 A 
ATOM     92  F   UNL A   1      45.681  33.208  26.784  1.00  0.00    -0.203 F 
ATOM     93  F   UNL A   1      47.238  34.039  31.950  1.00  0.00    -0.200 F 
ATOM     94  C   UNL A   1      46.876  34.874  29.771  1.00  0.00     0.200 A 
ATOM     95  F   UNL A   1      46.507  35.661  27.576  1.00  0.00    -0.200 F 
ATOM     96  F   UNL A   1      47.263  36.096  30.160  1.00  0.00    -0.200 F 
ENDBRANCH  63  86
ENDBRANCH  37  38
ENDBRANCH  29  32
ENDBRANCH  27  28
ENDBRANCH  26  27
ENDBRANCH  25  26
ENDBRANCH   1  25
TORSDOF 17
ENDMDL
MODEL 3
REMARK VINA RESULT:     -10.8      5.195     10.889
REMARK SMILES COC[C@@H](NS(=O)(=O)c1ccc(C(=O)NCCCCNC(=O)c2ccc(-c3c4nc(c(-c5c(F)c(F)c(F)c(F)c5F)c5ccc([nH]5)c(-c5c(F)c(F)c(F)c(F)c5F)c5nc(c(-c6c(F)c(F)c(F)c(F)c6F)c6ccc3[nH]6)C=C5)C=C4)cc2)cc1F)C(C)C
REMARK SMILES IDX 16 1 15 2 13 3 14 4 12 6 9 7 10 8 87 9 11 10 86 11 88 12
REMARK SMILES IDX 6 13 7 14 8 15 5 16 4 18 3 19 2 20 1 21 89 22 90 23 91 24
REMARK SMILES IDX 17 25 18 26 19 27 20 28 21 29 22 31 23 32 24 33 85 34 25 35
REMARK SMILES IDX 84 36 26 37 27 38 28 39 78 40 29 41 83 42 77 43 79 44 30 45
REMARK SMILES IDX 82 46 76 47 75 48 31 50 63 51 43 52 62 53 44 54 47 55 61 56
REMARK SMILES IDX 80 57 45 58 46 59 60 61 81 62 48 63 32 64 33 65 41 66 34 67
REMARK SMILES IDX 35 68 39 69 42 70 36 71 37 72 40 73 38 74 64 75 65 76 73 77
REMARK SMILES IDX 66 78 67 79 71 80 74 81 68 82 69 83 72 84 70 85 49 86 50 87
REMARK SMILES IDX 58 88 51 89 52 90 56 91 59 92 53 93 54 94 57 95 55 96
REMARK H PARENT 15 5 5 17 20 30 79 49 47 60
REMARK Flexibility Score: inf
ROOT
ATOM      1  C   UNL A   1      36.675  21.199  25.334  1.00  0.00     0.116 C 
ENDROOT
BRANCH   1   2
ATOM      2  N   UNL A   1      36.893  21.913  24.096  1.00  0.00    -0.352 N 
ATOM      3  C   UNL A   1      36.124  22.874  23.502  1.00  0.00     0.251 C 
ATOM      4  O   UNL A   1      36.505  23.402  22.461  1.00  0.00    -0.269 OA
ATOM      5  H   UNL A   1      37.715  21.673  23.610  1.00  0.00     0.163 HD
BRANCH   3   6
ATOM      6  C   UNL A   1      34.846  23.312  24.102  1.00  0.00     0.042 A 
ATOM      7  C   UNL A   1      32.467  24.505  24.906  1.00  0.00     0.118 A 
ATOM      8  C   UNL A   1      33.683  25.035  25.349  1.00  0.00     0.026 A 
ATOM      9  C   UNL A   1      32.436  23.327  24.165  1.00  0.00     0.144 A 
ATOM     10  C   UNL A   1      34.874  24.442  24.930  1.00  0.00     0.015 A 
ATOM     11  C   UNL A   1      33.623  22.736  23.742  1.00  0.00     0.054 A 
ATOM     12  F   UNL A   1      31.281  22.802  23.735  1.00  0.00    -0.205 F 
BRANCH   7  13
ATOM     13  S   UNL A   1      30.981  25.448  25.052  1.00  0.00     0.243 S 
ATOM     14  O   UNL A   1      30.577  25.430  26.444  1.00  0.00    -0.207 OA
ATOM     15  O   UNL A   1      30.087  25.026  24.004  1.00  0.00    -0.207 OA
BRANCH  13  16
ATOM     16  N   UNL A   1      31.518  27.006  24.650  1.00  0.00    -0.205 NA
ATOM     17  H   UNL A   1      30.936  27.660  25.176  1.00  0.00     0.141 HD
BRANCH  16  18
ATOM     18  C   UNL A   1      31.508  27.475  23.231  1.00  0.00     0.098 C 
BRANCH  18  19
ATOM     19  C   UNL A   1      32.974  27.730  22.785  1.00  0.00     0.180 C 
BRANCH  19  20
ATOM     20  O   UNL A   1      33.570  26.582  22.187  1.00  0.00    -0.383 OA
ATOM     21  C   UNL A   1      32.703  25.829  21.355  1.00  0.00     0.194 C 
ENDBRANCH  19  20
ENDBRANCH  18  19
BRANCH  18  22
ATOM     22  C   UNL A   1      30.714  28.806  23.058  1.00  0.00     0.003 C 
ATOM     23  C   UNL A   1      29.235  28.517  22.753  1.00  0.00     0.009 C 
ATOM     24  C   UNL A   1      30.747  29.749  24.251  1.00  0.00     0.009 C 
ENDBRANCH  18  22
ENDBRANCH  16  18
ENDBRANCH  13  16
ENDBRANCH   7  13
ENDBRANCH   3   6
ENDBRANCH   1   2
BRANCH   1  25
ATOM     25  C   UNL A   1      36.764  19.693  25.098  1.00  0.00     0.023 C 
BRANCH  25  26
ATOM     26  C   UNL A   1      38.183  19.191  24.813  1.00  0.00     0.023 C 
BRANCH  26  27
ATOM     27  C   UNL A   1      39.252  19.739  25.751  1.00  0.00     0.116 C 
BRANCH  27  28
ATOM     28  N   UNL A   1      40.416  18.873  25.853  1.00  0.00    -0.352 N 
ATOM     29  C   UNL A   1      41.721  19.218  26.090  1.00  0.00     0.251 C 
ATOM     30  H   UNL A   1      40.243  17.912  25.737  1.00  0.00     0.163 HD
ATOM     31  O   UNL A   1      42.609  18.375  26.020  1.00  0.00    -0.269 OA
BRANCH  29  32
ATOM     32  C   UNL A   1      42.054  20.622  26.396  1.00  0.00     0.039 A 
ATOM     33  C   UNL A   1      42.279  20.980  27.725  1.00  0.00     0.014 A 
ATOM     34  C   UNL A   1      42.150  21.574  25.376  1.00  0.00     0.014 A 
ATOM     35  C   UNL A   1      42.639  22.291  28.030  1.00  0.00     0.010 A 
ATOM     36  C   UNL A   1      42.586  22.860  25.673  1.00  0.00     0.010 A 
ATOM     37  C   UNL A   1      42.815  23.235  27.003  1.00  0.00    -0.014 A 
BRANCH  37  38
ATOM     38  C   UNL A   1      43.216  24.626  27.322  1.00  0.00     0.031 A 
ATOM     39  C   UNL A   1      44.612  25.093  27.024  1.00  0.00     0.074 A 
ATOM     40  C   UNL A   1      42.325  25.456  27.897  1.00  0.00     0.049 A 
ATOM     41  N   UNL A   1      45.144  26.275  27.213  1.00  0.00    -0.248 NA
ATOM     42  C   UNL A   1      45.543  24.101  26.464  1.00  0.00     0.031 C 
ATOM     43  C   UNL A   1      40.961  25.092  28.282  1.00  0.00     0.029 A 
ATOM     44  N   UNL A   1      42.431  26.776  28.250  1.00  0.00    -0.354 N 
ATOM     45  C   UNL A   1      46.464  26.163  26.800  1.00  0.00     0.074 A 
ATOM     46  C   UNL A   1      46.675  24.786  26.415  1.00  0.00     0.031 C 
ATOM     47  C   UNL A   1      40.342  26.176  28.777  1.00  0.00     0.029 A 
ATOM     48  C   UNL A   1      41.274  27.299  28.772  1.00  0.00     0.049 A 
ATOM     49  H   UNL A   1      43.258  27.300  28.140  1.00  0.00     0.167 HD
ATOM     50  C   UNL A   1      47.407  27.132  26.720  1.00  0.00     0.037 A 
ATOM     51  C   UNL A   1      40.993  28.549  29.186  1.00  0.00     0.037 A 
ATOM     52  C   UNL A   1      47.180  28.506  27.080  1.00  0.00     0.049 A 
ATOM     53  C   UNL A   1      42.052  29.612  29.071  1.00  0.00     0.074 A 
ATOM     54  C   UNL A   1      48.054  29.575  26.993  1.00  0.00     0.029 A 
ATOM     55  N   UNL A   1      45.990  29.001  27.594  1.00  0.00    -0.354 N 
ATOM     56  N   UNL A   1      43.279  29.510  28.622  1.00  0.00    -0.248 NA
ATOM     57  C   UNL A   1      41.682  30.966  29.504  1.00  0.00     0.031 C 
ATOM     58  C   UNL A   1      47.409  30.707  27.498  1.00  0.00     0.029 A 
ATOM     59  C   UNL A   1      46.113  30.359  27.843  1.00  0.00     0.049 A 
ATOM     60  H   UNL A   1      45.180  28.467  27.758  1.00  0.00     0.167 HD
ATOM     61  C   UNL A   1      43.819  30.787  28.692  1.00  0.00     0.074 A 
ATOM     62  C   UNL A   1      42.780  31.650  29.213  1.00  0.00     0.031 C 
ATOM     63  C   UNL A   1      45.065  31.205  28.355  1.00  0.00     0.037 A 
BRANCH  50  64
ATOM     64  C   UNL A   1      48.764  26.746  26.207  1.00  0.00     0.064 A 
ATOM     65  C   UNL A   1      49.745  26.258  27.082  1.00  0.00     0.173 A 
ATOM     66  C   UNL A   1      49.114  26.916  24.858  1.00  0.00     0.173 A 
ATOM     67  F   UNL A   1      49.465  26.079  28.382  1.00  0.00    -0.203 F 
ATOM     68  C   UNL A   1      51.029  25.966  26.629  1.00  0.00     0.198 A 
ATOM     69  C   UNL A   1      50.389  26.594  24.403  1.00  0.00     0.198 A 
ATOM     70  F   UNL A   1      48.208  27.365  23.977  1.00  0.00    -0.203 F 
ATOM     71  F   UNL A   1      51.960  25.532  27.490  1.00  0.00    -0.200 F 
ATOM     72  C   UNL A   1      51.349  26.129  25.289  1.00  0.00     0.200 A 
ATOM     73  F   UNL A   1      50.687  26.725  23.102  1.00  0.00    -0.200 F 
ATOM     74  F   UNL A   1      52.581  25.836  24.852  1.00  0.00    -0.200 F 
ENDBRANCH  50  64
BRANCH  51  75
ATOM     75  C   UNL A   1      39.632  28.867  29.688  1.00  0.00     0.064 A 
ATOM     76  C   UNL A   1      38.648  29.404  28.845  1.00  0.00     0.173 A 
ATOM     77  C   UNL A   1      39.299  28.675  31.037  1.00  0.00     0.173 A 
ATOM     78  F   UNL A   1      38.918  29.614  27.548  1.00  0.00    -0.203 F 
ATOM     79  C   UNL A   1      37.391  29.753  29.335  1.00  0.00     0.198 A 
ATOM     80  C   UNL A   1      38.034  28.999  31.520  1.00  0.00     0.198 A 
ATOM     81  F   UNL A   1      40.201  28.149  31.879  1.00  0.00    -0.203 F 
ATOM     82  F   UNL A   1      36.483  30.299  28.515  1.00  0.00    -0.200 F 
ATOM     83  C   UNL A   1      37.084  29.546  30.671  1.00  0.00     0.200 A 
ATOM     84  F   UNL A   1      37.733  28.777  32.807  1.00  0.00    -0.200 F 
ATOM     85  F   UNL A   1      35.871  29.873  31.140  1.00  0.00    -0.200 F 
ENDBRANCH  51  75
BRANCH  63  86
ATOM     86  C   UNL A   1      45.370  32.667  28.505  1.00  0.00     0.064 A 
ATOM     87  C   UNL A   1      45.895  33.160  29.710  1.00  0.00     0.173 A 
ATOM     88  C   UNL A   1      45.085  33.588  27.487  1.00  0.00     0.173 A 
ATOM     89  F   UNL A   1      46.176  32.322  30.719  1.00  0.00    -0.203 F 
ATOM     90  C   UNL A   1      46.113  34.523  29.893  1.00  0.00     0.198 A 
ATOM     91  C   UNL A   1      45.334  34.946  27.662  1.00  0.00     0.198 A 
ATOM     92  F   UNL A   1      44.591  33.165  26.313  1.00  0.00    -0.203 F 
ATOM     93  F   UNL A   1      46.583  34.974  31.063  1.00  0.00    -0.200 F 
ATOM     94  C   UNL A   1      45.838  35.413  28.866  1.00  0.00     0.200 A 
ATOM     95  F   UNL A   1      45.094  35.803  26.660  1.00  0.00    -0.200 F 
ATOM     96  F   UNL A   1      46.064  36.723  29.037  1.00  0.00    -0.200 F 
ENDBRANCH  63  86
ENDBRANCH  37  38
ENDBRANCH  29  32
ENDBRANCH  27  28
ENDBRANCH  26  27
ENDBRANCH  25  26
ENDBRANCH   1  25
TORSDOF 17
ENDMDL
