MODEL 1
REMARK VINA RESULT:     -10.3      0.000      0.000
REMARK SMILES CC[C@@H](CCC(=O)NCCCCNC(=O)c1ccc(-c2c3nc(c(-c4c(F)c(F)c(F)c(F)c4F)c4ccc([nH]4)c(-c4c(F)c(F)c(F)c(F)c4F)c4nc(c(-c5c(F)c(F)c(F)c(F)c5F)c5ccc2[nH]5)C=C4)C=C3)cc1)CC[N@H+]1CCC[C@@H]1C
REMARK SMILES IDX 9 1 8 2 6 3 7 4 5 6 4 7 3 8 2 9 1 10 79 11 80 12 81 13 82 14
REMARK SMILES IDX 85 15 83 17 84 18 86 19 10 20 11 21 12 22 13 23 14 24 15 26
REMARK SMILES IDX 16 27 17 28 78 29 18 30 77 31 19 32 20 33 21 34 71 35 22 36
REMARK SMILES IDX 76 37 70 38 72 39 23 40 75 41 69 42 68 43 24 45 56 46 36 47
REMARK SMILES IDX 55 48 37 49 40 50 54 51 73 52 38 53 39 54 53 56 74 57 41 58
REMARK SMILES IDX 25 59 26 60 34 61 27 62 28 63 32 64 35 65 29 66 30 67 33 68
REMARK SMILES IDX 31 69 57 70 58 71 66 72 59 73 60 74 64 75 67 76 61 77 62 78
REMARK SMILES IDX 65 79 63 80 42 81 43 82 51 83 44 84 45 85 49 86 52 87 46 88
REMARK SMILES IDX 47 89 50 90 48 91
REMARK H PARENT 8 5 81 16 13 25 72 44 40 55
REMARK Flexibility Score: inf
ROOT
ATOM      1  C   UNL A   1      35.115  32.527  28.208  1.00  0.00     0.116 C 
ENDROOT
BRANCH   1   2
ATOM      2  N   UNL A   1      36.186  31.614  27.851  1.00  0.00    -0.356 N 
ATOM      3  C   UNL A   1      36.213  30.261  27.737  1.00  0.00     0.220 C 
ATOM      4  O   UNL A   1      37.286  29.728  27.448  1.00  0.00    -0.275 OA
ATOM      5  H   UNL A   1      37.044  32.056  27.657  1.00  0.00     0.163 HD
BRANCH   3   6
ATOM      6  C   UNL A   1      34.961  29.442  27.941  1.00  0.00     0.100 C 
BRANCH   6   7
ATOM      7  C   UNL A   1      34.276  29.024  26.630  1.00  0.00     0.013 C 
BRANCH   7   8
ATOM      8  C   UNL A   1      32.794  28.550  26.699  1.00  0.00    -0.005 C 
BRANCH   8   9
ATOM      9  C   UNL A   1      32.646  27.027  26.527  1.00  0.00     0.000 C 
ATOM     10  C   UNL A   1      33.798  26.402  25.752  1.00  0.00     0.004 C 
ENDBRANCH   8   9
BRANCH   8  11
ATOM     11  C   UNL A   1      31.890  29.431  25.792  1.00  0.00     0.065 C 
BRANCH  11  12
ATOM     12  C   UNL A   1      32.201  29.563  24.286  1.00  0.00     0.262 C 
BRANCH  12  13
ATOM     13  N   UNL A   1      31.326  29.067  23.231  1.00  0.00    -0.333 N 
ATOM     14  C   UNL A   1      31.451  27.627  22.983  1.00  0.00     0.262 C 
ATOM     15  C   UNL A   1      29.913  29.421  23.202  1.00  0.00     0.181 C 
ATOM     16  H   UNL A   1      31.728  29.626  22.478  1.00  0.00     0.348 HD
ATOM     17  C   UNL A   1      30.178  27.037  23.552  1.00  0.00     0.067 C 
ATOM     18  C   UNL A   1      29.136  28.101  23.260  1.00  0.00     0.070 C 
ATOM     19  C   UNL A   1      29.619  30.191  21.916  1.00  0.00     0.075 C 
ENDBRANCH  12  13
ENDBRANCH  11  12
ENDBRANCH   8  11
ENDBRANCH   7   8
ENDBRANCH   6   7
ENDBRANCH   3   6
ENDBRANCH   1   2
BRANCH   1  20
ATOM     20  C   UNL A   1      35.622  33.873  28.722  1.00  0.00     0.023 C 
BRANCH  20  21
ATOM     21  C   UNL A   1      34.539  34.946  28.793  1.00  0.00     0.023 C 
BRANCH  21  22
ATOM     22  C   UNL A   1      33.322  34.503  29.578  1.00  0.00     0.116 C 
BRANCH  22  23
ATOM     23  N   UNL A   1      32.610  35.530  30.322  1.00  0.00    -0.352 N 
ATOM     24  C   UNL A   1      32.831  35.900  31.639  1.00  0.00     0.251 C 
ATOM     25  H   UNL A   1      31.898  36.010  29.842  1.00  0.00     0.163 HD
ATOM     26  O   UNL A   1      32.151  36.769  32.174  1.00  0.00    -0.269 OA
BRANCH  24  27
ATOM     27  C   UNL A   1      33.865  35.171  32.419  1.00  0.00     0.039 A 
ATOM     28  C   UNL A   1      33.580  33.901  32.928  1.00  0.00     0.014 A 
ATOM     29  C   UNL A   1      35.156  35.683  32.519  1.00  0.00     0.014 A 
ATOM     30  C   UNL A   1      34.623  33.101  33.415  1.00  0.00     0.010 A 
ATOM     31  C   UNL A   1      36.201  34.838  32.853  1.00  0.00     0.010 A 
ATOM     32  C   UNL A   1      35.954  33.534  33.310  1.00  0.00    -0.014 A 
BRANCH  32  33
ATOM     33  C   UNL A   1      37.127  32.694  33.685  1.00  0.00     0.031 A 
ATOM     34  C   UNL A   1      37.804  32.943  35.009  1.00  0.00     0.074 A 
ATOM     35  C   UNL A   1      37.673  31.829  32.807  1.00  0.00     0.049 A 
ATOM     36  N   UNL A   1      38.995  32.588  35.420  1.00  0.00    -0.248 NA
ATOM     37  C   UNL A   1      37.063  33.774  35.974  1.00  0.00     0.031 C 
ATOM     38  C   UNL A   1      37.157  31.519  31.472  1.00  0.00     0.029 A 
ATOM     39  N   UNL A   1      38.811  31.065  32.902  1.00  0.00    -0.354 N 
ATOM     40  C   UNL A   1      39.168  33.214  36.647  1.00  0.00     0.074 A 
ATOM     41  C   UNL A   1      37.987  34.012  36.890  1.00  0.00     0.031 C 
ATOM     42  C   UNL A   1      37.952  30.608  30.890  1.00  0.00     0.029 A 
ATOM     43  C   UNL A   1      39.070  30.312  31.781  1.00  0.00     0.049 A 
ATOM     44  H   UNL A   1      39.388  31.056  33.700  1.00  0.00     0.167 HD
ATOM     45  C   UNL A   1      40.206  33.111  37.511  1.00  0.00     0.037 A 
ATOM     46  C   UNL A   1      40.099  29.489  31.501  1.00  0.00     0.037 A 
ATOM     47  C   UNL A   1      41.328  32.235  37.312  1.00  0.00     0.049 A 
ATOM     48  C   UNL A   1      41.203  29.326  32.514  1.00  0.00     0.074 A 
ATOM     49  C   UNL A   1      42.406  32.004  38.148  1.00  0.00     0.029 A 
ATOM     50  N   UNL A   1      41.494  31.416  36.205  1.00  0.00    -0.354 N 
ATOM     51  N   UNL A   1      41.355  29.917  33.674  1.00  0.00    -0.248 NA
ATOM     52  C   UNL A   1      42.278  28.382  32.177  1.00  0.00     0.031 C 
ATOM     53  C   UNL A   1      43.227  31.046  37.545  1.00  0.00     0.029 A 
ATOM     54  C   UNL A   1      42.645  30.661  36.348  1.00  0.00     0.049 A 
ATOM     55  H   UNL A   1      40.885  31.377  35.433  1.00  0.00     0.167 HD
ATOM     56  C   UNL A   1      42.515  29.388  34.223  1.00  0.00     0.074 A 
ATOM     57  C   UNL A   1      43.028  28.426  33.269  1.00  0.00     0.031 C 
ATOM     58  C   UNL A   1      43.104  29.673  35.407  1.00  0.00     0.037 A 
BRANCH  45  59
ATOM     59  C   UNL A   1      40.157  33.942  38.761  1.00  0.00     0.064 A 
ATOM     60  C   UNL A   1      39.478  33.505  39.908  1.00  0.00     0.173 A 
ATOM     61  C   UNL A   1      40.808  35.184  38.818  1.00  0.00     0.173 A 
ATOM     62  F   UNL A   1      38.828  32.331  39.902  1.00  0.00    -0.203 F 
ATOM     63  C   UNL A   1      39.417  34.297  41.052  1.00  0.00     0.198 A 
ATOM     64  C   UNL A   1      40.773  35.958  39.975  1.00  0.00     0.198 A 
ATOM     65  F   UNL A   1      41.476  35.648  37.752  1.00  0.00    -0.203 F 
ATOM     66  F   UNL A   1      38.706  33.886  42.111  1.00  0.00    -0.200 F 
ATOM     67  C   UNL A   1      40.069  35.519  41.087  1.00  0.00     0.200 A 
ATOM     68  F   UNL A   1      41.415  37.134  40.012  1.00  0.00    -0.200 F 
ATOM     69  F   UNL A   1      40.010  36.280  42.188  1.00  0.00    -0.200 F 
ENDBRANCH  45  59
BRANCH  46  70
ATOM     70  C   UNL A   1      40.123  28.721  30.229  1.00  0.00     0.064 A 
ATOM     71  C   UNL A   1      40.764  29.243  29.096  1.00  0.00     0.173 A 
ATOM     72  C   UNL A   1      39.499  27.472  30.105  1.00  0.00     0.173 A 
ATOM     73  F   UNL A   1      41.356  30.446  29.159  1.00  0.00    -0.203 F 
ATOM     74  C   UNL A   1      40.758  28.559  27.882  1.00  0.00     0.198 A 
ATOM     75  C   UNL A   1      39.517  26.775  28.897  1.00  0.00     0.198 A 
ATOM     76  F   UNL A   1      38.875  26.925  31.160  1.00  0.00    -0.203 F 
ATOM     77  F   UNL A   1      41.334  29.108  26.804  1.00  0.00    -0.200 F 
ATOM     78  C   UNL A   1      40.137  27.324  27.785  1.00  0.00     0.200 A 
ATOM     79  F   UNL A   1      38.924  25.577  28.809  1.00  0.00    -0.200 F 
ATOM     80  F   UNL A   1      40.128  26.668  26.617  1.00  0.00    -0.200 F 
ENDBRANCH  46  70
BRANCH  58  81
ATOM     81  C   UNL A   1      44.321  28.883  35.784  1.00  0.00     0.064 A 
ATOM     82  C   UNL A   1      45.611  29.307  35.438  1.00  0.00     0.173 A 
ATOM     83  C   UNL A   1      44.190  27.726  36.566  1.00  0.00     0.173 A 
ATOM     84  F   UNL A   1      45.782  30.400  34.681  1.00  0.00    -0.203 F 
ATOM     85  C   UNL A   1      46.729  28.590  35.853  1.00  0.00     0.198 A 
ATOM     86  C   UNL A   1      45.312  27.025  36.998  1.00  0.00     0.198 A 
ATOM     87  F   UNL A   1      42.975  27.288  36.928  1.00  0.00    -0.203 F 
ATOM     88  F   UNL A   1      47.954  28.994  35.488  1.00  0.00    -0.200 F 
ATOM     89  C   UNL A   1      46.580  27.456  36.639  1.00  0.00     0.200 A 
ATOM     90  F   UNL A   1      45.166  25.938  37.768  1.00  0.00    -0.200 F 
ATOM     91  F   UNL A   1      47.660  26.777  37.050  1.00  0.00    -0.200 F 
ENDBRANCH  58  81
ENDBRANCH  32  33
ENDBRANCH  24  27
ENDBRANCH  22  23
ENDBRANCH  21  22
ENDBRANCH  20  21
ENDBRANCH   1  20
TORSDOF 17
ENDMDL
MODEL 2
REMARK VINA RESULT:     -10.3      7.692     13.247
REMARK SMILES CC[C@@H](CCC(=O)NCCCCNC(=O)c1ccc(-c2c3nc(c(-c4c(F)c(F)c(F)c(F)c4F)c4ccc([nH]4)c(-c4c(F)c(F)c(F)c(F)c4F)c4nc(c(-c5c(F)c(F)c(F)c(F)c5F)c5ccc2[nH]5)C=C4)C=C3)cc1)CC[N@H+]1CCC[C@@H]1C
REMARK SMILES IDX 9 1 8 2 6 3 7 4 5 6 4 7 3 8 2 9 1 10 79 11 80 12 81 13 82 14
REMARK SMILES IDX 85 15 83 17 84 18 86 19 10 20 11 21 12 22 13 23 14 24 15 26
REMARK SMILES IDX 16 27 17 28 78 29 18 30 77 31 19 32 20 33 21 34 71 35 22 36
REMARK SMILES IDX 76 37 70 38 72 39 23 40 75 41 69 42 68 43 24 45 56 46 36 47
REMARK SMILES IDX 55 48 37 49 40 50 54 51 73 52 38 53 39 54 53 56 74 57 41 58
REMARK SMILES IDX 25 59 26 60 34 61 27 62 28 63 32 64 35 65 29 66 30 67 33 68
REMARK SMILES IDX 31 69 57 70 58 71 66 72 59 73 60 74 64 75 67 76 61 77 62 78
REMARK SMILES IDX 65 79 63 80 42 81 43 82 51 83 44 84 45 85 49 86 52 87 46 88
REMARK SMILES IDX 47 89 50 90 48 91
REMARK H PARENT 8 5 81 16 13 25 72 44 40 55
REMARK Flexibility Score: inf
ROOT
ATOM      1  C   UNL A   1      39.398  21.499  26.094  1.00  0.00     0.116 C 
ENDROOT
BRANCH   1   2
ATOM      2  N   UNL A   1      39.478  22.924  26.355  1.00  0.00    -0.356 N 
ATOM      3  C   UNL A   1      38.533  23.899  26.321  1.00  0.00     0.220 C 
ATOM      4  O   UNL A   1      38.888  25.056  26.556  1.00  0.00    -0.275 OA
ATOM      5  H   UNL A   1      40.378  23.239  26.600  1.00  0.00     0.163 HD
BRANCH   3   6
ATOM      6  C   UNL A   1      37.089  23.567  26.024  1.00  0.00     0.100 C 
BRANCH   6   7
ATOM      7  C   UNL A   1      36.821  23.252  24.543  1.00  0.00     0.013 C 
BRANCH   7   8
ATOM      8  C   UNL A   1      35.625  22.316  24.202  1.00  0.00    -0.005 C 
BRANCH   8   9
ATOM      9  C   UNL A   1      34.317  23.088  23.942  1.00  0.00     0.000 C 
ATOM     10  C   UNL A   1      33.283  22.267  23.184  1.00  0.00     0.004 C 
ENDBRANCH   8   9
BRANCH   8  11
ATOM     11  C   UNL A   1      35.535  21.142  25.216  1.00  0.00     0.065 C 
BRANCH  11  12
ATOM     12  C   UNL A   1      35.686  19.685  24.728  1.00  0.00     0.262 C 
BRANCH  12  13
ATOM     13  N   UNL A   1      34.696  18.643  24.972  1.00  0.00    -0.333 N 
ATOM     14  C   UNL A   1      33.314  19.130  25.004  1.00  0.00     0.262 C 
ATOM     15  C   UNL A   1      34.729  17.391  24.226  1.00  0.00     0.181 C 
ATOM     16  H   UNL A   1      35.036  18.378  25.897  1.00  0.00     0.348 HD
ATOM     17  C   UNL A   1      32.709  18.628  23.710  1.00  0.00     0.067 C 
ATOM     18  C   UNL A   1      33.379  17.282  23.507  1.00  0.00     0.070 C 
ATOM     19  C   UNL A   1      34.941  16.236  25.202  1.00  0.00     0.075 C 
ENDBRANCH  12  13
ENDBRANCH  11  12
ENDBRANCH   8  11
ENDBRANCH   7   8
ENDBRANCH   6   7
ENDBRANCH   3   6
ENDBRANCH   1   2
BRANCH   1  20
ATOM     20  C   UNL A   1      40.393  20.683  26.918  1.00  0.00     0.023 C 
BRANCH  20  21
ATOM     21  C   UNL A   1      41.111  19.603  26.112  1.00  0.00     0.023 C 
BRANCH  21  22
ATOM     22  C   UNL A   1      42.618  19.684  26.231  1.00  0.00     0.116 C 
BRANCH  22  23
ATOM     23  N   UNL A   1      43.395  18.863  25.316  1.00  0.00    -0.352 N 
ATOM     24  C   UNL A   1      44.490  19.266  24.568  1.00  0.00     0.251 C 
ATOM     25  H   UNL A   1      43.115  17.925  25.217  1.00  0.00     0.163 HD
ATOM     26  O   UNL A   1      45.057  18.489  23.808  1.00  0.00    -0.269 OA
BRANCH  24  27
ATOM     27  C   UNL A   1      44.922  20.686  24.650  1.00  0.00     0.039 A 
ATOM     28  C   UNL A   1      44.489  21.598  23.684  1.00  0.00     0.014 A 
ATOM     29  C   UNL A   1      45.633  21.137  25.759  1.00  0.00     0.014 A 
ATOM     30  C   UNL A   1      44.658  22.972  23.904  1.00  0.00     0.010 A 
ATOM     31  C   UNL A   1      45.660  22.492  26.047  1.00  0.00     0.010 A 
ATOM     32  C   UNL A   1      45.176  23.434  25.125  1.00  0.00    -0.014 A 
BRANCH  32  33
ATOM     33  C   UNL A   1      45.269  24.875  25.489  1.00  0.00     0.031 A 
ATOM     34  C   UNL A   1      46.600  25.572  25.358  1.00  0.00     0.074 A 
ATOM     35  C   UNL A   1      44.233  25.516  26.066  1.00  0.00     0.049 A 
ATOM     36  N   UNL A   1      47.015  26.692  25.894  1.00  0.00    -0.248 NA
ATOM     37  C   UNL A   1      47.630  24.868  24.575  1.00  0.00     0.031 C 
ATOM     38  C   UNL A   1      42.900  24.957  26.301  1.00  0.00     0.029 A 
ATOM     39  N   UNL A   1      44.150  26.786  26.586  1.00  0.00    -0.354 N 
ATOM     40  C   UNL A   1      48.364  26.781  25.576  1.00  0.00     0.074 A 
ATOM     41  C   UNL A   1      48.711  25.580  24.850  1.00  0.00     0.031 C 
ATOM     42  C   UNL A   1      42.126  25.886  26.884  1.00  0.00     0.029 A 
ATOM     43  C   UNL A   1      42.920  27.087  27.121  1.00  0.00     0.049 A 
ATOM     44  H   UNL A   1      44.902  27.422  26.575  1.00  0.00     0.167 HD
ATOM     45  C   UNL A   1      49.231  27.787  25.840  1.00  0.00     0.037 A 
ATOM     46  C   UNL A   1      42.490  28.201  27.745  1.00  0.00     0.037 A 
ATOM     47  C   UNL A   1      48.855  29.023  26.470  1.00  0.00     0.049 A 
ATOM     48  C   UNL A   1      43.452  29.342  27.954  1.00  0.00     0.074 A 
ATOM     49  C   UNL A   1      49.635  30.134  26.731  1.00  0.00     0.029 A 
ATOM     50  N   UNL A   1      47.571  29.321  26.904  1.00  0.00    -0.354 N 
ATOM     51  N   UNL A   1      44.723  29.418  27.646  1.00  0.00    -0.248 NA
ATOM     52  C   UNL A   1      42.918  30.550  28.599  1.00  0.00     0.031 C 
ATOM     53  C   UNL A   1      48.825  31.105  27.328  1.00  0.00     0.029 A 
ATOM     54  C   UNL A   1      47.534  30.608  27.410  1.00  0.00     0.049 A 
ATOM     55  H   UNL A   1      46.802  28.708  26.858  1.00  0.00     0.167 HD
ATOM     56  C   UNL A   1      45.130  30.693  28.018  1.00  0.00     0.074 A 
ATOM     57  C   UNL A   1      43.970  31.356  28.576  1.00  0.00     0.031 C 
ATOM     58  C   UNL A   1      46.354  31.261  27.911  1.00  0.00     0.037 A 
BRANCH  45  59
ATOM     59  C   UNL A   1      50.661  27.602  25.419  1.00  0.00     0.064 A 
ATOM     60  C   UNL A   1      51.072  27.828  24.096  1.00  0.00     0.173 A 
ATOM     61  C   UNL A   1      51.633  27.207  26.350  1.00  0.00     0.173 A 
ATOM     62  F   UNL A   1      50.180  28.193  23.164  1.00  0.00    -0.203 F 
ATOM     63  C   UNL A   1      52.396  27.626  23.712  1.00  0.00     0.198 A 
ATOM     64  C   UNL A   1      52.963  27.040  25.970  1.00  0.00     0.198 A 
ATOM     65  F   UNL A   1      51.296  26.983  27.628  1.00  0.00    -0.203 F 
ATOM     66  F   UNL A   1      52.750  27.785  22.430  1.00  0.00    -0.200 F 
ATOM     67  C   UNL A   1      53.340  27.239  24.650  1.00  0.00     0.200 A 
ATOM     68  F   UNL A   1      53.878  26.679  26.879  1.00  0.00    -0.200 F 
ATOM     69  F   UNL A   1      54.614  27.047  24.279  1.00  0.00    -0.200 F 
ENDBRANCH  45  59
BRANCH  46  70
ATOM     70  C   UNL A   1      41.074  28.318  28.183  1.00  0.00     0.064 A 
ATOM     71  C   UNL A   1      40.113  28.887  27.335  1.00  0.00     0.173 A 
ATOM     72  C   UNL A   1      40.652  27.889  29.449  1.00  0.00     0.173 A 
ATOM     73  F   UNL A   1      40.473  29.334  26.122  1.00  0.00    -0.203 F 
ATOM     74  C   UNL A   1      38.791  29.048  27.745  1.00  0.00     0.198 A 
ATOM     75  C   UNL A   1      39.323  28.024  29.849  1.00  0.00     0.198 A 
ATOM     76  F   UNL A   1      41.530  27.332  30.297  1.00  0.00    -0.203 F 
ATOM     77  F   UNL A   1      37.908  29.642  26.933  1.00  0.00    -0.200 F 
ATOM     78  C   UNL A   1      38.396  28.612  29.000  1.00  0.00     0.200 A 
ATOM     79  F   UNL A   1      38.942  27.594  31.059  1.00  0.00    -0.200 F 
ATOM     80  F   UNL A   1      37.126  28.769  29.397  1.00  0.00    -0.200 F 
ENDBRANCH  46  70
BRANCH  58  81
ATOM     81  C   UNL A   1      46.490  32.695  28.325  1.00  0.00     0.064 A 
ATOM     82  C   UNL A   1      46.873  33.053  29.624  1.00  0.00     0.173 A 
ATOM     83  C   UNL A   1      46.304  33.718  27.383  1.00  0.00     0.173 A 
ATOM     84  F   UNL A   1      47.049  32.110  30.562  1.00  0.00    -0.203 F 
ATOM     85  C   UNL A   1      47.054  34.390  29.969  1.00  0.00     0.198 A 
ATOM     86  C   UNL A   1      46.508  35.050  27.725  1.00  0.00     0.198 A 
ATOM     87  F   UNL A   1      45.944  33.420  26.125  1.00  0.00    -0.203 F 
ATOM     88  F   UNL A   1      47.392  34.716  31.224  1.00  0.00    -0.200 F 
ATOM     89  C   UNL A   1      46.880  35.386  29.018  1.00  0.00     0.200 A 
ATOM     90  F   UNL A   1      46.353  36.009  26.802  1.00  0.00    -0.200 F 
ATOM     91  F   UNL A   1      47.070  36.670  29.349  1.00  0.00    -0.200 F 
ENDBRANCH  58  81
ENDBRANCH  32  33
ENDBRANCH  24  27
ENDBRANCH  22  23
ENDBRANCH  21  22
ENDBRANCH  20  21
ENDBRANCH   1  20
TORSDOF 17
ENDMDL
MODEL 3
REMARK VINA RESULT:     -10.2      7.531     12.971
REMARK SMILES CC[C@@H](CCC(=O)NCCCCNC(=O)c1ccc(-c2c3nc(c(-c4c(F)c(F)c(F)c(F)c4F)c4ccc([nH]4)c(-c4c(F)c(F)c(F)c(F)c4F)c4nc(c(-c5c(F)c(F)c(F)c(F)c5F)c5ccc2[nH]5)C=C4)C=C3)cc1)CC[N@H+]1CCC[C@@H]1C
REMARK SMILES IDX 9 1 8 2 6 3 7 4 5 6 4 7 3 8 2 9 1 10 79 11 80 12 81 13 82 14
REMARK SMILES IDX 85 15 83 17 84 18 86 19 10 20 11 21 12 22 13 23 14 24 15 26
REMARK SMILES IDX 16 27 17 28 78 29 18 30 77 31 19 32 20 33 21 34 71 35 22 36
REMARK SMILES IDX 76 37 70 38 72 39 23 40 75 41 69 42 68 43 24 45 56 46 36 47
REMARK SMILES IDX 55 48 37 49 40 50 54 51 73 52 38 53 39 54 53 56 74 57 41 58
REMARK SMILES IDX 25 59 26 60 34 61 27 62 28 63 32 64 35 65 29 66 30 67 33 68
REMARK SMILES IDX 31 69 57 70 58 71 66 72 59 73 60 74 64 75 67 76 61 77 62 78
REMARK SMILES IDX 65 79 63 80 42 81 43 82 51 83 44 84 45 85 49 86 52 87 46 88
REMARK SMILES IDX 47 89 50 90 48 91
REMARK H PARENT 8 5 81 16 13 25 72 44 40 55
REMARK Flexibility Score: inf
ROOT
ATOM      1  C   UNL A   1      40.065  22.414  26.541  1.00  0.00     0.116 C 
ENDROOT
BRANCH   1   2
ATOM      2  N   UNL A   1      39.069  21.536  25.956  1.00  0.00    -0.356 N 
ATOM      3  C   UNL A   1      37.896  21.800  25.325  1.00  0.00     0.220 C 
ATOM      4  O   UNL A   1      37.214  20.844  24.951  1.00  0.00    -0.275 OA
ATOM      5  H   UNL A   1      39.284  20.578  26.030  1.00  0.00     0.163 HD
BRANCH   3   6
ATOM      6  C   UNL A   1      37.455  23.223  25.076  1.00  0.00     0.100 C 
BRANCH   6   7
ATOM      7  C   UNL A   1      36.470  23.758  26.128  1.00  0.00     0.013 C 
BRANCH   7   8
ATOM      8  C   UNL A   1      34.946  23.630  25.833  1.00  0.00    -0.005 C 
BRANCH   8   9
ATOM      9  C   UNL A   1      34.250  24.997  25.686  1.00  0.00     0.000 C 
ATOM     10  C   UNL A   1      33.871  25.318  24.247  1.00  0.00     0.004 C 
ENDBRANCH   8   9
BRANCH   8  11
ATOM     11  C   UNL A   1      34.277  22.624  26.809  1.00  0.00     0.065 C 
BRANCH  11  12
ATOM     12  C   UNL A   1      33.948  21.192  26.339  1.00  0.00     0.262 C 
BRANCH  12  13
ATOM     13  N   UNL A   1      33.864  20.798  24.938  1.00  0.00    -0.333 N 
ATOM     14  C   UNL A   1      34.371  19.449  24.667  1.00  0.00     0.262 C 
ATOM     15  C   UNL A   1      32.635  20.992  24.179  1.00  0.00     0.181 C 
ATOM     16  H   UNL A   1      34.483  21.524  24.578  1.00  0.00     0.348 HD
ATOM     17  C   UNL A   1      33.129  18.628  24.396  1.00  0.00     0.067 C 
ATOM     18  C   UNL A   1      32.210  19.604  23.684  1.00  0.00     0.070 C 
ATOM     19  C   UNL A   1      32.913  21.942  23.015  1.00  0.00     0.075 C 
ENDBRANCH  12  13
ENDBRANCH  11  12
ENDBRANCH   8  11
ENDBRANCH   7   8
ENDBRANCH   6   7
ENDBRANCH   3   6
ENDBRANCH   1   2
BRANCH   1  20
ATOM     20  C   UNL A   1      41.455  21.783  26.609  1.00  0.00     0.023 C 
BRANCH  20  21
ATOM     21  C   UNL A   1      41.501  20.350  26.083  1.00  0.00     0.023 C 
BRANCH  21  22
ATOM     22  C   UNL A   1      42.767  19.619  26.477  1.00  0.00     0.116 C 
BRANCH  22  23
ATOM     23  N   UNL A   1      43.431  18.847  25.438  1.00  0.00    -0.352 N 
ATOM     24  C   UNL A   1      44.420  19.296  24.577  1.00  0.00     0.251 C 
ATOM     25  H   UNL A   1      43.148  17.910  25.335  1.00  0.00     0.163 HD
ATOM     26  O   UNL A   1      44.894  18.558  23.720  1.00  0.00    -0.269 OA
BRANCH  24  27
ATOM     27  C   UNL A   1      44.847  20.716  24.665  1.00  0.00     0.039 A 
ATOM     28  C   UNL A   1      44.341  21.649  23.755  1.00  0.00     0.014 A 
ATOM     29  C   UNL A   1      45.631  21.146  25.732  1.00  0.00     0.014 A 
ATOM     30  C   UNL A   1      44.516  23.018  23.998  1.00  0.00     0.010 A 
ATOM     31  C   UNL A   1      45.669  22.493  26.052  1.00  0.00     0.010 A 
ATOM     32  C   UNL A   1      45.115  23.453  25.191  1.00  0.00    -0.014 A 
BRANCH  32  33
ATOM     33  C   UNL A   1      45.224  24.886  25.585  1.00  0.00     0.031 A 
ATOM     34  C   UNL A   1      46.561  25.573  25.464  1.00  0.00     0.074 A 
ATOM     35  C   UNL A   1      44.195  25.526  26.178  1.00  0.00     0.049 A 
ATOM     36  N   UNL A   1      46.989  26.677  26.021  1.00  0.00    -0.248 NA
ATOM     37  C   UNL A   1      47.582  24.874  24.663  1.00  0.00     0.031 C 
ATOM     38  C   UNL A   1      42.858  24.975  26.405  1.00  0.00     0.029 A 
ATOM     39  N   UNL A   1      44.127  26.785  26.724  1.00  0.00    -0.354 N 
ATOM     40  C   UNL A   1      48.337  26.759  25.701  1.00  0.00     0.074 A 
ATOM     41  C   UNL A   1      48.671  25.569  24.949  1.00  0.00     0.031 C 
ATOM     42  C   UNL A   1      42.095  25.899  27.010  1.00  0.00     0.029 A 
ATOM     43  C   UNL A   1      42.902  27.088  27.269  1.00  0.00     0.049 A 
ATOM     44  H   UNL A   1      44.885  27.414  26.724  1.00  0.00     0.167 HD
ATOM     45  C   UNL A   1      49.216  27.750  25.983  1.00  0.00     0.037 A 
ATOM     46  C   UNL A   1      42.485  28.192  27.917  1.00  0.00     0.037 A 
ATOM     47  C   UNL A   1      48.854  28.977  26.639  1.00  0.00     0.049 A 
ATOM     48  C   UNL A   1      43.459  29.319  28.147  1.00  0.00     0.074 A 
ATOM     49  C   UNL A   1      49.646  30.074  26.921  1.00  0.00     0.029 A 
ATOM     50  N   UNL A   1      47.575  29.278  27.083  1.00  0.00    -0.354 N 
ATOM     51  N   UNL A   1      44.730  29.389  27.836  1.00  0.00    -0.248 NA
ATOM     52  C   UNL A   1      42.939  30.519  28.819  1.00  0.00     0.031 C 
ATOM     53  C   UNL A   1      48.847  31.041  27.540  1.00  0.00     0.029 A 
ATOM     54  C   UNL A   1      47.552  30.555  27.616  1.00  0.00     0.049 A 
ATOM     55  H   UNL A   1      46.799  28.674  27.028  1.00  0.00     0.167 HD
ATOM     56  C   UNL A   1      45.151  30.652  28.234  1.00  0.00     0.074 A 
ATOM     57  C   UNL A   1      43.999  31.314  28.808  1.00  0.00     0.031 C 
ATOM     58  C   UNL A   1      46.380  31.210  28.134  1.00  0.00     0.037 A 
BRANCH  45  59
ATOM     59  C   UNL A   1      50.642  27.560  25.554  1.00  0.00     0.064 A 
ATOM     60  C   UNL A   1      51.625  27.106  26.447  1.00  0.00     0.173 A 
ATOM     61  C   UNL A   1      51.029  27.821  24.230  1.00  0.00     0.173 A 
ATOM     62  F   UNL A   1      51.310  26.855  27.727  1.00  0.00    -0.203 F 
ATOM     63  C   UNL A   1      52.949  26.960  26.043  1.00  0.00     0.198 A 
ATOM     64  C   UNL A   1      52.348  27.641  23.821  1.00  0.00     0.198 A 
ATOM     65  F   UNL A   1      50.129  28.251  23.334  1.00  0.00    -0.203 F 
ATOM     66  F   UNL A   1      53.881  26.589  26.932  1.00  0.00    -0.200 F 
ATOM     67  C   UNL A   1      53.309  27.221  24.730  1.00  0.00     0.200 A 
ATOM     68  F   UNL A   1      52.692  27.880  22.548  1.00  0.00    -0.200 F 
ATOM     69  F   UNL A   1      54.584  27.079  24.342  1.00  0.00    -0.200 F 
ENDBRANCH  45  59
BRANCH  46  70
ATOM     70  C   UNL A   1      41.072  28.314  28.362  1.00  0.00     0.064 A 
ATOM     71  C   UNL A   1      40.110  28.896  27.522  1.00  0.00     0.173 A 
ATOM     72  C   UNL A   1      40.652  27.878  29.627  1.00  0.00     0.173 A 
ATOM     73  F   UNL A   1      40.468  29.349  26.312  1.00  0.00    -0.203 F 
ATOM     74  C   UNL A   1      38.791  29.061  27.939  1.00  0.00     0.198 A 
ATOM     75  C   UNL A   1      39.326  28.018  30.033  1.00  0.00     0.198 A 
ATOM     76  F   UNL A   1      41.531  27.311  30.467  1.00  0.00    -0.203 F 
ATOM     77  F   UNL A   1      37.908  29.667  27.135  1.00  0.00    -0.200 F 
ATOM     78  C   UNL A   1      38.399  28.618  29.193  1.00  0.00     0.200 A 
ATOM     79  F   UNL A   1      38.947  27.582  31.242  1.00  0.00    -0.200 F 
ATOM     80  F   UNL A   1      37.132  28.780  29.595  1.00  0.00    -0.200 F 
ENDBRANCH  46  70
BRANCH  58  81
ATOM     81  C   UNL A   1      46.531  32.633  28.577  1.00  0.00     0.064 A 
ATOM     82  C   UNL A   1      46.915  32.961  29.885  1.00  0.00     0.173 A 
ATOM     83  C   UNL A   1      46.360  33.677  27.655  1.00  0.00     0.173 A 
ATOM     84  F   UNL A   1      47.077  31.997  30.803  1.00  0.00    -0.203 F 
ATOM     85  C   UNL A   1      47.111  34.288  30.256  1.00  0.00     0.198 A 
ATOM     86  C   UNL A   1      46.579  35.000  28.024  1.00  0.00     0.198 A 
ATOM     87  F   UNL A   1      46.001  33.409  26.391  1.00  0.00    -0.203 F 
ATOM     88  F   UNL A   1      47.449  34.585  31.518  1.00  0.00    -0.200 F 
ATOM     89  C   UNL A   1      46.952  35.305  29.325  1.00  0.00     0.200 A 
ATOM     90  F   UNL A   1      46.438  35.979  27.120  1.00  0.00    -0.200 F 
ATOM     91  F   UNL A   1      47.155  36.580  29.682  1.00  0.00    -0.200 F 
ENDBRANCH  58  81
ENDBRANCH  32  33
ENDBRANCH  24  27
ENDBRANCH  22  23
ENDBRANCH  21  22
ENDBRANCH  20  21
ENDBRANCH   1  20
TORSDOF 17
ENDMDL
