MODEL 1
REMARK VINA RESULT:     -13.3      0.000      0.000
REMARK SMILES Cc1cc(Br)cc2c1O[C@H](C(F)(F)F)C(C(=O)NCCCCNC(=O)c1ccc(-c3c4nc(c(-c5c(F)c(F)c(F)c(F)c5F)c5ccc([nH]5)c(-c5c(F)c(F)c(F)c(F)c5F)c5nc(c(-c6c(F)c(F)c(F)c(F)c6F)c6ccc3[nH]6)C=C5)C=C4)cc1)=C2
REMARK SMILES IDX 21 1 20 2 19 3 18 4 16 5 17 6 15 8 1 9 2 10 3 11 8 12 4 13
REMARK SMILES IDX 7 14 9 15 5 16 6 17 89 18 10 19 11 20 12 21 13 22 14 23
REMARK SMILES IDX 22 24 23 25 24 26 25 28 26 29 27 30 88 31 28 32 87 33 29 34
REMARK SMILES IDX 30 35 31 36 81 37 32 38 86 39 80 40 82 41 33 42 85 43 79 44
REMARK SMILES IDX 78 45 34 47 66 48 46 49 65 50 47 51 50 52 64 53 83 54 48 55
REMARK SMILES IDX 49 56 63 58 84 59 51 60 35 61 36 62 44 63 37 64 38 65 42 66
REMARK SMILES IDX 45 67 39 68 40 69 43 70 41 71 67 72 68 73 76 74 69 75 70 76
REMARK SMILES IDX 74 77 77 78 71 79 72 80 75 81 73 82 52 83 53 84 61 85 54 86
REMARK SMILES IDX 55 87 59 88 62 89 56 90 57 91 60 92 58 93
REMARK H PARENT 18 7 23 27 82 46 50 57
REMARK Flexibility Score: inf
ROOT
ATOM      1  C   UNL A   1      31.678  31.896  26.696  1.00  0.00     0.023 C 
ENDROOT
BRANCH   1   2
ATOM      2  C   UNL A   1      31.827  30.377  26.806  1.00  0.00     0.023 C 
BRANCH   2   3
ATOM      3  C   UNL A   1      33.275  29.893  26.810  1.00  0.00     0.116 C 
BRANCH   3   4
ATOM      4  N   UNL A   1      33.730  29.537  25.480  1.00  0.00    -0.352 N 
ATOM      5  C   UNL A   1      33.705  28.436  24.692  1.00  0.00     0.251 C 
ATOM      6  O   UNL A   1      34.243  28.573  23.588  1.00  0.00    -0.270 OA
ATOM      7  H   UNL A   1      34.173  30.295  25.032  1.00  0.00     0.163 HD
BRANCH   5   8
ATOM      8  C   UNL A   1      33.092  27.127  25.059  1.00  0.00     0.067 C 
ATOM      9  C   UNL A   1      30.245  23.255  26.921  1.00  0.00     0.048 C 
ATOM     10  C   UNL A   1      31.580  23.381  26.244  1.00  0.00    -0.007 A 
ATOM     11  C   UNL A   1      32.339  22.232  25.983  1.00  0.00     0.023 A 
ATOM     12  C   UNL A   1      32.117  24.631  25.906  1.00  0.00     0.130 A 
ATOM     13  C   UNL A   1      33.596  22.340  25.386  1.00  0.00     0.019 A 
ATOM     14  C   UNL A   1      33.379  24.740  25.311  1.00  0.00     0.019 A 
ATOM     15  O   UNL A   1      31.383  25.742  26.223  1.00  0.00    -0.475 OA
ATOM     16  Br  UNL A   1      34.602  20.776  25.039  1.00  0.00    -0.051 Br
ATOM     17  C   UNL A   1      34.121  23.586  25.049  1.00  0.00     0.027 A 
ATOM     18  C   UNL A   1      33.916  26.062  25.004  1.00  0.00     0.025 C 
ATOM     19  C   UNL A   1      31.650  26.930  25.430  1.00  0.00     0.314 C 
BRANCH  19  20
ATOM     20  C   UNL A   1      30.711  26.956  24.209  1.00  0.00     0.429 C 
ATOM     21  F   UNL A   1      30.419  28.235  23.864  1.00  0.00    -0.167 F 
ATOM     22  F   UNL A   1      31.271  26.385  23.114  1.00  0.00    -0.167 F 
ATOM     23  F   UNL A   1      29.541  26.317  24.429  1.00  0.00    -0.167 F 
ENDBRANCH  19  20
ENDBRANCH   5   8
ENDBRANCH   3   4
ENDBRANCH   2   3
ENDBRANCH   1   2
BRANCH   1  24
ATOM     24  C   UNL A   1      32.770  32.711  27.383  1.00  0.00     0.116 C 
BRANCH  24  25
ATOM     25  N   UNL A   1      32.373  34.074  27.713  1.00  0.00    -0.352 N 
ATOM     26  C   UNL A   1      32.965  34.936  28.604  1.00  0.00     0.251 C 
ATOM     27  H   UNL A   1      31.582  34.420  27.239  1.00  0.00     0.163 HD
ATOM     28  O   UNL A   1      32.490  36.041  28.831  1.00  0.00    -0.269 OA
BRANCH  26  29
ATOM     29  C   UNL A   1      34.166  34.477  29.323  1.00  0.00     0.039 A 
ATOM     30  C   UNL A   1      34.003  33.803  30.534  1.00  0.00     0.014 A 
ATOM     31  C   UNL A   1      35.431  34.624  28.745  1.00  0.00     0.014 A 
ATOM     32  C   UNL A   1      35.108  33.203  31.133  1.00  0.00     0.010 A 
ATOM     33  C   UNL A   1      36.520  33.973  29.312  1.00  0.00     0.010 A 
ATOM     34  C   UNL A   1      36.364  33.250  30.505  1.00  0.00    -0.014 A 
BRANCH  34  35
ATOM     35  C   UNL A   1      37.522  32.534  31.085  1.00  0.00     0.031 A 
ATOM     36  C   UNL A   1      38.017  32.892  32.454  1.00  0.00     0.074 A 
ATOM     37  C   UNL A   1      38.146  31.586  30.360  1.00  0.00     0.049 A 
ATOM     38  N   UNL A   1      39.001  32.367  33.138  1.00  0.00    -0.248 NA
ATOM     39  C   UNL A   1      37.332  34.000  33.137  1.00  0.00     0.031 C 
ATOM     40  C   UNL A   1      37.789  31.195  28.994  1.00  0.00     0.029 A 
ATOM     41  N   UNL A   1      39.207  30.775  30.671  1.00  0.00    -0.354 N 
ATOM     42  C   UNL A   1      39.052  33.080  34.326  1.00  0.00     0.074 A 
ATOM     43  C   UNL A   1      38.043  34.113  34.249  1.00  0.00     0.031 C 
ATOM     44  C   UNL A   1      38.590  30.192  28.601  1.00  0.00     0.029 A 
ATOM     45  C   UNL A   1      39.527  29.882  29.677  1.00  0.00     0.049 A 
ATOM     46  H   UNL A   1      39.693  30.828  31.525  1.00  0.00     0.167 HD
ATOM     47  C   UNL A   1      39.846  32.867  35.400  1.00  0.00     0.037 A 
ATOM     48  C   UNL A   1      40.461  28.913  29.650  1.00  0.00     0.037 A 
ATOM     49  C   UNL A   1      40.822  31.817  35.487  1.00  0.00     0.049 A 
ATOM     50  C   UNL A   1      41.335  28.700  30.853  1.00  0.00     0.074 A 
ATOM     51  C   UNL A   1      41.620  31.467  36.562  1.00  0.00     0.029 A 
ATOM     52  N   UNL A   1      41.130  30.943  34.455  1.00  0.00    -0.354 N 
ATOM     53  N   UNL A   1      41.320  29.327  32.003  1.00  0.00    -0.248 NA
ATOM     54  C   UNL A   1      42.355  27.646  30.756  1.00  0.00     0.031 C 
ATOM     55  C   UNL A   1      42.432  30.399  36.170  1.00  0.00     0.029 A 
ATOM     56  C   UNL A   1      42.122  30.068  34.861  1.00  0.00     0.049 A 
ATOM     57  H   UNL A   1      40.706  30.946  33.567  1.00  0.00     0.167 HD
ATOM     58  C   UNL A   1      42.312  28.737  32.773  1.00  0.00     0.074 A 
ATOM     59  C   UNL A   1      42.906  27.694  31.962  1.00  0.00     0.031 C 
ATOM     60  C   UNL A   1      42.696  29.035  34.037  1.00  0.00     0.037 A 
BRANCH  47  61
ATOM     61  C   UNL A   1      39.668  33.774  36.578  1.00  0.00     0.064 A 
ATOM     62  C   UNL A   1      40.298  35.027  36.629  1.00  0.00     0.173 A 
ATOM     63  C   UNL A   1      38.840  33.407  37.647  1.00  0.00     0.173 A 
ATOM     64  F   UNL A   1      41.111  35.415  35.635  1.00  0.00    -0.203 F 
ATOM     65  C   UNL A   1      40.123  35.871  37.721  1.00  0.00     0.198 A 
ATOM     66  C   UNL A   1      38.649  34.263  38.728  1.00  0.00     0.198 A 
ATOM     67  F   UNL A   1      38.216  32.220  37.643  1.00  0.00    -0.203 F 
ATOM     68  F   UNL A   1      40.766  37.046  37.769  1.00  0.00    -0.200 F 
ATOM     69  C   UNL A   1      39.295  35.491  38.767  1.00  0.00     0.200 A 
ATOM     70  F   UNL A   1      37.845  33.899  39.736  1.00  0.00    -0.200 F 
ATOM     71  F   UNL A   1      39.123  36.306  39.817  1.00  0.00    -0.200 F 
ENDBRANCH  47  61
BRANCH  48  72
ATOM     72  C   UNL A   1      40.575  28.034  28.459  1.00  0.00     0.064 A 
ATOM     73  C   UNL A   1      41.360  28.418  27.365  1.00  0.00     0.173 A 
ATOM     74  C   UNL A   1      39.926  26.793  28.399  1.00  0.00     0.173 A 
ATOM     75  F   UNL A   1      41.985  29.605  27.373  1.00  0.00    -0.203 F 
ATOM     76  C   UNL A   1      41.489  27.595  26.248  1.00  0.00     0.198 A 
ATOM     77  C   UNL A   1      40.069  25.963  27.288  1.00  0.00     0.198 A 
ATOM     78  F   UNL A   1      39.167  26.381  29.424  1.00  0.00    -0.203 F 
ATOM     79  F   UNL A   1      42.227  27.995  25.204  1.00  0.00    -0.200 F 
ATOM     80  C   UNL A   1      40.847  26.366  26.213  1.00  0.00     0.200 A 
ATOM     81  F   UNL A   1      39.456  24.772  27.261  1.00  0.00    -0.200 F 
ATOM     82  F   UNL A   1      40.977  25.572  25.142  1.00  0.00    -0.200 F 
ENDBRANCH  48  72
BRANCH  60  83
ATOM     83  C   UNL A   1      43.808  28.228  34.631  1.00  0.00     0.064 A 
ATOM     84  C   UNL A   1      43.559  26.990  35.238  1.00  0.00     0.173 A 
ATOM     85  C   UNL A   1      45.140  28.652  34.509  1.00  0.00     0.173 A 
ATOM     86  F   UNL A   1      42.299  26.554  35.387  1.00  0.00    -0.203 F 
ATOM     87  C   UNL A   1      44.607  26.201  35.700  1.00  0.00     0.198 A 
ATOM     88  C   UNL A   1      46.185  27.851  34.956  1.00  0.00     0.198 A 
ATOM     89  F   UNL A   1      45.425  29.828  33.931  1.00  0.00    -0.203 F 
ATOM     90  F   UNL A   1      44.347  25.025  36.289  1.00  0.00    -0.200 F 
ATOM     91  C   UNL A   1      45.919  26.626  35.549  1.00  0.00     0.200 A 
ATOM     92  F   UNL A   1      47.453  28.258  34.801  1.00  0.00    -0.200 F 
ATOM     93  F   UNL A   1      46.927  25.854  35.978  1.00  0.00    -0.200 F 
ENDBRANCH  60  83
ENDBRANCH  34  35
ENDBRANCH  26  29
ENDBRANCH  24  25
ENDBRANCH   1  24
TORSDOF 12
ENDMDL
MODEL 2
REMARK VINA RESULT:     -13.3      0.139      1.599
REMARK SMILES Cc1cc(Br)cc2c1O[C@H](C(F)(F)F)C(C(=O)NCCCCNC(=O)c1ccc(-c3c4nc(c(-c5c(F)c(F)c(F)c(F)c5F)c5ccc([nH]5)c(-c5c(F)c(F)c(F)c(F)c5F)c5nc(c(-c6c(F)c(F)c(F)c(F)c6F)c6ccc3[nH]6)C=C5)C=C4)cc1)=C2
REMARK SMILES IDX 21 1 20 2 19 3 18 4 16 5 17 6 15 8 1 9 2 10 3 11 8 12 4 13
REMARK SMILES IDX 7 14 9 15 5 16 6 17 89 18 10 19 11 20 12 21 13 22 14 23
REMARK SMILES IDX 22 24 23 25 24 26 25 28 26 29 27 30 88 31 28 32 87 33 29 34
REMARK SMILES IDX 30 35 31 36 81 37 32 38 86 39 80 40 82 41 33 42 85 43 79 44
REMARK SMILES IDX 78 45 34 47 66 48 46 49 65 50 47 51 50 52 64 53 83 54 48 55
REMARK SMILES IDX 49 56 63 58 84 59 51 60 35 61 36 62 44 63 37 64 38 65 42 66
REMARK SMILES IDX 45 67 39 68 40 69 43 70 41 71 67 72 68 73 76 74 69 75 70 76
REMARK SMILES IDX 74 77 77 78 71 79 72 80 75 81 73 82 52 83 53 84 61 85 54 86
REMARK SMILES IDX 55 87 59 88 62 89 56 90 57 91 60 92 58 93
REMARK H PARENT 18 7 23 27 82 46 50 57
REMARK Flexibility Score: inf
ROOT
ATOM      1  C   UNL A   1      31.652  31.796  26.763  1.00  0.00     0.023 C 
ENDROOT
BRANCH   1   2
ATOM      2  C   UNL A   1      31.873  30.287  26.884  1.00  0.00     0.023 C 
BRANCH   2   3
ATOM      3  C   UNL A   1      33.337  29.864  26.797  1.00  0.00     0.116 C 
BRANCH   3   4
ATOM      4  N   UNL A   1      33.725  29.537  25.438  1.00  0.00    -0.352 N 
ATOM      5  C   UNL A   1      33.674  28.450  24.633  1.00  0.00     0.251 C 
ATOM      6  O   UNL A   1      34.150  28.613  23.505  1.00  0.00    -0.270 OA
ATOM      7  H   UNL A   1      34.132  30.309  24.981  1.00  0.00     0.163 HD
BRANCH   5   8
ATOM      8  C   UNL A   1      33.101  27.124  25.009  1.00  0.00     0.067 C 
ATOM      9  C   UNL A   1      30.371  23.182  26.897  1.00  0.00     0.048 C 
ATOM     10  C   UNL A   1      31.703  23.344  26.221  1.00  0.00    -0.007 A 
ATOM     11  C   UNL A   1      32.497  22.216  25.971  1.00  0.00     0.023 A 
ATOM     12  C   UNL A   1      32.201  24.607  25.874  1.00  0.00     0.130 A 
ATOM     13  C   UNL A   1      33.751  22.358  25.375  1.00  0.00     0.019 A 
ATOM     14  C   UNL A   1      33.461  24.750  25.280  1.00  0.00     0.019 A 
ATOM     15  O   UNL A   1      31.433  25.697  26.181  1.00  0.00    -0.475 OA
ATOM     16  Br  UNL A   1      34.806  20.824  25.042  1.00  0.00    -0.051 Br
ATOM     17  C   UNL A   1      34.238  23.617  25.029  1.00  0.00     0.027 A 
ATOM     18  C   UNL A   1      33.957  26.086  24.965  1.00  0.00     0.025 C 
ATOM     19  C   UNL A   1      31.665  26.886  25.379  1.00  0.00     0.314 C 
BRANCH  19  20
ATOM     20  C   UNL A   1      30.728  26.874  24.156  1.00  0.00     0.429 C 
ATOM     21  F   UNL A   1      30.339  28.136  23.845  1.00  0.00    -0.167 F 
ATOM     22  F   UNL A   1      31.331  26.377  23.048  1.00  0.00    -0.167 F 
ATOM     23  F   UNL A   1      29.610  26.142  24.355  1.00  0.00    -0.167 F 
ENDBRANCH  19  20
ENDBRANCH   5   8
ENDBRANCH   3   4
ENDBRANCH   2   3
ENDBRANCH   1   2
BRANCH   1  24
ATOM     24  C   UNL A   1      32.786  32.668  27.298  1.00  0.00     0.116 C 
BRANCH  24  25
ATOM     25  N   UNL A   1      32.384  34.030  27.623  1.00  0.00    -0.352 N 
ATOM     26  C   UNL A   1      32.962  34.890  28.524  1.00  0.00     0.251 C 
ATOM     27  H   UNL A   1      31.600  34.376  27.137  1.00  0.00     0.163 HD
ATOM     28  O   UNL A   1      32.483  35.995  28.745  1.00  0.00    -0.269 OA
BRANCH  26  29
ATOM     29  C   UNL A   1      34.152  34.431  29.261  1.00  0.00     0.039 A 
ATOM     30  C   UNL A   1      33.969  33.693  30.431  1.00  0.00     0.014 A 
ATOM     31  C   UNL A   1      35.430  34.643  28.736  1.00  0.00     0.014 A 
ATOM     32  C   UNL A   1      35.072  33.096  31.038  1.00  0.00     0.010 A 
ATOM     33  C   UNL A   1      36.519  33.997  29.307  1.00  0.00     0.010 A 
ATOM     34  C   UNL A   1      36.345  33.211  30.457  1.00  0.00    -0.014 A 
BRANCH  34  35
ATOM     35  C   UNL A   1      37.505  32.500  31.042  1.00  0.00     0.031 A 
ATOM     36  C   UNL A   1      37.995  32.861  32.411  1.00  0.00     0.074 A 
ATOM     37  C   UNL A   1      38.134  31.554  30.319  1.00  0.00     0.049 A 
ATOM     38  N   UNL A   1      38.979  32.342  33.098  1.00  0.00    -0.248 NA
ATOM     39  C   UNL A   1      37.303  33.968  33.091  1.00  0.00     0.031 C 
ATOM     40  C   UNL A   1      37.784  31.160  28.953  1.00  0.00     0.029 A 
ATOM     41  N   UNL A   1      39.198  30.747  30.635  1.00  0.00    -0.354 N 
ATOM     42  C   UNL A   1      39.023  33.057  34.286  1.00  0.00     0.074 A 
ATOM     43  C   UNL A   1      38.011  34.085  34.205  1.00  0.00     0.031 C 
ATOM     44  C   UNL A   1      38.590  30.160  28.563  1.00  0.00     0.029 A 
ATOM     45  C   UNL A   1      39.525  29.855  29.642  1.00  0.00     0.049 A 
ATOM     46  H   UNL A   1      39.681  30.803  31.490  1.00  0.00     0.167 HD
ATOM     47  C   UNL A   1      39.816  32.848  35.362  1.00  0.00     0.037 A 
ATOM     48  C   UNL A   1      40.463  28.890  29.618  1.00  0.00     0.037 A 
ATOM     49  C   UNL A   1      40.796  31.802  35.453  1.00  0.00     0.049 A 
ATOM     50  C   UNL A   1      41.335  28.682  30.825  1.00  0.00     0.074 A 
ATOM     51  C   UNL A   1      41.592  31.457  36.531  1.00  0.00     0.029 A 
ATOM     52  N   UNL A   1      41.110  30.928  34.423  1.00  0.00    -0.354 N 
ATOM     53  N   UNL A   1      41.314  29.311  31.974  1.00  0.00    -0.248 NA
ATOM     54  C   UNL A   1      42.359  27.632  30.732  1.00  0.00     0.031 C 
ATOM     55  C   UNL A   1      42.410  30.392  36.143  1.00  0.00     0.029 A 
ATOM     56  C   UNL A   1      42.104  30.058  34.833  1.00  0.00     0.049 A 
ATOM     57  H   UNL A   1      40.689  30.929  33.534  1.00  0.00     0.167 HD
ATOM     58  C   UNL A   1      42.306  28.726  32.747  1.00  0.00     0.074 A 
ATOM     59  C   UNL A   1      42.906  27.683  31.939  1.00  0.00     0.031 C 
ATOM     60  C   UNL A   1      42.685  29.026  34.012  1.00  0.00     0.037 A 
BRANCH  47  61
ATOM     61  C   UNL A   1      39.631  33.756  36.539  1.00  0.00     0.064 A 
ATOM     62  C   UNL A   1      38.815  33.385  37.618  1.00  0.00     0.173 A 
ATOM     63  C   UNL A   1      40.295  34.988  36.605  1.00  0.00     0.173 A 
ATOM     64  F   UNL A   1      38.148  32.221  37.592  1.00  0.00    -0.203 F 
ATOM     65  C   UNL A   1      38.652  34.227  38.714  1.00  0.00     0.198 A 
ATOM     66  C   UNL A   1      40.148  35.818  37.713  1.00  0.00     0.198 A 
ATOM     67  F   UNL A   1      41.087  35.385  35.599  1.00  0.00    -0.203 F 
ATOM     68  F   UNL A   1      37.836  33.871  39.716  1.00  0.00    -0.200 F 
ATOM     69  C   UNL A   1      39.323  35.440  38.763  1.00  0.00     0.200 A 
ATOM     70  F   UNL A   1      40.800  36.987  37.764  1.00  0.00    -0.200 F 
ATOM     71  F   UNL A   1      39.169  36.248  39.821  1.00  0.00    -0.200 F 
ENDBRANCH  47  61
BRANCH  48  72
ATOM     72  C   UNL A   1      40.583  28.010  28.429  1.00  0.00     0.064 A 
ATOM     73  C   UNL A   1      41.366  28.398  27.335  1.00  0.00     0.173 A 
ATOM     74  C   UNL A   1      39.945  26.763  28.371  1.00  0.00     0.173 A 
ATOM     75  F   UNL A   1      41.982  29.590  27.341  1.00  0.00    -0.203 F 
ATOM     76  C   UNL A   1      41.501  27.574  26.219  1.00  0.00     0.198 A 
ATOM     77  C   UNL A   1      40.094  25.933  27.262  1.00  0.00     0.198 A 
ATOM     78  F   UNL A   1      39.189  26.347  29.397  1.00  0.00    -0.203 F 
ATOM     79  F   UNL A   1      42.236  27.978  25.175  1.00  0.00    -0.200 F 
ATOM     80  C   UNL A   1      40.869  26.340  26.186  1.00  0.00     0.200 A 
ATOM     81  F   UNL A   1      39.491  24.737  27.237  1.00  0.00    -0.200 F 
ATOM     82  F   UNL A   1      41.005  25.545  25.116  1.00  0.00    -0.200 F 
ENDBRANCH  48  72
BRANCH  60  83
ATOM     83  C   UNL A   1      43.799  28.225  34.610  1.00  0.00     0.064 A 
ATOM     84  C   UNL A   1      45.127  28.669  34.542  1.00  0.00     0.173 A 
ATOM     85  C   UNL A   1      43.526  27.057  35.337  1.00  0.00     0.173 A 
ATOM     86  F   UNL A   1      45.433  29.774  33.845  1.00  0.00    -0.203 F 
ATOM     87  C   UNL A   1      46.144  27.971  35.184  1.00  0.00     0.198 A 
ATOM     88  C   UNL A   1      44.544  26.373  35.994  1.00  0.00     0.198 A 
ATOM     89  F   UNL A   1      42.270  26.599  35.433  1.00  0.00    -0.203 F 
ATOM     90  F   UNL A   1      47.409  28.405  35.097  1.00  0.00    -0.200 F 
ATOM     91  C   UNL A   1      45.851  26.831  35.918  1.00  0.00     0.200 A 
ATOM     92  F   UNL A   1      44.259  25.277  36.711  1.00  0.00    -0.200 F 
ATOM     93  F   UNL A   1      46.830  26.171  36.553  1.00  0.00    -0.200 F 
ENDBRANCH  60  83
ENDBRANCH  34  35
ENDBRANCH  26  29
ENDBRANCH  24  25
ENDBRANCH   1  24
TORSDOF 12
ENDMDL
MODEL 3
REMARK VINA RESULT:     -13.2      0.659      7.505
REMARK SMILES Cc1cc(Br)cc2c1O[C@H](C(F)(F)F)C(C(=O)NCCCCNC(=O)c1ccc(-c3c4nc(c(-c5c(F)c(F)c(F)c(F)c5F)c5ccc([nH]5)c(-c5c(F)c(F)c(F)c(F)c5F)c5nc(c(-c6c(F)c(F)c(F)c(F)c6F)c6ccc3[nH]6)C=C5)C=C4)cc1)=C2
REMARK SMILES IDX 21 1 20 2 19 3 18 4 16 5 17 6 15 8 1 9 2 10 3 11 8 12 4 13
REMARK SMILES IDX 7 14 9 15 5 16 6 17 89 18 10 19 11 20 12 21 13 22 14 23
REMARK SMILES IDX 22 24 23 25 24 26 25 28 26 29 27 30 88 31 28 32 87 33 29 34
REMARK SMILES IDX 30 35 31 36 81 37 32 38 86 39 80 40 82 41 33 42 85 43 79 44
REMARK SMILES IDX 78 45 34 47 66 48 46 49 65 50 47 51 50 52 64 53 83 54 48 55
REMARK SMILES IDX 49 56 63 58 84 59 51 60 35 61 36 62 44 63 37 64 38 65 42 66
REMARK SMILES IDX 45 67 39 68 40 69 43 70 41 71 67 72 68 73 76 74 69 75 70 76
REMARK SMILES IDX 74 77 77 78 71 79 72 80 75 81 73 82 52 83 53 84 61 85 54 86
REMARK SMILES IDX 55 87 59 88 62 89 56 90 57 91 60 92 58 93
REMARK H PARENT 18 7 23 27 82 46 50 57
REMARK Flexibility Score: inf
ROOT
ATOM      1  C   UNL A   1      31.823  31.801  26.803  1.00  0.00     0.023 C 
ENDROOT
BRANCH   1   2
ATOM      2  C   UNL A   1      32.024  30.302  27.032  1.00  0.00     0.023 C 
BRANCH   2   3
ATOM      3  C   UNL A   1      33.462  29.830  26.836  1.00  0.00     0.116 C 
BRANCH   3   4
ATOM      4  N   UNL A   1      33.751  29.538  25.445  1.00  0.00    -0.352 N 
ATOM      5  C   UNL A   1      33.633  28.473  24.617  1.00  0.00     0.251 C 
ATOM      6  O   UNL A   1      34.030  28.664  23.463  1.00  0.00    -0.270 OA
ATOM      7  H   UNL A   1      34.131  30.320  24.981  1.00  0.00     0.163 HD
BRANCH   5   8
ATOM      8  C   UNL A   1      33.077  27.142  24.997  1.00  0.00     0.067 C 
ATOM      9  C   UNL A   1      30.397  23.171  26.897  1.00  0.00     0.048 C 
ATOM     10  C   UNL A   1      31.727  23.348  26.221  1.00  0.00    -0.007 A 
ATOM     11  C   UNL A   1      32.536  22.229  25.975  1.00  0.00     0.023 A 
ATOM     12  C   UNL A   1      32.210  24.616  25.870  1.00  0.00     0.130 A 
ATOM     13  C   UNL A   1      33.789  22.386  25.380  1.00  0.00     0.019 A 
ATOM     14  C   UNL A   1      33.467  24.774  25.277  1.00  0.00     0.019 A 
ATOM     15  O   UNL A   1      31.427  25.697  26.173  1.00  0.00    -0.475 OA
ATOM     16  Br  UNL A   1      34.864  20.864  25.054  1.00  0.00    -0.051 Br
ATOM     17  C   UNL A   1      34.260  23.650  25.030  1.00  0.00     0.027 A 
ATOM     18  C   UNL A   1      33.947  26.114  24.957  1.00  0.00     0.025 C 
ATOM     19  C   UNL A   1      31.644  26.887  25.367  1.00  0.00     0.314 C 
BRANCH  19  20
ATOM     20  C   UNL A   1      30.709  26.858  24.143  1.00  0.00     0.429 C 
ATOM     21  F   UNL A   1      30.267  28.108  23.857  1.00  0.00    -0.167 F 
ATOM     22  F   UNL A   1      31.332  26.409  23.027  1.00  0.00    -0.167 F 
ATOM     23  F   UNL A   1      29.623  26.076  24.328  1.00  0.00    -0.167 F 
ENDBRANCH  19  20
ENDBRANCH   5   8
ENDBRANCH   3   4
ENDBRANCH   2   3
ENDBRANCH   1   2
BRANCH   1  24
ATOM     24  C   UNL A   1      32.920  32.702  27.366  1.00  0.00     0.116 C 
BRANCH  24  25
ATOM     25  N   UNL A   1      32.485  34.065  27.640  1.00  0.00    -0.352 N 
ATOM     26  C   UNL A   1      32.993  34.945  28.564  1.00  0.00     0.251 C 
ATOM     27  H   UNL A   1      31.733  34.396  27.096  1.00  0.00     0.163 HD
ATOM     28  O   UNL A   1      32.491  36.049  28.733  1.00  0.00    -0.269 OA
BRANCH  26  29
ATOM     29  C   UNL A   1      34.133  34.509  29.389  1.00  0.00     0.039 A 
ATOM     30  C   UNL A   1      33.876  33.943  30.638  1.00  0.00     0.014 A 
ATOM     31  C   UNL A   1      35.433  34.566  28.877  1.00  0.00     0.014 A 
ATOM     32  C   UNL A   1      34.923  33.359  31.348  1.00  0.00     0.010 A 
ATOM     33  C   UNL A   1      36.463  33.930  29.558  1.00  0.00     0.010 A 
ATOM     34  C   UNL A   1      36.213  33.314  30.794  1.00  0.00    -0.014 A 
BRANCH  34  35
ATOM     35  C   UNL A   1      37.309  32.610  31.498  1.00  0.00     0.031 A 
ATOM     36  C   UNL A   1      38.012  31.464  30.838  1.00  0.00     0.074 A 
ATOM     37  C   UNL A   1      37.642  32.987  32.748  1.00  0.00     0.049 A 
ATOM     38  N   UNL A   1      39.004  30.738  31.284  1.00  0.00    -0.248 NA
ATOM     39  C   UNL A   1      37.523  31.063  29.509  1.00  0.00     0.031 C 
ATOM     40  C   UNL A   1      36.987  34.051  33.513  1.00  0.00     0.029 A 
ATOM     41  N   UNL A   1      38.617  32.522  33.592  1.00  0.00    -0.354 N 
ATOM     42  C   UNL A   1      39.255  29.799  30.295  1.00  0.00     0.074 A 
ATOM     43  C   UNL A   1      38.276  30.004  29.252  1.00  0.00     0.031 C 
ATOM     44  C   UNL A   1      37.605  34.184  34.697  1.00  0.00     0.029 A 
ATOM     45  C   UNL A   1      38.685  33.206  34.782  1.00  0.00     0.049 A 
ATOM     46  H   UNL A   1      39.211  31.771  33.367  1.00  0.00     0.167 HD
ATOM     47  C   UNL A   1      40.239  28.872  30.247  1.00  0.00     0.037 A 
ATOM     48  C   UNL A   1      39.538  33.066  35.815  1.00  0.00     0.037 A 
ATOM     49  C   UNL A   1      41.233  28.695  31.269  1.00  0.00     0.049 A 
ATOM     50  C   UNL A   1      40.619  32.024  35.740  1.00  0.00     0.074 A 
ATOM     51  C   UNL A   1      42.320  27.839  31.277  1.00  0.00     0.029 A 
ATOM     52  N   UNL A   1      41.261  29.394  32.467  1.00  0.00    -0.354 N 
ATOM     53  N   UNL A   1      40.898  31.196  34.764  1.00  0.00    -0.248 NA
ATOM     54  C   UNL A   1      41.502  31.898  36.908  1.00  0.00     0.031 C 
ATOM     55  C   UNL A   1      42.990  27.999  32.494  1.00  0.00     0.029 A 
ATOM     56  C   UNL A   1      42.334  28.973  33.232  1.00  0.00     0.049 A 
ATOM     57  H   UNL A   1      40.613  30.086  32.733  1.00  0.00     0.167 HD
ATOM     58  C   UNL A   1      41.996  30.462  35.189  1.00  0.00     0.074 A 
ATOM     59  C   UNL A   1      42.340  30.949  36.510  1.00  0.00     0.031 C 
ATOM     60  C   UNL A   1      42.658  29.473  34.543  1.00  0.00     0.037 A 
BRANCH  47  61
ATOM     61  C   UNL A   1      40.303  27.999  29.033  1.00  0.00     0.064 A 
ATOM     62  C   UNL A   1      39.602  26.784  28.977  1.00  0.00     0.173 A 
ATOM     63  C   UNL A   1      41.040  28.388  27.907  1.00  0.00     0.173 A 
ATOM     64  F   UNL A   1      38.894  26.364  30.036  1.00  0.00    -0.203 F 
ATOM     65  C   UNL A   1      39.656  25.979  27.843  1.00  0.00     0.198 A 
ATOM     66  C   UNL A   1      41.074  27.592  26.765  1.00  0.00     0.198 A 
ATOM     67  F   UNL A   1      41.725  29.542  27.912  1.00  0.00    -0.203 F 
ATOM     68  F   UNL A   1      39.012  24.804  27.826  1.00  0.00    -0.200 F 
ATOM     69  C   UNL A   1      40.387  26.386  26.736  1.00  0.00     0.200 A 
ATOM     70  F   UNL A   1      41.775  27.987  25.694  1.00  0.00    -0.200 F 
ATOM     71  F   UNL A   1      40.435  25.612  25.643  1.00  0.00    -0.200 F 
ENDBRANCH  47  61
BRANCH  48  72
ATOM     72  C   UNL A   1      39.435  33.976  36.983  1.00  0.00     0.064 A 
ATOM     73  C   UNL A   1      38.709  33.596  38.118  1.00  0.00     0.173 A 
ATOM     74  C   UNL A   1      40.074  35.224  36.999  1.00  0.00     0.173 A 
ATOM     75  F   UNL A   1      38.068  32.417  38.140  1.00  0.00    -0.203 F 
ATOM     76  C   UNL A   1      38.618  34.434  39.228  1.00  0.00     0.198 A 
ATOM     77  C   UNL A   1      39.996  36.054  38.115  1.00  0.00     0.198 A 
ATOM     78  F   UNL A   1      40.784  35.629  35.936  1.00  0.00    -0.203 F 
ATOM     79  F   UNL A   1      37.898  34.058  40.293  1.00  0.00    -0.200 F 
ATOM     80  C   UNL A   1      39.266  35.660  39.228  1.00  0.00     0.200 A 
ATOM     81  F   UNL A   1      40.631  37.234  38.116  1.00  0.00    -0.200 F 
ATOM     82  F   UNL A   1      39.185  36.463  40.297  1.00  0.00    -0.200 F 
ENDBRANCH  48  72
BRANCH  60  83
ATOM     83  C   UNL A   1      43.823  28.846  35.244  1.00  0.00     0.064 A 
ATOM     84  C   UNL A   1      45.120  29.350  35.084  1.00  0.00     0.173 A 
ATOM     85  C   UNL A   1      43.625  27.796  36.153  1.00  0.00     0.173 A 
ATOM     86  F   UNL A   1      45.354  30.345  34.215  1.00  0.00    -0.203 F 
ATOM     87  C   UNL A   1      46.182  28.826  35.813  1.00  0.00     0.198 A 
ATOM     88  C   UNL A   1      44.687  27.288  36.894  1.00  0.00     0.198 A 
ATOM     89  F   UNL A   1      42.400  27.286  36.341  1.00  0.00    -0.203 F 
ATOM     90  F   UNL A   1      47.418  29.314  35.637  1.00  0.00    -0.200 F 
ATOM     91  C   UNL A   1      45.964  27.803  36.725  1.00  0.00     0.200 A 
ATOM     92  F   UNL A   1      44.474  26.306  37.781  1.00  0.00    -0.200 F 
ATOM     93  F   UNL A   1      46.985  27.313  37.441  1.00  0.00    -0.200 F 
ENDBRANCH  60  83
ENDBRANCH  34  35
ENDBRANCH  26  29
ENDBRANCH  24  25
ENDBRANCH   1  24
TORSDOF 12
ENDMDL
