MODEL 1
REMARK VINA RESULT:     -13.2      0.000      0.000
REMARK SMILES Cc1c(Br)c(C(=O)NCCCCNC(=O)c2ccc(-c3c4nc(c(-c5c(F)c(F)c(F)c(F)c5F)c5ccc([nH]5)c(-c5c(F)c(F)c(F)c(F)c5F)c5nc(c(-c6c(F)c(F)c(F)c(F)c6F)c6ccc3[nH]6)C=C5)C=C4)cc2)nn1-c1ccccc1
REMARK SMILES IDX 11 1 10 2 9 3 8 4 6 5 7 6 5 8 1 9 2 10 3 11 80 12 4 13 79 14
REMARK SMILES IDX 81 15 82 16 86 17 83 18 85 19 84 20 12 21 13 22 14 23 15 25
REMARK SMILES IDX 16 26 17 27 78 28 18 29 77 30 19 31 20 32 21 33 71 34 22 35
REMARK SMILES IDX 76 36 70 37 72 38 23 39 75 40 69 41 68 42 24 44 56 45 36 46
REMARK SMILES IDX 55 47 37 48 40 49 54 50 73 51 38 52 39 53 53 55 74 56 41 57
REMARK SMILES IDX 25 58 26 59 34 60 27 61 28 62 32 63 35 64 29 65 30 66 33 67
REMARK SMILES IDX 31 68 57 69 58 70 66 71 59 72 60 73 64 74 67 75 61 76 62 77
REMARK SMILES IDX 65 78 63 79 42 80 43 81 51 82 44 83 45 84 49 85 52 86 46 87
REMARK SMILES IDX 47 88 50 89 48 90
REMARK H PARENT 8 7 13 24 72 43 40 54
REMARK Flexibility Score: inf
ROOT
ATOM      1  C   UNL A   1      36.243  22.319  26.004  1.00  0.00     0.023 C 
ENDROOT
BRANCH   1   2
ATOM      2  C   UNL A   1      35.053  23.128  26.535  1.00  0.00     0.023 C 
BRANCH   2   3
ATOM      3  C   UNL A   1      34.222  22.458  27.632  1.00  0.00     0.116 C 
BRANCH   3   4
ATOM      4  N   UNL A   1      32.869  22.989  27.724  1.00  0.00    -0.351 N 
ATOM      5  C   UNL A   1      31.786  22.895  26.871  1.00  0.00     0.272 C 
ATOM      6  O   UNL A   1      30.761  23.494  27.223  1.00  0.00    -0.267 OA
ATOM      7  H   UNL A   1      32.694  23.509  28.541  1.00  0.00     0.163 HD
BRANCH   5   8
ATOM      8  C   UNL A   1      31.862  22.156  25.600  1.00  0.00     0.165 A 
ATOM      9  C   UNL A   1      31.985  21.511  21.947  1.00  0.00     0.068 C 
ATOM     10  C   UNL A   1      32.040  21.586  23.429  1.00  0.00     0.056 A 
ATOM     11  C   UNL A   1      31.825  22.656  24.275  1.00  0.00     0.072 A 
ATOM     12  N   UNL A   1      32.280  20.520  24.275  1.00  0.00    -0.236 N 
ATOM     13  Br  UNL A   1      31.548  24.437  23.751  1.00  0.00    -0.046 Br
ATOM     14  N   UNL A   1      31.917  20.812  25.545  1.00  0.00    -0.161 NA
BRANCH  12  15
ATOM     15  C   UNL A   1      32.914  19.274  24.030  1.00  0.00     0.065 A 
ATOM     16  C   UNL A   1      34.148  19.007  24.647  1.00  0.00     0.028 A 
ATOM     17  C   UNL A   1      32.393  18.368  23.100  1.00  0.00     0.028 A 
ATOM     18  C   UNL A   1      34.837  17.831  24.356  1.00  0.00     0.002 A 
ATOM     19  C   UNL A   1      33.103  17.203  22.794  1.00  0.00     0.002 A 
ATOM     20  C   UNL A   1      34.318  16.933  23.425  1.00  0.00     0.000 A 
ENDBRANCH  12  15
ENDBRANCH   5   8
ENDBRANCH   3   4
ENDBRANCH   2   3
ENDBRANCH   1   2
BRANCH   1  21
ATOM     21  C   UNL A   1      37.601  23.002  26.139  1.00  0.00     0.116 C 
BRANCH  21  22
ATOM     22  N   UNL A   1      38.707  22.056  26.244  1.00  0.00    -0.352 N 
ATOM     23  C   UNL A   1      40.046  22.323  26.418  1.00  0.00     0.251 C 
ATOM     24  H   UNL A   1      38.464  21.104  26.182  1.00  0.00     0.163 HD
ATOM     25  O   UNL A   1      40.894  21.470  26.154  1.00  0.00    -0.269 OA
BRANCH  23  26
ATOM     26  C   UNL A   1      40.469  23.651  26.894  1.00  0.00     0.039 A 
ATOM     27  C   UNL A   1      39.842  24.799  26.404  1.00  0.00     0.014 A 
ATOM     28  C   UNL A   1      41.480  23.751  27.851  1.00  0.00     0.014 A 
ATOM     29  C   UNL A   1      40.161  26.038  26.956  1.00  0.00     0.010 A 
ATOM     30  C   UNL A   1      41.737  24.970  28.454  1.00  0.00     0.010 A 
ATOM     31  C   UNL A   1      41.085  26.122  28.011  1.00  0.00    -0.014 A 
BRANCH  31  32
ATOM     32  C   UNL A   1      41.231  27.393  28.736  1.00  0.00     0.031 A 
ATOM     33  C   UNL A   1      42.386  28.250  28.325  1.00  0.00     0.074 A 
ATOM     34  C   UNL A   1      40.297  27.918  29.557  1.00  0.00     0.049 A 
ATOM     35  N   UNL A   1      43.329  28.735  29.069  1.00  0.00    -0.248 NA
ATOM     36  C   UNL A   1      42.534  28.571  26.897  1.00  0.00     0.031 C 
ATOM     37  C   UNL A   1      38.958  27.395  29.839  1.00  0.00     0.029 A 
ATOM     38  N   UNL A   1      40.308  29.113  30.222  1.00  0.00    -0.354 N 
ATOM     39  C   UNL A   1      44.110  29.540  28.239  1.00  0.00     0.074 A 
ATOM     40  C   UNL A   1      43.641  29.316  26.898  1.00  0.00     0.031 C 
ATOM     41  C   UNL A   1      38.214  28.360  30.419  1.00  0.00     0.029 A 
ATOM     42  C   UNL A   1      39.062  29.507  30.690  1.00  0.00     0.049 A 
ATOM     43  H   UNL A   1      41.126  29.646  30.357  1.00  0.00     0.167 HD
ATOM     44  C   UNL A   1      44.962  30.476  28.748  1.00  0.00     0.037 A 
ATOM     45  C   UNL A   1      38.728  30.697  31.240  1.00  0.00     0.037 A 
ATOM     46  C   UNL A   1      45.227  30.237  30.143  1.00  0.00     0.049 A 
ATOM     47  C   UNL A   1      39.967  31.337  31.733  1.00  0.00     0.074 A 
ATOM     48  C   UNL A   1      45.841  29.247  30.880  1.00  0.00     0.029 A 
ATOM     49  N   UNL A   1      44.549  31.019  31.039  1.00  0.00    -0.354 N 
ATOM     50  N   UNL A   1      40.651  30.921  32.760  1.00  0.00    -0.248 NA
ATOM     51  C   UNL A   1      40.636  32.325  30.897  1.00  0.00     0.031 C 
ATOM     52  C   UNL A   1      45.180  29.248  32.144  1.00  0.00     0.029 A 
ATOM     53  C   UNL A   1      44.210  30.250  32.118  1.00  0.00     0.049 A 
ATOM     54  H   UNL A   1      44.343  31.974  30.927  1.00  0.00     0.167 HD
ATOM     55  C   UNL A   1      41.960  31.243  32.454  1.00  0.00     0.074 A 
ATOM     56  C   UNL A   1      41.865  32.256  31.413  1.00  0.00     0.031 C 
ATOM     57  C   UNL A   1      42.983  30.436  32.858  1.00  0.00     0.037 A 
BRANCH  44  58
ATOM     58  C   UNL A   1      45.271  31.820  28.117  1.00  0.00     0.064 A 
ATOM     59  C   UNL A   1      44.207  32.715  27.859  1.00  0.00     0.173 A 
ATOM     60  C   UNL A   1      46.483  32.123  27.462  1.00  0.00     0.173 A 
ATOM     61  F   UNL A   1      43.004  32.532  28.422  1.00  0.00    -0.203 F 
ATOM     62  C   UNL A   1      44.321  33.759  26.936  1.00  0.00     0.198 A 
ATOM     63  C   UNL A   1      46.608  33.200  26.582  1.00  0.00     0.198 A 
ATOM     64  F   UNL A   1      47.558  31.333  27.554  1.00  0.00    -0.203 F 
ATOM     65  F   UNL A   1      43.242  34.488  26.619  1.00  0.00    -0.200 F 
ATOM     66  C   UNL A   1      45.519  33.994  26.289  1.00  0.00     0.200 A 
ATOM     67  F   UNL A   1      47.774  33.405  25.955  1.00  0.00    -0.200 F 
ATOM     68  F   UNL A   1      45.613  34.946  25.352  1.00  0.00    -0.200 F 
ENDBRANCH  44  58
BRANCH  45  69
ATOM     69  C   UNL A   1      37.421  31.392  31.259  1.00  0.00     0.064 A 
ATOM     70  C   UNL A   1      36.730  31.606  32.463  1.00  0.00     0.173 A 
ATOM     71  C   UNL A   1      36.943  32.086  30.130  1.00  0.00     0.173 A 
ATOM     72  F   UNL A   1      37.141  31.013  33.594  1.00  0.00    -0.203 F 
ATOM     73  C   UNL A   1      35.646  32.485  32.541  1.00  0.00     0.198 A 
ATOM     74  C   UNL A   1      35.851  32.953  30.206  1.00  0.00     0.198 A 
ATOM     75  F   UNL A   1      37.581  32.008  28.954  1.00  0.00    -0.203 F 
ATOM     76  F   UNL A   1      35.056  32.714  33.722  1.00  0.00    -0.200 F 
ATOM     77  C   UNL A   1      35.214  33.164  31.414  1.00  0.00     0.200 A 
ATOM     78  F   UNL A   1      35.462  33.626  29.115  1.00  0.00    -0.200 F 
ATOM     79  F   UNL A   1      34.213  34.051  31.500  1.00  0.00    -0.200 F 
ENDBRANCH  45  69
BRANCH  57  80
ATOM     80  C   UNL A   1      42.716  29.497  33.997  1.00  0.00     0.064 A 
ATOM     81  C   UNL A   1      42.057  28.262  33.873  1.00  0.00     0.173 A 
ATOM     82  C   UNL A   1      43.237  29.829  35.256  1.00  0.00     0.173 A 
ATOM     83  F   UNL A   1      41.623  27.825  32.684  1.00  0.00    -0.203 F 
ATOM     84  C   UNL A   1      41.875  27.431  34.976  1.00  0.00     0.198 A 
ATOM     85  C   UNL A   1      43.091  28.977  36.346  1.00  0.00     0.198 A 
ATOM     86  F   UNL A   1      43.923  30.972  35.421  1.00  0.00    -0.203 F 
ATOM     87  F   UNL A   1      41.214  26.271  34.843  1.00  0.00    -0.200 F 
ATOM     88  C   UNL A   1      42.396  27.787  36.210  1.00  0.00     0.200 A 
ATOM     89  F   UNL A   1      43.640  29.303  37.524  1.00  0.00    -0.200 F 
ATOM     90  F   UNL A   1      42.250  26.971  37.264  1.00  0.00    -0.200 F 
ENDBRANCH  57  80
ENDBRANCH  31  32
ENDBRANCH  23  26
ENDBRANCH  21  22
ENDBRANCH   1  21
TORSDOF 12
ENDMDL
MODEL 2
REMARK VINA RESULT:     -13.1      4.285      9.276
REMARK SMILES Cc1c(Br)c(C(=O)NCCCCNC(=O)c2ccc(-c3c4nc(c(-c5c(F)c(F)c(F)c(F)c5F)c5ccc([nH]5)c(-c5c(F)c(F)c(F)c(F)c5F)c5nc(c(-c6c(F)c(F)c(F)c(F)c6F)c6ccc3[nH]6)C=C5)C=C4)cc2)nn1-c1ccccc1
REMARK SMILES IDX 11 1 10 2 9 3 8 4 6 5 7 6 5 8 1 9 2 10 3 11 80 12 4 13 79 14
REMARK SMILES IDX 81 15 82 16 86 17 83 18 85 19 84 20 12 21 13 22 14 23 15 25
REMARK SMILES IDX 16 26 17 27 78 28 18 29 77 30 19 31 20 32 21 33 71 34 22 35
REMARK SMILES IDX 76 36 70 37 72 38 23 39 75 40 69 41 68 42 24 44 56 45 36 46
REMARK SMILES IDX 55 47 37 48 40 49 54 50 73 51 38 52 39 53 53 55 74 56 41 57
REMARK SMILES IDX 25 58 26 59 34 60 27 61 28 62 32 63 35 64 29 65 30 66 33 67
REMARK SMILES IDX 31 68 57 69 58 70 66 71 59 72 60 73 64 74 67 75 61 76 62 77
REMARK SMILES IDX 65 78 63 79 42 80 43 81 51 82 44 83 45 84 49 85 52 86 46 87
REMARK SMILES IDX 47 88 50 89 48 90
REMARK H PARENT 8 7 13 24 72 43 40 54
REMARK Flexibility Score: inf
ROOT
ATOM      1  C   UNL A   1      34.042  31.091  27.634  1.00  0.00     0.023 C 
ENDROOT
BRANCH   1   2
ATOM      2  C   UNL A   1      34.931  30.061  26.927  1.00  0.00     0.023 C 
BRANCH   2   3
ATOM      3  C   UNL A   1      34.385  28.633  26.865  1.00  0.00     0.116 C 
BRANCH   3   4
ATOM      4  N   UNL A   1      33.156  28.460  27.626  1.00  0.00    -0.351 N 
ATOM      5  C   UNL A   1      31.882  28.090  27.240  1.00  0.00     0.272 C 
ATOM      6  O   UNL A   1      31.028  28.063  28.136  1.00  0.00    -0.267 OA
ATOM      7  H   UNL A   1      33.250  28.640  28.590  1.00  0.00     0.163 HD
BRANCH   5   8
ATOM      8  C   UNL A   1      31.554  27.783  25.838  1.00  0.00     0.165 A 
ATOM      9  C   UNL A   1      31.037  25.821  22.730  1.00  0.00     0.068 C 
ATOM     10  C   UNL A   1      31.104  26.742  23.894  1.00  0.00     0.056 A 
ATOM     11  C   UNL A   1      31.610  26.539  25.162  1.00  0.00     0.072 A 
ATOM     12  N   UNL A   1      30.693  28.062  23.893  1.00  0.00    -0.236 N 
ATOM     13  Br  UNL A   1      32.238  24.911  25.851  1.00  0.00    -0.046 Br
ATOM     14  N   UNL A   1      31.200  28.732  24.953  1.00  0.00    -0.161 NA
BRANCH  12  15
ATOM     15  C   UNL A   1      29.783  28.743  23.043  1.00  0.00     0.065 A 
ATOM     16  C   UNL A   1      30.280  29.705  22.148  1.00  0.00     0.028 A 
ATOM     17  C   UNL A   1      28.401  28.557  23.166  1.00  0.00     0.028 A 
ATOM     18  C   UNL A   1      29.404  30.453  21.364  1.00  0.00     0.002 A 
ATOM     19  C   UNL A   1      27.527  29.330  22.395  1.00  0.00     0.002 A 
ATOM     20  C   UNL A   1      28.028  30.270  21.493  1.00  0.00     0.000 A 
ENDBRANCH  12  15
ENDBRANCH   5   8
ENDBRANCH   3   4
ENDBRANCH   2   3
ENDBRANCH   1   2
BRANCH   1  21
ATOM     21  C   UNL A   1      34.757  32.361  28.089  1.00  0.00     0.116 C 
BRANCH  21  22
ATOM     22  N   UNL A   1      34.626  32.607  29.521  1.00  0.00    -0.352 N 
ATOM     23  C   UNL A   1      35.268  31.969  30.558  1.00  0.00     0.251 C 
ATOM     24  H   UNL A   1      33.998  33.319  29.779  1.00  0.00     0.163 HD
ATOM     25  O   UNL A   1      34.824  32.038  31.705  1.00  0.00    -0.269 OA
BRANCH  23  26
ATOM     26  C   UNL A   1      36.478  31.173  30.290  1.00  0.00     0.039 A 
ATOM     27  C   UNL A   1      37.698  31.815  30.066  1.00  0.00     0.014 A 
ATOM     28  C   UNL A   1      36.400  29.780  30.283  1.00  0.00     0.014 A 
ATOM     29  C   UNL A   1      38.857  31.052  29.942  1.00  0.00     0.010 A 
ATOM     30  C   UNL A   1      37.560  29.026  30.241  1.00  0.00     0.010 A 
ATOM     31  C   UNL A   1      38.796  29.653  30.066  1.00  0.00    -0.014 A 
BRANCH  31  32
ATOM     32  C   UNL A   1      40.047  28.888  30.171  1.00  0.00     0.031 A 
ATOM     33  C   UNL A   1      40.576  28.689  31.556  1.00  0.00     0.074 A 
ATOM     34  C   UNL A   1      40.602  28.187  29.160  1.00  0.00     0.049 A 
ATOM     35  N   UNL A   1      41.751  28.982  32.014  1.00  0.00    -0.248 NA
ATOM     36  C   UNL A   1      39.666  28.134  32.571  1.00  0.00     0.031 C 
ATOM     37  C   UNL A   1      40.067  27.984  27.811  1.00  0.00     0.029 A 
ATOM     38  N   UNL A   1      41.719  27.395  29.172  1.00  0.00    -0.354 N 
ATOM     39  C   UNL A   1      41.787  28.522  33.331  1.00  0.00     0.074 A 
ATOM     40  C   UNL A   1      40.446  28.109  33.652  1.00  0.00     0.031 C 
ATOM     41  C   UNL A   1      40.722  26.963  27.220  1.00  0.00     0.029 A 
ATOM     42  C   UNL A   1      41.817  26.547  28.078  1.00  0.00     0.049 A 
ATOM     43  H   UNL A   1      42.392  27.426  29.890  1.00  0.00     0.167 HD
ATOM     44  C   UNL A   1      42.965  28.341  33.993  1.00  0.00     0.037 A 
ATOM     45  C   UNL A   1      42.710  25.549  27.888  1.00  0.00     0.037 A 
ATOM     46  C   UNL A   1      44.043  29.037  33.339  1.00  0.00     0.049 A 
ATOM     47  C   UNL A   1      43.875  25.806  28.763  1.00  0.00     0.074 A 
ATOM     48  C   UNL A   1      44.364  30.353  33.086  1.00  0.00     0.029 A 
ATOM     49  N   UNL A   1      44.880  28.281  32.563  1.00  0.00    -0.354 N 
ATOM     50  N   UNL A   1      44.732  26.770  28.581  1.00  0.00    -0.248 NA
ATOM     51  C   UNL A   1      43.954  25.137  30.054  1.00  0.00     0.031 C 
ATOM     52  C   UNL A   1      45.111  30.336  31.872  1.00  0.00     0.029 A 
ATOM     53  C   UNL A   1      45.224  29.008  31.457  1.00  0.00     0.049 A 
ATOM     54  H   UNL A   1      45.186  27.368  32.769  1.00  0.00     0.167 HD
ATOM     55  C   UNL A   1      45.139  27.113  29.857  1.00  0.00     0.074 A 
ATOM     56  C   UNL A   1      44.784  25.971  30.685  1.00  0.00     0.031 C 
ATOM     57  C   UNL A   1      45.439  28.408  30.161  1.00  0.00     0.037 A 
BRANCH  44  58
ATOM     58  C   UNL A   1      43.247  27.247  35.005  1.00  0.00     0.064 A 
ATOM     59  C   UNL A   1      43.590  27.610  36.328  1.00  0.00     0.173 A 
ATOM     60  C   UNL A   1      43.521  25.907  34.660  1.00  0.00     0.173 A 
ATOM     61  F   UNL A   1      43.381  28.859  36.773  1.00  0.00    -0.203 F 
ATOM     62  C   UNL A   1      44.252  26.734  37.193  1.00  0.00     0.198 A 
ATOM     63  C   UNL A   1      44.132  25.018  35.546  1.00  0.00     0.198 A 
ATOM     64  F   UNL A   1      43.314  25.433  33.427  1.00  0.00    -0.203 F 
ATOM     65  F   UNL A   1      44.686  27.172  38.382  1.00  0.00    -0.200 F 
ATOM     66  C   UNL A   1      44.533  25.440  36.797  1.00  0.00     0.200 A 
ATOM     67  F   UNL A   1      44.408  23.771  35.140  1.00  0.00    -0.200 F 
ATOM     68  F   UNL A   1      45.230  24.620  37.593  1.00  0.00    -0.200 F 
ENDBRANCH  44  58
BRANCH  45  69
ATOM     69  C   UNL A   1      42.581  24.306  27.094  1.00  0.00     0.064 A 
ATOM     70  C   UNL A   1      43.089  24.223  25.788  1.00  0.00     0.173 A 
ATOM     71  C   UNL A   1      42.183  23.094  27.690  1.00  0.00     0.173 A 
ATOM     72  F   UNL A   1      43.526  25.325  25.160  1.00  0.00    -0.203 F 
ATOM     73  C   UNL A   1      43.222  22.998  25.128  1.00  0.00     0.198 A 
ATOM     74  C   UNL A   1      42.302  21.872  27.026  1.00  0.00     0.198 A 
ATOM     75  F   UNL A   1      41.756  23.059  28.961  1.00  0.00    -0.203 F 
ATOM     76  F   UNL A   1      43.775  22.953  23.909  1.00  0.00    -0.200 F 
ATOM     77  C   UNL A   1      42.836  21.823  25.751  1.00  0.00     0.200 A 
ATOM     78  F   UNL A   1      41.952  20.740  27.651  1.00  0.00    -0.200 F 
ATOM     79  F   UNL A   1      43.017  20.643  25.143  1.00  0.00    -0.200 F 
ENDBRANCH  45  69
BRANCH  57  80
ATOM     80  C   UNL A   1      45.774  29.328  29.023  1.00  0.00     0.064 A 
ATOM     81  C   UNL A   1      47.055  29.469  28.465  1.00  0.00     0.173 A 
ATOM     82  C   UNL A   1      44.722  30.029  28.416  1.00  0.00     0.173 A 
ATOM     83  F   UNL A   1      48.093  28.755  28.921  1.00  0.00    -0.203 F 
ATOM     84  C   UNL A   1      47.279  30.323  27.387  1.00  0.00     0.198 A 
ATOM     85  C   UNL A   1      44.941  30.847  27.313  1.00  0.00     0.198 A 
ATOM     86  F   UNL A   1      43.467  29.890  28.873  1.00  0.00    -0.203 F 
ATOM     87  F   UNL A   1      48.517  30.468  26.891  1.00  0.00    -0.200 F 
ATOM     88  C   UNL A   1      46.222  31.007  26.810  1.00  0.00     0.200 A 
ATOM     89  F   UNL A   1      43.907  31.467  26.727  1.00  0.00    -0.200 F 
ATOM     90  F   UNL A   1      46.432  31.803  25.751  1.00  0.00    -0.200 F 
ENDBRANCH  57  80
ENDBRANCH  31  32
ENDBRANCH  23  26
ENDBRANCH  21  22
ENDBRANCH   1  21
TORSDOF 12
ENDMDL
MODEL 3
REMARK VINA RESULT:     -13.1      4.817      8.347
REMARK SMILES Cc1c(Br)c(C(=O)NCCCCNC(=O)c2ccc(-c3c4nc(c(-c5c(F)c(F)c(F)c(F)c5F)c5ccc([nH]5)c(-c5c(F)c(F)c(F)c(F)c5F)c5nc(c(-c6c(F)c(F)c(F)c(F)c6F)c6ccc3[nH]6)C=C5)C=C4)cc2)nn1-c1ccccc1
REMARK SMILES IDX 11 1 10 2 9 3 8 4 6 5 7 6 5 8 1 9 2 10 3 11 80 12 4 13 79 14
REMARK SMILES IDX 81 15 82 16 86 17 83 18 85 19 84 20 12 21 13 22 14 23 15 25
REMARK SMILES IDX 16 26 17 27 78 28 18 29 77 30 19 31 20 32 21 33 71 34 22 35
REMARK SMILES IDX 76 36 70 37 72 38 23 39 75 40 69 41 68 42 24 44 56 45 36 46
REMARK SMILES IDX 55 47 37 48 40 49 54 50 73 51 38 52 39 53 53 55 74 56 41 57
REMARK SMILES IDX 25 58 26 59 34 60 27 61 28 62 32 63 35 64 29 65 30 66 33 67
REMARK SMILES IDX 31 68 57 69 58 70 66 71 59 72 60 73 64 74 67 75 61 76 62 77
REMARK SMILES IDX 65 78 63 79 42 80 43 81 51 82 44 83 45 84 49 85 52 86 46 87
REMARK SMILES IDX 47 88 50 89 48 90
REMARK H PARENT 8 7 13 24 72 43 40 54
REMARK Flexibility Score: inf
ROOT
ATOM      1  C   UNL A   1      33.564  28.864  26.250  1.00  0.00     0.023 C 
ENDROOT
BRANCH   1   2
ATOM      2  C   UNL A   1      33.795  28.403  24.806  1.00  0.00     0.023 C 
BRANCH   2   3
ATOM      3  C   UNL A   1      33.858  26.889  24.586  1.00  0.00     0.116 C 
BRANCH   3   4
ATOM      4  N   UNL A   1      33.912  26.521  23.178  1.00  0.00    -0.351 N 
ATOM      5  C   UNL A   1      32.938  26.496  22.198  1.00  0.00     0.272 C 
ATOM      6  O   UNL A   1      33.298  26.097  21.082  1.00  0.00    -0.267 OA
ATOM      7  H   UNL A   1      34.803  26.238  22.869  1.00  0.00     0.163 HD
BRANCH   5   8
ATOM      8  C   UNL A   1      31.546  26.886  22.478  1.00  0.00     0.165 A 
ATOM      9  C   UNL A   1      28.111  26.773  23.880  1.00  0.00     0.068 C 
ATOM     10  C   UNL A   1      29.458  27.027  23.307  1.00  0.00     0.056 A 
ATOM     11  C   UNL A   1      30.572  26.214  23.257  1.00  0.00     0.072 A 
ATOM     12  N   UNL A   1      29.838  28.175  22.638  1.00  0.00    -0.236 N 
ATOM     13  Br  UNL A   1      30.752  24.538  24.082  1.00  0.00    -0.046 Br
ATOM     14  N   UNL A   1      30.975  27.975  21.932  1.00  0.00    -0.161 NA
BRANCH  12  15
ATOM     15  C   UNL A   1      29.291  29.484  22.669  1.00  0.00     0.065 A 
ATOM     16  C   UNL A   1      29.564  30.307  23.774  1.00  0.00     0.028 A 
ATOM     17  C   UNL A   1      28.396  29.918  21.685  1.00  0.00     0.028 A 
ATOM     18  C   UNL A   1      28.969  31.564  23.877  1.00  0.00     0.002 A 
ATOM     19  C   UNL A   1      27.783  31.169  21.808  1.00  0.00     0.002 A 
ATOM     20  C   UNL A   1      28.074  31.991  22.897  1.00  0.00     0.000 A 
ENDBRANCH  12  15
ENDBRANCH   5   8
ENDBRANCH   3   4
ENDBRANCH   2   3
ENDBRANCH   1   2
BRANCH   1  21
ATOM     21  C   UNL A   1      34.788  28.783  27.159  1.00  0.00     0.116 C 
BRANCH  21  22
ATOM     22  N   UNL A   1      34.935  29.950  28.022  1.00  0.00    -0.352 N 
ATOM     23  C   UNL A   1      35.968  30.251  28.881  1.00  0.00     0.251 C 
ATOM     24  H   UNL A   1      34.202  30.605  27.986  1.00  0.00     0.163 HD
ATOM     25  O   UNL A   1      35.811  31.076  29.782  1.00  0.00    -0.269 OA
BRANCH  23  26
ATOM     26  C   UNL A   1      37.260  29.559  28.740  1.00  0.00     0.039 A 
ATOM     27  C   UNL A   1      38.079  29.830  27.641  1.00  0.00     0.014 A 
ATOM     28  C   UNL A   1      37.668  28.652  29.719  1.00  0.00     0.014 A 
ATOM     29  C   UNL A   1      39.353  29.269  27.586  1.00  0.00     0.010 A 
ATOM     30  C   UNL A   1      38.961  28.159  29.704  1.00  0.00     0.010 A 
ATOM     31  C   UNL A   1      39.812  28.458  28.638  1.00  0.00    -0.014 A 
BRANCH  31  32
ATOM     32  C   UNL A   1      41.230  28.072  28.679  1.00  0.00     0.031 A 
ATOM     33  C   UNL A   1      41.586  26.819  27.945  1.00  0.00     0.074 A 
ATOM     34  C   UNL A   1      42.227  28.865  29.127  1.00  0.00     0.049 A 
ATOM     35  N   UNL A   1      42.200  25.772  28.396  1.00  0.00    -0.248 NA
ATOM     36  C   UNL A   1      41.167  26.699  26.539  1.00  0.00     0.031 C 
ATOM     37  C   UNL A   1      42.129  30.253  29.584  1.00  0.00     0.029 A 
ATOM     38  N   UNL A   1      43.574  28.627  29.146  1.00  0.00    -0.354 N 
ATOM     39  C   UNL A   1      42.377  24.918  27.307  1.00  0.00     0.074 A 
ATOM     40  C   UNL A   1      41.628  25.489  26.219  1.00  0.00     0.031 C 
ATOM     41  C   UNL A   1      43.362  30.800  29.617  1.00  0.00     0.029 A 
ATOM     42  C   UNL A   1      44.343  29.766  29.337  1.00  0.00     0.049 A 
ATOM     43  H   UNL A   1      43.963  27.728  29.036  1.00  0.00     0.167 HD
ATOM     44  C   UNL A   1      43.285  23.901  27.337  1.00  0.00     0.037 A 
ATOM     45  C   UNL A   1      45.689  29.876  29.247  1.00  0.00     0.037 A 
ATOM     46  C   UNL A   1      43.691  23.603  28.685  1.00  0.00     0.049 A 
ATOM     47  C   UNL A   1      46.269  28.525  29.413  1.00  0.00     0.074 A 
ATOM     48  C   UNL A   1      43.079  23.116  29.820  1.00  0.00     0.029 A 
ATOM     49  N   UNL A   1      44.903  24.097  29.085  1.00  0.00    -0.354 N 
ATOM     50  N   UNL A   1      46.278  27.862  30.534  1.00  0.00    -0.248 NA
ATOM     51  C   UNL A   1      46.619  27.753  28.229  1.00  0.00     0.031 C 
ATOM     52  C   UNL A   1      43.785  23.699  30.914  1.00  0.00     0.029 A 
ATOM     53  C   UNL A   1      44.803  24.497  30.388  1.00  0.00     0.049 A 
ATOM     54  H   UNL A   1      45.712  24.154  28.527  1.00  0.00     0.167 HD
ATOM     55  C   UNL A   1      46.196  26.537  30.150  1.00  0.00     0.074 A 
ATOM     56  C   UNL A   1      46.598  26.525  28.752  1.00  0.00     0.031 C 
ATOM     57  C   UNL A   1      45.516  25.636  30.917  1.00  0.00     0.037 A 
BRANCH  44  58
ATOM     58  C   UNL A   1      44.101  23.416  26.153  1.00  0.00     0.064 A 
ATOM     59  C   UNL A   1      44.078  22.041  25.824  1.00  0.00     0.173 A 
ATOM     60  C   UNL A   1      45.141  24.159  25.557  1.00  0.00     0.173 A 
ATOM     61  F   UNL A   1      43.138  21.229  26.332  1.00  0.00    -0.203 F 
ATOM     62  C   UNL A   1      45.077  21.444  25.050  1.00  0.00     0.198 A 
ATOM     63  C   UNL A   1      46.106  23.568  24.739  1.00  0.00     0.198 A 
ATOM     64  F   UNL A   1      45.334  25.455  25.825  1.00  0.00    -0.203 F 
ATOM     65  F   UNL A   1      45.089  20.114  24.888  1.00  0.00    -0.200 F 
ATOM     66  C   UNL A   1      46.098  22.207  24.517  1.00  0.00     0.200 A 
ATOM     67  F   UNL A   1      47.096  24.323  24.241  1.00  0.00    -0.200 F 
ATOM     68  F   UNL A   1      47.096  21.631  23.836  1.00  0.00    -0.200 F 
ENDBRANCH  44  58
BRANCH  45  69
ATOM     69  C   UNL A   1      46.517  31.052  28.898  1.00  0.00     0.064 A 
ATOM     70  C   UNL A   1      46.515  31.580  27.597  1.00  0.00     0.173 A 
ATOM     71  C   UNL A   1      47.131  31.838  29.893  1.00  0.00     0.173 A 
ATOM     72  F   UNL A   1      45.919  30.915  26.597  1.00  0.00    -0.203 F 
ATOM     73  C   UNL A   1      47.066  32.833  27.312  1.00  0.00     0.198 A 
ATOM     74  C   UNL A   1      47.694  33.082  29.605  1.00  0.00     0.198 A 
ATOM     75  F   UNL A   1      47.116  31.455  31.178  1.00  0.00    -0.203 F 
ATOM     76  F   UNL A   1      46.983  33.332  26.072  1.00  0.00    -0.200 F 
ATOM     77  C   UNL A   1      47.647  33.586  28.319  1.00  0.00     0.200 A 
ATOM     78  F   UNL A   1      48.226  33.813  30.594  1.00  0.00    -0.200 F 
ATOM     79  F   UNL A   1      48.122  34.812  28.059  1.00  0.00    -0.200 F 
ENDBRANCH  45  69
BRANCH  57  80
ATOM     80  C   UNL A   1      45.285  25.987  32.357  1.00  0.00     0.064 A 
ATOM     81  C   UNL A   1      44.144  26.650  32.840  1.00  0.00     0.173 A 
ATOM     82  C   UNL A   1      46.225  25.548  33.299  1.00  0.00     0.173 A 
ATOM     83  F   UNL A   1      43.150  27.010  32.017  1.00  0.00    -0.203 F 
ATOM     84  C   UNL A   1      43.988  26.914  34.200  1.00  0.00     0.198 A 
ATOM     85  C   UNL A   1      46.046  25.774  34.659  1.00  0.00     0.198 A 
ATOM     86  F   UNL A   1      47.308  24.861  32.899  1.00  0.00    -0.203 F 
ATOM     87  F   UNL A   1      42.907  27.577  34.636  1.00  0.00    -0.200 F 
ATOM     88  C   UNL A   1      44.936  26.472  35.108  1.00  0.00     0.200 A 
ATOM     89  F   UNL A   1      46.941  25.300  35.537  1.00  0.00    -0.200 F 
ATOM     90  F   UNL A   1      44.770  26.696  36.419  1.00  0.00    -0.200 F 
ENDBRANCH  57  80
ENDBRANCH  31  32
ENDBRANCH  23  26
ENDBRANCH  21  22
ENDBRANCH   1  21
TORSDOF 12
ENDMDL
