MODEL 1
REMARK VINA RESULT:     -11.9      0.000      0.000
REMARK SMILES CC(C)Cc1ccc([C@H](C)C(=O)NCCCCNC(=O)c2ccc(-c3c4nc(c(-c5c(F)c(F)c(F)c(F)c5F)c5ccc([nH]5)c(-c5c(F)c(F)c(F)c(F)c5F)c5nc(c(-c6c(F)c(F)c(F)c(F)c6F)c6ccc3[nH]6)C=C5)C=C4)cc2)cc1
REMARK SMILES IDX 15 1 14 2 13 3 11 4 12 5 9 7 10 8 8 9 5 10 6 11 85 12 7 13
REMARK SMILES IDX 84 14 4 15 2 16 1 17 3 18 16 19 17 20 18 21 19 22 20 24
REMARK SMILES IDX 21 25 22 26 83 27 23 28 82 29 24 30 25 31 26 32 76 33 27 34
REMARK SMILES IDX 81 35 75 36 77 37 28 38 80 39 74 40 73 41 29 43 61 44 41 45
REMARK SMILES IDX 60 46 42 47 45 48 59 49 78 50 43 51 44 52 58 54 79 55 46 56
REMARK SMILES IDX 30 57 31 58 39 59 32 60 33 61 37 62 40 63 34 64 35 65 38 66
REMARK SMILES IDX 36 67 62 68 63 69 71 70 64 71 65 72 69 73 72 74 66 75 67 76
REMARK SMILES IDX 70 77 68 78 47 79 48 80 56 81 49 82 50 83 54 84 57 85 51 86
REMARK SMILES IDX 52 87 55 88 53 89
REMARK H PARENT 13 6 18 23 77 42 45 53
REMARK Flexibility Score: inf
ROOT
ATOM      1  C   UNL A   1      31.832  28.040  27.125  1.00  0.00     0.023 C 
ENDROOT
BRANCH   1   2
ATOM      2  C   UNL A   1      32.335  26.746  26.501  1.00  0.00     0.116 C 
BRANCH   2   3
ATOM      3  N   UNL A   1      31.403  25.648  26.700  1.00  0.00    -0.356 N 
ATOM      4  C   UNL A   1      30.809  24.839  25.773  1.00  0.00     0.227 C 
ATOM      5  O   UNL A   1      30.138  23.892  26.192  1.00  0.00    -0.274 OA
ATOM      6  H   UNL A   1      31.165  25.462  27.636  1.00  0.00     0.163 HD
BRANCH   4   7
ATOM      7  C   UNL A   1      30.943  25.112  24.272  1.00  0.00     0.105 C 
ATOM      8  C   UNL A   1      30.655  23.804  23.515  1.00  0.00     0.023 C 
BRANCH   7   9
ATOM      9  C   UNL A   1      30.204  26.352  23.769  1.00  0.00    -0.036 A 
ATOM     10  C   UNL A   1      28.786  28.595  22.774  1.00  0.00    -0.048 A 
ATOM     11  C   UNL A   1      30.155  28.464  22.542  1.00  0.00     0.004 A 
ATOM     12  C   UNL A   1      28.125  27.600  23.500  1.00  0.00     0.004 A 
ATOM     13  C   UNL A   1      30.845  27.343  23.004  1.00  0.00     0.005 A 
ATOM     14  C   UNL A   1      28.825  26.492  23.983  1.00  0.00     0.005 A 
BRANCH  10  15
ATOM     15  C   UNL A   1      28.017  29.731  22.148  1.00  0.00     0.038 C 
BRANCH  15  16
ATOM     16  C   UNL A   1      28.503  31.104  22.655  1.00  0.00    -0.013 C 
ATOM     17  C   UNL A   1      28.428  32.180  21.567  1.00  0.00     0.008 C 
ATOM     18  C   UNL A   1      27.685  31.536  23.871  1.00  0.00     0.008 C 
ENDBRANCH  15  16
ENDBRANCH  10  15
ENDBRANCH   7   9
ENDBRANCH   4   7
ENDBRANCH   2   3
ENDBRANCH   1   2
BRANCH   1  19
ATOM     19  C   UNL A   1      31.593  29.169  26.124  1.00  0.00     0.023 C 
BRANCH  19  20
ATOM     20  C   UNL A   1      32.793  30.076  25.877  1.00  0.00     0.116 C 
BRANCH  20  21
ATOM     21  N   UNL A   1      32.573  31.443  26.327  1.00  0.00    -0.352 N 
ATOM     22  C   UNL A   1      33.277  32.172  27.254  1.00  0.00     0.251 C 
ATOM     23  H   UNL A   1      31.814  31.910  25.908  1.00  0.00     0.163 HD
ATOM     24  O   UNL A   1      32.870  33.265  27.631  1.00  0.00    -0.269 OA
BRANCH  22  25
ATOM     25  C   UNL A   1      34.521  31.610  27.819  1.00  0.00     0.039 A 
ATOM     26  C   UNL A   1      35.620  32.450  28.004  1.00  0.00     0.014 A 
ATOM     27  C   UNL A   1      34.582  30.268  28.202  1.00  0.00     0.014 A 
ATOM     28  C   UNL A   1      36.760  31.960  28.645  1.00  0.00     0.010 A 
ATOM     29  C   UNL A   1      35.683  29.805  28.912  1.00  0.00     0.010 A 
ATOM     30  C   UNL A   1      36.783  30.646  29.140  1.00  0.00    -0.014 A 
BRANCH  30  31
ATOM     31  C   UNL A   1      37.947  30.132  29.905  1.00  0.00     0.031 A 
ATOM     32  C   UNL A   1      38.183  30.586  31.317  1.00  0.00     0.074 A 
ATOM     33  C   UNL A   1      38.830  29.310  29.304  1.00  0.00     0.049 A 
ATOM     34  N   UNL A   1      39.171  30.299  32.127  1.00  0.00    -0.248 NA
ATOM     35  C   UNL A   1      37.193  31.514  31.884  1.00  0.00     0.031 C 
ATOM     36  C   UNL A   1      38.738  28.837  27.922  1.00  0.00     0.029 A 
ATOM     37  N   UNL A   1      39.981  28.733  29.778  1.00  0.00    -0.354 N 
ATOM     38  C   UNL A   1      38.926  31.019  33.289  1.00  0.00     0.074 A 
ATOM     39  C   UNL A   1      37.735  31.806  33.056  1.00  0.00     0.031 C 
ATOM     40  C   UNL A   1      39.772  28.017  27.670  1.00  0.00     0.029 A 
ATOM     41  C   UNL A   1      40.619  27.941  28.856  1.00  0.00     0.049 A 
ATOM     42  H   UNL A   1      40.318  28.875  30.691  1.00  0.00     0.167 HD
ATOM     43  C   UNL A   1      39.618  31.006  34.454  1.00  0.00     0.037 A 
ATOM     44  C   UNL A   1      41.762  27.234  28.955  1.00  0.00     0.037 A 
ATOM     45  C   UNL A   1      40.795  30.209  34.685  1.00  0.00     0.049 A 
ATOM     46  C   UNL A   1      42.523  27.249  30.252  1.00  0.00     0.074 A 
ATOM     47  C   UNL A   1      41.533  30.076  35.847  1.00  0.00     0.029 A 
ATOM     48  N   UNL A   1      41.411  29.415  33.727  1.00  0.00    -0.354 N 
ATOM     49  N   UNL A   1      42.242  27.872  31.370  1.00  0.00    -0.248 NA
ATOM     50  C   UNL A   1      43.760  26.457  30.301  1.00  0.00     0.031 C 
ATOM     51  C   UNL A   1      42.627  29.246  35.577  1.00  0.00     0.029 A 
ATOM     52  C   UNL A   1      42.538  28.813  34.264  1.00  0.00     0.049 A 
ATOM     53  H   UNL A   1      41.094  29.297  32.802  1.00  0.00     0.167 HD
ATOM     54  C   UNL A   1      43.247  27.526  32.264  1.00  0.00     0.074 A 
ATOM     55  C   UNL A   1      44.138  26.626  31.560  1.00  0.00     0.031 C 
ATOM     56  C   UNL A   1      43.415  27.916  33.551  1.00  0.00     0.037 A 
BRANCH  43  57
ATOM     57  C   UNL A   1      39.119  31.889  35.562  1.00  0.00     0.064 A 
ATOM     58  C   UNL A   1      39.449  33.253  35.625  1.00  0.00     0.173 A 
ATOM     59  C   UNL A   1      38.293  31.369  36.570  1.00  0.00     0.173 A 
ATOM     60  F   UNL A   1      40.243  33.800  34.692  1.00  0.00    -0.203 F 
ATOM     61  C   UNL A   1      39.009  34.050  36.679  1.00  0.00     0.198 A 
ATOM     62  C   UNL A   1      37.826  32.178  37.602  1.00  0.00     0.198 A 
ATOM     63  F   UNL A   1      37.940  30.075  36.556  1.00  0.00    -0.203 F 
ATOM     64  F   UNL A   1      39.394  35.332  36.753  1.00  0.00    -0.200 F 
ATOM     65  C   UNL A   1      38.194  33.514  37.663  1.00  0.00     0.200 A 
ATOM     66  F   UNL A   1      37.026  31.662  38.546  1.00  0.00    -0.200 F 
ATOM     67  F   UNL A   1      37.771  34.282  38.677  1.00  0.00    -0.200 F 
ENDBRANCH  43  57
BRANCH  44  68
ATOM     68  C   UNL A   1      42.230  26.423  27.801  1.00  0.00     0.064 A 
ATOM     69  C   UNL A   1      43.189  26.929  26.913  1.00  0.00     0.173 A 
ATOM     70  C   UNL A   1      41.747  25.126  27.571  1.00  0.00     0.173 A 
ATOM     71  F   UNL A   1      43.666  28.171  27.079  1.00  0.00    -0.203 F 
ATOM     72  C   UNL A   1      43.636  26.176  25.829  1.00  0.00     0.198 A 
ATOM     73  C   UNL A   1      42.216  24.363  26.504  1.00  0.00     0.198 A 
ATOM     74  F   UNL A   1      40.833  24.594  28.395  1.00  0.00    -0.203 F 
ATOM     75  F   UNL A   1      44.524  26.699  24.974  1.00  0.00    -0.200 F 
ATOM     76  C   UNL A   1      43.154  24.891  25.630  1.00  0.00     0.200 A 
ATOM     77  F   UNL A   1      41.760  23.116  26.323  1.00  0.00    -0.200 F 
ATOM     78  F   UNL A   1      43.592  24.163  24.593  1.00  0.00    -0.200 F 
ENDBRANCH  44  68
BRANCH  56  79
ATOM     79  C   UNL A   1      44.587  27.345  34.298  1.00  0.00     0.064 A 
ATOM     80  C   UNL A   1      45.823  28.008  34.352  1.00  0.00     0.173 A 
ATOM     81  C   UNL A   1      44.459  26.138  35.002  1.00  0.00     0.173 A 
ATOM     82  F   UNL A   1      46.002  29.157  33.684  1.00  0.00    -0.203 F 
ATOM     83  C   UNL A   1      46.894  27.469  35.061  1.00  0.00     0.198 A 
ATOM     84  C   UNL A   1      45.521  25.619  35.737  1.00  0.00     0.198 A 
ATOM     85  F   UNL A   1      43.297  25.467  34.989  1.00  0.00    -0.203 F 
ATOM     86  F   UNL A   1      48.079  28.093  35.056  1.00  0.00    -0.200 F 
ATOM     87  C   UNL A   1      46.740  26.280  35.759  1.00  0.00     0.200 A 
ATOM     88  F   UNL A   1      45.365  24.479  36.423  1.00  0.00    -0.200 F 
ATOM     89  F   UNL A   1      47.768  25.767  36.448  1.00  0.00    -0.200 F 
ENDBRANCH  56  79
ENDBRANCH  30  31
ENDBRANCH  22  25
ENDBRANCH  20  21
ENDBRANCH  19  20
ENDBRANCH   1  19
TORSDOF 14
ENDMDL
MODEL 2
REMARK VINA RESULT:     -11.8      2.409      8.515
REMARK SMILES CC(C)Cc1ccc([C@H](C)C(=O)NCCCCNC(=O)c2ccc(-c3c4nc(c(-c5c(F)c(F)c(F)c(F)c5F)c5ccc([nH]5)c(-c5c(F)c(F)c(F)c(F)c5F)c5nc(c(-c6c(F)c(F)c(F)c(F)c6F)c6ccc3[nH]6)C=C5)C=C4)cc2)cc1
REMARK SMILES IDX 15 1 14 2 13 3 11 4 12 5 9 7 10 8 8 9 5 10 6 11 85 12 7 13
REMARK SMILES IDX 84 14 4 15 2 16 1 17 3 18 16 19 17 20 18 21 19 22 20 24
REMARK SMILES IDX 21 25 22 26 83 27 23 28 82 29 24 30 25 31 26 32 76 33 27 34
REMARK SMILES IDX 81 35 75 36 77 37 28 38 80 39 74 40 73 41 29 43 61 44 41 45
REMARK SMILES IDX 60 46 42 47 45 48 59 49 78 50 43 51 44 52 58 54 79 55 46 56
REMARK SMILES IDX 30 57 31 58 39 59 32 60 33 61 37 62 40 63 34 64 35 65 38 66
REMARK SMILES IDX 36 67 62 68 63 69 71 70 64 71 65 72 69 73 72 74 66 75 67 76
REMARK SMILES IDX 70 77 68 78 47 79 48 80 56 81 49 82 50 83 54 84 57 85 51 86
REMARK SMILES IDX 52 87 55 88 53 89
REMARK H PARENT 13 6 18 23 77 42 45 53
REMARK Flexibility Score: inf
ROOT
ATOM      1  C   UNL A   1      31.756  30.410  26.629  1.00  0.00     0.023 C 
ENDROOT
BRANCH   1   2
ATOM      2  C   UNL A   1      33.133  29.924  26.198  1.00  0.00     0.116 C 
BRANCH   2   3
ATOM      3  N   UNL A   1      33.240  29.807  24.753  1.00  0.00    -0.356 N 
ATOM      4  C   UNL A   1      32.788  28.815  23.929  1.00  0.00     0.227 C 
ATOM      5  O   UNL A   1      32.894  28.993  22.713  1.00  0.00    -0.274 OA
ATOM      6  H   UNL A   1      33.705  30.549  24.304  1.00  0.00     0.163 HD
BRANCH   4   7
ATOM      7  C   UNL A   1      32.199  27.518  24.491  1.00  0.00     0.105 C 
ATOM      8  C   UNL A   1      30.760  27.374  23.970  1.00  0.00     0.023 C 
BRANCH   7   9
ATOM      9  C   UNL A   1      33.090  26.283  24.343  1.00  0.00    -0.036 A 
ATOM     10  C   UNL A   1      34.817  24.054  24.063  1.00  0.00    -0.048 A 
ATOM     11  C   UNL A   1      33.921  24.386  23.047  1.00  0.00     0.004 A 
ATOM     12  C   UNL A   1      34.852  24.841  25.218  1.00  0.00     0.004 A 
ATOM     13  C   UNL A   1      33.095  25.503  23.173  1.00  0.00     0.005 A 
ATOM     14  C   UNL A   1      34.006  25.944  25.350  1.00  0.00     0.005 A 
BRANCH  10  15
ATOM     15  C   UNL A   1      35.810  22.936  23.861  1.00  0.00     0.038 C 
BRANCH  15  16
ATOM     16  C   UNL A   1      35.660  21.834  24.929  1.00  0.00    -0.013 C 
ATOM     17  C   UNL A   1      34.387  21.005  24.727  1.00  0.00     0.008 C 
ATOM     18  C   UNL A   1      36.883  20.919  24.918  1.00  0.00     0.008 C 
ENDBRANCH  15  16
ENDBRANCH  10  15
ENDBRANCH   7   9
ENDBRANCH   4   7
ENDBRANCH   2   3
ENDBRANCH   1   2
BRANCH   1  19
ATOM     19  C   UNL A   1      31.610  31.931  26.663  1.00  0.00     0.023 C 
BRANCH  19  20
ATOM     20  C   UNL A   1      32.763  32.675  27.327  1.00  0.00     0.116 C 
BRANCH  20  21
ATOM     21  N   UNL A   1      32.452  34.070  27.606  1.00  0.00    -0.352 N 
ATOM     22  C   UNL A   1      32.997  34.905  28.550  1.00  0.00     0.251 C 
ATOM     23  H   UNL A   1      31.754  34.470  27.038  1.00  0.00     0.163 HD
ATOM     24  O   UNL A   1      32.517  36.014  28.756  1.00  0.00    -0.269 OA
BRANCH  22  25
ATOM     25  C   UNL A   1      34.154  34.440  29.342  1.00  0.00     0.039 A 
ATOM     26  C   UNL A   1      33.927  33.818  30.570  1.00  0.00     0.014 A 
ATOM     27  C   UNL A   1      35.453  34.586  28.850  1.00  0.00     0.014 A 
ATOM     28  C   UNL A   1      35.002  33.270  31.273  1.00  0.00     0.010 A 
ATOM     29  C   UNL A   1      36.511  33.969  29.509  1.00  0.00     0.010 A 
ATOM     30  C   UNL A   1      36.296  33.306  30.727  1.00  0.00    -0.014 A 
BRANCH  30  31
ATOM     31  C   UNL A   1      37.439  32.650  31.411  1.00  0.00     0.031 A 
ATOM     32  C   UNL A   1      38.150  31.499  30.759  1.00  0.00     0.074 A 
ATOM     33  C   UNL A   1      37.792  33.047  32.649  1.00  0.00     0.049 A 
ATOM     34  N   UNL A   1      39.128  30.760  31.218  1.00  0.00    -0.248 NA
ATOM     35  C   UNL A   1      37.677  31.105  29.423  1.00  0.00     0.031 C 
ATOM     36  C   UNL A   1      37.146  34.119  33.409  1.00  0.00     0.029 A 
ATOM     37  N   UNL A   1      38.774  32.588  33.490  1.00  0.00    -0.354 N 
ATOM     38  C   UNL A   1      39.375  29.810  30.237  1.00  0.00     0.074 A 
ATOM     39  C   UNL A   1      38.404  30.024  29.187  1.00  0.00     0.031 C 
ATOM     40  C   UNL A   1      37.771  34.257  34.590  1.00  0.00     0.029 A 
ATOM     41  C   UNL A   1      38.831  33.258  34.688  1.00  0.00     0.049 A 
ATOM     42  H   UNL A   1      39.382  31.850  33.257  1.00  0.00     0.167 HD
ATOM     43  C   UNL A   1      40.342  28.861  30.202  1.00  0.00     0.037 A 
ATOM     44  C   UNL A   1      39.644  33.083  35.747  1.00  0.00     0.037 A 
ATOM     45  C   UNL A   1      41.315  28.662  31.244  1.00  0.00     0.049 A 
ATOM     46  C   UNL A   1      40.697  32.010  35.694  1.00  0.00     0.074 A 
ATOM     47  C   UNL A   1      42.373  27.771  31.279  1.00  0.00     0.029 A 
ATOM     48  N   UNL A   1      41.343  29.362  32.443  1.00  0.00    -0.354 N 
ATOM     49  N   UNL A   1      40.973  31.167  34.729  1.00  0.00    -0.248 NA
ATOM     50  C   UNL A   1      41.556  31.869  36.878  1.00  0.00     0.031 C 
ATOM     51  C   UNL A   1      43.007  27.893  32.521  1.00  0.00     0.029 A 
ATOM     52  C   UNL A   1      42.382  28.902  33.237  1.00  0.00     0.049 A 
ATOM     53  H   UNL A   1      40.717  30.080  32.693  1.00  0.00     0.167 HD
ATOM     54  C   UNL A   1      42.053  30.416  35.175  1.00  0.00     0.074 A 
ATOM     55  C   UNL A   1      42.390  30.914  36.493  1.00  0.00     0.031 C 
ATOM     56  C   UNL A   1      42.707  29.409  34.547  1.00  0.00     0.037 A 
BRANCH  43  57
ATOM     57  C   UNL A   1      40.382  27.962  28.999  1.00  0.00     0.064 A 
ATOM     58  C   UNL A   1      41.152  28.277  27.868  1.00  0.00     0.173 A 
ATOM     59  C   UNL A   1      39.648  26.766  28.978  1.00  0.00     0.173 A 
ATOM     60  F   UNL A   1      41.865  29.413  27.830  1.00  0.00    -0.203 F 
ATOM     61  C   UNL A   1      41.149  27.452  26.745  1.00  0.00     0.198 A 
ATOM     62  C   UNL A   1      39.677  25.926  27.868  1.00  0.00     0.198 A 
ATOM     63  F   UNL A   1      38.901  26.411  30.035  1.00  0.00    -0.203 F 
ATOM     64  F   UNL A   1      41.838  27.809  25.652  1.00  0.00    -0.200 F 
ATOM     65  C   UNL A   1      40.416  26.276  26.748  1.00  0.00     0.200 A 
ATOM     66  F   UNL A   1      38.979  24.781  27.878  1.00  0.00    -0.200 F 
ATOM     67  F   UNL A   1      40.415  25.483  25.668  1.00  0.00    -0.200 F 
ENDBRANCH  43  57
BRANCH  44  68
ATOM     68  C   UNL A   1      39.515  33.972  36.931  1.00  0.00     0.064 A 
ATOM     69  C   UNL A   1      38.742  33.587  38.035  1.00  0.00     0.173 A 
ATOM     70  C   UNL A   1      40.170  35.211  36.993  1.00  0.00     0.173 A 
ATOM     71  F   UNL A   1      38.080  32.421  38.015  1.00  0.00    -0.203 F 
ATOM     72  C   UNL A   1      38.617  34.413  39.150  1.00  0.00     0.198 A 
ATOM     73  C   UNL A   1      40.067  36.023  38.121  1.00  0.00     0.198 A 
ATOM     74  F   UNL A   1      40.927  35.623  35.965  1.00  0.00    -0.203 F 
ATOM     75  F   UNL A   1      37.840  34.037  40.175  1.00  0.00    -0.200 F 
ATOM     76  C   UNL A   1      39.285  35.627  39.195  1.00  0.00     0.200 A 
ATOM     77  F   UNL A   1      40.727  37.188  38.167  1.00  0.00    -0.200 F 
ATOM     78  F   UNL A   1      39.173  36.416  40.272  1.00  0.00    -0.200 F 
ENDBRANCH  44  68
BRANCH  56  79
ATOM     79  C   UNL A   1      43.879  28.797  35.262  1.00  0.00     0.064 A 
ATOM     80  C   UNL A   1      43.730  27.692  36.114  1.00  0.00     0.173 A 
ATOM     81  C   UNL A   1      45.173  29.299  35.059  1.00  0.00     0.173 A 
ATOM     82  F   UNL A   1      42.513  27.183  36.353  1.00  0.00    -0.203 F 
ATOM     83  C   UNL A   1      44.831  27.130  36.756  1.00  0.00     0.198 A 
ATOM     84  C   UNL A   1      46.275  28.715  35.677  1.00  0.00     0.198 A 
ATOM     85  F   UNL A   1      45.372  30.350  34.250  1.00  0.00    -0.203 F 
ATOM     86  F   UNL A   1      44.658  26.108  37.605  1.00  0.00    -0.200 F 
ATOM     87  C   UNL A   1      46.102  27.636  36.532  1.00  0.00     0.200 A 
ATOM     88  F   UNL A   1      47.505  29.195  35.447  1.00  0.00    -0.200 F 
ATOM     89  F   UNL A   1      47.161  27.089  37.144  1.00  0.00    -0.200 F 
ENDBRANCH  56  79
ENDBRANCH  30  31
ENDBRANCH  22  25
ENDBRANCH  20  21
ENDBRANCH  19  20
ENDBRANCH   1  19
TORSDOF 14
ENDMDL
MODEL 3
REMARK VINA RESULT:     -11.8      2.308      4.273
REMARK SMILES CC(C)Cc1ccc([C@H](C)C(=O)NCCCCNC(=O)c2ccc(-c3c4nc(c(-c5c(F)c(F)c(F)c(F)c5F)c5ccc([nH]5)c(-c5c(F)c(F)c(F)c(F)c5F)c5nc(c(-c6c(F)c(F)c(F)c(F)c6F)c6ccc3[nH]6)C=C5)C=C4)cc2)cc1
REMARK SMILES IDX 15 1 14 2 13 3 11 4 12 5 9 7 10 8 8 9 5 10 6 11 85 12 7 13
REMARK SMILES IDX 84 14 4 15 2 16 1 17 3 18 16 19 17 20 18 21 19 22 20 24
REMARK SMILES IDX 21 25 22 26 83 27 23 28 82 29 24 30 25 31 26 32 76 33 27 34
REMARK SMILES IDX 81 35 75 36 77 37 28 38 80 39 74 40 73 41 29 43 61 44 41 45
REMARK SMILES IDX 60 46 42 47 45 48 59 49 78 50 43 51 44 52 58 54 79 55 46 56
REMARK SMILES IDX 30 57 31 58 39 59 32 60 33 61 37 62 40 63 34 64 35 65 38 66
REMARK SMILES IDX 36 67 62 68 63 69 71 70 64 71 65 72 69 73 72 74 66 75 67 76
REMARK SMILES IDX 70 77 68 78 47 79 48 80 56 81 49 82 50 83 54 84 57 85 51 86
REMARK SMILES IDX 52 87 55 88 53 89
REMARK H PARENT 13 6 18 23 77 42 45 53
REMARK Flexibility Score: inf
ROOT
ATOM      1  C   UNL A   1      31.483  30.654  26.476  1.00  0.00     0.023 C 
ENDROOT
BRANCH   1   2
ATOM      2  C   UNL A   1      32.873  30.048  26.340  1.00  0.00     0.116 C 
BRANCH   2   3
ATOM      3  N   UNL A   1      33.263  29.892  24.948  1.00  0.00    -0.356 N 
ATOM      4  C   UNL A   1      33.006  28.863  24.087  1.00  0.00     0.227 C 
ATOM      5  O   UNL A   1      33.344  29.008  22.909  1.00  0.00    -0.274 OA
ATOM      6  H   UNL A   1      33.789  30.634  24.573  1.00  0.00     0.163 HD
BRANCH   4   7
ATOM      7  C   UNL A   1      32.350  27.565  24.568  1.00  0.00     0.105 C 
ATOM      8  C   UNL A   1      30.940  27.482  23.962  1.00  0.00     0.023 C 
BRANCH   7   9
ATOM      9  C   UNL A   1      33.214  26.310  24.426  1.00  0.00    -0.036 A 
ATOM     10  C   UNL A   1      34.891  24.041  24.165  1.00  0.00    -0.048 A 
ATOM     11  C   UNL A   1      34.079  24.446  23.105  1.00  0.00     0.004 A 
ATOM     12  C   UNL A   1      34.868  24.776  25.353  1.00  0.00     0.004 A 
ATOM     13  C   UNL A   1      33.278  25.582  23.225  1.00  0.00     0.005 A 
ATOM     14  C   UNL A   1      34.046  25.899  25.477  1.00  0.00     0.005 A 
BRANCH  10  15
ATOM     15  C   UNL A   1      35.863  22.903  23.981  1.00  0.00     0.038 C 
BRANCH  15  16
ATOM     16  C   UNL A   1      35.593  21.751  24.971  1.00  0.00    -0.013 C 
ATOM     17  C   UNL A   1      34.298  21.000  24.643  1.00  0.00     0.008 C 
ATOM     18  C   UNL A   1      36.770  20.778  24.981  1.00  0.00     0.008 C 
ENDBRANCH  15  16
ENDBRANCH  10  15
ENDBRANCH   7   9
ENDBRANCH   4   7
ENDBRANCH   2   3
ENDBRANCH   1   2
BRANCH   1  19
ATOM     19  C   UNL A   1      31.466  32.180  26.531  1.00  0.00     0.023 C 
BRANCH  19  20
ATOM     20  C   UNL A   1      32.647  32.812  27.261  1.00  0.00     0.116 C 
BRANCH  20  21
ATOM     21  N   UNL A   1      32.406  34.197  27.638  1.00  0.00    -0.352 N 
ATOM     22  C   UNL A   1      33.014  34.946  28.616  1.00  0.00     0.251 C 
ATOM     23  H   UNL A   1      31.709  34.662  27.119  1.00  0.00     0.163 HD
ATOM     24  O   UNL A   1      32.589  36.058  28.908  1.00  0.00    -0.269 OA
BRANCH  22  25
ATOM     25  C   UNL A   1      34.173  34.383  29.339  1.00  0.00     0.039 A 
ATOM     26  C   UNL A   1      33.949  33.627  30.491  1.00  0.00     0.014 A 
ATOM     27  C   UNL A   1      35.469  34.570  28.854  1.00  0.00     0.014 A 
ATOM     28  C   UNL A   1      35.024  32.993  31.117  1.00  0.00     0.010 A 
ATOM     29  C   UNL A   1      36.525  33.871  29.428  1.00  0.00     0.010 A 
ATOM     30  C   UNL A   1      36.313  33.077  30.566  1.00  0.00    -0.014 A 
BRANCH  30  31
ATOM     31  C   UNL A   1      37.455  32.337  31.160  1.00  0.00     0.031 A 
ATOM     32  C   UNL A   1      37.961  32.700  32.527  1.00  0.00     0.074 A 
ATOM     33  C   UNL A   1      38.078  31.383  30.441  1.00  0.00     0.049 A 
ATOM     34  N   UNL A   1      38.979  32.213  33.191  1.00  0.00    -0.248 NA
ATOM     35  C   UNL A   1      37.247  33.778  33.228  1.00  0.00     0.031 C 
ATOM     36  C   UNL A   1      37.713  30.974  29.083  1.00  0.00     0.029 A 
ATOM     37  N   UNL A   1      39.156  30.592  30.748  1.00  0.00    -0.354 N 
ATOM     38  C   UNL A   1      39.034  32.933  34.377  1.00  0.00     0.074 A 
ATOM     39  C   UNL A   1      37.989  33.932  34.313  1.00  0.00     0.031 C 
ATOM     40  C   UNL A   1      38.532  29.986  28.688  1.00  0.00     0.029 A 
ATOM     41  C   UNL A   1      39.504  29.721  29.744  1.00  0.00     0.049 A 
ATOM     42  H   UNL A   1      39.635  30.643  31.606  1.00  0.00     0.167 HD
ATOM     43  C   UNL A   1      39.864  32.760  35.434  1.00  0.00     0.037 A 
ATOM     44  C   UNL A   1      40.497  28.814  29.682  1.00  0.00     0.037 A 
ATOM     45  C   UNL A   1      40.892  31.755  35.497  1.00  0.00     0.049 A 
ATOM     46  C   UNL A   1      41.418  28.653  30.860  1.00  0.00     0.074 A 
ATOM     47  C   UNL A   1      41.743  31.455  36.545  1.00  0.00     0.029 A 
ATOM     48  N   UNL A   1      41.213  30.888  34.461  1.00  0.00    -0.354 N 
ATOM     49  N   UNL A   1      41.413  29.285  32.008  1.00  0.00    -0.248 NA
ATOM     50  C   UNL A   1      42.481  27.645  30.735  1.00  0.00     0.031 C 
ATOM     51  C   UNL A   1      42.617  30.446  36.123  1.00  0.00     0.029 A 
ATOM     52  C   UNL A   1      42.271  30.074  34.835  1.00  0.00     0.049 A 
ATOM     53  H   UNL A   1      40.757  30.856  33.589  1.00  0.00     0.167 HD
ATOM     54  C   UNL A   1      42.449  28.735  32.753  1.00  0.00     0.074 A 
ATOM     55  C   UNL A   1      43.052  27.707  31.929  1.00  0.00     0.031 C 
ATOM     56  C   UNL A   1      42.860  29.052  34.005  1.00  0.00     0.037 A 
BRANCH  43  57
ATOM     57  C   UNL A   1      39.693  33.689  36.603  1.00  0.00     0.064 A 
ATOM     58  C   UNL A   1      38.882  33.355  37.699  1.00  0.00     0.173 A 
ATOM     59  C   UNL A   1      40.354  34.927  36.631  1.00  0.00     0.173 A 
ATOM     60  F   UNL A   1      38.220  32.189  37.719  1.00  0.00    -0.203 F 
ATOM     61  C   UNL A   1      38.705  34.243  38.757  1.00  0.00     0.198 A 
ATOM     62  C   UNL A   1      40.202  35.796  37.708  1.00  0.00     0.198 A 
ATOM     63  F   UNL A   1      41.147  35.295  35.614  1.00  0.00    -0.203 F 
ATOM     64  F   UNL A   1      37.872  33.929  39.760  1.00  0.00    -0.200 F 
ATOM     65  C   UNL A   1      39.368  35.459  38.764  1.00  0.00     0.200 A 
ATOM     66  F   UNL A   1      40.856  36.966  37.720  1.00  0.00    -0.200 F 
ATOM     67  F   UNL A   1      39.197  36.313  39.783  1.00  0.00    -0.200 F 
ENDBRANCH  43  57
BRANCH  44  68
ATOM     68  C   UNL A   1      40.645  27.963  28.473  1.00  0.00     0.064 A 
ATOM     69  C   UNL A   1      40.018  26.711  28.398  1.00  0.00     0.173 A 
ATOM     70  C   UNL A   1      41.396  28.385  27.366  1.00  0.00     0.173 A 
ATOM     71  F   UNL A   1      39.305  26.256  29.438  1.00  0.00    -0.203 F 
ATOM     72  C   UNL A   1      40.149  25.907  27.267  1.00  0.00     0.198 A 
ATOM     73  C   UNL A   1      41.503  27.591  26.225  1.00  0.00     0.198 A 
ATOM     74  F   UNL A   1      42.011  29.576  27.386  1.00  0.00    -0.203 F 
ATOM     75  F   UNL A   1      39.572  24.699  27.238  1.00  0.00    -0.200 F 
ATOM     76  C   UNL A   1      40.886  26.351  26.179  1.00  0.00     0.200 A 
ATOM     77  F   UNL A   1      42.202  28.030  25.170  1.00  0.00    -0.200 F 
ATOM     78  F   UNL A   1      41.003  25.581  25.088  1.00  0.00    -0.200 F 
ENDBRANCH  44  68
BRANCH  56  79
ATOM     79  C   UNL A   1      43.997  28.254  34.579  1.00  0.00     0.064 A 
ATOM     80  C   UNL A   1      45.328  28.682  34.472  1.00  0.00     0.173 A 
ATOM     81  C   UNL A   1      43.744  27.066  35.282  1.00  0.00     0.173 A 
ATOM     82  F   UNL A   1      45.625  29.802  33.798  1.00  0.00    -0.203 F 
ATOM     83  C   UNL A   1      46.367  27.935  35.024  1.00  0.00     0.198 A 
ATOM     84  C   UNL A   1      44.780  26.340  35.861  1.00  0.00     0.198 A 
ATOM     85  F   UNL A   1      42.488  26.616  35.420  1.00  0.00    -0.203 F 
ATOM     86  F   UNL A   1      47.635  28.336  34.865  1.00  0.00    -0.200 F 
ATOM     87  C   UNL A   1      46.091  26.770  35.724  1.00  0.00     0.200 A 
ATOM     88  F   UNL A   1      44.511  25.223  36.550  1.00  0.00    -0.200 F 
ATOM     89  F   UNL A   1      47.090  26.058  36.262  1.00  0.00    -0.200 F 
ENDBRANCH  56  79
ENDBRANCH  30  31
ENDBRANCH  22  25
ENDBRANCH  20  21
ENDBRANCH  19  20
ENDBRANCH   1  19
TORSDOF 14
ENDMDL
