MODEL 1
REMARK VINA RESULT:     -12.1      0.000      0.000
REMARK SMILES C[C@H]([NH2+][C@@H]1CC(=O)N(C)C1=O)[C@H](C)C(=O)NCCCCNC(=O)c1ccc(-c2c3nc(c(-c4c(F)c(F)c(F)c(F)c4F)c4ccc([nH]4)c(-c4c(F)c(F)c(F)c(F)c4F)c4nc(c(-c5c(F)c(F)c(F)c(F)c5F)c5ccc2[nH]5)C=C4)C=C3)cc1
REMARK SMILES IDX 18 1 17 2 16 3 14 4 15 5 12 7 13 8 2 9 1 10 3 11 4 14 5 15
REMARK SMILES IDX 10 16 6 17 8 18 11 19 7 20 9 21 19 22 20 23 21 24 22 25
REMARK SMILES IDX 23 27 24 28 25 29 86 30 26 31 85 32 27 33 28 34 29 35 79 36
REMARK SMILES IDX 30 37 84 38 78 39 80 40 31 41 83 42 77 43 76 44 32 46 64 47
REMARK SMILES IDX 44 48 63 49 45 50 48 51 62 52 81 53 46 54 47 55 61 57 82 58
REMARK SMILES IDX 49 59 33 60 34 61 42 62 35 63 36 64 40 65 43 66 37 67 38 68
REMARK SMILES IDX 41 69 39 70 65 71 66 72 74 73 67 74 68 75 72 76 75 77 69 78
REMARK SMILES IDX 70 79 73 80 71 81 50 82 51 83 59 84 52 85 53 86 57 87 60 88
REMARK SMILES IDX 54 89 55 90 58 91 56 92
REMARK H PARENT 16 6 3 12 3 13 21 26 80 45 48 56
REMARK Flexibility Score: inf
ROOT
ATOM      1  C   UNL A   1      31.738  30.781  26.088  1.00  0.00     0.023 C 
ENDROOT
BRANCH   1   2
ATOM      2  C   UNL A   1      32.356  29.670  26.929  1.00  0.00     0.116 C 
BRANCH   2   3
ATOM      3  N   UNL A   1      31.533  28.486  26.971  1.00  0.00    -0.356 N 
ATOM      4  C   UNL A   1      31.288  27.528  26.048  1.00  0.00     0.228 C 
ATOM      5  O   UNL A   1      30.598  26.576  26.436  1.00  0.00    -0.275 OA
ATOM      6  H   UNL A   1      31.066  28.350  27.827  1.00  0.00     0.163 HD
BRANCH   4   7
ATOM      7  C   UNL A   1      31.689  27.596  24.567  1.00  0.00     0.133 C 
ATOM      8  C   UNL A   1      32.348  26.272  24.166  1.00  0.00     0.024 C 
BRANCH   7   9
ATOM      9  C   UNL A   1      30.802  28.326  23.495  1.00  0.00     0.192 C 
ATOM     10  C   UNL A   1      31.705  29.236  22.638  1.00  0.00     0.076 C 
BRANCH   9  11
ATOM     11  N   UNL A   1      29.591  29.113  23.796  1.00  0.00    -0.333 N 
ATOM     12  H   UNL A   1      29.579  29.274  24.804  1.00  0.00     0.347 HD
ATOM     13  H   UNL A   1      28.827  28.550  23.423  1.00  0.00     0.347 HD
BRANCH  11  14
ATOM     14  C   UNL A   1      29.428  30.401  23.155  1.00  0.00     0.282 C 
ATOM     15  C   UNL A   1      28.921  31.593  23.944  1.00  0.00     0.176 C 
ATOM     16  C   UNL A   1      28.448  30.417  21.989  1.00  0.00     0.287 C 
ATOM     17  C   UNL A   1      28.611  32.525  22.796  1.00  0.00     0.235 C 
ATOM     18  N   UNL A   1      28.292  31.755  21.710  1.00  0.00    -0.280 N 
ATOM     19  O   UNL A   1      28.014  29.474  21.359  1.00  0.00    -0.267 OA
ATOM     20  O   UNL A   1      28.638  33.743  22.859  1.00  0.00    -0.274 OA
ATOM     21  C   UNL A   1      27.986  32.252  20.391  1.00  0.00     0.156 C 
ENDBRANCH  11  14
ENDBRANCH   9  11
ENDBRANCH   7   9
ENDBRANCH   4   7
ENDBRANCH   2   3
ENDBRANCH   1   2
BRANCH   1  22
ATOM     22  C   UNL A   1      31.439  32.064  26.853  1.00  0.00     0.023 C 
BRANCH  22  23
ATOM     23  C   UNL A   1      32.667  32.887  27.220  1.00  0.00     0.116 C 
BRANCH  23  24
ATOM     24  N   UNL A   1      32.384  34.250  27.651  1.00  0.00    -0.352 N 
ATOM     25  C   UNL A   1      33.031  34.966  28.634  1.00  0.00     0.251 C 
ATOM     26  H   UNL A   1      31.649  34.713  27.185  1.00  0.00     0.163 HD
ATOM     27  O   UNL A   1      32.639  36.076  28.979  1.00  0.00    -0.269 OA
BRANCH  25  28
ATOM     28  C   UNL A   1      34.194  34.352  29.307  1.00  0.00     0.039 A 
ATOM     29  C   UNL A   1      33.982  33.454  30.355  1.00  0.00     0.014 A 
ATOM     30  C   UNL A   1      35.490  34.623  28.862  1.00  0.00     0.014 A 
ATOM     31  C   UNL A   1      35.071  32.786  30.917  1.00  0.00     0.010 A 
ATOM     32  C   UNL A   1      36.557  33.879  29.346  1.00  0.00     0.010 A 
ATOM     33  C   UNL A   1      36.364  32.972  30.398  1.00  0.00    -0.014 A 
BRANCH  33  34
ATOM     34  C   UNL A   1      37.535  32.273  30.985  1.00  0.00     0.031 A 
ATOM     35  C   UNL A   1      38.003  32.640  32.368  1.00  0.00     0.074 A 
ATOM     36  C   UNL A   1      38.199  31.347  30.268  1.00  0.00     0.049 A 
ATOM     37  N   UNL A   1      39.015  32.170  33.054  1.00  0.00    -0.248 NA
ATOM     38  C   UNL A   1      37.258  33.704  33.061  1.00  0.00     0.031 C 
ATOM     39  C   UNL A   1      37.881  30.949  28.895  1.00  0.00     0.029 A 
ATOM     40  N   UNL A   1      39.280  30.568  30.598  1.00  0.00    -0.354 N 
ATOM     41  C   UNL A   1      39.029  32.888  34.243  1.00  0.00     0.074 A 
ATOM     42  C   UNL A   1      37.981  33.878  34.155  1.00  0.00     0.031 C 
ATOM     43  C   UNL A   1      38.724  29.975  28.514  1.00  0.00     0.029 A 
ATOM     44  C   UNL A   1      39.660  29.703  29.600  1.00  0.00     0.049 A 
ATOM     45  H   UNL A   1      39.740  30.625  31.465  1.00  0.00     0.167 HD
ATOM     46  C   UNL A   1      39.820  32.715  35.328  1.00  0.00     0.037 A 
ATOM     47  C   UNL A   1      40.649  28.788  29.574  1.00  0.00     0.037 A 
ATOM     48  C   UNL A   1      40.843  31.707  35.424  1.00  0.00     0.049 A 
ATOM     49  C   UNL A   1      41.505  28.604  30.799  1.00  0.00     0.074 A 
ATOM     50  C   UNL A   1      41.667  31.412  36.495  1.00  0.00     0.029 A 
ATOM     51  N   UNL A   1      41.176  30.827  34.404  1.00  0.00    -0.354 N 
ATOM     52  N   UNL A   1      41.461  29.237  31.947  1.00  0.00    -0.248 NA
ATOM     53  C   UNL A   1      42.537  27.561  30.731  1.00  0.00     0.031 C 
ATOM     54  C   UNL A   1      42.534  30.385  36.107  1.00  0.00     0.029 A 
ATOM     55  C   UNL A   1      42.205  29.996  34.817  1.00  0.00     0.049 A 
ATOM     56  H   UNL A   1      40.747  30.798  33.520  1.00  0.00     0.167 HD
ATOM     57  C   UNL A   1      42.426  28.643  32.749  1.00  0.00     0.074 A 
ATOM     58  C   UNL A   1      43.032  27.590  31.961  1.00  0.00     0.031 C 
ATOM     59  C   UNL A   1      42.780  28.940  34.024  1.00  0.00     0.037 A 
BRANCH  46  60
ATOM     60  C   UNL A   1      39.600  33.630  36.500  1.00  0.00     0.064 A 
ATOM     61  C   UNL A   1      38.798  33.254  37.589  1.00  0.00     0.173 A 
ATOM     62  C   UNL A   1      40.213  34.892  36.543  1.00  0.00     0.173 A 
ATOM     63  F   UNL A   1      38.177  32.065  37.593  1.00  0.00    -0.203 F 
ATOM     64  C   UNL A   1      38.590  34.120  38.661  1.00  0.00     0.198 A 
ATOM     65  C   UNL A   1      40.030  35.741  37.633  1.00  0.00     0.198 A 
ATOM     66  F   UNL A   1      40.991  35.301  35.531  1.00  0.00    -0.203 F 
ATOM     67  F   UNL A   1      37.771  33.762  39.659  1.00  0.00    -0.200 F 
ATOM     68  C   UNL A   1      39.212  35.358  38.685  1.00  0.00     0.200 A 
ATOM     69  F   UNL A   1      40.644  36.932  37.662  1.00  0.00    -0.200 F 
ATOM     70  F   UNL A   1      39.016  36.187  39.719  1.00  0.00    -0.200 F 
ENDBRANCH  46  60
BRANCH  47  71
ATOM     71  C   UNL A   1      40.855  27.943  28.367  1.00  0.00     0.064 A 
ATOM     72  C   UNL A   1      41.656  28.387  27.305  1.00  0.00     0.173 A 
ATOM     73  C   UNL A   1      40.243  26.688  28.240  1.00  0.00     0.173 A 
ATOM     74  F   UNL A   1      42.250  29.587  27.369  1.00  0.00    -0.203 F 
ATOM     75  C   UNL A   1      41.810  27.622  26.150  1.00  0.00     0.198 A 
ATOM     76  C   UNL A   1      40.423  25.910  27.097  1.00  0.00     0.198 A 
ATOM     77  F   UNL A   1      39.473  26.213  29.230  1.00  0.00    -0.203 F 
ATOM     78  F   UNL A   1      42.534  28.097  25.126  1.00  0.00    -0.200 F 
ATOM     79  C   UNL A   1      41.197  26.383  26.048  1.00  0.00     0.200 A 
ATOM     80  F   UNL A   1      39.843  24.706  27.011  1.00  0.00    -0.200 F 
ATOM     81  F   UNL A   1      41.345  25.648  24.937  1.00  0.00    -0.200 F 
ENDBRANCH  47  71
BRANCH  59  82
ATOM     82  C   UNL A   1      43.823  28.072  34.669  1.00  0.00     0.064 A 
ATOM     83  C   UNL A   1      43.495  26.874  35.322  1.00  0.00     0.173 A 
ATOM     84  C   UNL A   1      45.177  28.436  34.609  1.00  0.00     0.173 A 
ATOM     85  F   UNL A   1      42.215  26.485  35.417  1.00  0.00    -0.203 F 
ATOM     86  C   UNL A   1      44.480  26.097  35.928  1.00  0.00     0.198 A 
ATOM     87  C   UNL A   1      46.162  27.638  35.183  1.00  0.00     0.198 A 
ATOM     88  F   UNL A   1      45.548  29.565  33.987  1.00  0.00    -0.203 F 
ATOM     89  F   UNL A   1      44.135  24.992  36.603  1.00  0.00    -0.200 F 
ATOM     90  C   UNL A   1      45.811  26.476  35.853  1.00  0.00     0.200 A 
ATOM     91  F   UNL A   1      47.450  27.995  35.092  1.00  0.00    -0.200 F 
ATOM     92  F   UNL A   1      46.757  25.725  36.434  1.00  0.00    -0.200 F 
ENDBRANCH  59  82
ENDBRANCH  33  34
ENDBRANCH  25  28
ENDBRANCH  23  24
ENDBRANCH  22  23
ENDBRANCH   1  22
TORSDOF 14
ENDMDL
MODEL 2
REMARK VINA RESULT:     -12.1      0.048      1.621
REMARK SMILES C[C@H]([NH2+][C@@H]1CC(=O)N(C)C1=O)[C@H](C)C(=O)NCCCCNC(=O)c1ccc(-c2c3nc(c(-c4c(F)c(F)c(F)c(F)c4F)c4ccc([nH]4)c(-c4c(F)c(F)c(F)c(F)c4F)c4nc(c(-c5c(F)c(F)c(F)c(F)c5F)c5ccc2[nH]5)C=C4)C=C3)cc1
REMARK SMILES IDX 18 1 17 2 16 3 14 4 15 5 12 7 13 8 2 9 1 10 3 11 4 14 5 15
REMARK SMILES IDX 10 16 6 17 8 18 11 19 7 20 9 21 19 22 20 23 21 24 22 25
REMARK SMILES IDX 23 27 24 28 25 29 86 30 26 31 85 32 27 33 28 34 29 35 79 36
REMARK SMILES IDX 30 37 84 38 78 39 80 40 31 41 83 42 77 43 76 44 32 46 64 47
REMARK SMILES IDX 44 48 63 49 45 50 48 51 62 52 81 53 46 54 47 55 61 57 82 58
REMARK SMILES IDX 49 59 33 60 34 61 42 62 35 63 36 64 40 65 43 66 37 67 38 68
REMARK SMILES IDX 41 69 39 70 65 71 66 72 74 73 67 74 68 75 72 76 75 77 69 78
REMARK SMILES IDX 70 79 73 80 71 81 50 82 51 83 59 84 52 85 53 86 57 87 60 88
REMARK SMILES IDX 54 89 55 90 58 91 56 92
REMARK H PARENT 16 6 3 12 3 13 21 26 80 45 48 56
REMARK Flexibility Score: inf
ROOT
ATOM      1  C   UNL A   1      31.768  30.762  26.084  1.00  0.00     0.023 C 
ENDROOT
BRANCH   1   2
ATOM      2  C   UNL A   1      32.369  29.634  26.914  1.00  0.00     0.116 C 
BRANCH   2   3
ATOM      3  N   UNL A   1      31.525  28.464  26.950  1.00  0.00    -0.356 N 
ATOM      4  C   UNL A   1      31.265  27.515  26.022  1.00  0.00     0.228 C 
ATOM      5  O   UNL A   1      30.557  26.573  26.405  1.00  0.00    -0.275 OA
ATOM      6  H   UNL A   1      31.054  28.333  27.804  1.00  0.00     0.163 HD
BRANCH   4   7
ATOM      7  C   UNL A   1      31.669  27.582  24.542  1.00  0.00     0.133 C 
ATOM      8  C   UNL A   1      32.339  26.263  24.146  1.00  0.00     0.024 C 
BRANCH   7   9
ATOM      9  C   UNL A   1      30.779  28.302  23.466  1.00  0.00     0.192 C 
ATOM     10  C   UNL A   1      31.679  29.208  22.602  1.00  0.00     0.076 C 
BRANCH   9  11
ATOM     11  N   UNL A   1      29.567  29.089  23.763  1.00  0.00    -0.333 N 
ATOM     12  H   UNL A   1      29.541  29.234  24.773  1.00  0.00     0.347 HD
ATOM     13  H   UNL A   1      28.807  28.535  23.369  1.00  0.00     0.347 HD
BRANCH  11  14
ATOM     14  C   UNL A   1      29.418  30.389  23.142  1.00  0.00     0.282 C 
ATOM     15  C   UNL A   1      28.933  31.576  23.951  1.00  0.00     0.176 C 
ATOM     16  C   UNL A   1      28.432  30.435  21.983  1.00  0.00     0.287 C 
ATOM     17  C   UNL A   1      28.629  32.529  22.819  1.00  0.00     0.235 C 
ATOM     18  N   UNL A   1      28.293  31.779  21.723  1.00  0.00    -0.280 N 
ATOM     19  O   UNL A   1      27.981  29.508  21.341  1.00  0.00    -0.267 OA
ATOM     20  O   UNL A   1      28.674  33.746  22.900  1.00  0.00    -0.274 OA
ATOM     21  C   UNL A   1      27.986  32.300  20.414  1.00  0.00     0.156 C 
ENDBRANCH  11  14
ENDBRANCH   9  11
ENDBRANCH   7   9
ENDBRANCH   4   7
ENDBRANCH   2   3
ENDBRANCH   1   2
BRANCH   1  22
ATOM     22  C   UNL A   1      31.462  32.032  26.867  1.00  0.00     0.023 C 
BRANCH  22  23
ATOM     23  C   UNL A   1      32.683  32.865  27.233  1.00  0.00     0.116 C 
BRANCH  23  24
ATOM     24  N   UNL A   1      32.390  34.224  27.671  1.00  0.00    -0.352 N 
ATOM     25  C   UNL A   1      33.031  34.939  28.657  1.00  0.00     0.251 C 
ATOM     26  H   UNL A   1      31.651  34.682  27.208  1.00  0.00     0.163 HD
ATOM     27  O   UNL A   1      32.631  36.044  29.009  1.00  0.00    -0.269 OA
BRANCH  25  28
ATOM     28  C   UNL A   1      34.200  34.332  29.327  1.00  0.00     0.039 A 
ATOM     29  C   UNL A   1      33.996  33.433  30.375  1.00  0.00     0.014 A 
ATOM     30  C   UNL A   1      35.493  34.610  28.877  1.00  0.00     0.014 A 
ATOM     31  C   UNL A   1      35.091  32.770  30.933  1.00  0.00     0.010 A 
ATOM     32  C   UNL A   1      36.566  33.871  29.358  1.00  0.00     0.010 A 
ATOM     33  C   UNL A   1      36.381  32.963  30.410  1.00  0.00    -0.014 A 
BRANCH  33  34
ATOM     34  C   UNL A   1      37.557  32.270  30.993  1.00  0.00     0.031 A 
ATOM     35  C   UNL A   1      38.035  32.647  32.370  1.00  0.00     0.074 A 
ATOM     36  C   UNL A   1      38.218  31.341  30.277  1.00  0.00     0.049 A 
ATOM     37  N   UNL A   1      39.053  32.183  33.052  1.00  0.00    -0.248 NA
ATOM     38  C   UNL A   1      37.292  33.714  33.062  1.00  0.00     0.031 C 
ATOM     39  C   UNL A   1      37.892  30.933  28.909  1.00  0.00     0.029 A 
ATOM     40  N   UNL A   1      39.304  30.566  30.603  1.00  0.00    -0.354 N 
ATOM     41  C   UNL A   1      39.074  32.909  34.236  1.00  0.00     0.074 A 
ATOM     42  C   UNL A   1      38.022  33.896  34.149  1.00  0.00     0.031 C 
ATOM     43  C   UNL A   1      38.734  29.959  28.528  1.00  0.00     0.029 A 
ATOM     44  C   UNL A   1      39.678  29.696  29.609  1.00  0.00     0.049 A 
ATOM     45  H   UNL A   1      39.770  30.630  31.467  1.00  0.00     0.167 HD
ATOM     46  C   UNL A   1      39.873  32.744  35.316  1.00  0.00     0.037 A 
ATOM     47  C   UNL A   1      40.669  28.783  29.581  1.00  0.00     0.037 A 
ATOM     48  C   UNL A   1      40.898  31.739  35.411  1.00  0.00     0.049 A 
ATOM     49  C   UNL A   1      41.534  28.608  30.801  1.00  0.00     0.074 A 
ATOM     50  C   UNL A   1      41.731  31.453  36.478  1.00  0.00     0.029 A 
ATOM     51  N   UNL A   1      41.227  30.853  34.395  1.00  0.00    -0.354 N 
ATOM     52  N   UNL A   1      41.497  29.249  31.945  1.00  0.00    -0.248 NA
ATOM     53  C   UNL A   1      42.568  27.567  30.733  1.00  0.00     0.031 C 
ATOM     54  C   UNL A   1      42.597  30.425  36.090  1.00  0.00     0.029 A 
ATOM     55  C   UNL A   1      42.260  30.027  34.806  1.00  0.00     0.049 A 
ATOM     56  H   UNL A   1      40.791  30.818  33.513  1.00  0.00     0.167 HD
ATOM     57  C   UNL A   1      42.470  28.661  32.745  1.00  0.00     0.074 A 
ATOM     58  C   UNL A   1      43.071  27.605  31.958  1.00  0.00     0.031 C 
ATOM     59  C   UNL A   1      42.832  28.967  34.015  1.00  0.00     0.037 A 
BRANCH  46  60
ATOM     60  C   UNL A   1      39.659  33.666  36.484  1.00  0.00     0.064 A 
ATOM     61  C   UNL A   1      40.272  34.928  36.549  1.00  0.00     0.173 A 
ATOM     62  C   UNL A   1      38.818  33.292  37.543  1.00  0.00     0.173 A 
ATOM     63  F   UNL A   1      41.097  35.330  35.571  1.00  0.00    -0.203 F 
ATOM     64  C   UNL A   1      40.078  35.765  37.645  1.00  0.00     0.198 A 
ATOM     65  C   UNL A   1      38.598  34.147  38.620  1.00  0.00     0.198 A 
ATOM     66  F   UNL A   1      38.205  32.100  37.531  1.00  0.00    -0.203 F 
ATOM     67  F   UNL A   1      40.722  36.939  37.712  1.00  0.00    -0.200 F 
ATOM     68  C   UNL A   1      39.236  35.377  38.676  1.00  0.00     0.200 A 
ATOM     69  F   UNL A   1      37.772  33.777  39.609  1.00  0.00    -0.200 F 
ATOM     70  F   UNL A   1      39.044  36.186  39.726  1.00  0.00    -0.200 F 
ENDBRANCH  46  60
BRANCH  47  71
ATOM     71  C   UNL A   1      40.868  27.931  28.378  1.00  0.00     0.064 A 
ATOM     72  C   UNL A   1      41.670  28.365  27.313  1.00  0.00     0.173 A 
ATOM     73  C   UNL A   1      40.248  26.679  28.258  1.00  0.00     0.173 A 
ATOM     74  F   UNL A   1      42.272  29.562  27.370  1.00  0.00    -0.203 F 
ATOM     75  C   UNL A   1      41.818  27.594  26.161  1.00  0.00     0.198 A 
ATOM     76  C   UNL A   1      40.423  25.895  27.119  1.00  0.00     0.198 A 
ATOM     77  F   UNL A   1      39.477  26.213  29.251  1.00  0.00    -0.203 F 
ATOM     78  F   UNL A   1      42.544  28.059  25.134  1.00  0.00    -0.200 F 
ATOM     79  C   UNL A   1      41.198  26.357  26.066  1.00  0.00     0.200 A 
ATOM     80  F   UNL A   1      39.835  24.694  27.039  1.00  0.00    -0.200 F 
ATOM     81  F   UNL A   1      41.340  25.617  24.958  1.00  0.00    -0.200 F 
ENDBRANCH  47  71
BRANCH  59  82
ATOM     82  C   UNL A   1      43.881  28.105  34.658  1.00  0.00     0.064 A 
ATOM     83  C   UNL A   1      45.242  28.448  34.638  1.00  0.00     0.173 A 
ATOM     84  C   UNL A   1      43.511  26.927  35.326  1.00  0.00     0.173 A 
ATOM     85  F   UNL A   1      45.649  29.557  34.004  1.00  0.00    -0.203 F 
ATOM     86  C   UNL A   1      46.195  27.621  35.226  1.00  0.00     0.198 A 
ATOM     87  C   UNL A   1      44.464  26.124  35.945  1.00  0.00     0.198 A 
ATOM     88  F   UNL A   1      42.223  26.559  35.386  1.00  0.00    -0.203 F 
ATOM     89  F   UNL A   1      47.496  27.935  35.137  1.00  0.00    -0.200 F 
ATOM     90  C   UNL A   1      45.806  26.464  35.884  1.00  0.00     0.200 A 
ATOM     91  F   UNL A   1      44.083  25.016  36.597  1.00  0.00    -0.200 F 
ATOM     92  F   UNL A   1      46.726  25.672  36.451  1.00  0.00    -0.200 F 
ENDBRANCH  59  82
ENDBRANCH  33  34
ENDBRANCH  25  28
ENDBRANCH  23  24
ENDBRANCH  22  23
ENDBRANCH   1  22
TORSDOF 14
ENDMDL
MODEL 3
REMARK VINA RESULT:     -12.0      6.537     11.863
REMARK SMILES C[C@H]([NH2+][C@@H]1CC(=O)N(C)C1=O)[C@H](C)C(=O)NCCCCNC(=O)c1ccc(-c2c3nc(c(-c4c(F)c(F)c(F)c(F)c4F)c4ccc([nH]4)c(-c4c(F)c(F)c(F)c(F)c4F)c4nc(c(-c5c(F)c(F)c(F)c(F)c5F)c5ccc2[nH]5)C=C4)C=C3)cc1
REMARK SMILES IDX 18 1 17 2 16 3 14 4 15 5 12 7 13 8 2 9 1 10 3 11 4 14 5 15
REMARK SMILES IDX 10 16 6 17 8 18 11 19 7 20 9 21 19 22 20 23 21 24 22 25
REMARK SMILES IDX 23 27 24 28 25 29 86 30 26 31 85 32 27 33 28 34 29 35 79 36
REMARK SMILES IDX 30 37 84 38 78 39 80 40 31 41 83 42 77 43 76 44 32 46 64 47
REMARK SMILES IDX 44 48 63 49 45 50 48 51 62 52 81 53 46 54 47 55 61 57 82 58
REMARK SMILES IDX 49 59 33 60 34 61 42 62 35 63 36 64 40 65 43 66 37 67 38 68
REMARK SMILES IDX 41 69 39 70 65 71 66 72 74 73 67 74 68 75 72 76 75 77 69 78
REMARK SMILES IDX 70 79 73 80 71 81 50 82 51 83 59 84 52 85 53 86 57 87 60 88
REMARK SMILES IDX 54 89 55 90 58 91 56 92
REMARK H PARENT 16 6 3 12 3 13 21 26 80 45 48 56
REMARK Flexibility Score: inf
ROOT
ATOM      1  C   UNL A   1      36.580  20.456  25.024  1.00  0.00     0.023 C 
ENDROOT
BRANCH   1   2
ATOM      2  C   UNL A   1      36.538  21.799  25.746  1.00  0.00     0.116 C 
BRANCH   2   3
ATOM      3  N   UNL A   1      35.497  21.857  26.743  1.00  0.00    -0.356 N 
ATOM      4  C   UNL A   1      34.165  22.069  26.640  1.00  0.00     0.228 C 
ATOM      5  O   UNL A   1      33.524  21.960  27.694  1.00  0.00    -0.275 OA
ATOM      6  H   UNL A   1      35.814  21.717  27.664  1.00  0.00     0.163 HD
BRANCH   4   7
ATOM      7  C   UNL A   1      33.434  22.538  25.374  1.00  0.00     0.133 C 
ATOM      8  C   UNL A   1      33.921  23.944  25.007  1.00  0.00     0.024 C 
BRANCH   7   9
ATOM      9  C   UNL A   1      33.083  21.556  24.200  1.00  0.00     0.192 C 
ATOM     10  C   UNL A   1      32.301  22.330  23.120  1.00  0.00     0.076 C 
BRANCH   9  11
ATOM     11  N   UNL A   1      32.394  20.261  24.359  1.00  0.00    -0.333 N 
ATOM     12  H   UNL A   1      31.620  20.247  23.694  1.00  0.00     0.347 HD
ATOM     13  H   UNL A   1      32.137  20.235  25.346  1.00  0.00     0.347 HD
BRANCH  11  14
ATOM     14  C   UNL A   1      33.153  19.045  24.157  1.00  0.00     0.282 C 
ATOM     15  C   UNL A   1      32.971  18.227  22.894  1.00  0.00     0.176 C 
ATOM     16  C   UNL A   1      32.927  17.967  25.208  1.00  0.00     0.287 C 
ATOM     17  C   UNL A   1      33.677  16.962  23.324  1.00  0.00     0.235 C 
ATOM     18  N   UNL A   1      33.555  16.861  24.684  1.00  0.00    -0.280 N 
ATOM     19  O   UNL A   1      32.435  18.084  26.312  1.00  0.00    -0.267 OA
ATOM     20  O   UNL A   1      34.237  16.184  22.569  1.00  0.00    -0.274 OA
ATOM     21  C   UNL A   1      34.137  15.826  25.502  1.00  0.00     0.156 C 
ENDBRANCH  11  14
ENDBRANCH   9  11
ENDBRANCH   7   9
ENDBRANCH   4   7
ENDBRANCH   2   3
ENDBRANCH   1   2
BRANCH   1  22
ATOM     22  C   UNL A   1      37.979  19.976  24.658  1.00  0.00     0.023 C 
BRANCH  22  23
ATOM     23  C   UNL A   1      39.030  20.194  25.739  1.00  0.00     0.116 C 
BRANCH  23  24
ATOM     24  N   UNL A   1      40.044  19.151  25.827  1.00  0.00    -0.352 N 
ATOM     25  C   UNL A   1      41.384  19.311  26.104  1.00  0.00     0.251 C 
ATOM     26  H   UNL A   1      39.737  18.228  25.672  1.00  0.00     0.163 HD
ATOM     27  O   UNL A   1      42.164  18.367  26.053  1.00  0.00    -0.269 OA
BRANCH  25  28
ATOM     28  C   UNL A   1      41.883  20.664  26.426  1.00  0.00     0.039 A 
ATOM     29  C   UNL A   1      42.138  21.563  25.389  1.00  0.00     0.014 A 
ATOM     30  C   UNL A   1      42.043  21.058  27.757  1.00  0.00     0.014 A 
ATOM     31  C   UNL A   1      42.500  22.877  25.694  1.00  0.00     0.010 A 
ATOM     32  C   UNL A   1      42.296  22.389  28.058  1.00  0.00     0.010 A 
ATOM     33  C   UNL A   1      42.554  23.308  27.031  1.00  0.00    -0.014 A 
BRANCH  33  34
ATOM     34  C   UNL A   1      42.941  24.699  27.374  1.00  0.00     0.031 A 
ATOM     35  C   UNL A   1      44.347  25.167  27.110  1.00  0.00     0.074 A 
ATOM     36  C   UNL A   1      42.050  25.525  27.956  1.00  0.00     0.049 A 
ATOM     37  N   UNL A   1      44.895  26.331  27.355  1.00  0.00    -0.248 NA
ATOM     38  C   UNL A   1      45.275  24.184  26.525  1.00  0.00     0.031 C 
ATOM     39  C   UNL A   1      40.676  25.170  28.319  1.00  0.00     0.029 A 
ATOM     40  N   UNL A   1      42.167  26.836  28.343  1.00  0.00    -0.354 N 
ATOM     41  C   UNL A   1      46.224  26.210  26.968  1.00  0.00     0.074 A 
ATOM     42  C   UNL A   1      46.422  24.842  26.548  1.00  0.00     0.031 C 
ATOM     43  C   UNL A   1      40.068  26.248  28.841  1.00  0.00     0.029 A 
ATOM     44  C   UNL A   1      41.015  27.358  28.879  1.00  0.00     0.049 A 
ATOM     45  H   UNL A   1      42.998  27.354  28.246  1.00  0.00     0.167 HD
ATOM     46  C   UNL A   1      47.184  27.163  26.929  1.00  0.00     0.037 A 
ATOM     47  C   UNL A   1      40.754  28.596  29.341  1.00  0.00     0.037 A 
ATOM     48  C   UNL A   1      46.975  28.532  27.319  1.00  0.00     0.049 A 
ATOM     49  C   UNL A   1      41.835  29.643  29.272  1.00  0.00     0.074 A 
ATOM     50  C   UNL A   1      47.864  29.590  27.272  1.00  0.00     0.029 A 
ATOM     51  N   UNL A   1      45.783  29.030  27.827  1.00  0.00    -0.354 N 
ATOM     52  N   UNL A   1      43.067  29.538  28.834  1.00  0.00    -0.248 NA
ATOM     53  C   UNL A   1      41.482  30.987  29.746  1.00  0.00     0.031 C 
ATOM     54  C   UNL A   1      47.227  30.719  27.797  1.00  0.00     0.029 A 
ATOM     55  C   UNL A   1      45.920  30.379  28.110  1.00  0.00     0.049 A 
ATOM     56  H   UNL A   1      44.964  28.504  27.966  1.00  0.00     0.167 HD
ATOM     57  C   UNL A   1      43.620  30.808  28.938  1.00  0.00     0.074 A 
ATOM     58  C   UNL A   1      42.585  31.669  29.471  1.00  0.00     0.031 C 
ATOM     59  C   UNL A   1      44.871  31.225  28.621  1.00  0.00     0.037 A 
BRANCH  46  60
ATOM     60  C   UNL A   1      48.545  26.756  26.438  1.00  0.00     0.064 A 
ATOM     61  C   UNL A   1      48.940  26.958  25.106  1.00  0.00     0.173 A 
ATOM     62  C   UNL A   1      49.474  26.172  27.314  1.00  0.00     0.173 A 
ATOM     63  F   UNL A   1      48.087  27.498  24.223  1.00  0.00    -0.203 F 
ATOM     64  C   UNL A   1      50.199  26.560  24.661  1.00  0.00     0.198 A 
ATOM     65  C   UNL A   1      50.744  25.808  26.873  1.00  0.00     0.198 A 
ATOM     66  F   UNL A   1      49.151  25.959  28.598  1.00  0.00    -0.203 F 
ATOM     67  F   UNL A   1      50.529  26.708  23.370  1.00  0.00    -0.200 F 
ATOM     68  C   UNL A   1      51.101  25.993  25.546  1.00  0.00     0.200 A 
ATOM     69  F   UNL A   1      51.622  25.273  27.734  1.00  0.00    -0.200 F 
ATOM     70  F   UNL A   1      52.314  25.617  25.119  1.00  0.00    -0.200 F 
ENDBRANCH  46  60
BRANCH  47  71
ATOM     71  C   UNL A   1      39.402  28.931  29.864  1.00  0.00     0.064 A 
ATOM     72  C   UNL A   1      38.427  29.497  29.032  1.00  0.00     0.173 A 
ATOM     73  C   UNL A   1      39.065  28.712  31.207  1.00  0.00     0.173 A 
ATOM     74  F   UNL A   1      38.705  29.742  27.743  1.00  0.00    -0.203 F 
ATOM     75  C   UNL A   1      37.177  29.861  29.529  1.00  0.00     0.198 A 
ATOM     76  C   UNL A   1      37.803  29.047  31.697  1.00  0.00     0.198 A 
ATOM     77  F   UNL A   1      39.958  28.166  32.045  1.00  0.00    -0.203 F 
ATOM     78  F   UNL A   1      36.284  30.453  28.724  1.00  0.00    -0.200 F 
ATOM     79  C   UNL A   1      36.864  29.632  30.861  1.00  0.00     0.200 A 
ATOM     80  F   UNL A   1      37.500  28.809  32.979  1.00  0.00    -0.200 F 
ATOM     81  F   UNL A   1      35.662  29.982  31.339  1.00  0.00    -0.200 F 
ENDBRANCH  47  71
BRANCH  59  82
ATOM     82  C   UNL A   1      45.168  32.690  28.777  1.00  0.00     0.064 A 
ATOM     83  C   UNL A   1      45.732  33.214  29.949  1.00  0.00     0.173 A 
ATOM     84  C   UNL A   1      44.904  33.576  27.721  1.00  0.00     0.173 A 
ATOM     85  F   UNL A   1      45.994  32.411  30.991  1.00  0.00    -0.203 F 
ATOM     86  C   UNL A   1      45.981  34.579  30.073  1.00  0.00     0.198 A 
ATOM     87  C   UNL A   1      45.189  34.934  27.836  1.00  0.00     0.198 A 
ATOM     88  F   UNL A   1      44.376  33.126  26.574  1.00  0.00    -0.203 F 
ATOM     89  F   UNL A   1      46.458  35.067  31.227  1.00  0.00    -0.200 F 
ATOM     90  C   UNL A   1      45.715  35.436  29.017  1.00  0.00     0.200 A 
ATOM     91  F   UNL A   1      44.950  35.757  26.806  1.00  0.00    -0.200 F 
ATOM     92  F   UNL A   1      45.958  36.748  29.138  1.00  0.00    -0.200 F 
ENDBRANCH  59  82
ENDBRANCH  33  34
ENDBRANCH  25  28
ENDBRANCH  23  24
ENDBRANCH  22  23
ENDBRANCH   1  22
TORSDOF 14
ENDMDL
