MODEL 1
REMARK VINA RESULT:     -12.6      0.000      0.000
REMARK SMILES C[C@H](NC(=O)N1CC[C@H](C(=O)NCCCCNC(=O)c2ccc(-c3c4nc(c(-c5c(F)c(F)c(F)c(F)c5F)c5ccc([nH]5)c(-c5c(F)c(F)c(F)c(F)c5F)c5nc(c(-c6c(F)c(F)c(F)c(F)c6F)c6ccc3[nH]6)C=C5)C=C4)cc2)[C@H]1C)c1ccsc1
REMARK SMILES IDX 14 1 13 2 12 3 10 4 11 5 9 7 6 8 7 9 83 10 8 11 84 12 4 13
REMARK SMILES IDX 3 14 5 16 2 17 1 18 85 19 86 20 89 21 87 22 88 23 15 24
REMARK SMILES IDX 16 25 17 26 18 27 19 29 20 30 21 31 82 32 22 33 81 34 23 35
REMARK SMILES IDX 24 36 25 37 75 38 26 39 80 40 74 41 76 42 27 43 79 44 73 45
REMARK SMILES IDX 72 46 28 48 60 49 40 50 59 51 41 52 44 53 58 54 77 55 42 56
REMARK SMILES IDX 43 57 57 59 78 60 45 61 29 62 30 63 38 64 31 65 32 66 36 67
REMARK SMILES IDX 39 68 33 69 34 70 37 71 35 72 61 73 62 74 70 75 63 76 64 77
REMARK SMILES IDX 68 78 71 79 65 80 66 81 69 82 67 83 46 84 47 85 55 86 48 87
REMARK SMILES IDX 49 88 53 89 56 90 50 91 51 92 54 93 52 94
REMARK H PARENT 12 6 3 15 17 28 76 47 44 58
REMARK Flexibility Score: inf
ROOT
ATOM      1  C   UNL A   1      32.025  30.425  26.883  1.00  0.00     0.023 C 
ENDROOT
BRANCH   1   2
ATOM      2  C   UNL A   1      32.836  29.908  25.695  1.00  0.00     0.116 C 
BRANCH   2   3
ATOM      3  N   UNL A   1      32.026  29.756  24.512  1.00  0.00    -0.356 N 
ATOM      4  C   UNL A   1      31.315  28.712  24.027  1.00  0.00     0.225 C 
ATOM      5  O   UNL A   1      30.723  28.919  22.960  1.00  0.00    -0.275 OA
ATOM      6  H   UNL A   1      31.982  30.564  23.952  1.00  0.00     0.163 HD
BRANCH   4   7
ATOM      7  C   UNL A   1      31.289  27.309  24.636  1.00  0.00     0.102 C 
ATOM      8  N   UNL A   1      32.301  25.566  23.323  1.00  0.00    -0.321 N 
ATOM      9  C   UNL A   1      30.907  25.676  22.966  1.00  0.00     0.122 C 
ATOM     10  C   UNL A   1      32.643  26.622  24.295  1.00  0.00     0.096 C 
ATOM     11  C   UNL A   1      30.288  26.235  24.223  1.00  0.00     0.037 C 
ATOM     12  C   UNL A   1      33.280  26.051  25.559  1.00  0.00     0.032 C 
BRANCH   8  13
ATOM     13  C   UNL A   1      33.167  25.226  22.319  1.00  0.00     0.318 C 
ATOM     14  N   UNL A   1      33.711  23.984  22.399  1.00  0.00    -0.331 N 
ATOM     15  H   UNL A   1      34.347  23.739  21.690  1.00  0.00     0.165 HD
ATOM     16  O   UNL A   1      33.378  25.936  21.341  1.00  0.00    -0.249 OA
BRANCH  14  17
ATOM     17  C   UNL A   1      33.459  22.976  23.412  1.00  0.00     0.112 C 
ATOM     18  C   UNL A   1      32.518  21.873  22.927  1.00  0.00     0.036 C 
BRANCH  17  19
ATOM     19  C   UNL A   1      34.756  22.398  23.930  1.00  0.00    -0.015 A 
ATOM     20  C   UNL A   1      36.088  22.896  23.715  1.00  0.00     0.017 A 
ATOM     21  C   UNL A   1      34.800  21.238  24.688  1.00  0.00     0.070 A 
ATOM     22  C   UNL A   1      37.052  22.119  24.318  1.00  0.00     0.065 A 
ATOM     23  S   UNL A   1      36.382  20.775  25.127  1.00  0.00    -0.152 S 
ENDBRANCH  17  19
ENDBRANCH  14  17
ENDBRANCH   8  13
ENDBRANCH   4   7
ENDBRANCH   2   3
ENDBRANCH   1   2
BRANCH   1  24
ATOM     24  C   UNL A   1      31.713  31.917  26.842  1.00  0.00     0.023 C 
BRANCH  24  25
ATOM     25  C   UNL A   1      32.859  32.817  27.275  1.00  0.00     0.116 C 
BRANCH  25  26
ATOM     26  N   UNL A   1      32.452  34.161  27.663  1.00  0.00    -0.352 N 
ATOM     27  C   UNL A   1      33.009  34.950  28.642  1.00  0.00     0.251 C 
ATOM     28  H   UNL A   1      31.693  34.547  27.168  1.00  0.00     0.163 HD
ATOM     29  O   UNL A   1      32.537  36.041  28.927  1.00  0.00    -0.269 OA
BRANCH  27  30
ATOM     30  C   UNL A   1      34.166  34.411  29.378  1.00  0.00     0.039 A 
ATOM     31  C   UNL A   1      33.937  33.579  30.474  1.00  0.00     0.014 A 
ATOM     32  C   UNL A   1      35.459  34.639  28.903  1.00  0.00     0.014 A 
ATOM     33  C   UNL A   1      35.013  32.914  31.058  1.00  0.00     0.010 A 
ATOM     34  C   UNL A   1      36.514  33.910  29.430  1.00  0.00     0.010 A 
ATOM     35  C   UNL A   1      36.302  33.047  30.517  1.00  0.00    -0.014 A 
BRANCH  35  36
ATOM     36  C   UNL A   1      37.454  32.317  31.094  1.00  0.00     0.031 A 
ATOM     37  C   UNL A   1      37.941  32.676  32.469  1.00  0.00     0.074 A 
ATOM     38  C   UNL A   1      38.096  31.388  30.360  1.00  0.00     0.049 A 
ATOM     39  N   UNL A   1      38.970  32.212  33.131  1.00  0.00    -0.248 NA
ATOM     40  C   UNL A   1      37.193  33.726  33.181  1.00  0.00     0.031 C 
ATOM     41  C   UNL A   1      37.755  31.004  28.990  1.00  0.00     0.029 A 
ATOM     42  N   UNL A   1      39.180  30.604  30.665  1.00  0.00    -0.354 N 
ATOM     43  C   UNL A   1      39.004  32.929  34.320  1.00  0.00     0.074 A 
ATOM     44  C   UNL A   1      37.933  33.899  34.265  1.00  0.00     0.031 C 
ATOM     45  C   UNL A   1      38.593  30.039  28.582  1.00  0.00     0.029 A 
ATOM     46  C   UNL A   1      39.548  29.755  29.649  1.00  0.00     0.049 A 
ATOM     47  H   UNL A   1      39.649  30.645  31.529  1.00  0.00     0.167 HD
ATOM     48  C   UNL A   1      39.836  32.770  35.376  1.00  0.00     0.037 A 
ATOM     49  C   UNL A   1      40.542  28.848  29.595  1.00  0.00     0.037 A 
ATOM     50  C   UNL A   1      40.868  31.773  35.441  1.00  0.00     0.049 A 
ATOM     51  C   UNL A   1      41.422  28.659  30.802  1.00  0.00     0.074 A 
ATOM     52  C   UNL A   1      41.726  31.485  36.488  1.00  0.00     0.029 A 
ATOM     53  N   UNL A   1      41.174  30.890  34.416  1.00  0.00    -0.354 N 
ATOM     54  N   UNL A   1      41.400  29.293  31.950  1.00  0.00    -0.248 NA
ATOM     55  C   UNL A   1      42.453  27.618  30.711  1.00  0.00     0.031 C 
ATOM     56  C   UNL A   1      42.572  30.446  36.083  1.00  0.00     0.029 A 
ATOM     57  C   UNL A   1      42.212  30.059  34.802  1.00  0.00     0.049 A 
ATOM     58  H   UNL A   1      40.720  30.859  33.542  1.00  0.00     0.167 HD
ATOM     59  C   UNL A   1      42.388  28.705  32.728  1.00  0.00     0.074 A 
ATOM     60  C   UNL A   1      42.984  27.657  31.926  1.00  0.00     0.031 C 
ATOM     61  C   UNL A   1      42.770  29.007  33.993  1.00  0.00     0.037 A 
BRANCH  48  62
ATOM     62  C   UNL A   1      39.647  33.688  36.547  1.00  0.00     0.064 A 
ATOM     63  C   UNL A   1      38.842  33.327  37.640  1.00  0.00     0.173 A 
ATOM     64  C   UNL A   1      40.292  34.932  36.591  1.00  0.00     0.173 A 
ATOM     65  F   UNL A   1      38.189  32.155  37.639  1.00  0.00    -0.203 F 
ATOM     66  C   UNL A   1      38.668  34.192  38.717  1.00  0.00     0.198 A 
ATOM     67  C   UNL A   1      40.140  35.781  37.683  1.00  0.00     0.198 A 
ATOM     68  F   UNL A   1      41.074  35.325  35.573  1.00  0.00    -0.203 F 
ATOM     69  F   UNL A   1      37.852  33.847  39.723  1.00  0.00    -0.200 F 
ATOM     70  C   UNL A   1      39.321  35.414  38.742  1.00  0.00     0.200 A 
ATOM     71  F   UNL A   1      40.781  36.958  37.711  1.00  0.00    -0.200 F 
ATOM     72  F   UNL A   1      39.157  36.243  39.782  1.00  0.00    -0.200 F 
ENDBRANCH  48  62
BRANCH  49  73
ATOM     73  C   UNL A   1      40.727  28.017  28.379  1.00  0.00     0.064 A 
ATOM     74  C   UNL A   1      40.115  26.760  28.269  1.00  0.00     0.173 A 
ATOM     75  C   UNL A   1      41.524  28.450  27.310  1.00  0.00     0.173 A 
ATOM     76  F   UNL A   1      39.358  26.294  29.273  1.00  0.00    -0.203 F 
ATOM     77  C   UNL A   1      40.315  25.956  27.148  1.00  0.00     0.198 A 
ATOM     78  C   UNL A   1      41.702  27.657  26.177  1.00  0.00     0.198 A 
ATOM     79  F   UNL A   1      42.124  29.648  27.362  1.00  0.00    -0.203 F 
ATOM     80  F   UNL A   1      39.757  24.740  27.091  1.00  0.00    -0.200 F 
ATOM     81  C   UNL A   1      41.104  26.407  26.101  1.00  0.00     0.200 A 
ATOM     82  F   UNL A   1      42.454  28.101  25.162  1.00  0.00    -0.200 F 
ATOM     83  F   UNL A   1      41.296  25.635  25.023  1.00  0.00    -0.200 F 
ENDBRANCH  49  73
BRANCH  61  84
ATOM     84  C   UNL A   1      43.845  28.159  34.605  1.00  0.00     0.064 A 
ATOM     85  C   UNL A   1      43.550  26.961  35.268  1.00  0.00     0.173 A 
ATOM     86  C   UNL A   1      45.192  28.534  34.485  1.00  0.00     0.173 A 
ATOM     87  F   UNL A   1      42.276  26.569  35.420  1.00  0.00    -0.203 F 
ATOM     88  C   UNL A   1      44.564  26.180  35.815  1.00  0.00     0.198 A 
ATOM     89  C   UNL A   1      46.205  27.736  35.007  1.00  0.00     0.198 A 
ATOM     90  F   UNL A   1      45.525  29.668  33.852  1.00  0.00    -0.203 F 
ATOM     91  F   UNL A   1      44.258  25.061  36.487  1.00  0.00    -0.200 F 
ATOM     92  C   UNL A   1      45.890  26.564  35.678  1.00  0.00     0.200 A 
ATOM     93  F   UNL A   1      47.486  28.102  34.864  1.00  0.00    -0.200 F 
ATOM     94  F   UNL A   1      46.865  25.807  36.200  1.00  0.00    -0.200 F 
ENDBRANCH  61  84
ENDBRANCH  35  36
ENDBRANCH  27  30
ENDBRANCH  25  26
ENDBRANCH  24  25
ENDBRANCH   1  24
TORSDOF 14
ENDMDL
MODEL 2
REMARK VINA RESULT:     -12.6      0.232      1.653
REMARK SMILES C[C@H](NC(=O)N1CC[C@H](C(=O)NCCCCNC(=O)c2ccc(-c3c4nc(c(-c5c(F)c(F)c(F)c(F)c5F)c5ccc([nH]5)c(-c5c(F)c(F)c(F)c(F)c5F)c5nc(c(-c6c(F)c(F)c(F)c(F)c6F)c6ccc3[nH]6)C=C5)C=C4)cc2)[C@H]1C)c1ccsc1
REMARK SMILES IDX 14 1 13 2 12 3 10 4 11 5 9 7 6 8 7 9 83 10 8 11 84 12 4 13
REMARK SMILES IDX 3 14 5 16 2 17 1 18 85 19 86 20 89 21 87 22 88 23 15 24
REMARK SMILES IDX 16 25 17 26 18 27 19 29 20 30 21 31 82 32 22 33 81 34 23 35
REMARK SMILES IDX 24 36 25 37 75 38 26 39 80 40 74 41 76 42 27 43 79 44 73 45
REMARK SMILES IDX 72 46 28 48 60 49 40 50 59 51 41 52 44 53 58 54 77 55 42 56
REMARK SMILES IDX 43 57 57 59 78 60 45 61 29 62 30 63 38 64 31 65 32 66 36 67
REMARK SMILES IDX 39 68 33 69 34 70 37 71 35 72 61 73 62 74 70 75 63 76 64 77
REMARK SMILES IDX 68 78 71 79 65 80 66 81 69 82 67 83 46 84 47 85 55 86 48 87
REMARK SMILES IDX 49 88 53 89 56 90 50 91 51 92 54 93 52 94
REMARK H PARENT 12 6 3 15 17 28 76 47 44 58
REMARK Flexibility Score: inf
ROOT
ATOM      1  C   UNL A   1      32.095  30.456  26.980  1.00  0.00     0.023 C 
ENDROOT
BRANCH   1   2
ATOM      2  C   UNL A   1      32.892  29.888  25.806  1.00  0.00     0.116 C 
BRANCH   2   3
ATOM      3  N   UNL A   1      32.090  29.772  24.613  1.00  0.00    -0.356 N 
ATOM      4  C   UNL A   1      31.357  28.752  24.108  1.00  0.00     0.225 C 
ATOM      5  O   UNL A   1      30.781  28.988  23.039  1.00  0.00    -0.275 OA
ATOM      6  H   UNL A   1      32.073  30.587  24.062  1.00  0.00     0.163 HD
BRANCH   4   7
ATOM      7  C   UNL A   1      31.288  27.344  24.700  1.00  0.00     0.102 C 
ATOM      8  N   UNL A   1      32.389  25.614  23.443  1.00  0.00    -0.321 N 
ATOM      9  C   UNL A   1      31.023  25.727  22.991  1.00  0.00     0.122 C 
ATOM     10  C   UNL A   1      32.663  26.659  24.447  1.00  0.00     0.096 C 
ATOM     11  C   UNL A   1      30.318  26.274  24.208  1.00  0.00     0.037 C 
ATOM     12  C   UNL A   1      33.210  26.075  25.747  1.00  0.00     0.032 C 
BRANCH   8  13
ATOM     13  C   UNL A   1      33.323  25.282  22.499  1.00  0.00     0.318 C 
ATOM     14  N   UNL A   1      33.812  24.017  22.565  1.00  0.00    -0.331 N 
ATOM     15  H   UNL A   1      34.496  23.778  21.899  1.00  0.00     0.165 HD
ATOM     16  O   UNL A   1      33.641  26.026  21.576  1.00  0.00    -0.249 OA
BRANCH  14  17
ATOM     17  C   UNL A   1      33.440  22.977  23.505  1.00  0.00     0.112 C 
ATOM     18  C   UNL A   1      32.436  21.982  22.920  1.00  0.00     0.036 C 
BRANCH  17  19
ATOM     19  C   UNL A   1      34.664  22.268  24.037  1.00  0.00    -0.015 A 
ATOM     20  C   UNL A   1      34.712  21.054  24.805  1.00  0.00     0.017 A 
ATOM     21  C   UNL A   1      35.946  22.764  23.853  1.00  0.00     0.070 A 
ATOM     22  C   UNL A   1      35.996  20.687  25.144  1.00  0.00     0.065 A 
ATOM     23  S   UNL A   1      37.156  21.800  24.572  1.00  0.00    -0.152 S 
ENDBRANCH  17  19
ENDBRANCH  14  17
ENDBRANCH   8  13
ENDBRANCH   4   7
ENDBRANCH   2   3
ENDBRANCH   1   2
BRANCH   1  24
ATOM     24  C   UNL A   1      31.768  31.941  26.872  1.00  0.00     0.023 C 
BRANCH  24  25
ATOM     25  C   UNL A   1      32.906  32.871  27.260  1.00  0.00     0.116 C 
BRANCH  25  26
ATOM     26  N   UNL A   1      32.479  34.202  27.669  1.00  0.00    -0.352 N 
ATOM     27  C   UNL A   1      33.019  34.980  28.666  1.00  0.00     0.251 C 
ATOM     28  H   UNL A   1      31.719  34.588  27.175  1.00  0.00     0.163 HD
ATOM     29  O   UNL A   1      32.531  36.060  28.968  1.00  0.00    -0.269 OA
BRANCH  27  30
ATOM     30  C   UNL A   1      34.176  34.443  29.402  1.00  0.00     0.039 A 
ATOM     31  C   UNL A   1      33.949  33.644  30.522  1.00  0.00     0.014 A 
ATOM     32  C   UNL A   1      35.467  34.636  28.903  1.00  0.00     0.014 A 
ATOM     33  C   UNL A   1      35.022  32.978  31.111  1.00  0.00     0.010 A 
ATOM     34  C   UNL A   1      36.517  33.904  29.436  1.00  0.00     0.010 A 
ATOM     35  C   UNL A   1      36.306  33.075  30.549  1.00  0.00    -0.014 A 
BRANCH  35  36
ATOM     36  C   UNL A   1      37.454  32.342  31.131  1.00  0.00     0.031 A 
ATOM     37  C   UNL A   1      37.940  32.702  32.505  1.00  0.00     0.074 A 
ATOM     38  C   UNL A   1      38.094  31.408  30.400  1.00  0.00     0.049 A 
ATOM     39  N   UNL A   1      38.965  32.237  33.171  1.00  0.00    -0.248 NA
ATOM     40  C   UNL A   1      37.194  33.757  33.213  1.00  0.00     0.031 C 
ATOM     41  C   UNL A   1      37.753  31.022  29.031  1.00  0.00     0.029 A 
ATOM     42  N   UNL A   1      39.173  30.620  30.710  1.00  0.00    -0.354 N 
ATOM     43  C   UNL A   1      38.999  32.957  34.357  1.00  0.00     0.074 A 
ATOM     44  C   UNL A   1      37.933  33.930  34.298  1.00  0.00     0.031 C 
ATOM     45  C   UNL A   1      38.589  30.051  28.627  1.00  0.00     0.029 A 
ATOM     46  C   UNL A   1      39.540  29.767  29.697  1.00  0.00     0.049 A 
ATOM     47  H   UNL A   1      39.641  30.662  31.575  1.00  0.00     0.167 HD
ATOM     48  C   UNL A   1      39.828  32.798  35.416  1.00  0.00     0.037 A 
ATOM     49  C   UNL A   1      40.530  28.856  29.648  1.00  0.00     0.037 A 
ATOM     50  C   UNL A   1      40.857  31.796  35.486  1.00  0.00     0.049 A 
ATOM     51  C   UNL A   1      41.407  28.667  30.857  1.00  0.00     0.074 A 
ATOM     52  C   UNL A   1      41.712  31.508  36.535  1.00  0.00     0.029 A 
ATOM     53  N   UNL A   1      41.161  30.909  34.464  1.00  0.00    -0.354 N 
ATOM     54  N   UNL A   1      41.386  29.304  32.003  1.00  0.00    -0.248 NA
ATOM     55  C   UNL A   1      42.435  27.621  30.771  1.00  0.00     0.031 C 
ATOM     56  C   UNL A   1      42.554  30.464  36.135  1.00  0.00     0.029 A 
ATOM     57  C   UNL A   1      42.194  30.075  34.855  1.00  0.00     0.049 A 
ATOM     58  H   UNL A   1      40.708  30.878  33.589  1.00  0.00     0.167 HD
ATOM     59  C   UNL A   1      42.370  28.715  32.785  1.00  0.00     0.074 A 
ATOM     60  C   UNL A   1      42.962  27.662  31.987  1.00  0.00     0.031 C 
ATOM     61  C   UNL A   1      42.750  29.018  34.050  1.00  0.00     0.037 A 
BRANCH  48  62
ATOM     62  C   UNL A   1      39.641  33.720  36.584  1.00  0.00     0.064 A 
ATOM     63  C   UNL A   1      40.267  34.976  36.635  1.00  0.00     0.173 A 
ATOM     64  C   UNL A   1      38.812  33.357  37.654  1.00  0.00     0.173 A 
ATOM     65  F   UNL A   1      41.085  35.363  35.644  1.00  0.00    -0.203 F 
ATOM     66  C   UNL A   1      40.093  35.819  37.729  1.00  0.00     0.198 A 
ATOM     67  C   UNL A   1      38.616  34.215  38.732  1.00  0.00     0.198 A 
ATOM     68  F   UNL A   1      38.189  32.168  37.655  1.00  0.00    -0.203 F 
ATOM     69  F   UNL A   1      40.745  36.989  37.779  1.00  0.00    -0.200 F 
ATOM     70  C   UNL A   1      39.263  35.442  38.773  1.00  0.00     0.200 A 
ATOM     71  F   UNL A   1      37.805  33.854  39.736  1.00  0.00    -0.200 F 
ATOM     72  F   UNL A   1      39.092  36.257  39.823  1.00  0.00    -0.200 F 
ENDBRANCH  48  62
BRANCH  49  73
ATOM     73  C   UNL A   1      40.715  28.020  28.435  1.00  0.00     0.064 A 
ATOM     74  C   UNL A   1      41.497  28.474  27.363  1.00  0.00     0.173 A 
ATOM     75  C   UNL A   1      40.110  26.762  28.313  1.00  0.00     0.173 A 
ATOM     76  F   UNL A   1      42.082  29.680  27.425  1.00  0.00    -0.203 F 
ATOM     77  C   UNL A   1      41.645  27.713  26.204  1.00  0.00     0.198 A 
ATOM     78  C   UNL A   1      40.279  25.989  27.165  1.00  0.00     0.198 A 
ATOM     79  F   UNL A   1      39.359  26.278  29.313  1.00  0.00    -0.203 F 
ATOM     80  F   UNL A   1      42.358  28.193  25.177  1.00  0.00    -0.200 F 
ATOM     81  C   UNL A   1      41.039  26.470  26.108  1.00  0.00     0.200 A 
ATOM     82  F   UNL A   1      39.704  24.783  27.080  1.00  0.00    -0.200 F 
ATOM     83  F   UNL A   1      41.181  25.738  24.995  1.00  0.00    -0.200 F 
ENDBRANCH  49  73
BRANCH  61  84
ATOM     84  C   UNL A   1      43.821  28.168  34.667  1.00  0.00     0.064 A 
ATOM     85  C   UNL A   1      43.518  26.981  35.346  1.00  0.00     0.173 A 
ATOM     86  C   UNL A   1      45.170  28.528  34.534  1.00  0.00     0.173 A 
ATOM     87  F   UNL A   1      42.241  26.603  35.510  1.00  0.00    -0.203 F 
ATOM     88  C   UNL A   1      44.527  26.197  35.898  1.00  0.00     0.198 A 
ATOM     89  C   UNL A   1      46.179  27.727  35.061  1.00  0.00     0.198 A 
ATOM     90  F   UNL A   1      45.510  29.651  33.885  1.00  0.00    -0.203 F 
ATOM     91  F   UNL A   1      44.214  25.090  36.585  1.00  0.00    -0.200 F 
ATOM     92  C   UNL A   1      45.856  26.567  35.748  1.00  0.00     0.200 A 
ATOM     93  F   UNL A   1      47.462  28.079  34.905  1.00  0.00    -0.200 F 
ATOM     94  F   UNL A   1      46.827  25.807  36.274  1.00  0.00    -0.200 F 
ENDBRANCH  61  84
ENDBRANCH  35  36
ENDBRANCH  27  30
ENDBRANCH  25  26
ENDBRANCH  24  25
ENDBRANCH   1  24
TORSDOF 14
ENDMDL
MODEL 3
REMARK VINA RESULT:     -12.6      5.437     11.165
REMARK SMILES C[C@H](NC(=O)N1CC[C@H](C(=O)NCCCCNC(=O)c2ccc(-c3c4nc(c(-c5c(F)c(F)c(F)c(F)c5F)c5ccc([nH]5)c(-c5c(F)c(F)c(F)c(F)c5F)c5nc(c(-c6c(F)c(F)c(F)c(F)c6F)c6ccc3[nH]6)C=C5)C=C4)cc2)[C@H]1C)c1ccsc1
REMARK SMILES IDX 14 1 13 2 12 3 10 4 11 5 9 7 6 8 7 9 83 10 8 11 84 12 4 13
REMARK SMILES IDX 3 14 5 16 2 17 1 18 85 19 86 20 89 21 87 22 88 23 15 24
REMARK SMILES IDX 16 25 17 26 18 27 19 29 20 30 21 31 82 32 22 33 81 34 23 35
REMARK SMILES IDX 24 36 25 37 75 38 26 39 80 40 74 41 76 42 27 43 79 44 73 45
REMARK SMILES IDX 72 46 28 48 60 49 40 50 59 51 41 52 44 53 58 54 77 55 42 56
REMARK SMILES IDX 43 57 57 59 78 60 45 61 29 62 30 63 38 64 31 65 32 66 36 67
REMARK SMILES IDX 39 68 33 69 34 70 37 71 35 72 61 73 62 74 70 75 63 76 64 77
REMARK SMILES IDX 68 78 71 79 65 80 66 81 69 82 67 83 46 84 47 85 55 86 48 87
REMARK SMILES IDX 49 88 53 89 56 90 50 91 51 92 54 93 52 94
REMARK H PARENT 12 6 3 15 17 28 76 47 44 58
REMARK Flexibility Score: inf
ROOT
ATOM      1  C   UNL A   1      37.367  21.005  24.661  1.00  0.00     0.023 C 
ENDROOT
BRANCH   1   2
ATOM      2  C   UNL A   1      36.457  21.483  25.792  1.00  0.00     0.116 C 
BRANCH   2   3
ATOM      3  N   UNL A   1      35.211  20.760  25.827  1.00  0.00    -0.356 N 
ATOM      4  C   UNL A   1      34.009  20.995  25.251  1.00  0.00     0.225 C 
ATOM      5  O   UNL A   1      33.128  20.160  25.493  1.00  0.00    -0.275 OA
ATOM      6  H   UNL A   1      35.238  19.941  26.372  1.00  0.00     0.163 HD
BRANCH   4   7
ATOM      7  C   UNL A   1      33.653  22.242  24.439  1.00  0.00     0.102 C 
ATOM      8  N   UNL A   1      31.986  23.687  25.396  1.00  0.00    -0.321 N 
ATOM      9  C   UNL A   1      31.334  22.697  24.572  1.00  0.00     0.122 C 
ATOM     10  C   UNL A   1      33.434  23.410  25.444  1.00  0.00     0.096 C 
ATOM     11  C   UNL A   1      32.405  22.348  23.569  1.00  0.00     0.037 C 
ATOM     12  C   UNL A   1      34.262  24.625  25.031  1.00  0.00     0.032 C 
BRANCH   8  13
ATOM     13  C   UNL A   1      31.310  24.097  26.514  1.00  0.00     0.318 C 
ATOM     14  N   UNL A   1      30.780  25.346  26.464  1.00  0.00    -0.331 N 
ATOM     15  H   UNL A   1      30.307  25.653  27.271  1.00  0.00     0.165 HD
ATOM     16  O   UNL A   1      31.092  23.366  27.475  1.00  0.00    -0.249 OA
BRANCH  14  17
ATOM     17  C   UNL A   1      30.830  26.280  25.355  1.00  0.00     0.112 C 
ATOM     18  C   UNL A   1      29.500  26.380  24.606  1.00  0.00     0.036 C 
BRANCH  17  19
ATOM     19  C   UNL A   1      31.300  27.640  25.817  1.00  0.00    -0.015 A 
ATOM     20  C   UNL A   1      31.717  28.023  27.139  1.00  0.00     0.017 A 
ATOM     21  C   UNL A   1      31.352  28.734  24.968  1.00  0.00     0.070 A 
ATOM     22  C   UNL A   1      32.072  29.352  27.223  1.00  0.00     0.065 A 
ATOM     23  S   UNL A   1      31.888  30.162  25.733  1.00  0.00    -0.152 S 
ENDBRANCH  17  19
ENDBRANCH  14  17
ENDBRANCH   8  13
ENDBRANCH   4   7
ENDBRANCH   2   3
ENDBRANCH   1   2
BRANCH   1  24
ATOM     24  C   UNL A   1      38.220  19.787  25.000  1.00  0.00     0.023 C 
BRANCH  24  25
ATOM     25  C   UNL A   1      39.487  20.098  25.781  1.00  0.00     0.116 C 
BRANCH  25  26
ATOM     26  N   UNL A   1      40.445  19.002  25.830  1.00  0.00    -0.352 N 
ATOM     27  C   UNL A   1      41.794  19.084  26.089  1.00  0.00     0.251 C 
ATOM     28  H   UNL A   1      40.087  18.101  25.658  1.00  0.00     0.163 HD
ATOM     29  O   UNL A   1      42.515  18.100  26.036  1.00  0.00    -0.269 OA
BRANCH  27  30
ATOM     30  C   UNL A   1      42.353  20.416  26.379  1.00  0.00     0.039 A 
ATOM     31  C   UNL A   1      42.732  21.233  25.315  1.00  0.00     0.014 A 
ATOM     32  C   UNL A   1      42.383  20.885  27.695  1.00  0.00     0.014 A 
ATOM     33  C   UNL A   1      43.082  22.558  25.567  1.00  0.00     0.010 A 
ATOM     34  C   UNL A   1      42.647  22.225  27.932  1.00  0.00     0.010 A 
ATOM     35  C   UNL A   1      43.007  23.072  26.872  1.00  0.00    -0.014 A 
BRANCH  35  36
ATOM     36  C   UNL A   1      43.333  24.488  27.157  1.00  0.00     0.031 A 
ATOM     37  C   UNL A   1      44.719  24.996  26.882  1.00  0.00     0.074 A 
ATOM     38  C   UNL A   1      42.408  25.288  27.722  1.00  0.00     0.049 A 
ATOM     39  N   UNL A   1      45.232  26.175  27.122  1.00  0.00    -0.248 NA
ATOM     40  C   UNL A   1      45.668  24.037  26.292  1.00  0.00     0.031 C 
ATOM     41  C   UNL A   1      41.051  24.887  28.095  1.00  0.00     0.029 A 
ATOM     42  N   UNL A   1      42.477  26.608  28.089  1.00  0.00    -0.354 N 
ATOM     43  C   UNL A   1      46.563  26.089  26.736  1.00  0.00     0.074 A 
ATOM     44  C   UNL A   1      46.796  24.730  26.304  1.00  0.00     0.031 C 
ATOM     45  C   UNL A   1      40.406  25.944  28.613  1.00  0.00     0.029 A 
ATOM     46  C   UNL A   1      41.311  27.090  28.634  1.00  0.00     0.049 A 
ATOM     47  H   UNL A   1      43.285  27.159  27.974  1.00  0.00     0.167 HD
ATOM     48  C   UNL A   1      47.499  27.068  26.715  1.00  0.00     0.037 A 
ATOM     49  C   UNL A   1      41.012  28.320  29.091  1.00  0.00     0.037 A 
ATOM     50  C   UNL A   1      47.246  28.428  27.103  1.00  0.00     0.049 A 
ATOM     51  C   UNL A   1      42.057  29.401  29.012  1.00  0.00     0.074 A 
ATOM     52  C   UNL A   1      48.105  29.512  27.061  1.00  0.00     0.029 A 
ATOM     53  N   UNL A   1      46.035  28.893  27.594  1.00  0.00    -0.354 N 
ATOM     54  N   UNL A   1      43.292  29.328  28.578  1.00  0.00    -0.248 NA
ATOM     55  C   UNL A   1      41.660  30.739  29.470  1.00  0.00     0.031 C 
ATOM     56  C   UNL A   1      47.421  30.628  27.556  1.00  0.00     0.029 A 
ATOM     57  C   UNL A   1      46.125  30.248  27.864  1.00  0.00     0.049 A 
ATOM     58  H   UNL A   1      45.231  28.341  27.730  1.00  0.00     0.167 HD
ATOM     59  C   UNL A   1      43.808  30.613  28.678  1.00  0.00     0.074 A 
ATOM     60  C   UNL A   1      42.748  31.448  29.204  1.00  0.00     0.031 C 
ATOM     61  C   UNL A   1      45.048  31.062  28.365  1.00  0.00     0.037 A 
BRANCH  48  62
ATOM     62  C   UNL A   1      48.874  26.697  26.243  1.00  0.00     0.064 A 
ATOM     63  C   UNL A   1      49.287  26.944  24.924  1.00  0.00     0.173 A 
ATOM     64  C   UNL A   1      49.796  26.110  27.120  1.00  0.00     0.173 A 
ATOM     65  F   UNL A   1      48.437  27.488  24.040  1.00  0.00    -0.203 F 
ATOM     66  C   UNL A   1      50.563  26.588  24.495  1.00  0.00     0.198 A 
ATOM     67  C   UNL A   1      51.080  25.783  26.696  1.00  0.00     0.198 A 
ATOM     68  F   UNL A   1      49.452  25.855  28.392  1.00  0.00    -0.203 F 
ATOM     69  F   UNL A   1      50.916  26.784  23.216  1.00  0.00    -0.200 F 
ATOM     70  C   UNL A   1      51.460  26.014  25.382  1.00  0.00     0.200 A 
ATOM     71  F   UNL A   1      51.951  25.239  27.558  1.00  0.00    -0.200 F 
ATOM     72  F   UNL A   1      52.690  25.677  24.969  1.00  0.00    -0.200 F 
ENDBRANCH  48  62
BRANCH  49  73
ATOM     73  C   UNL A   1      39.654  28.611  29.617  1.00  0.00     0.064 A 
ATOM     74  C   UNL A   1      38.648  29.105  28.773  1.00  0.00     0.173 A 
ATOM     75  C   UNL A   1      39.333  28.413  30.967  1.00  0.00     0.173 A 
ATOM     76  F   UNL A   1      38.912  29.327  27.477  1.00  0.00    -0.203 F 
ATOM     77  C   UNL A   1      37.382  29.416  29.265  1.00  0.00     0.198 A 
ATOM     78  C   UNL A   1      38.058  28.700  31.453  1.00  0.00     0.198 A 
ATOM     79  F   UNL A   1      40.256  27.934  31.813  1.00  0.00    -0.203 F 
ATOM     80  F   UNL A   1      36.456  29.933  28.446  1.00  0.00    -0.200 F 
ATOM     81  C   UNL A   1      37.087  29.210  30.604  1.00  0.00     0.200 A 
ATOM     82  F   UNL A   1      37.772  28.486  32.744  1.00  0.00    -0.200 F 
ATOM     83  F   UNL A   1      35.870  29.509  31.077  1.00  0.00    -0.200 F 
ENDBRANCH  49  73
BRANCH  61  84
ATOM     84  C   UNL A   1      45.308  32.529  28.532  1.00  0.00     0.064 A 
ATOM     85  C   UNL A   1      45.014  33.450  27.518  1.00  0.00     0.173 A 
ATOM     86  C   UNL A   1      45.819  33.021  29.742  1.00  0.00     0.173 A 
ATOM     87  F   UNL A   1      44.536  33.025  26.338  1.00  0.00    -0.203 F 
ATOM     88  C   UNL A   1      45.247  34.810  27.699  1.00  0.00     0.198 A 
ATOM     89  C   UNL A   1      46.024  34.384  29.931  1.00  0.00     0.198 A 
ATOM     90  F   UNL A   1      46.109  32.180  30.746  1.00  0.00    -0.203 F 
ATOM     91  F   UNL A   1      45.003  35.669  26.699  1.00  0.00    -0.200 F 
ATOM     92  C   UNL A   1      45.745  35.276  28.907  1.00  0.00     0.200 A 
ATOM     93  F   UNL A   1      46.493  34.835  31.103  1.00  0.00    -0.200 F 
ATOM     94  F   UNL A   1      45.963  36.587  29.081  1.00  0.00    -0.200 F 
ENDBRANCH  61  84
ENDBRANCH  35  36
ENDBRANCH  27  30
ENDBRANCH  25  26
ENDBRANCH  24  25
ENDBRANCH   1  24
TORSDOF 14
ENDMDL
