MODEL 1
REMARK VINA RESULT:     -14.1      0.000      0.000
REMARK SMILES CC1(C)S[C@@H](c2cccc3c2sc2ccccc23)[NH2+][C@@H]1C(=O)NCCCCNC(=O)c1ccc(-c2c3nc(c(-c4c(F)c(F)c(F)c(F)c4F)c4ccc([nH]4)c(-c4c(F)c(F)c(F)c(F)c4F)c4nc(c(-c5c(F)c(F)c(F)c(F)c5F)c5ccc2[nH]5)C=C4)C=C3)cc1
REMARK SMILES IDX 26 1 25 2 24 3 23 4 21 5 22 6 20 8 1 9 2 10 3 11 4 12 5 13
REMARK SMILES IDX 19 14 6 17 7 18 11 19 8 20 10 21 12 22 9 23 18 24 13 25
REMARK SMILES IDX 17 26 14 27 16 28 15 29 27 30 28 31 29 32 30 34 31 35 32 36
REMARK SMILES IDX 93 37 33 38 92 39 34 40 35 41 36 42 86 43 37 44 91 45 85 46
REMARK SMILES IDX 87 47 38 48 90 49 84 50 83 51 39 53 71 54 51 55 70 56 52 57
REMARK SMILES IDX 55 58 69 59 88 60 53 61 54 62 68 64 89 65 56 66 40 67 41 68
REMARK SMILES IDX 49 69 42 70 43 71 47 72 50 73 44 74 45 75 48 76 46 77 72 78
REMARK SMILES IDX 73 79 81 80 74 81 75 82 79 83 82 84 76 85 77 86 80 87 78 88
REMARK SMILES IDX 57 89 58 90 66 91 59 92 60 93 64 94 67 95 61 96 62 97 65 98
REMARK SMILES IDX 63 99
REMARK H PARENT 23 7 19 15 19 16 28 33 87 52 55 63
REMARK Flexibility Score: inf
ROOT
ATOM      1  C   UNL A   1      31.403  32.162  26.595  1.00  0.00     0.023 C 
ENDROOT
BRANCH   1   2
ATOM      2  C   UNL A   1      31.596  30.705  26.187  1.00  0.00     0.023 C 
BRANCH   2   3
ATOM      3  C   UNL A   1      32.261  29.813  27.230  1.00  0.00     0.116 C 
BRANCH   3   4
ATOM      4  N   UNL A   1      31.657  28.493  27.296  1.00  0.00    -0.351 N 
ATOM      5  C   UNL A   1      31.930  27.343  26.615  1.00  0.00     0.279 C 
ATOM      6  O   UNL A   1      31.186  26.393  26.875  1.00  0.00    -0.268 OA
ATOM      7  H   UNL A   1      30.922  28.416  27.946  1.00  0.00     0.163 HD
BRANCH   5   8
ATOM      8  C   UNL A   1      33.007  27.280  25.491  1.00  0.00     0.289 C 
ATOM      9  C   UNL A   1      33.555  27.503  23.010  1.00  0.00     0.030 C 
ATOM     10  C   UNL A   1      32.506  27.026  24.038  1.00  0.00     0.077 C 
ATOM     11  C   UNL A   1      31.158  27.630  23.646  1.00  0.00     0.030 C 
ATOM     12  S   UNL A   1      32.432  25.197  23.925  1.00  0.00    -0.081 SA
ATOM     13  C   UNL A   1      33.423  24.938  25.422  1.00  0.00     0.276 C 
ATOM     14  N   UNL A   1      34.027  26.228  25.764  1.00  0.00    -0.320 N 
ATOM     15  H   UNL A   1      34.856  26.389  25.192  1.00  0.00     0.348 HD
ATOM     16  H   UNL A   1      34.311  26.247  26.744  1.00  0.00     0.348 HD
BRANCH  13  17
ATOM     17  C   UNL A   1      34.487  23.864  25.288  1.00  0.00     0.038 A 
ATOM     18  C   UNL A   1      35.858  24.209  25.376  1.00  0.00     0.012 A 
ATOM     19  C   UNL A   1      34.188  22.479  25.126  1.00  0.00     0.046 A 
ATOM     20  C   UNL A   1      36.865  23.263  25.296  1.00  0.00     0.001 A 
ATOM     21  C   UNL A   1      35.189  21.507  25.020  1.00  0.00     0.001 A 
ATOM     22  S   UNL A   1      32.630  21.737  25.045  1.00  0.00    -0.135 S 
ATOM     23  C   UNL A   1      36.542  21.924  25.110  1.00  0.00     0.010 A 
ATOM     24  C   UNL A   1      34.654  20.171  24.817  1.00  0.00     0.000 A 
ATOM     25  C   UNL A   1      33.261  20.162  24.825  1.00  0.00     0.036 A 
ATOM     26  C   UNL A   1      35.322  18.933  24.626  1.00  0.00     0.010 A 
ATOM     27  C   UNL A   1      32.528  18.969  24.665  1.00  0.00     0.019 A 
ATOM     28  C   UNL A   1      34.601  17.748  24.454  1.00  0.00     0.001 A 
ATOM     29  C   UNL A   1      33.216  17.767  24.479  1.00  0.00     0.002 A 
ENDBRANCH  13  17
ENDBRANCH   5   8
ENDBRANCH   3   4
ENDBRANCH   2   3
ENDBRANCH   1   2
BRANCH   1  30
ATOM     30  C   UNL A   1      32.612  32.819  27.245  1.00  0.00     0.116 C 
BRANCH  30  31
ATOM     31  N   UNL A   1      32.369  34.203  27.626  1.00  0.00    -0.352 N 
ATOM     32  C   UNL A   1      32.965  34.953  28.609  1.00  0.00     0.251 C 
ATOM     33  H   UNL A   1      31.678  34.669  27.102  1.00  0.00     0.163 HD
ATOM     34  O   UNL A   1      32.528  36.066  28.893  1.00  0.00    -0.269 OA
BRANCH  32  35
ATOM     35  C   UNL A   1      34.124  34.410  29.349  1.00  0.00     0.039 A 
ATOM     36  C   UNL A   1      33.909  33.779  30.576  1.00  0.00     0.014 A 
ATOM     37  C   UNL A   1      35.416  34.512  28.827  1.00  0.00     0.014 A 
ATOM     38  C   UNL A   1      34.985  33.195  31.250  1.00  0.00     0.010 A 
ATOM     39  C   UNL A   1      36.467  33.851  29.452  1.00  0.00     0.010 A 
ATOM     40  C   UNL A   1      36.267  33.196  30.677  1.00  0.00    -0.014 A 
BRANCH  40  41
ATOM     41  C   UNL A   1      37.417  32.547  31.355  1.00  0.00     0.031 A 
ATOM     42  C   UNL A   1      38.131  31.401  30.690  1.00  0.00     0.074 A 
ATOM     43  C   UNL A   1      37.783  32.945  32.589  1.00  0.00     0.049 A 
ATOM     44  N   UNL A   1      39.110  30.658  31.142  1.00  0.00    -0.248 NA
ATOM     45  C   UNL A   1      37.661  31.021  29.349  1.00  0.00     0.031 C 
ATOM     46  C   UNL A   1      37.143  34.011  33.360  1.00  0.00     0.029 A 
ATOM     47  N   UNL A   1      38.780  32.490  33.417  1.00  0.00    -0.354 N 
ATOM     48  C   UNL A   1      39.358  29.718  30.149  1.00  0.00     0.074 A 
ATOM     49  C   UNL A   1      38.386  29.941  29.102  1.00  0.00     0.031 C 
ATOM     50  C   UNL A   1      37.778  34.147  34.535  1.00  0.00     0.029 A 
ATOM     51  C   UNL A   1      38.843  33.152  34.619  1.00  0.00     0.049 A 
ATOM     52  H   UNL A   1      39.393  31.760  33.172  1.00  0.00     0.167 HD
ATOM     53  C   UNL A   1      40.326  28.772  30.102  1.00  0.00     0.037 A 
ATOM     54  C   UNL A   1      39.663  32.971  35.672  1.00  0.00     0.037 A 
ATOM     55  C   UNL A   1      41.305  28.568  31.137  1.00  0.00     0.049 A 
ATOM     56  C   UNL A   1      40.725  31.905  35.599  1.00  0.00     0.074 A 
ATOM     57  C   UNL A   1      42.358  27.670  31.164  1.00  0.00     0.029 A 
ATOM     58  N   UNL A   1      41.349  29.271  32.332  1.00  0.00    -0.354 N 
ATOM     59  N   UNL A   1      40.993  31.066  34.628  1.00  0.00    -0.248 NA
ATOM     60  C   UNL A   1      41.606  31.771  36.766  1.00  0.00     0.031 C 
ATOM     61  C   UNL A   1      43.005  27.793  32.398  1.00  0.00     0.029 A 
ATOM     62  C   UNL A   1      42.398  28.814  33.112  1.00  0.00     0.049 A 
ATOM     63  H   UNL A   1      40.726  29.989  32.588  1.00  0.00     0.167 HD
ATOM     64  C   UNL A   1      42.094  30.333  35.050  1.00  0.00     0.074 A 
ATOM     65  C   UNL A   1      42.452  30.836  36.359  1.00  0.00     0.031 C 
ATOM     66  C   UNL A   1      42.752  29.335  34.408  1.00  0.00     0.037 A 
BRANCH  53  67
ATOM     67  C   UNL A   1      40.372  27.886  28.889  1.00  0.00     0.064 A 
ATOM     68  C   UNL A   1      41.147  28.215  27.764  1.00  0.00     0.173 A 
ATOM     69  C   UNL A   1      39.656  26.680  28.858  1.00  0.00     0.173 A 
ATOM     70  F   UNL A   1      41.843  29.362  27.735  1.00  0.00    -0.203 F 
ATOM     71  C   UNL A   1      41.173  27.389  26.644  1.00  0.00     0.198 A 
ATOM     72  C   UNL A   1      39.713  25.839  27.750  1.00  0.00     0.198 A 
ATOM     73  F   UNL A   1      38.903  26.314  29.907  1.00  0.00    -0.203 F 
ATOM     74  F   UNL A   1      41.872  27.755  25.561  1.00  0.00    -0.200 F 
ATOM     75  C   UNL A   1      40.462  26.199  26.641  1.00  0.00     0.200 A 
ATOM     76  F   UNL A   1      39.038  24.681  27.755  1.00  0.00    -0.200 F 
ATOM     77  F   UNL A   1      40.494  25.401  25.564  1.00  0.00    -0.200 F 
ENDBRANCH  53  67
BRANCH  54  78
ATOM     78  C   UNL A   1      39.534  33.835  36.876  1.00  0.00     0.064 A 
ATOM     79  C   UNL A   1      38.766  33.427  37.976  1.00  0.00     0.173 A 
ATOM     80  C   UNL A   1      40.159  35.088  36.948  1.00  0.00     0.173 A 
ATOM     81  F   UNL A   1      38.132  32.245  37.948  1.00  0.00    -0.203 F 
ATOM     82  C   UNL A   1      38.604  34.251  39.088  1.00  0.00     0.198 A 
ATOM     83  C   UNL A   1      40.023  35.898  38.074  1.00  0.00     0.198 A 
ATOM     84  F   UNL A   1      40.910  35.524  35.926  1.00  0.00    -0.203 F 
ATOM     85  F   UNL A   1      37.818  33.859  40.101  1.00  0.00    -0.200 F 
ATOM     86  C   UNL A   1      39.238  35.483  39.138  1.00  0.00     0.200 A 
ATOM     87  F   UNL A   1      40.650  37.081  38.126  1.00  0.00    -0.200 F 
ATOM     88  F   UNL A   1      39.082  36.275  40.209  1.00  0.00    -0.200 F 
ENDBRANCH  54  78
BRANCH  66  89
ATOM     89  C   UNL A   1      43.964  28.760  35.087  1.00  0.00     0.064 A 
ATOM     90  C   UNL A   1      45.243  29.312  34.921  1.00  0.00     0.173 A 
ATOM     91  C   UNL A   1      43.834  27.654  35.942  1.00  0.00     0.173 A 
ATOM     92  F   UNL A   1      45.425  30.361  34.105  1.00  0.00    -0.203 F 
ATOM     93  C   UNL A   1      46.351  28.756  35.556  1.00  0.00     0.198 A 
ATOM     94  C   UNL A   1      44.937  27.124  36.604  1.00  0.00     0.198 A 
ATOM     95  F   UNL A   1      42.632  27.092  36.145  1.00  0.00    -0.203 F 
ATOM     96  F   UNL A   1      47.571  29.262  35.334  1.00  0.00    -0.200 F 
ATOM     97  C   UNL A   1      46.196  27.668  36.402  1.00  0.00     0.200 A 
ATOM     98  F   UNL A   1      44.781  26.084  37.436  1.00  0.00    -0.200 F 
ATOM     99  F   UNL A   1      47.262  27.138  37.017  1.00  0.00    -0.200 F 
ENDBRANCH  66  89
ENDBRANCH  40  41
ENDBRANCH  32  35
ENDBRANCH  30  31
ENDBRANCH   1  30
TORSDOF 12
ENDMDL
MODEL 2
REMARK VINA RESULT:     -14.0      5.253     10.839
REMARK SMILES CC1(C)S[C@@H](c2cccc3c2sc2ccccc23)[NH2+][C@@H]1C(=O)NCCCCNC(=O)c1ccc(-c2c3nc(c(-c4c(F)c(F)c(F)c(F)c4F)c4ccc([nH]4)c(-c4c(F)c(F)c(F)c(F)c4F)c4nc(c(-c5c(F)c(F)c(F)c(F)c5F)c5ccc2[nH]5)C=C4)C=C3)cc1
REMARK SMILES IDX 26 1 25 2 24 3 23 4 21 5 22 6 20 8 1 9 2 10 3 11 4 12 5 13
REMARK SMILES IDX 19 14 6 17 7 18 11 19 8 20 10 21 12 22 9 23 18 24 13 25
REMARK SMILES IDX 17 26 14 27 16 28 15 29 27 30 28 31 29 32 30 34 31 35 32 36
REMARK SMILES IDX 93 37 33 38 92 39 34 40 35 41 36 42 86 43 37 44 91 45 85 46
REMARK SMILES IDX 87 47 38 48 90 49 84 50 83 51 39 53 71 54 51 55 70 56 52 57
REMARK SMILES IDX 55 58 69 59 88 60 53 61 54 62 68 64 89 65 56 66 40 67 41 68
REMARK SMILES IDX 49 69 42 70 43 71 47 72 50 73 44 74 45 75 48 76 46 77 72 78
REMARK SMILES IDX 73 79 81 80 74 81 75 82 79 83 82 84 76 85 77 86 80 87 78 88
REMARK SMILES IDX 57 89 58 90 66 91 59 92 60 93 64 94 67 95 61 96 62 97 65 98
REMARK SMILES IDX 63 99
REMARK H PARENT 23 7 19 15 19 16 28 33 87 52 55 63
REMARK Flexibility Score: inf
ROOT
ATOM      1  C   UNL A   1      37.861  19.853  24.982  1.00  0.00     0.023 C 
ENDROOT
BRANCH   1   2
ATOM      2  C   UNL A   1      36.746  20.890  24.897  1.00  0.00     0.023 C 
BRANCH   2   3
ATOM      3  C   UNL A   1      37.160  22.259  24.366  1.00  0.00     0.116 C 
BRANCH   3   4
ATOM      4  N   UNL A   1      36.215  22.787  23.398  1.00  0.00    -0.351 N 
ATOM      5  C   UNL A   1      35.083  23.533  23.558  1.00  0.00     0.279 C 
ATOM      6  O   UNL A   1      34.469  23.779  22.517  1.00  0.00    -0.268 OA
ATOM      7  H   UNL A   1      36.428  22.568  22.463  1.00  0.00     0.163 HD
BRANCH   5   8
ATOM      8  C   UNL A   1      34.538  23.920  24.965  1.00  0.00     0.289 C 
ATOM      9  C   UNL A   1      32.963  23.373  26.896  1.00  0.00     0.030 C 
ATOM     10  C   UNL A   1      33.136  23.368  25.361  1.00  0.00     0.077 C 
ATOM     11  C   UNL A   1      32.761  21.976  24.852  1.00  0.00     0.030 C 
ATOM     12  S   UNL A   1      31.977  24.618  24.683  1.00  0.00    -0.081 SA
ATOM     13  C   UNL A   1      33.272  25.859  24.419  1.00  0.00     0.276 C 
ATOM     14  N   UNL A   1      34.462  25.398  25.139  1.00  0.00    -0.320 N 
ATOM     15  H   UNL A   1      34.383  25.630  26.129  1.00  0.00     0.348 HD
ATOM     16  H   UNL A   1      35.303  25.848  24.776  1.00  0.00     0.348 HD
BRANCH  13  17
ATOM     17  C   UNL A   1      32.889  27.263  24.854  1.00  0.00     0.038 A 
ATOM     18  C   UNL A   1      33.669  27.941  25.824  1.00  0.00     0.012 A 
ATOM     19  C   UNL A   1      31.794  27.986  24.298  1.00  0.00     0.046 A 
ATOM     20  C   UNL A   1      33.383  29.234  26.229  1.00  0.00     0.001 A 
ATOM     21  C   UNL A   1      31.472  29.285  24.707  1.00  0.00     0.001 A 
ATOM     22  S   UNL A   1      30.701  27.464  23.066  1.00  0.00    -0.135 S 
ATOM     23  C   UNL A   1      32.292  29.902  25.687  1.00  0.00     0.010 A 
ATOM     24  C   UNL A   1      30.294  29.808  24.037  1.00  0.00     0.000 A 
ATOM     25  C   UNL A   1      29.785  28.909  23.102  1.00  0.00     0.036 A 
ATOM     26  C   UNL A   1      29.624  31.050  24.192  1.00  0.00     0.010 A 
ATOM     27  C   UNL A   1      28.653  29.216  22.320  1.00  0.00     0.019 A 
ATOM     28  C   UNL A   1      28.494  31.356  23.428  1.00  0.00     0.001 A 
ATOM     29  C   UNL A   1      28.017  30.447  22.497  1.00  0.00     0.002 A 
ENDBRANCH  13  17
ENDBRANCH   5   8
ENDBRANCH   3   4
ENDBRANCH   2   3
ENDBRANCH   1   2
BRANCH   1  30
ATOM     30  C   UNL A   1      39.095  20.290  25.759  1.00  0.00     0.116 C 
BRANCH  30  31
ATOM     31  N   UNL A   1      40.110  19.250  25.842  1.00  0.00    -0.352 N 
ATOM     32  C   UNL A   1      41.454  19.363  26.102  1.00  0.00     0.251 C 
ATOM     33  H   UNL A   1      39.788  18.333  25.690  1.00  0.00     0.163 HD
ATOM     34  O   UNL A   1      42.194  18.391  25.983  1.00  0.00    -0.269 OA
BRANCH  32  35
ATOM     35  C   UNL A   1      42.017  20.670  26.503  1.00  0.00     0.039 A 
ATOM     36  C   UNL A   1      42.415  21.570  25.512  1.00  0.00     0.014 A 
ATOM     37  C   UNL A   1      42.143  21.010  27.852  1.00  0.00     0.014 A 
ATOM     38  C   UNL A   1      42.880  22.836  25.875  1.00  0.00     0.010 A 
ATOM     39  C   UNL A   1      42.516  22.301  28.208  1.00  0.00     0.010 A 
ATOM     40  C   UNL A   1      42.902  23.225  27.225  1.00  0.00    -0.014 A 
BRANCH  40  41
ATOM     41  C   UNL A   1      43.353  24.579  27.632  1.00  0.00     0.031 A 
ATOM     42  C   UNL A   1      42.338  25.635  27.980  1.00  0.00     0.074 A 
ATOM     43  C   UNL A   1      44.667  24.879  27.632  1.00  0.00     0.049 A 
ATOM     44  N   UNL A   1      42.523  26.894  28.292  1.00  0.00    -0.248 NA
ATOM     45  C   UNL A   1      40.925  25.230  27.942  1.00  0.00     0.031 C 
ATOM     46  C   UNL A   1      45.745  23.960  27.270  1.00  0.00     0.029 A 
ATOM     47  N   UNL A   1      45.317  26.049  27.940  1.00  0.00    -0.354 N 
ATOM     48  C   UNL A   1      41.253  27.427  28.471  1.00  0.00     0.074 A 
ATOM     49  C   UNL A   1      40.306  26.378  28.168  1.00  0.00     0.031 C 
ATOM     50  C   UNL A   1      46.923  24.590  27.402  1.00  0.00     0.029 A 
ATOM     51  C   UNL A   1      46.683  25.969  27.817  1.00  0.00     0.049 A 
ATOM     52  H   UNL A   1      44.849  26.868  28.223  1.00  0.00     0.167 HD
ATOM     53  C   UNL A   1      40.907  28.672  28.877  1.00  0.00     0.037 A 
ATOM     54  C   UNL A   1      47.632  26.905  28.011  1.00  0.00     0.037 A 
ATOM     55  C   UNL A   1      41.854  29.707  29.199  1.00  0.00     0.049 A 
ATOM     56  C   UNL A   1      47.221  28.285  28.453  1.00  0.00     0.074 A 
ATOM     57  C   UNL A   1      41.608  30.986  29.667  1.00  0.00     0.029 A 
ATOM     58  N   UNL A   1      43.231  29.583  29.081  1.00  0.00    -0.354 N 
ATOM     59  N   UNL A   1      46.020  28.759  28.683  1.00  0.00    -0.248 NA
ATOM     60  C   UNL A   1      48.300  29.255  28.675  1.00  0.00     0.031 C 
ATOM     61  C   UNL A   1      42.833  31.652  29.781  1.00  0.00     0.029 A 
ATOM     62  C   UNL A   1      43.847  30.768  29.449  1.00  0.00     0.049 A 
ATOM     63  H   UNL A   1      43.700  28.771  28.780  1.00  0.00     0.167 HD
ATOM     64  C   UNL A   1      46.202  30.067  29.112  1.00  0.00     0.074 A 
ATOM     65  C   UNL A   1      47.630  30.307  29.123  1.00  0.00     0.031 C 
ATOM     66  C   UNL A   1      45.271  30.986  29.469  1.00  0.00     0.037 A 
BRANCH  53  67
ATOM     67  C   UNL A   1      39.442  28.981  28.998  1.00  0.00     0.064 A 
ATOM     68  C   UNL A   1      38.766  28.889  30.227  1.00  0.00     0.173 A 
ATOM     69  C   UNL A   1      38.706  29.399  27.879  1.00  0.00     0.173 A 
ATOM     70  F   UNL A   1      39.418  28.482  31.327  1.00  0.00    -0.203 F 
ATOM     71  C   UNL A   1      37.406  29.169  30.321  1.00  0.00     0.198 A 
ATOM     72  C   UNL A   1      37.353  29.714  27.985  1.00  0.00     0.198 A 
ATOM     73  F   UNL A   1      39.301  29.509  26.681  1.00  0.00    -0.203 F 
ATOM     74  F   UNL A   1      36.773  29.016  31.492  1.00  0.00    -0.200 F 
ATOM     75  C   UNL A   1      36.703  29.588  29.202  1.00  0.00     0.200 A 
ATOM     76  F   UNL A   1      36.679  30.134  26.906  1.00  0.00    -0.200 F 
ATOM     77  F   UNL A   1      35.395  29.865  29.297  1.00  0.00    -0.200 F 
ENDBRANCH  53  67
BRANCH  54  78
ATOM     78  C   UNL A   1      49.067  26.564  27.817  1.00  0.00     0.064 A 
ATOM     79  C   UNL A   1      49.616  26.465  26.531  1.00  0.00     0.173 A 
ATOM     80  C   UNL A   1      49.914  26.315  28.906  1.00  0.00     0.173 A 
ATOM     81  F   UNL A   1      48.842  26.674  25.455  1.00  0.00    -0.203 F 
ATOM     82  C   UNL A   1      50.948  26.102  26.340  1.00  0.00     0.198 A 
ATOM     83  C   UNL A   1      51.254  25.984  28.717  1.00  0.00     0.198 A 
ATOM     84  F   UNL A   1      49.441  26.402  30.159  1.00  0.00    -0.203 F 
ATOM     85  F   UNL A   1      51.430  25.960  25.098  1.00  0.00    -0.200 F 
ATOM     86  C   UNL A   1      51.767  25.867  27.434  1.00  0.00     0.200 A 
ATOM     87  F   UNL A   1      52.047  25.774  29.776  1.00  0.00    -0.200 F 
ATOM     88  F   UNL A   1      53.048  25.519  27.250  1.00  0.00    -0.200 F 
ENDBRANCH  54  78
BRANCH  66  89
ATOM     89  C   UNL A   1      45.768  32.319  29.958  1.00  0.00     0.064 A 
ATOM     90  C   UNL A   1      46.066  32.552  31.308  1.00  0.00     0.173 A 
ATOM     91  C   UNL A   1      45.976  33.369  29.050  1.00  0.00     0.173 A 
ATOM     92  F   UNL A   1      45.873  31.586  32.219  1.00  0.00    -0.203 F 
ATOM     93  C   UNL A   1      46.519  33.797  31.736  1.00  0.00     0.198 A 
ATOM     94  C   UNL A   1      46.463  34.601  29.476  1.00  0.00     0.198 A 
ATOM     95  F   UNL A   1      45.715  33.197  27.744  1.00  0.00    -0.203 F 
ATOM     96  F   UNL A   1      46.739  34.016  33.040  1.00  0.00    -0.200 F 
ATOM     97  C   UNL A   1      46.723  34.818  30.820  1.00  0.00     0.200 A 
ATOM     98  F   UNL A   1      46.677  35.579  28.585  1.00  0.00    -0.200 F 
ATOM     99  F   UNL A   1      47.165  36.014  31.233  1.00  0.00    -0.200 F 
ENDBRANCH  66  89
ENDBRANCH  40  41
ENDBRANCH  32  35
ENDBRANCH  30  31
ENDBRANCH   1  30
TORSDOF 12
ENDMDL
MODEL 3
REMARK VINA RESULT:     -13.9      0.504      7.170
REMARK SMILES CC1(C)S[C@@H](c2cccc3c2sc2ccccc23)[NH2+][C@@H]1C(=O)NCCCCNC(=O)c1ccc(-c2c3nc(c(-c4c(F)c(F)c(F)c(F)c4F)c4ccc([nH]4)c(-c4c(F)c(F)c(F)c(F)c4F)c4nc(c(-c5c(F)c(F)c(F)c(F)c5F)c5ccc2[nH]5)C=C4)C=C3)cc1
REMARK SMILES IDX 26 1 25 2 24 3 23 4 21 5 22 6 20 8 1 9 2 10 3 11 4 12 5 13
REMARK SMILES IDX 19 14 6 17 7 18 11 19 8 20 10 21 12 22 9 23 18 24 13 25
REMARK SMILES IDX 17 26 14 27 16 28 15 29 27 30 28 31 29 32 30 34 31 35 32 36
REMARK SMILES IDX 93 37 33 38 92 39 34 40 35 41 36 42 86 43 37 44 91 45 85 46
REMARK SMILES IDX 87 47 38 48 90 49 84 50 83 51 39 53 71 54 51 55 70 56 52 57
REMARK SMILES IDX 55 58 69 59 88 60 53 61 54 62 68 64 89 65 56 66 40 67 41 68
REMARK SMILES IDX 49 69 42 70 43 71 47 72 50 73 44 74 45 75 48 76 46 77 72 78
REMARK SMILES IDX 73 79 81 80 74 81 75 82 79 83 82 84 76 85 77 86 80 87 78 88
REMARK SMILES IDX 57 89 58 90 66 91 59 92 60 93 64 94 67 95 61 96 62 97 65 98
REMARK SMILES IDX 63 99
REMARK H PARENT 23 7 19 15 19 16 28 33 87 52 55 63
REMARK Flexibility Score: inf
ROOT
ATOM      1  C   UNL A   1      31.338  32.267  26.540  1.00  0.00     0.023 C 
ENDROOT
BRANCH   1   2
ATOM      2  C   UNL A   1      31.460  30.812  26.102  1.00  0.00     0.023 C 
BRANCH   2   3
ATOM      3  C   UNL A   1      32.278  29.913  27.024  1.00  0.00     0.116 C 
BRANCH   3   4
ATOM      4  N   UNL A   1      31.686  28.597  27.183  1.00  0.00    -0.351 N 
ATOM      5  C   UNL A   1      31.960  27.406  26.574  1.00  0.00     0.279 C 
ATOM      6  O   UNL A   1      31.228  26.470  26.905  1.00  0.00    -0.268 OA
ATOM      7  H   UNL A   1      30.960  28.556  27.845  1.00  0.00     0.163 HD
BRANCH   5   8
ATOM      8  C   UNL A   1      33.025  27.279  25.444  1.00  0.00     0.289 C 
ATOM      9  C   UNL A   1      33.549  27.379  22.950  1.00  0.00     0.030 C 
ATOM     10  C   UNL A   1      32.506  26.962  24.010  1.00  0.00     0.077 C 
ATOM     11  C   UNL A   1      31.160  27.563  23.603  1.00  0.00     0.030 C 
ATOM     12  S   UNL A   1      32.410  25.131  23.983  1.00  0.00    -0.081 SA
ATOM     13  C   UNL A   1      33.414  24.932  25.481  1.00  0.00     0.276 C 
ATOM     14  N   UNL A   1      34.036  26.229  25.756  1.00  0.00    -0.320 N 
ATOM     15  H   UNL A   1      34.861  26.353  25.169  1.00  0.00     0.348 HD
ATOM     16  H   UNL A   1      34.331  26.291  26.731  1.00  0.00     0.348 HD
BRANCH  13  17
ATOM     17  C   UNL A   1      34.465  23.840  25.386  1.00  0.00     0.038 A 
ATOM     18  C   UNL A   1      35.833  24.155  25.574  1.00  0.00     0.012 A 
ATOM     19  C   UNL A   1      34.153  22.466  25.166  1.00  0.00     0.046 A 
ATOM     20  C   UNL A   1      36.826  23.191  25.533  1.00  0.00     0.001 A 
ATOM     21  C   UNL A   1      35.140  21.477  25.098  1.00  0.00     0.001 A 
ATOM     22  S   UNL A   1      32.590  21.758  24.962  1.00  0.00    -0.135 S 
ATOM     23  C   UNL A   1      36.491  21.865  25.290  1.00  0.00     0.010 A 
ATOM     24  C   UNL A   1      34.595  20.159  24.824  1.00  0.00     0.000 A 
ATOM     25  C   UNL A   1      33.205  20.177  24.740  1.00  0.00     0.036 A 
ATOM     26  C   UNL A   1      35.251  18.913  24.642  1.00  0.00     0.010 A 
ATOM     27  C   UNL A   1      32.462  19.004  24.498  1.00  0.00     0.019 A 
ATOM     28  C   UNL A   1      34.522  17.748  24.390  1.00  0.00     0.001 A 
ATOM     29  C   UNL A   1      33.139  17.794  24.324  1.00  0.00     0.002 A 
ENDBRANCH  13  17
ENDBRANCH   5   8
ENDBRANCH   3   4
ENDBRANCH   2   3
ENDBRANCH   1   2
BRANCH   1  30
ATOM     30  C   UNL A   1      32.576  32.849  27.208  1.00  0.00     0.116 C 
BRANCH  30  31
ATOM     31  N   UNL A   1      32.381  34.214  27.673  1.00  0.00    -0.352 N 
ATOM     32  C   UNL A   1      33.025  34.893  28.678  1.00  0.00     0.251 C 
ATOM     33  H   UNL A   1      31.687  34.726  27.198  1.00  0.00     0.163 HD
ATOM     34  O   UNL A   1      32.625  35.997  29.038  1.00  0.00    -0.269 OA
BRANCH  32  35
ATOM     35  C   UNL A   1      34.190  34.280  29.350  1.00  0.00     0.039 A 
ATOM     36  C   UNL A   1      33.981  33.472  30.470  1.00  0.00     0.014 A 
ATOM     37  C   UNL A   1      35.484  34.492  28.869  1.00  0.00     0.014 A 
ATOM     38  C   UNL A   1      35.065  32.827  31.068  1.00  0.00     0.010 A 
ATOM     39  C   UNL A   1      36.548  33.777  29.408  1.00  0.00     0.010 A 
ATOM     40  C   UNL A   1      36.353  32.946  30.522  1.00  0.00    -0.014 A 
BRANCH  40  41
ATOM     41  C   UNL A   1      37.514  32.238  31.117  1.00  0.00     0.031 A 
ATOM     42  C   UNL A   1      38.008  32.625  32.485  1.00  0.00     0.074 A 
ATOM     43  C   UNL A   1      38.162  31.292  30.409  1.00  0.00     0.049 A 
ATOM     44  N   UNL A   1      39.043  32.178  33.152  1.00  0.00    -0.248 NA
ATOM     45  C   UNL A   1      37.253  33.675  33.186  1.00  0.00     0.031 C 
ATOM     46  C   UNL A   1      37.812  30.860  29.055  1.00  0.00     0.029 A 
ATOM     47  N   UNL A   1      39.257  30.529  30.728  1.00  0.00    -0.354 N 
ATOM     48  C   UNL A   1      39.069  32.904  34.336  1.00  0.00     0.074 A 
ATOM     49  C   UNL A   1      37.990  33.863  34.270  1.00  0.00     0.031 C 
ATOM     50  C   UNL A   1      38.658  29.891  28.670  1.00  0.00     0.029 A 
ATOM     51  C   UNL A   1      39.634  29.662  29.731  1.00  0.00     0.049 A 
ATOM     52  H   UNL A   1      39.728  30.595  31.590  1.00  0.00     0.167 HD
ATOM     53  C   UNL A   1      39.901  32.765  35.395  1.00  0.00     0.037 A 
ATOM     54  C   UNL A   1      40.657  28.787  29.677  1.00  0.00     0.037 A 
ATOM     55  C   UNL A   1      40.961  31.793  35.467  1.00  0.00     0.049 A 
ATOM     56  C   UNL A   1      41.575  28.658  30.865  1.00  0.00     0.074 A 
ATOM     57  C   UNL A   1      41.828  31.537  36.514  1.00  0.00     0.029 A 
ATOM     58  N   UNL A   1      41.301  30.919  34.444  1.00  0.00    -0.354 N 
ATOM     59  N   UNL A   1      41.550  29.303  32.006  1.00  0.00    -0.248 NA
ATOM     60  C   UNL A   1      42.656  27.670  30.759  1.00  0.00     0.031 C 
ATOM     61  C   UNL A   1      42.726  30.546  36.106  1.00  0.00     0.029 A 
ATOM     62  C   UNL A   1      42.377  30.136  34.829  1.00  0.00     0.049 A 
ATOM     63  H   UNL A   1      40.843  30.863  33.574  1.00  0.00     0.167 HD
ATOM     64  C   UNL A   1      42.583  28.772  32.767  1.00  0.00     0.074 A 
ATOM     65  C   UNL A   1      43.207  27.743  31.962  1.00  0.00     0.031 C 
ATOM     66  C   UNL A   1      42.978  29.104  34.022  1.00  0.00     0.037 A 
BRANCH  53  67
ATOM     67  C   UNL A   1      39.696  33.685  36.565  1.00  0.00     0.064 A 
ATOM     68  C   UNL A   1      40.304  34.950  36.626  1.00  0.00     0.173 A 
ATOM     69  C   UNL A   1      38.860  33.312  37.629  1.00  0.00     0.173 A 
ATOM     70  F   UNL A   1      41.122  35.354  35.643  1.00  0.00    -0.203 F 
ATOM     71  C   UNL A   1      40.111  35.788  37.721  1.00  0.00     0.198 A 
ATOM     72  C   UNL A   1      38.641  34.167  38.705  1.00  0.00     0.198 A 
ATOM     73  F   UNL A   1      38.249  32.116  37.621  1.00  0.00    -0.203 F 
ATOM     74  F   UNL A   1      40.750  36.964  37.782  1.00  0.00    -0.200 F 
ATOM     75  C   UNL A   1      39.274  35.399  38.756  1.00  0.00     0.200 A 
ATOM     76  F   UNL A   1      37.819  33.796  39.697  1.00  0.00    -0.200 F 
ATOM     77  F   UNL A   1      39.084  36.210  39.806  1.00  0.00    -0.200 F 
ENDBRANCH  53  67
BRANCH  54  78
ATOM     78  C   UNL A   1      40.854  27.942  28.469  1.00  0.00     0.064 A 
ATOM     79  C   UNL A   1      41.658  28.380  27.407  1.00  0.00     0.173 A 
ATOM     80  C   UNL A   1      40.233  26.691  28.341  1.00  0.00     0.173 A 
ATOM     81  F   UNL A   1      42.258  29.578  27.472  1.00  0.00    -0.203 F 
ATOM     82  C   UNL A   1      41.810  27.614  26.253  1.00  0.00     0.198 A 
ATOM     83  C   UNL A   1      40.412  25.911  27.201  1.00  0.00     0.198 A 
ATOM     84  F   UNL A   1      39.458  26.222  29.330  1.00  0.00    -0.203 F 
ATOM     85  F   UNL A   1      42.539  28.083  25.231  1.00  0.00    -0.200 F 
ATOM     86  C   UNL A   1      41.191  26.377  26.154  1.00  0.00     0.200 A 
ATOM     87  F   UNL A   1      39.826  24.709  27.115  1.00  0.00    -0.200 F 
ATOM     88  F   UNL A   1      41.339  25.640  25.044  1.00  0.00    -0.200 F 
ENDBRANCH  54  78
BRANCH  66  89
ATOM     89  C   UNL A   1      44.101  28.308  34.626  1.00  0.00     0.064 A 
ATOM     90  C   UNL A   1      45.439  28.720  34.532  1.00  0.00     0.173 A 
ATOM     91  C   UNL A   1      43.827  27.130  35.336  1.00  0.00     0.173 A 
ATOM     92  F   UNL A   1      45.758  29.832  33.853  1.00  0.00    -0.203 F 
ATOM     93  C   UNL A   1      46.462  27.961  35.094  1.00  0.00     0.198 A 
ATOM     94  C   UNL A   1      44.848  26.394  35.929  1.00  0.00     0.198 A 
ATOM     95  F   UNL A   1      42.563  26.695  35.466  1.00  0.00    -0.203 F 
ATOM     96  F   UNL A   1      47.738  28.341  34.939  1.00  0.00    -0.200 F 
ATOM     97  C   UNL A   1      46.166  26.804  35.798  1.00  0.00     0.200 A 
ATOM     98  F   UNL A   1      44.557  25.286  36.625  1.00  0.00    -0.200 F 
ATOM     99  F   UNL A   1      47.151  26.078  36.345  1.00  0.00    -0.200 F 
ENDBRANCH  66  89
ENDBRANCH  40  41
ENDBRANCH  32  35
ENDBRANCH  30  31
ENDBRANCH   1  30
TORSDOF 12
ENDMDL
