MODEL 1
REMARK VINA RESULT:     -12.9      0.000      0.000
REMARK SMILES NC(=O)[C@@H]1CCC[N@@H+]1[C@@H](C(=O)NCCCCNC(=O)c1ccc(-c2c3nc(c(-c4c(F)c(F)c(F)c(F)c4F)c4ccc([nH]4)c(-c4c(F)c(F)c(F)c(F)c4F)c4nc(c(-c5c(F)c(F)c(F)c(F)c5F)c5ccc2[nH]5)C=C4)C=C3)cc1)c1c[nH]c2cc(OCc3ccccc3)ccc12
REMARK SMILES IDX 13 1 12 2 10 3 11 4 9 6 8 7 4 8 5 9 6 10 7 11 2 13 1 14 3 17
REMARK SMILES IDX 83 18 84 19 99 20 85 21 86 22 98 23 87 25 97 26 88 27 89 28
REMARK SMILES IDX 90 29 91 30 92 31 96 32 93 33 95 34 94 35 14 36 15 37 16 38
REMARK SMILES IDX 17 39 18 40 19 42 20 43 21 44 82 45 22 46 81 47 23 48 24 49
REMARK SMILES IDX 25 50 75 51 26 52 80 53 74 54 76 55 27 56 79 57 73 58 72 59
REMARK SMILES IDX 28 61 60 62 40 63 59 64 41 65 44 66 58 67 77 68 42 69 43 70
REMARK SMILES IDX 57 72 78 73 45 74 29 75 30 76 38 77 31 78 32 79 36 80 39 81
REMARK SMILES IDX 33 82 34 83 37 84 35 85 61 86 62 87 70 88 63 89 64 90 68 91
REMARK SMILES IDX 71 92 65 93 66 94 69 95 67 96 46 97 47 98 55 99 48 100
REMARK SMILES IDX 49 101 53 102 56 103 50 104 51 105 54 106 52 107
REMARK H PARENT 12 5 8 12 1 15 1 16 85 24 17 41 76 60 44 71
REMARK Flexibility Score: inf
ROOT
ATOM      1  C   UNL A   1      34.038  27.018  25.761  1.00  0.00     0.116 C 
ENDROOT
BRANCH   1   2
ATOM      2  N   UNL A   1      34.069  26.420  24.437  1.00  0.00    -0.351 N 
ATOM      3  C   UNL A   1      34.030  25.174  23.885  1.00  0.00     0.283 C 
ATOM      4  O   UNL A   1      34.208  25.238  22.662  1.00  0.00    -0.268 OA
ATOM      5  H   UNL A   1      34.136  27.112  23.740  1.00  0.00     0.163 HD
BRANCH   3   6
ATOM      6  C   UNL A   1      33.775  23.826  24.652  1.00  0.00     0.308 C 
BRANCH   6   7
ATOM      7  N   UNL A   1      34.670  22.649  24.271  1.00  0.00    -0.311 N 
ATOM      8  C   UNL A   1      35.240  21.777  25.315  1.00  0.00     0.275 C 
ATOM      9  C   UNL A   1      36.520  22.496  25.750  1.00  0.00     0.081 C 
ATOM     10  C   UNL A   1      36.984  23.235  24.507  1.00  0.00     0.068 C 
ATOM     11  C   UNL A   1      35.893  22.945  23.505  1.00  0.00     0.264 C 
ATOM     12  H   UNL A   1      33.920  22.196  23.749  1.00  0.00     0.349 HD
BRANCH   8  13
ATOM     13  C   UNL A   1      34.259  21.138  26.300  1.00  0.00     0.275 C 
ATOM     14  N   UNL A   1      33.613  20.021  25.834  1.00  0.00    -0.365 N 
ATOM     15  H   UNL A   1      32.965  19.552  26.408  1.00  0.00     0.159 HD
ATOM     16  H   UNL A   1      33.796  19.689  24.925  1.00  0.00     0.159 HD
ATOM     17  O   UNL A   1      33.961  21.579  27.405  1.00  0.00    -0.268 OA
ENDBRANCH   8  13
ENDBRANCH   6   7
BRANCH   6  18
ATOM     18  C   UNL A   1      32.286  23.292  24.497  1.00  0.00     0.044 A 
ATOM     19  C   UNL A   1      31.848  22.340  23.576  1.00  0.00     0.094 A 
ATOM     20  C   UNL A   1      31.046  23.974  24.768  1.00  0.00     0.009 A 
ATOM     21  N   UNL A   1      31.026  23.095  22.752  1.00  0.00    -0.361 N 
ATOM     22  C   UNL A   1      30.501  24.126  23.493  1.00  0.00     0.050 A 
ATOM     23  C   UNL A   1      30.470  24.711  25.817  1.00  0.00     0.015 A 
ATOM     24  H   UNL A   1      30.849  22.920  21.800  1.00  0.00     0.166 HD
ATOM     25  C   UNL A   1      29.749  25.251  23.149  1.00  0.00     0.073 A 
ATOM     26  C   UNL A   1      29.593  25.762  25.519  1.00  0.00     0.047 A 
ATOM     27  C   UNL A   1      29.359  26.102  24.191  1.00  0.00     0.121 A 
BRANCH  27  28
ATOM     28  O   UNL A   1      28.941  27.350  23.807  1.00  0.00    -0.489 OA
BRANCH  28  29
ATOM     29  C   UNL A   1      29.857  28.114  23.022  1.00  0.00     0.265 C 
BRANCH  29  30
ATOM     30  C   UNL A   1      29.387  29.539  22.831  1.00  0.00    -0.011 A 
ATOM     31  C   UNL A   1      29.529  30.459  23.876  1.00  0.00     0.007 A 
ATOM     32  C   UNL A   1      28.828  29.980  21.622  1.00  0.00     0.007 A 
ATOM     33  C   UNL A   1      29.060  31.765  23.733  1.00  0.00     0.000 A 
ATOM     34  C   UNL A   1      28.331  31.273  21.488  1.00  0.00     0.000 A 
ATOM     35  C   UNL A   1      28.443  32.165  22.548  1.00  0.00     0.000 A 
ENDBRANCH  29  30
ENDBRANCH  28  29
ENDBRANCH  27  28
ENDBRANCH   6  18
ENDBRANCH   3   6
ENDBRANCH   1   2
BRANCH   1  36
ATOM     36  C   UNL A   1      32.620  27.303  26.298  1.00  0.00     0.023 C 
BRANCH  36  37
ATOM     37  C   UNL A   1      32.064  28.715  26.058  1.00  0.00     0.023 C 
BRANCH  37  38
ATOM     38  C   UNL A   1      33.177  29.725  25.923  1.00  0.00     0.116 C 
BRANCH  38  39
ATOM     39  N   UNL A   1      32.774  31.067  26.311  1.00  0.00    -0.352 N 
ATOM     40  C   UNL A   1      33.375  31.887  27.251  1.00  0.00     0.251 C 
ATOM     41  H   UNL A   1      31.983  31.435  25.854  1.00  0.00     0.163 HD
ATOM     42  O   UNL A   1      32.885  32.932  27.584  1.00  0.00    -0.269 OA
BRANCH  40  43
ATOM     43  C   UNL A   1      34.630  31.394  27.874  1.00  0.00     0.039 A 
ATOM     44  C   UNL A   1      35.703  32.272  28.018  1.00  0.00     0.014 A 
ATOM     45  C   UNL A   1      34.701  30.094  28.374  1.00  0.00     0.014 A 
ATOM     46  C   UNL A   1      36.835  31.851  28.715  1.00  0.00     0.010 A 
ATOM     47  C   UNL A   1      35.764  29.724  29.178  1.00  0.00     0.010 A 
ATOM     48  C   UNL A   1      36.861  30.583  29.321  1.00  0.00    -0.014 A 
BRANCH  48  49
ATOM     49  C   UNL A   1      38.061  30.087  30.027  1.00  0.00     0.031 A 
ATOM     50  C   UNL A   1      38.310  30.538  31.441  1.00  0.00     0.074 A 
ATOM     51  C   UNL A   1      38.939  29.295  29.386  1.00  0.00     0.049 A 
ATOM     52  N   UNL A   1      39.326  30.287  32.226  1.00  0.00    -0.248 NA
ATOM     53  C   UNL A   1      37.303  31.431  32.040  1.00  0.00     0.031 C 
ATOM     54  C   UNL A   1      38.826  28.854  27.995  1.00  0.00     0.029 A 
ATOM     55  N   UNL A   1      40.104  28.720  29.824  1.00  0.00    -0.354 N 
ATOM     56  C   UNL A   1      39.087  31.009  33.388  1.00  0.00     0.074 A 
ATOM     57  C   UNL A   1      37.878  31.771  33.181  1.00  0.00     0.031 C 
ATOM     58  C   UNL A   1      39.859  28.047  27.705  1.00  0.00     0.029 A 
ATOM     59  C   UNL A   1      40.721  27.940  28.878  1.00  0.00     0.049 A 
ATOM     60  H   UNL A   1      40.464  28.854  30.730  1.00  0.00     0.167 HD
ATOM     61  C   UNL A   1      39.792  31.004  34.543  1.00  0.00     0.037 A 
ATOM     62  C   UNL A   1      41.854  27.217  28.961  1.00  0.00     0.037 A 
ATOM     63  C   UNL A   1      40.965  30.201  34.751  1.00  0.00     0.049 A 
ATOM     64  C   UNL A   1      42.599  27.197  30.268  1.00  0.00     0.074 A 
ATOM     65  C   UNL A   1      41.730  30.066  35.894  1.00  0.00     0.029 A 
ATOM     66  N   UNL A   1      41.534  29.383  33.785  1.00  0.00    -0.354 N 
ATOM     67  N   UNL A   1      42.329  27.828  31.387  1.00  0.00    -0.248 NA
ATOM     68  C   UNL A   1      43.798  26.351  30.332  1.00  0.00     0.031 C 
ATOM     69  C   UNL A   1      42.786  29.195  35.608  1.00  0.00     0.029 A 
ATOM     70  C   UNL A   1      42.647  28.746  34.302  1.00  0.00     0.049 A 
ATOM     71  H   UNL A   1      41.196  29.273  32.866  1.00  0.00     0.167 HD
ATOM     72  C   UNL A   1      43.298  27.429  32.295  1.00  0.00     0.074 A 
ATOM     73  C   UNL A   1      44.157  26.491  31.600  1.00  0.00     0.031 C 
ATOM     74  C   UNL A   1      43.467  27.801  33.589  1.00  0.00     0.037 A 
BRANCH  61  75
ATOM     75  C   UNL A   1      39.301  31.879  35.660  1.00  0.00     0.064 A 
ATOM     76  C   UNL A   1      39.736  33.208  35.803  1.00  0.00     0.173 A 
ATOM     77  C   UNL A   1      38.381  31.389  36.599  1.00  0.00     0.173 A 
ATOM     78  F   UNL A   1      40.631  33.721  34.944  1.00  0.00    -0.203 F 
ATOM     79  C   UNL A   1      39.298  33.998  36.863  1.00  0.00     0.198 A 
ATOM     80  C   UNL A   1      37.918  32.194  37.636  1.00  0.00     0.198 A 
ATOM     81  F   UNL A   1      37.932  30.129  36.511  1.00  0.00    -0.203 F 
ATOM     82  F   UNL A   1      39.778  35.240  37.013  1.00  0.00    -0.200 F 
ATOM     83  C   UNL A   1      38.383  33.493  37.774  1.00  0.00     0.200 A 
ATOM     84  F   UNL A   1      37.025  31.708  38.510  1.00  0.00    -0.200 F 
ATOM     85  F   UNL A   1      37.959  34.256  38.790  1.00  0.00    -0.200 F 
ENDBRANCH  61  75
BRANCH  62  86
ATOM     86  C   UNL A   1      42.315  26.416  27.797  1.00  0.00     0.064 A 
ATOM     87  C   UNL A   1      41.792  25.139  27.549  1.00  0.00     0.173 A 
ATOM     88  C   UNL A   1      43.285  26.905  26.909  1.00  0.00     0.173 A 
ATOM     89  F   UNL A   1      40.872  24.620  28.376  1.00  0.00    -0.203 F 
ATOM     90  C   UNL A   1      42.238  24.372  26.475  1.00  0.00     0.198 A 
ATOM     91  C   UNL A   1      43.710  26.149  25.819  1.00  0.00     0.198 A 
ATOM     92  F   UNL A   1      43.810  28.125  27.095  1.00  0.00    -0.203 F 
ATOM     93  F   UNL A   1      41.753  23.136  26.290  1.00  0.00    -0.200 F 
ATOM     94  C   UNL A   1      43.193  24.879  25.608  1.00  0.00     0.200 A 
ATOM     95  F   UNL A   1      44.621  26.649  24.974  1.00  0.00    -0.200 F 
ATOM     96  F   UNL A   1      43.620  24.142  24.572  1.00  0.00    -0.200 F 
ENDBRANCH  62  86
BRANCH  74  97
ATOM     97  C   UNL A   1      44.587  27.152  34.347  1.00  0.00     0.064 A 
ATOM     98  C   UNL A   1      44.415  25.937  35.024  1.00  0.00     0.173 A 
ATOM     99  C   UNL A   1      45.863  27.736  34.353  1.00  0.00     0.173 A 
ATOM    100  F   UNL A   1      43.211  25.347  35.057  1.00  0.00    -0.203 F 
ATOM    101  C   UNL A   1      45.473  25.346  35.707  1.00  0.00     0.198 A 
ATOM    102  C   UNL A   1      46.927  27.125  35.008  1.00  0.00     0.198 A 
ATOM    103  F   UNL A   1      46.081  28.894  33.710  1.00  0.00    -0.203 F 
ATOM    104  F   UNL A   1      45.276  24.211  36.391  1.00  0.00    -0.200 F 
ATOM    105  C   UNL A   1      46.729  25.936  35.692  1.00  0.00     0.200 A 
ATOM    106  F   UNL A   1      48.143  27.688  34.978  1.00  0.00    -0.200 F 
ATOM    107  F   UNL A   1      47.749  25.359  36.343  1.00  0.00    -0.200 F 
ENDBRANCH  74  97
ENDBRANCH  48  49
ENDBRANCH  40  43
ENDBRANCH  38  39
ENDBRANCH  37  38
ENDBRANCH  36  37
ENDBRANCH   1  36
TORSDOF 17
ENDMDL
MODEL 2
REMARK VINA RESULT:     -12.9      1.060      2.011
REMARK SMILES NC(=O)[C@@H]1CCC[N@@H+]1[C@@H](C(=O)NCCCCNC(=O)c1ccc(-c2c3nc(c(-c4c(F)c(F)c(F)c(F)c4F)c4ccc([nH]4)c(-c4c(F)c(F)c(F)c(F)c4F)c4nc(c(-c5c(F)c(F)c(F)c(F)c5F)c5ccc2[nH]5)C=C4)C=C3)cc1)c1c[nH]c2cc(OCc3ccccc3)ccc12
REMARK SMILES IDX 13 1 12 2 10 3 11 4 9 6 8 7 4 8 5 9 6 10 7 11 2 13 1 14 3 17
REMARK SMILES IDX 83 18 84 19 99 20 85 21 86 22 98 23 87 25 97 26 88 27 89 28
REMARK SMILES IDX 90 29 91 30 92 31 96 32 93 33 95 34 94 35 14 36 15 37 16 38
REMARK SMILES IDX 17 39 18 40 19 42 20 43 21 44 82 45 22 46 81 47 23 48 24 49
REMARK SMILES IDX 25 50 75 51 26 52 80 53 74 54 76 55 27 56 79 57 73 58 72 59
REMARK SMILES IDX 28 61 60 62 40 63 59 64 41 65 44 66 58 67 77 68 42 69 43 70
REMARK SMILES IDX 57 72 78 73 45 74 29 75 30 76 38 77 31 78 32 79 36 80 39 81
REMARK SMILES IDX 33 82 34 83 37 84 35 85 61 86 62 87 70 88 63 89 64 90 68 91
REMARK SMILES IDX 71 92 65 93 66 94 69 95 67 96 46 97 47 98 55 99 48 100
REMARK SMILES IDX 49 101 53 102 56 103 50 104 51 105 54 106 52 107
REMARK H PARENT 12 5 8 12 1 15 1 16 85 24 17 41 76 60 44 71
REMARK Flexibility Score: inf
ROOT
ATOM      1  C   UNL A   1      33.371  25.904  25.503  1.00  0.00     0.116 C 
ENDROOT
BRANCH   1   2
ATOM      2  N   UNL A   1      32.374  25.245  26.328  1.00  0.00    -0.351 N 
ATOM      3  C   UNL A   1      31.679  24.072  26.338  1.00  0.00     0.283 C 
ATOM      4  O   UNL A   1      30.843  24.073  27.251  1.00  0.00    -0.268 OA
ATOM      5  H   UNL A   1      32.131  25.804  27.101  1.00  0.00     0.163 HD
BRANCH   3   6
ATOM      6  C   UNL A   1      31.893  22.857  25.364  1.00  0.00     0.308 C 
BRANCH   6   7
ATOM      7  N   UNL A   1      33.315  22.307  25.269  1.00  0.00    -0.311 N 
ATOM      8  C   UNL A   1      33.670  21.040  25.937  1.00  0.00     0.275 C 
ATOM      9  C   UNL A   1      34.019  21.454  27.369  1.00  0.00     0.081 C 
ATOM     10  C   UNL A   1      34.569  22.862  27.236  1.00  0.00     0.068 C 
ATOM     11  C   UNL A   1      34.408  23.159  25.765  1.00  0.00     0.264 C 
ATOM     12  H   UNL A   1      33.253  22.211  24.256  1.00  0.00     0.349 HD
BRANCH   8  13
ATOM     13  C   UNL A   1      32.819  19.814  25.600  1.00  0.00     0.275 C 
ATOM     14  N   UNL A   1      32.903  18.784  26.501  1.00  0.00    -0.365 N 
ATOM     15  H   UNL A   1      32.386  17.958  26.355  1.00  0.00     0.159 HD
ATOM     16  H   UNL A   1      33.482  18.868  27.294  1.00  0.00     0.159 HD
ATOM     17  O   UNL A   1      32.153  19.659  24.582  1.00  0.00    -0.268 OA
ENDBRANCH   8  13
ENDBRANCH   6   7
BRANCH   6  18
ATOM     18  C   UNL A   1      31.462  23.174  23.867  1.00  0.00     0.044 A 
ATOM     19  C   UNL A   1      32.089  22.698  22.715  1.00  0.00     0.094 A 
ATOM     20  C   UNL A   1      30.817  24.348  23.339  1.00  0.00     0.009 A 
ATOM     21  N   UNL A   1      32.618  23.861  22.175  1.00  0.00    -0.361 N 
ATOM     22  C   UNL A   1      31.819  24.914  22.550  1.00  0.00     0.050 A 
ATOM     23  C   UNL A   1      29.690  25.137  23.629  1.00  0.00     0.015 A 
ATOM     24  H   UNL A   1      33.427  23.922  21.618  1.00  0.00     0.166 HD
ATOM     25  C   UNL A   1      31.953  26.298  22.422  1.00  0.00     0.073 A 
ATOM     26  C   UNL A   1      29.732  26.516  23.380  1.00  0.00     0.047 A 
ATOM     27  C   UNL A   1      30.909  27.090  22.913  1.00  0.00     0.121 A 
BRANCH  27  28
ATOM     28  O   UNL A   1      31.211  28.415  23.097  1.00  0.00    -0.489 OA
BRANCH  28  29
ATOM     29  C   UNL A   1      30.332  29.157  23.942  1.00  0.00     0.265 C 
BRANCH  29  30
ATOM     30  C   UNL A   1      29.555  30.203  23.174  1.00  0.00    -0.011 A 
ATOM     31  C   UNL A   1      29.098  31.348  23.836  1.00  0.00     0.007 A 
ATOM     32  C   UNL A   1      29.293  30.073  21.802  1.00  0.00     0.007 A 
ATOM     33  C   UNL A   1      28.341  32.301  23.153  1.00  0.00     0.000 A 
ATOM     34  C   UNL A   1      28.512  31.006  21.126  1.00  0.00     0.000 A 
ATOM     35  C   UNL A   1      28.031  32.119  21.805  1.00  0.00     0.000 A 
ENDBRANCH  29  30
ENDBRANCH  28  29
ENDBRANCH  27  28
ENDBRANCH   6  18
ENDBRANCH   3   6
ENDBRANCH   1   2
BRANCH   1  36
ATOM     36  C   UNL A   1      33.930  27.212  26.102  1.00  0.00     0.023 C 
BRANCH  36  37
ATOM     37  C   UNL A   1      32.981  28.420  26.120  1.00  0.00     0.023 C 
BRANCH  37  38
ATOM     38  C   UNL A   1      33.668  29.663  25.611  1.00  0.00     0.116 C 
BRANCH  38  39
ATOM     39  N   UNL A   1      33.111  30.886  26.168  1.00  0.00    -0.352 N 
ATOM     40  C   UNL A   1      33.575  31.602  27.259  1.00  0.00     0.251 C 
ATOM     41  H   UNL A   1      32.313  31.247  25.717  1.00  0.00     0.163 HD
ATOM     42  O   UNL A   1      32.965  32.533  27.710  1.00  0.00    -0.269 OA
BRANCH  40  43
ATOM     43  C   UNL A   1      34.837  31.134  27.886  1.00  0.00     0.039 A 
ATOM     44  C   UNL A   1      35.906  32.022  27.996  1.00  0.00     0.014 A 
ATOM     45  C   UNL A   1      34.920  29.849  28.424  1.00  0.00     0.014 A 
ATOM     46  C   UNL A   1      37.046  31.628  28.696  1.00  0.00     0.010 A 
ATOM     47  C   UNL A   1      35.991  29.510  29.230  1.00  0.00     0.010 A 
ATOM     48  C   UNL A   1      37.084  30.379  29.338  1.00  0.00    -0.014 A 
BRANCH  48  49
ATOM     49  C   UNL A   1      38.293  29.911  30.050  1.00  0.00     0.031 A 
ATOM     50  C   UNL A   1      38.539  30.386  31.456  1.00  0.00     0.074 A 
ATOM     51  C   UNL A   1      39.180  29.121  29.419  1.00  0.00     0.049 A 
ATOM     52  N   UNL A   1      39.560  30.162  32.242  1.00  0.00    -0.248 NA
ATOM     53  C   UNL A   1      37.520  31.274  32.043  1.00  0.00     0.031 C 
ATOM     54  C   UNL A   1      39.070  28.657  28.035  1.00  0.00     0.029 A 
ATOM     55  N   UNL A   1      40.354  28.569  29.862  1.00  0.00    -0.354 N 
ATOM     56  C   UNL A   1      39.313  30.898  33.393  1.00  0.00     0.074 A 
ATOM     57  C   UNL A   1      38.093  31.639  33.177  1.00  0.00     0.031 C 
ATOM     58  C   UNL A   1      40.114  27.860  27.754  1.00  0.00     0.029 A 
ATOM     59  C   UNL A   1      40.980  27.783  28.926  1.00  0.00     0.049 A 
ATOM     60  H   UNL A   1      40.714  28.722  30.766  1.00  0.00     0.167 HD
ATOM     61  C   UNL A   1      40.021  30.921  34.546  1.00  0.00     0.037 A 
ATOM     62  C   UNL A   1      42.123  27.078  29.018  1.00  0.00     0.037 A 
ATOM     63  C   UNL A   1      41.205  30.137  34.764  1.00  0.00     0.049 A 
ATOM     64  C   UNL A   1      42.872  27.088  30.324  1.00  0.00     0.074 A 
ATOM     65  C   UNL A   1      41.974  30.031  35.907  1.00  0.00     0.029 A 
ATOM     66  N   UNL A   1      41.784  29.313  33.809  1.00  0.00    -0.354 N 
ATOM     67  N   UNL A   1      42.596  27.733  31.433  1.00  0.00    -0.248 NA
ATOM     68  C   UNL A   1      44.083  26.261  30.397  1.00  0.00     0.031 C 
ATOM     69  C   UNL A   1      43.042  29.170  35.631  1.00  0.00     0.029 A 
ATOM     70  C   UNL A   1      42.907  28.700  34.334  1.00  0.00     0.049 A 
ATOM     71  H   UNL A   1      41.446  29.184  32.893  1.00  0.00     0.167 HD
ATOM     72  C   UNL A   1      43.572  27.361  32.345  1.00  0.00     0.074 A 
ATOM     73  C   UNL A   1      44.443  26.425  31.663  1.00  0.00     0.031 C 
ATOM     74  C   UNL A   1      43.739  27.755  33.633  1.00  0.00     0.037 A 
BRANCH  61  75
ATOM     75  C   UNL A   1      39.520  31.806  35.651  1.00  0.00     0.064 A 
ATOM     76  C   UNL A   1      40.014  33.108  35.835  1.00  0.00     0.173 A 
ATOM     77  C   UNL A   1      38.531  31.352  36.536  1.00  0.00     0.173 A 
ATOM     78  F   UNL A   1      40.974  33.586  35.029  1.00  0.00    -0.203 F 
ATOM     79  C   UNL A   1      39.564  33.906  36.884  1.00  0.00     0.198 A 
ATOM     80  C   UNL A   1      38.058  32.166  37.562  1.00  0.00     0.198 A 
ATOM     81  F   UNL A   1      38.023  30.117  36.408  1.00  0.00    -0.203 F 
ATOM     82  F   UNL A   1      40.098  35.121  37.076  1.00  0.00    -0.200 F 
ATOM     83  C   UNL A   1      38.581  33.438  37.741  1.00  0.00     0.200 A 
ATOM     84  F   UNL A   1      37.100  31.716  38.384  1.00  0.00    -0.200 F 
ATOM     85  F   UNL A   1      38.146  34.209  38.747  1.00  0.00    -0.200 F 
ENDBRANCH  61  75
BRANCH  62  86
ATOM     86  C   UNL A   1      42.593  26.266  27.865  1.00  0.00     0.064 A 
ATOM     87  C   UNL A   1      43.542  26.773  26.966  1.00  0.00     0.173 A 
ATOM     88  C   UNL A   1      42.109  24.970  27.636  1.00  0.00     0.173 A 
ATOM     89  F   UNL A   1      44.027  28.013  27.133  1.00  0.00    -0.203 F 
ATOM     90  C   UNL A   1      43.968  26.028  25.869  1.00  0.00     0.198 A 
ATOM     91  C   UNL A   1      42.556  24.214  26.555  1.00  0.00     0.198 A 
ATOM     92  F   UNL A   1      41.207  24.434  28.471  1.00  0.00    -0.203 F 
ATOM     93  F   UNL A   1      44.841  26.558  25.000  1.00  0.00    -0.200 F 
ATOM     94  C   UNL A   1      43.479  24.747  25.666  1.00  0.00     0.200 A 
ATOM     95  F   UNL A   1      42.093  22.971  26.372  1.00  0.00    -0.200 F 
ATOM     96  F   UNL A   1      43.891  24.029  24.612  1.00  0.00    -0.200 F 
ENDBRANCH  62  86
BRANCH  74  97
ATOM     97  C   UNL A   1      44.869  27.134  34.398  1.00  0.00     0.064 A 
ATOM     98  C   UNL A   1      46.151  27.702  34.414  1.00  0.00     0.173 A 
ATOM     99  C   UNL A   1      44.649  25.979  35.163  1.00  0.00     0.173 A 
ATOM    100  F   UNL A   1      46.413  28.799  33.689  1.00  0.00    -0.203 F 
ATOM    101  C   UNL A   1      47.180  27.117  35.145  1.00  0.00     0.198 A 
ATOM    102  C   UNL A   1      45.672  25.415  35.919  1.00  0.00     0.198 A 
ATOM    103  F   UNL A   1      43.436  25.404  35.188  1.00  0.00    -0.203 F 
ATOM    104  F   UNL A   1      48.411  27.645  35.106  1.00  0.00    -0.200 F 
ATOM    105  C   UNL A   1      46.938  25.979  35.902  1.00  0.00     0.200 A 
ATOM    106  F   UNL A   1      45.432  24.327  36.663  1.00  0.00    -0.200 F 
ATOM    107  F   UNL A   1      47.929  25.422  36.612  1.00  0.00    -0.200 F 
ENDBRANCH  74  97
ENDBRANCH  48  49
ENDBRANCH  40  43
ENDBRANCH  38  39
ENDBRANCH  37  38
ENDBRANCH  36  37
ENDBRANCH   1  36
TORSDOF 17
ENDMDL
MODEL 3
REMARK VINA RESULT:     -12.5      4.165      9.946
REMARK SMILES NC(=O)[C@@H]1CCC[N@@H+]1[C@@H](C(=O)NCCCCNC(=O)c1ccc(-c2c3nc(c(-c4c(F)c(F)c(F)c(F)c4F)c4ccc([nH]4)c(-c4c(F)c(F)c(F)c(F)c4F)c4nc(c(-c5c(F)c(F)c(F)c(F)c5F)c5ccc2[nH]5)C=C4)C=C3)cc1)c1c[nH]c2cc(OCc3ccccc3)ccc12
REMARK SMILES IDX 13 1 12 2 10 3 11 4 9 6 8 7 4 8 5 9 6 10 7 11 2 13 1 14 3 17
REMARK SMILES IDX 83 18 84 19 99 20 85 21 86 22 98 23 87 25 97 26 88 27 89 28
REMARK SMILES IDX 90 29 91 30 92 31 96 32 93 33 95 34 94 35 14 36 15 37 16 38
REMARK SMILES IDX 17 39 18 40 19 42 20 43 21 44 82 45 22 46 81 47 23 48 24 49
REMARK SMILES IDX 25 50 75 51 26 52 80 53 74 54 76 55 27 56 79 57 73 58 72 59
REMARK SMILES IDX 28 61 60 62 40 63 59 64 41 65 44 66 58 67 77 68 42 69 43 70
REMARK SMILES IDX 57 72 78 73 45 74 29 75 30 76 38 77 31 78 32 79 36 80 39 81
REMARK SMILES IDX 33 82 34 83 37 84 35 85 61 86 62 87 70 88 63 89 64 90 68 91
REMARK SMILES IDX 71 92 65 93 66 94 69 95 67 96 46 97 47 98 55 99 48 100
REMARK SMILES IDX 49 101 53 102 56 103 50 104 51 105 54 106 52 107
REMARK H PARENT 12 5 8 12 1 15 1 16 85 24 17 41 76 60 44 71
REMARK Flexibility Score: inf
ROOT
ATOM      1  C   UNL A   1      34.134  24.712  24.791  1.00  0.00     0.116 C 
ENDROOT
BRANCH   1   2
ATOM      2  N   UNL A   1      34.084  25.036  23.377  1.00  0.00    -0.351 N 
ATOM      3  C   UNL A   1      33.195  25.561  22.486  1.00  0.00     0.283 C 
ATOM      4  O   UNL A   1      33.654  25.510  21.337  1.00  0.00    -0.268 OA
ATOM      5  H   UNL A   1      34.935  24.814  22.934  1.00  0.00     0.163 HD
BRANCH   3   6
ATOM      6  C   UNL A   1      31.790  26.176  22.829  1.00  0.00     0.308 C 
BRANCH   6   7
ATOM      7  N   UNL A   1      31.779  27.315  23.846  1.00  0.00    -0.311 N 
ATOM      8  C   UNL A   1      31.650  28.714  23.397  1.00  0.00     0.275 C 
ATOM      9  C   UNL A   1      33.084  29.139  23.069  1.00  0.00     0.081 C 
ATOM     10  C   UNL A   1      33.949  28.322  24.012  1.00  0.00     0.068 C 
ATOM     11  C   UNL A   1      32.949  27.449  24.730  1.00  0.00     0.264 C 
ATOM     12  H   UNL A   1      30.928  26.966  24.288  1.00  0.00     0.349 HD
BRANCH   8  13
ATOM     13  C   UNL A   1      30.449  29.053  22.511  1.00  0.00     0.275 C 
ATOM     14  N   UNL A   1      30.653  30.080  21.626  1.00  0.00    -0.365 N 
ATOM     15  H   UNL A   1      29.928  30.360  21.020  1.00  0.00     0.159 HD
ATOM     16  H   UNL A   1      31.523  30.540  21.596  1.00  0.00     0.159 HD
ATOM     17  O   UNL A   1      29.336  28.545  22.585  1.00  0.00    -0.268 OA
ENDBRANCH   8  13
ENDBRANCH   6   7
BRANCH   6  18
ATOM     18  C   UNL A   1      30.757  25.103  23.385  1.00  0.00     0.044 A 
ATOM     19  C   UNL A   1      29.733  25.349  24.299  1.00  0.00     0.094 A 
ATOM     20  C   UNL A   1      30.939  23.687  23.579  1.00  0.00     0.009 A 
ATOM     21  N   UNL A   1      30.158  24.629  25.406  1.00  0.00    -0.361 N 
ATOM     22  C   UNL A   1      30.912  23.567  24.968  1.00  0.00     0.050 A 
ATOM     23  C   UNL A   1      31.394  22.584  22.837  1.00  0.00     0.015 A 
ATOM     24  H   UNL A   1      29.953  24.842  26.345  1.00  0.00     0.166 HD
ATOM     25  C   UNL A   1      31.698  22.624  25.636  1.00  0.00     0.073 A 
ATOM     26  C   UNL A   1      32.064  21.542  23.492  1.00  0.00     0.047 A 
ATOM     27  C   UNL A   1      32.326  21.648  24.854  1.00  0.00     0.121 A 
BRANCH  27  28
ATOM     28  O   UNL A   1      33.347  20.969  25.467  1.00  0.00    -0.489 OA
BRANCH  28  29
ATOM     29  C   UNL A   1      34.171  20.163  24.626  1.00  0.00     0.265 C 
BRANCH  29  30
ATOM     30  C   UNL A   1      33.795  18.700  24.698  1.00  0.00    -0.011 A 
ATOM     31  C   UNL A   1      32.852  18.275  25.642  1.00  0.00     0.007 A 
ATOM     32  C   UNL A   1      34.349  17.748  23.830  1.00  0.00     0.007 A 
ATOM     33  C   UNL A   1      32.527  16.923  25.752  1.00  0.00     0.000 A 
ATOM     34  C   UNL A   1      34.050  16.395  23.959  1.00  0.00     0.000 A 
ATOM     35  C   UNL A   1      33.142  15.982  24.926  1.00  0.00     0.000 A 
ENDBRANCH  29  30
ENDBRANCH  28  29
ENDBRANCH  27  28
ENDBRANCH   6  18
ENDBRANCH   3   6
ENDBRANCH   1   2
BRANCH   1  36
ATOM     36  C   UNL A   1      35.554  24.454  25.336  1.00  0.00     0.023 C 
BRANCH  36  37
ATOM     37  C   UNL A   1      36.161  23.074  25.044  1.00  0.00     0.023 C 
BRANCH  37  38
ATOM     38  C   UNL A   1      36.635  22.406  26.311  1.00  0.00     0.116 C 
BRANCH  38  39
ATOM     39  N   UNL A   1      37.623  21.365  26.069  1.00  0.00    -0.352 N 
ATOM     40  C   UNL A   1      39.001  21.483  26.125  1.00  0.00     0.251 C 
ATOM     41  H   UNL A   1      37.270  20.475  25.837  1.00  0.00     0.163 HD
ATOM     42  O   UNL A   1      39.727  20.589  25.785  1.00  0.00    -0.269 OA
BRANCH  40  43
ATOM     43  C   UNL A   1      39.549  22.788  26.576  1.00  0.00     0.039 A 
ATOM     44  C   UNL A   1      40.434  22.813  27.653  1.00  0.00     0.014 A 
ATOM     45  C   UNL A   1      39.239  23.957  25.880  1.00  0.00     0.014 A 
ATOM     46  C   UNL A   1      41.048  24.017  27.998  1.00  0.00     0.010 A 
ATOM     47  C   UNL A   1      39.949  25.117  26.136  1.00  0.00     0.010 A 
ATOM     48  C   UNL A   1      40.828  25.169  27.225  1.00  0.00    -0.014 A 
BRANCH  48  49
ATOM     49  C   UNL A   1      41.426  26.472  27.590  1.00  0.00     0.031 A 
ATOM     50  C   UNL A   1      42.841  26.764  27.171  1.00  0.00     0.074 A 
ATOM     51  C   UNL A   1      40.727  27.347  28.335  1.00  0.00     0.049 A 
ATOM     52  N   UNL A   1      43.588  27.805  27.436  1.00  0.00    -0.248 NA
ATOM     53  C   UNL A   1      43.528  25.725  26.384  1.00  0.00     0.031 C 
ATOM     54  C   UNL A   1      39.374  27.134  28.849  1.00  0.00     0.029 A 
ATOM     55  N   UNL A   1      41.063  28.596  28.790  1.00  0.00    -0.354 N 
ATOM     56  C   UNL A   1      44.827  27.529  26.874  1.00  0.00     0.074 A 
ATOM     57  C   UNL A   1      44.762  26.195  26.324  1.00  0.00     0.031 C 
ATOM     58  C   UNL A   1      38.980  28.230  29.518  1.00  0.00     0.029 A 
ATOM     59  C   UNL A   1      40.064  29.207  29.505  1.00  0.00     0.049 A 
ATOM     60  H   UNL A   1      41.938  29.014  28.621  1.00  0.00     0.167 HD
ATOM     61  C   UNL A   1      45.911  28.333  26.786  1.00  0.00     0.037 A 
ATOM     62  C   UNL A   1      40.034  30.425  30.077  1.00  0.00     0.037 A 
ATOM     63  C   UNL A   1      45.942  29.677  27.293  1.00  0.00     0.049 A 
ATOM     64  C   UNL A   1      41.237  31.318  29.933  1.00  0.00     0.074 A 
ATOM     65  C   UNL A   1      46.959  30.609  27.213  1.00  0.00     0.029 A 
ATOM     66  N   UNL A   1      44.892  30.282  27.969  1.00  0.00    -0.354 N 
ATOM     67  N   UNL A   1      42.382  31.076  29.339  1.00  0.00    -0.248 NA
ATOM     68  C   UNL A   1      41.140  32.659  30.523  1.00  0.00     0.031 C 
ATOM     69  C   UNL A   1      46.538  31.767  27.875  1.00  0.00     0.029 A 
ATOM     70  C   UNL A   1      45.239  31.574  28.320  1.00  0.00     0.049 A 
ATOM     71  H   UNL A   1      44.027  29.855  28.170  1.00  0.00     0.167 HD
ATOM     72  C   UNL A   1      43.125  32.242  29.450  1.00  0.00     0.074 A 
ATOM     73  C   UNL A   1      42.297  33.196  30.159  1.00  0.00     0.031 C 
ATOM     74  C   UNL A   1      44.381  32.505  29.007  1.00  0.00     0.037 A 
BRANCH  61  75
ATOM     75  C   UNL A   1      47.132  27.783  26.108  1.00  0.00     0.064 A 
ATOM     76  C   UNL A   1      48.183  27.202  26.838  1.00  0.00     0.173 A 
ATOM     77  C   UNL A   1      47.255  27.829  24.711  1.00  0.00     0.173 A 
ATOM     78  F   UNL A   1      48.126  27.149  28.178  1.00  0.00    -0.203 F 
ATOM     79  C   UNL A   1      49.325  26.725  26.199  1.00  0.00     0.198 A 
ATOM     80  C   UNL A   1      48.382  27.318  24.073  1.00  0.00     0.198 A 
ATOM     81  F   UNL A   1      46.282  28.372  23.965  1.00  0.00    -0.203 F 
ATOM     82  F   UNL A   1      50.341  26.235  26.923  1.00  0.00    -0.200 F 
ATOM     83  C   UNL A   1      49.420  26.776  24.817  1.00  0.00     0.200 A 
ATOM     84  F   UNL A   1      48.469  27.359  22.737  1.00  0.00    -0.200 F 
ATOM     85  F   UNL A   1      50.517  26.312  24.203  1.00  0.00    -0.200 F 
ENDBRANCH  61  75
BRANCH  62  86
ATOM     86  C   UNL A   1      38.811  30.888  30.784  1.00  0.00     0.064 A 
ATOM     87  C   UNL A   1      37.752  31.479  30.079  1.00  0.00     0.173 A 
ATOM     88  C   UNL A   1      38.671  30.752  32.173  1.00  0.00     0.173 A 
ATOM     89  F   UNL A   1      37.842  31.644  28.751  1.00  0.00    -0.203 F 
ATOM     90  C   UNL A   1      36.613  31.938  30.738  1.00  0.00     0.198 A 
ATOM     91  C   UNL A   1      37.520  31.186  32.827  1.00  0.00     0.198 A 
ATOM     92  F   UNL A   1      39.650  30.185  32.893  1.00  0.00    -0.203 F 
ATOM     93  F   UNL A   1      35.638  32.541  30.043  1.00  0.00    -0.200 F 
ATOM     94  C   UNL A   1      36.496  31.787  32.110  1.00  0.00     0.200 A 
ATOM     95  F   UNL A   1      37.403  31.023  34.152  1.00  0.00    -0.200 F 
ATOM     96  F   UNL A   1      35.399  32.227  32.744  1.00  0.00    -0.200 F 
ENDBRANCH  62  86
BRANCH  74  97
ATOM     97  C   UNL A   1      44.908  33.891  29.229  1.00  0.00     0.064 A 
ATOM     98  C   UNL A   1      45.724  34.206  30.325  1.00  0.00     0.173 A 
ATOM     99  C   UNL A   1      44.627  34.907  28.302  1.00  0.00     0.173 A 
ATOM    100  F   UNL A   1      46.009  33.272  31.244  1.00  0.00    -0.203 F 
ATOM    101  C   UNL A   1      46.214  35.495  30.501  1.00  0.00     0.198 A 
ATOM    102  C   UNL A   1      45.147  36.187  28.464  1.00  0.00     0.198 A 
ATOM    103  F   UNL A   1      43.860  34.653  27.231  1.00  0.00    -0.203 F 
ATOM    104  F   UNL A   1      46.949  35.788  31.583  1.00  0.00    -0.200 F 
ATOM    105  C   UNL A   1      45.932  36.482  29.567  1.00  0.00     0.200 A 
ATOM    106  F   UNL A   1      44.888  37.134  27.552  1.00  0.00    -0.200 F 
ATOM    107  F   UNL A   1      46.414  37.722  29.735  1.00  0.00    -0.200 F 
ENDBRANCH  74  97
ENDBRANCH  48  49
ENDBRANCH  40  43
ENDBRANCH  38  39
ENDBRANCH  37  38
ENDBRANCH  36  37
ENDBRANCH   1  36
TORSDOF 17
ENDMDL
