MODEL 1
REMARK VINA RESULT:     -12.7      0.000      0.000
REMARK SMILES CC1(C)S[C@H](c2ccc(Br)cc2)[NH2+][C@H]1C(=O)NCCCCNC(=O)c1ccc(-c2c3nc(c(-c4c(F)c(F)c(F)c(F)c4F)c4ccc([nH]4)c(-c4c(F)c(F)c(F)c(F)c4F)c4nc(c(-c5c(F)c(F)c(F)c(F)c5F)c5ccc2[nH]5)C=C4)C=C3)cc1
REMARK SMILES IDX 20 1 19 2 18 3 17 4 15 5 16 6 14 8 1 9 2 10 3 11 4 12 5 13
REMARK SMILES IDX 13 14 6 17 7 18 12 19 8 20 11 21 9 22 10 23 21 24 22 25
REMARK SMILES IDX 23 26 24 28 25 29 26 30 87 31 27 32 86 33 28 34 29 35 30 36
REMARK SMILES IDX 80 37 31 38 85 39 79 40 81 41 32 42 84 43 78 44 77 45 33 47
REMARK SMILES IDX 65 48 45 49 64 50 46 51 49 52 63 53 82 54 47 55 48 56 62 58
REMARK SMILES IDX 83 59 50 60 34 61 35 62 43 63 36 64 37 65 41 66 44 67 38 68
REMARK SMILES IDX 39 69 42 70 40 71 66 72 67 73 75 74 68 75 69 76 73 77 76 78
REMARK SMILES IDX 70 79 71 80 74 81 72 82 51 83 52 84 60 85 53 86 54 87 58 88
REMARK SMILES IDX 61 89 55 90 56 91 59 92 57 93
REMARK H PARENT 17 7 13 15 13 16 22 27 81 46 49 57
REMARK Flexibility Score: inf
ROOT
ATOM      1  C   UNL A   1      31.721  31.963  26.678  1.00  0.00     0.023 C 
ENDROOT
BRANCH   1   2
ATOM      2  C   UNL A   1      31.821  30.454  26.840  1.00  0.00     0.023 C 
BRANCH   2   3
ATOM      3  C   UNL A   1      32.850  29.776  25.938  1.00  0.00     0.116 C 
BRANCH   3   4
ATOM      4  N   UNL A   1      32.400  29.703  24.563  1.00  0.00    -0.351 N 
ATOM      5  C   UNL A   1      32.221  28.671  23.692  1.00  0.00     0.279 C 
ATOM      6  O   UNL A   1      31.917  28.992  22.535  1.00  0.00    -0.268 OA
ATOM      7  H   UNL A   1      32.178  30.581  24.178  1.00  0.00     0.163 HD
BRANCH   5   8
ATOM      8  C   UNL A   1      32.406  27.181  24.049  1.00  0.00     0.289 C 
ATOM      9  C   UNL A   1      29.807  26.752  24.009  1.00  0.00     0.030 C 
ATOM     10  C   UNL A   1      31.166  26.481  24.644  1.00  0.00     0.077 C 
ATOM     11  C   UNL A   1      31.059  26.750  26.150  1.00  0.00     0.030 C 
ATOM     12  S   UNL A   1      31.511  24.714  24.361  1.00  0.00    -0.081 SA
ATOM     13  C   UNL A   1      32.958  24.984  23.291  1.00  0.00     0.274 C 
ATOM     14  N   UNL A   1      33.037  26.408  22.951  1.00  0.00    -0.320 N 
ATOM     15  H   UNL A   1      32.541  26.582  22.077  1.00  0.00     0.348 HD
ATOM     16  H   UNL A   1      34.010  26.690  22.836  1.00  0.00     0.348 HD
BRANCH  13  17
ATOM     17  C   UNL A   1      34.209  24.391  23.915  1.00  0.00     0.020 A 
ATOM     18  C   UNL A   1      34.969  23.473  23.159  1.00  0.00     0.012 A 
ATOM     19  C   UNL A   1      34.648  24.696  25.213  1.00  0.00     0.012 A 
ATOM     20  C   UNL A   1      36.099  22.852  23.693  1.00  0.00     0.016 A 
ATOM     21  C   UNL A   1      35.782  24.078  25.751  1.00  0.00     0.016 A 
ATOM     22  C   UNL A   1      36.495  23.153  24.991  1.00  0.00     0.018 A 
ATOM     23  Br  UNL A   1      38.008  22.294  25.730  1.00  0.00    -0.051 Br
ENDBRANCH  13  17
ENDBRANCH   5   8
ENDBRANCH   3   4
ENDBRANCH   2   3
ENDBRANCH   1   2
BRANCH   1  24
ATOM     24  C   UNL A   1      32.866  32.736  27.305  1.00  0.00     0.116 C 
BRANCH  24  25
ATOM     25  N   UNL A   1      32.518  34.114  27.626  1.00  0.00    -0.352 N 
ATOM     26  C   UNL A   1      33.020  34.920  28.621  1.00  0.00     0.251 C 
ATOM     27  H   UNL A   1      31.829  34.523  27.055  1.00  0.00     0.163 HD
ATOM     28  O   UNL A   1      32.528  36.013  28.853  1.00  0.00    -0.269 OA
BRANCH  26  29
ATOM     29  C   UNL A   1      34.153  34.420  29.424  1.00  0.00     0.039 A 
ATOM     30  C   UNL A   1      33.897  33.737  30.614  1.00  0.00     0.014 A 
ATOM     31  C   UNL A   1      35.459  34.577  28.957  1.00  0.00     0.014 A 
ATOM     32  C   UNL A   1      34.957  33.152  31.306  1.00  0.00     0.010 A 
ATOM     33  C   UNL A   1      36.496  33.906  29.588  1.00  0.00     0.010 A 
ATOM     34  C   UNL A   1      36.257  33.206  30.779  1.00  0.00    -0.014 A 
BRANCH  34  35
ATOM     35  C   UNL A   1      37.406  32.586  31.481  1.00  0.00     0.031 A 
ATOM     36  C   UNL A   1      38.139  31.449  30.824  1.00  0.00     0.074 A 
ATOM     37  C   UNL A   1      37.734  32.985  32.723  1.00  0.00     0.049 A 
ATOM     38  N   UNL A   1      39.092  30.691  31.298  1.00  0.00    -0.248 NA
ATOM     39  C   UNL A   1      37.707  31.087  29.463  1.00  0.00     0.031 C 
ATOM     40  C   UNL A   1      37.056  34.035  33.486  1.00  0.00     0.029 A 
ATOM     41  N   UNL A   1      38.718  32.543  33.570  1.00  0.00    -0.354 N 
ATOM     42  C   UNL A   1      39.347  29.748  30.311  1.00  0.00     0.074 A 
ATOM     43  C   UNL A   1      38.407  29.986  29.240  1.00  0.00     0.031 C 
ATOM     44  C   UNL A   1      37.663  34.175  34.676  1.00  0.00     0.029 A 
ATOM     45  C   UNL A   1      38.748  33.205  34.773  1.00  0.00     0.049 A 
ATOM     46  H   UNL A   1      39.344  31.819  33.337  1.00  0.00     0.167 HD
ATOM     47  C   UNL A   1      40.302  28.789  30.286  1.00  0.00     0.037 A 
ATOM     48  C   UNL A   1      39.567  33.043  35.830  1.00  0.00     0.037 A 
ATOM     49  C   UNL A   1      41.269  28.595  31.331  1.00  0.00     0.049 A 
ATOM     50  C   UNL A   1      40.653  32.003  35.757  1.00  0.00     0.074 A 
ATOM     51  C   UNL A   1      42.319  27.698  31.382  1.00  0.00     0.029 A 
ATOM     52  N   UNL A   1      41.306  29.327  32.510  1.00  0.00    -0.354 N 
ATOM     53  N   UNL A   1      40.925  31.156  34.794  1.00  0.00    -0.248 NA
ATOM     54  C   UNL A   1      41.554  31.907  36.913  1.00  0.00     0.031 C 
ATOM     55  C   UNL A   1      42.978  27.868  32.606  1.00  0.00     0.029 A 
ATOM     56  C   UNL A   1      42.362  28.900  33.297  1.00  0.00     0.049 A 
ATOM     57  H   UNL A   1      40.676  30.045  32.750  1.00  0.00     0.167 HD
ATOM     58  C   UNL A   1      42.045  30.451  35.211  1.00  0.00     0.074 A 
ATOM     59  C   UNL A   1      42.409  30.978  36.510  1.00  0.00     0.031 C 
ATOM     60  C   UNL A   1      42.714  29.457  34.577  1.00  0.00     0.037 A 
BRANCH  47  61
ATOM     61  C   UNL A   1      40.351  27.895  29.082  1.00  0.00     0.064 A 
ATOM     62  C   UNL A   1      41.106  28.229  27.947  1.00  0.00     0.173 A 
ATOM     63  C   UNL A   1      39.640  26.686  29.063  1.00  0.00     0.173 A 
ATOM     64  F   UNL A   1      41.790  29.382  27.907  1.00  0.00    -0.203 F 
ATOM     65  C   UNL A   1      41.118  27.404  26.825  1.00  0.00     0.198 A 
ATOM     66  C   UNL A   1      39.680  25.848  27.951  1.00  0.00     0.198 A 
ATOM     67  F   UNL A   1      38.902  26.317  30.121  1.00  0.00    -0.203 F 
ATOM     68  F   UNL A   1      41.798  27.777  25.731  1.00  0.00    -0.200 F 
ATOM     69  C   UNL A   1      40.411  26.212  26.831  1.00  0.00     0.200 A 
ATOM     70  F   UNL A   1      39.005  24.691  27.961  1.00  0.00    -0.200 F 
ATOM     71  F   UNL A   1      40.426  25.419  25.751  1.00  0.00    -0.200 F 
ENDBRANCH  47  61
BRANCH  48  72
ATOM     72  C   UNL A   1      39.425  33.918  37.022  1.00  0.00     0.064 A 
ATOM     73  C   UNL A   1      38.689  33.494  38.137  1.00  0.00     0.173 A 
ATOM     74  C   UNL A   1      40.015  35.188  37.075  1.00  0.00     0.173 A 
ATOM     75  F   UNL A   1      38.091  32.293  38.127  1.00  0.00    -0.203 F 
ATOM     76  C   UNL A   1      38.528  34.316  39.250  1.00  0.00     0.198 A 
ATOM     77  C   UNL A   1      39.875  36.000  38.199  1.00  0.00     0.198 A 
ATOM     78  F   UNL A   1      40.736  35.637  36.037  1.00  0.00    -0.203 F 
ATOM     79  F   UNL A   1      37.780  33.904  40.283  1.00  0.00    -0.200 F 
ATOM     80  C   UNL A   1      39.125  35.567  39.282  1.00  0.00     0.200 A 
ATOM     81  F   UNL A   1      40.465  37.203  38.232  1.00  0.00    -0.200 F 
ATOM     82  F   UNL A   1      38.972  36.358  40.353  1.00  0.00    -0.200 F 
ENDBRANCH  48  72
BRANCH  60  83
ATOM     83  C   UNL A   1      43.934  28.911  35.257  1.00  0.00     0.064 A 
ATOM     84  C   UNL A   1      43.858  27.843  36.162  1.00  0.00     0.173 A 
ATOM     85  C   UNL A   1      45.201  29.440  34.965  1.00  0.00     0.173 A 
ATOM     86  F   UNL A   1      42.668  27.313  36.482  1.00  0.00    -0.203 F 
ATOM     87  C   UNL A   1      45.005  27.341  36.771  1.00  0.00     0.198 A 
ATOM     88  C   UNL A   1      46.347  28.916  35.554  1.00  0.00     0.198 A 
ATOM     89  F   UNL A   1      45.325  30.457  34.100  1.00  0.00    -0.203 F 
ATOM     90  F   UNL A   1      44.905  26.351  37.669  1.00  0.00    -0.200 F 
ATOM     91  C   UNL A   1      46.248  27.873  36.462  1.00  0.00     0.200 A 
ATOM     92  F   UNL A   1      47.549  29.424  35.245  1.00  0.00    -0.200 F 
ATOM     93  F   UNL A   1      47.350  27.385  37.045  1.00  0.00    -0.200 F 
ENDBRANCH  60  83
ENDBRANCH  34  35
ENDBRANCH  26  29
ENDBRANCH  24  25
ENDBRANCH   1  24
TORSDOF 12
ENDMDL
MODEL 2
REMARK VINA RESULT:     -12.7      5.990     11.385
REMARK SMILES CC1(C)S[C@H](c2ccc(Br)cc2)[NH2+][C@H]1C(=O)NCCCCNC(=O)c1ccc(-c2c3nc(c(-c4c(F)c(F)c(F)c(F)c4F)c4ccc([nH]4)c(-c4c(F)c(F)c(F)c(F)c4F)c4nc(c(-c5c(F)c(F)c(F)c(F)c5F)c5ccc2[nH]5)C=C4)C=C3)cc1
REMARK SMILES IDX 20 1 19 2 18 3 17 4 15 5 16 6 14 8 1 9 2 10 3 11 4 12 5 13
REMARK SMILES IDX 13 14 6 17 7 18 12 19 8 20 11 21 9 22 10 23 21 24 22 25
REMARK SMILES IDX 23 26 24 28 25 29 26 30 87 31 27 32 86 33 28 34 29 35 30 36
REMARK SMILES IDX 80 37 31 38 85 39 79 40 81 41 32 42 84 43 78 44 77 45 33 47
REMARK SMILES IDX 65 48 45 49 64 50 46 51 49 52 63 53 82 54 47 55 48 56 62 58
REMARK SMILES IDX 83 59 50 60 34 61 35 62 43 63 36 64 37 65 41 66 44 67 38 68
REMARK SMILES IDX 39 69 42 70 40 71 66 72 67 73 75 74 68 75 69 76 73 77 76 78
REMARK SMILES IDX 70 79 71 80 74 81 72 82 51 83 52 84 60 85 53 86 54 87 58 88
REMARK SMILES IDX 61 89 55 90 56 91 59 92 57 93
REMARK H PARENT 17 7 13 15 13 16 22 27 81 46 49 57
REMARK Flexibility Score: inf
ROOT
ATOM      1  C   UNL A   1      38.130  20.045  25.034  1.00  0.00     0.023 C 
ENDROOT
BRANCH   1   2
ATOM      2  C   UNL A   1      37.403  21.312  24.607  1.00  0.00     0.023 C 
BRANCH   2   3
ATOM      3  C   UNL A   1      36.795  22.122  25.751  1.00  0.00     0.116 C 
BRANCH   3   4
ATOM      4  N   UNL A   1      35.620  21.479  26.305  1.00  0.00    -0.351 N 
ATOM      5  C   UNL A   1      34.311  21.844  26.397  1.00  0.00     0.279 C 
ATOM      6  O   UNL A   1      33.585  21.078  27.043  1.00  0.00    -0.268 OA
ATOM      7  H   UNL A   1      35.807  20.595  26.695  1.00  0.00     0.163 HD
BRANCH   5   8
ATOM      8  C   UNL A   1      33.717  23.135  25.793  1.00  0.00     0.289 C 
ATOM      9  C   UNL A   1      32.739  21.828  23.726  1.00  0.00     0.030 C 
ATOM     10  C   UNL A   1      33.407  23.080  24.282  1.00  0.00     0.077 C 
ATOM     11  C   UNL A   1      34.667  23.365  23.457  1.00  0.00     0.030 C 
ATOM     12  S   UNL A   1      32.208  24.434  24.056  1.00  0.00    -0.081 SA
ATOM     13  C   UNL A   1      31.956  24.748  25.831  1.00  0.00     0.274 C 
ATOM     14  N   UNL A   1      32.593  23.672  26.597  1.00  0.00    -0.320 N 
ATOM     15  H   UNL A   1      31.915  22.933  26.782  1.00  0.00     0.348 HD
ATOM     16  H   UNL A   1      32.936  24.030  27.489  1.00  0.00     0.348 HD
BRANCH  13  17
ATOM     17  C   UNL A   1      32.390  26.157  26.197  1.00  0.00     0.020 A 
ATOM     18  C   UNL A   1      31.476  26.989  26.876  1.00  0.00     0.012 A 
ATOM     19  C   UNL A   1      33.653  26.685  25.884  1.00  0.00     0.012 A 
ATOM     20  C   UNL A   1      31.793  28.310  27.193  1.00  0.00     0.016 A 
ATOM     21  C   UNL A   1      33.976  28.007  26.204  1.00  0.00     0.016 A 
ATOM     22  C   UNL A   1      33.042  28.815  26.848  1.00  0.00     0.018 A 
ATOM     23  Br  UNL A   1      33.467  30.612  27.251  1.00  0.00    -0.051 Br
ENDBRANCH  13  17
ENDBRANCH   5   8
ENDBRANCH   3   4
ENDBRANCH   2   3
ENDBRANCH   1   2
BRANCH   1  24
ATOM     24  C   UNL A   1      39.278  20.279  25.999  1.00  0.00     0.116 C 
BRANCH  24  25
ATOM     25  N   UNL A   1      40.234  19.181  26.026  1.00  0.00    -0.352 N 
ATOM     26  C   UNL A   1      41.605  19.235  26.126  1.00  0.00     0.251 C 
ATOM     27  H   UNL A   1      39.848  18.278  25.963  1.00  0.00     0.163 HD
ATOM     28  O   UNL A   1      42.285  18.229  25.997  1.00  0.00    -0.269 OA
BRANCH  26  29
ATOM     29  C   UNL A   1      42.240  20.546  26.365  1.00  0.00     0.039 A 
ATOM     30  C   UNL A   1      42.647  21.315  25.273  1.00  0.00     0.014 A 
ATOM     31  C   UNL A   1      42.368  21.030  27.668  1.00  0.00     0.014 A 
ATOM     32  C   UNL A   1      43.126  22.607  25.491  1.00  0.00     0.010 A 
ATOM     33  C   UNL A   1      42.744  22.348  27.873  1.00  0.00     0.010 A 
ATOM     34  C   UNL A   1      43.147  23.141  26.789  1.00  0.00    -0.014 A 
BRANCH  34  35
ATOM     35  C   UNL A   1      43.639  24.513  27.057  1.00  0.00     0.031 A 
ATOM     36  C   UNL A   1      42.680  25.547  27.576  1.00  0.00     0.074 A 
ATOM     37  C   UNL A   1      44.910  24.845  26.761  1.00  0.00     0.049 A 
ATOM     38  N   UNL A   1      42.863  26.827  27.773  1.00  0.00    -0.248 NA
ATOM     39  C   UNL A   1      41.312  25.087  27.871  1.00  0.00     0.031 C 
ATOM     40  C   UNL A   1      45.914  23.942  26.195  1.00  0.00     0.029 A 
ATOM     41  N   UNL A   1      45.570  26.040  26.886  1.00  0.00    -0.354 N 
ATOM     42  C   UNL A   1      41.632  27.324  28.179  1.00  0.00     0.074 A 
ATOM     43  C   UNL A   1      40.694  26.226  28.139  1.00  0.00     0.031 C 
ATOM     44  C   UNL A   1      47.070  24.610  26.048  1.00  0.00     0.029 A 
ATOM     45  C   UNL A   1      46.881  25.990  26.479  1.00  0.00     0.049 A 
ATOM     46  H   UNL A   1      45.145  26.856  27.236  1.00  0.00     0.167 HD
ATOM     47  C   UNL A   1      41.319  28.578  28.582  1.00  0.00     0.037 A 
ATOM     48  C   UNL A   1      47.819  26.956  26.461  1.00  0.00     0.037 A 
ATOM     49  C   UNL A   1      42.271  29.651  28.671  1.00  0.00     0.049 A 
ATOM     50  C   UNL A   1      47.459  28.330  26.961  1.00  0.00     0.074 A 
ATOM     51  C   UNL A   1      42.079  30.942  29.126  1.00  0.00     0.029 A 
ATOM     52  N   UNL A   1      43.606  29.546  28.307  1.00  0.00    -0.354 N 
ATOM     53  N   UNL A   1      46.307  28.776  27.401  1.00  0.00    -0.248 NA
ATOM     54  C   UNL A   1      48.534  29.331  26.973  1.00  0.00     0.031 C 
ATOM     55  C   UNL A   1      43.293  31.629  29.011  1.00  0.00     0.029 A 
ATOM     56  C   UNL A   1      44.251  30.751  28.524  1.00  0.00     0.049 A 
ATOM     57  H   UNL A   1      44.033  28.734  27.948  1.00  0.00     0.167 HD
ATOM     58  C   UNL A   1      46.525  30.095  27.773  1.00  0.00     0.074 A 
ATOM     59  C   UNL A   1      47.923  30.373  27.518  1.00  0.00     0.031 C 
ATOM     60  C   UNL A   1      45.648  30.995  28.282  1.00  0.00     0.037 A 
BRANCH  47  61
ATOM     61  C   UNL A   1      39.894  28.843  28.969  1.00  0.00     0.064 A 
ATOM     62  C   UNL A   1      39.445  28.672  30.287  1.00  0.00     0.173 A 
ATOM     63  C   UNL A   1      38.965  29.279  28.012  1.00  0.00     0.173 A 
ATOM     64  F   UNL A   1      40.289  28.239  31.236  1.00  0.00    -0.203 F 
ATOM     65  C   UNL A   1      38.113  28.892  30.626  1.00  0.00     0.198 A 
ATOM     66  C   UNL A   1      37.641  29.530  28.362  1.00  0.00     0.198 A 
ATOM     67  F   UNL A   1      39.340  29.460  26.737  1.00  0.00    -0.203 F 
ATOM     68  F   UNL A   1      37.696  28.662  31.880  1.00  0.00    -0.200 F 
ATOM     69  C   UNL A   1      37.214  29.328  29.665  1.00  0.00     0.200 A 
ATOM     70  F   UNL A   1      36.774  29.961  27.435  1.00  0.00    -0.200 F 
ATOM     71  F   UNL A   1      35.932  29.542  29.994  1.00  0.00    -0.200 F 
ENDBRANCH  47  61
BRANCH  48  72
ATOM     72  C   UNL A   1      49.198  26.646  26.003  1.00  0.00     0.064 A 
ATOM     73  C   UNL A   1      49.602  26.947  24.694  1.00  0.00     0.173 A 
ATOM     74  C   UNL A   1      50.136  26.046  26.853  1.00  0.00     0.173 A 
ATOM     75  F   UNL A   1      48.734  27.507  23.838  1.00  0.00    -0.203 F 
ATOM     76  C   UNL A   1      50.884  26.637  24.247  1.00  0.00     0.198 A 
ATOM     77  C   UNL A   1      51.426  25.760  26.412  1.00  0.00     0.198 A 
ATOM     78  F   UNL A   1      49.802  25.747  28.117  1.00  0.00    -0.203 F 
ATOM     79  F   UNL A   1      51.229  26.894  22.977  1.00  0.00    -0.200 F 
ATOM     80  C   UNL A   1      51.797  26.048  25.107  1.00  0.00     0.200 A 
ATOM     81  F   UNL A   1      52.311  25.203  27.252  1.00  0.00    -0.200 F 
ATOM     82  F   UNL A   1      53.031  25.752  24.678  1.00  0.00    -0.200 F 
ENDBRANCH  48  72
BRANCH  60  83
ATOM     83  C   UNL A   1      46.188  32.348  28.641  1.00  0.00     0.064 A 
ATOM     84  C   UNL A   1      46.197  33.405  27.721  1.00  0.00     0.173 A 
ATOM     85  C   UNL A   1      46.663  32.596  29.938  1.00  0.00     0.173 A 
ATOM     86  F   UNL A   1      45.766  33.213  26.466  1.00  0.00    -0.203 F 
ATOM     87  C   UNL A   1      46.689  34.657  28.080  1.00  0.00     0.198 A 
ATOM     88  C   UNL A   1      47.127  33.856  30.300  1.00  0.00     0.198 A 
ATOM     89  F   UNL A   1      46.667  31.617  30.855  1.00  0.00    -0.203 F 
ATOM     90  F   UNL A   1      46.733  35.643  27.172  1.00  0.00    -0.200 F 
ATOM     91  C   UNL A   1      47.146  34.884  29.370  1.00  0.00     0.200 A 
ATOM     92  F   UNL A   1      47.556  34.076  31.550  1.00  0.00    -0.200 F 
ATOM     93  F   UNL A   1      47.614  36.091  29.714  1.00  0.00    -0.200 F 
ENDBRANCH  60  83
ENDBRANCH  34  35
ENDBRANCH  26  29
ENDBRANCH  24  25
ENDBRANCH   1  24
TORSDOF 12
ENDMDL
MODEL 3
REMARK VINA RESULT:     -12.7      0.081      1.612
REMARK SMILES CC1(C)S[C@H](c2ccc(Br)cc2)[NH2+][C@H]1C(=O)NCCCCNC(=O)c1ccc(-c2c3nc(c(-c4c(F)c(F)c(F)c(F)c4F)c4ccc([nH]4)c(-c4c(F)c(F)c(F)c(F)c4F)c4nc(c(-c5c(F)c(F)c(F)c(F)c5F)c5ccc2[nH]5)C=C4)C=C3)cc1
REMARK SMILES IDX 20 1 19 2 18 3 17 4 15 5 16 6 14 8 1 9 2 10 3 11 4 12 5 13
REMARK SMILES IDX 13 14 6 17 7 18 12 19 8 20 11 21 9 22 10 23 21 24 22 25
REMARK SMILES IDX 23 26 24 28 25 29 26 30 87 31 27 32 86 33 28 34 29 35 30 36
REMARK SMILES IDX 80 37 31 38 85 39 79 40 81 41 32 42 84 43 78 44 77 45 33 47
REMARK SMILES IDX 65 48 45 49 64 50 46 51 49 52 63 53 82 54 47 55 48 56 62 58
REMARK SMILES IDX 83 59 50 60 34 61 35 62 43 63 36 64 37 65 41 66 44 67 38 68
REMARK SMILES IDX 39 69 42 70 40 71 66 72 67 73 75 74 68 75 69 76 73 77 76 78
REMARK SMILES IDX 70 79 71 80 74 81 72 82 51 83 52 84 60 85 53 86 54 87 58 88
REMARK SMILES IDX 61 89 55 90 56 91 59 92 57 93
REMARK H PARENT 17 7 13 15 13 16 22 27 81 46 49 57
REMARK Flexibility Score: inf
ROOT
ATOM      1  C   UNL A   1      31.677  31.964  26.621  1.00  0.00     0.023 C 
ENDROOT
BRANCH   1   2
ATOM      2  C   UNL A   1      31.780  30.448  26.688  1.00  0.00     0.023 C 
BRANCH   2   3
ATOM      3  C   UNL A   1      32.816  29.830  25.750  1.00  0.00     0.116 C 
BRANCH   3   4
ATOM      4  N   UNL A   1      32.313  29.702  24.398  1.00  0.00    -0.351 N 
ATOM      5  C   UNL A   1      32.108  28.636  23.574  1.00  0.00     0.279 C 
ATOM      6  O   UNL A   1      31.757  28.910  22.420  1.00  0.00    -0.268 OA
ATOM      7  H   UNL A   1      32.069  30.563  23.988  1.00  0.00     0.163 HD
BRANCH   5   8
ATOM      8  C   UNL A   1      32.318  27.162  23.981  1.00  0.00     0.289 C 
ATOM      9  C   UNL A   1      29.724  26.704  24.015  1.00  0.00     0.030 C 
ATOM     10  C   UNL A   1      31.099  26.470  24.629  1.00  0.00     0.077 C 
ATOM     11  C   UNL A   1      31.022  26.793  26.126  1.00  0.00     0.030 C 
ATOM     12  S   UNL A   1      31.459  24.698  24.402  1.00  0.00    -0.081 SA
ATOM     13  C   UNL A   1      32.878  24.945  23.291  1.00  0.00     0.274 C 
ATOM     14  N   UNL A   1      32.934  26.356  22.898  1.00  0.00    -0.320 N 
ATOM     15  H   UNL A   1      32.417  26.493  22.029  1.00  0.00     0.348 HD
ATOM     16  H   UNL A   1      33.901  26.644  22.751  1.00  0.00     0.348 HD
BRANCH  13  17
ATOM     17  C   UNL A   1      34.150  24.388  23.907  1.00  0.00     0.020 A 
ATOM     18  C   UNL A   1      34.962  23.539  23.126  1.00  0.00     0.012 A 
ATOM     19  C   UNL A   1      34.559  24.662  25.222  1.00  0.00     0.012 A 
ATOM     20  C   UNL A   1      36.114  22.952  23.651  1.00  0.00     0.016 A 
ATOM     21  C   UNL A   1      35.715  24.079  25.750  1.00  0.00     0.016 A 
ATOM     22  C   UNL A   1      36.481  23.220  24.965  1.00  0.00     0.018 A 
ATOM     23  Br  UNL A   1      38.025  22.406  25.689  1.00  0.00    -0.051 Br
ENDBRANCH  13  17
ENDBRANCH   5   8
ENDBRANCH   3   4
ENDBRANCH   2   3
ENDBRANCH   1   2
BRANCH   1  24
ATOM     24  C   UNL A   1      32.797  32.698  27.337  1.00  0.00     0.116 C 
BRANCH  24  25
ATOM     25  N   UNL A   1      32.476  34.089  27.623  1.00  0.00    -0.352 N 
ATOM     26  C   UNL A   1      33.002  34.913  28.591  1.00  0.00     0.251 C 
ATOM     27  H   UNL A   1      31.789  34.495  27.046  1.00  0.00     0.163 HD
ATOM     28  O   UNL A   1      32.531  36.021  28.797  1.00  0.00    -0.269 OA
BRANCH  26  29
ATOM     29  C   UNL A   1      34.132  34.415  29.398  1.00  0.00     0.039 A 
ATOM     30  C   UNL A   1      33.872  33.719  30.580  1.00  0.00     0.014 A 
ATOM     31  C   UNL A   1      35.441  34.586  28.942  1.00  0.00     0.014 A 
ATOM     32  C   UNL A   1      34.932  33.136  31.274  1.00  0.00     0.010 A 
ATOM     33  C   UNL A   1      36.477  33.918  29.575  1.00  0.00     0.010 A 
ATOM     34  C   UNL A   1      36.235  33.204  30.758  1.00  0.00    -0.014 A 
BRANCH  34  35
ATOM     35  C   UNL A   1      37.384  32.588  31.462  1.00  0.00     0.031 A 
ATOM     36  C   UNL A   1      38.119  31.450  30.809  1.00  0.00     0.074 A 
ATOM     37  C   UNL A   1      37.710  32.989  32.705  1.00  0.00     0.049 A 
ATOM     38  N   UNL A   1      39.072  30.694  31.286  1.00  0.00    -0.248 NA
ATOM     39  C   UNL A   1      37.690  31.085  29.448  1.00  0.00     0.031 C 
ATOM     40  C   UNL A   1      37.029  34.040  33.464  1.00  0.00     0.029 A 
ATOM     41  N   UNL A   1      38.693  32.550  33.554  1.00  0.00    -0.354 N 
ATOM     42  C   UNL A   1      39.330  29.749  30.301  1.00  0.00     0.074 A 
ATOM     43  C   UNL A   1      38.391  29.984  29.228  1.00  0.00     0.031 C 
ATOM     44  C   UNL A   1      37.634  34.182  34.655  1.00  0.00     0.029 A 
ATOM     45  C   UNL A   1      38.721  33.214  34.755  1.00  0.00     0.049 A 
ATOM     46  H   UNL A   1      39.320  31.827  33.323  1.00  0.00     0.167 HD
ATOM     47  C   UNL A   1      40.286  28.791  30.280  1.00  0.00     0.037 A 
ATOM     48  C   UNL A   1      39.538  33.056  35.814  1.00  0.00     0.037 A 
ATOM     49  C   UNL A   1      41.251  28.600  31.326  1.00  0.00     0.049 A 
ATOM     50  C   UNL A   1      40.626  32.017  35.744  1.00  0.00     0.074 A 
ATOM     51  C   UNL A   1      42.303  27.705  31.380  1.00  0.00     0.029 A 
ATOM     52  N   UNL A   1      41.286  29.335  32.503  1.00  0.00    -0.354 N 
ATOM     53  N   UNL A   1      40.900  31.168  34.783  1.00  0.00    -0.248 NA
ATOM     54  C   UNL A   1      41.525  31.924  36.902  1.00  0.00     0.031 C 
ATOM     55  C   UNL A   1      42.959  27.878  32.605  1.00  0.00     0.029 A 
ATOM     56  C   UNL A   1      42.341  28.910  33.293  1.00  0.00     0.049 A 
ATOM     57  H   UNL A   1      40.655  30.052  32.742  1.00  0.00     0.167 HD
ATOM     58  C   UNL A   1      42.020  30.464  35.204  1.00  0.00     0.074 A 
ATOM     59  C   UNL A   1      42.381  30.994  36.502  1.00  0.00     0.031 C 
ATOM     60  C   UNL A   1      42.691  29.470  34.572  1.00  0.00     0.037 A 
BRANCH  47  61
ATOM     61  C   UNL A   1      40.337  27.895  29.077  1.00  0.00     0.064 A 
ATOM     62  C   UNL A   1      41.087  28.231  27.940  1.00  0.00     0.173 A 
ATOM     63  C   UNL A   1      39.634  26.681  29.062  1.00  0.00     0.173 A 
ATOM     64  F   UNL A   1      41.764  29.389  27.896  1.00  0.00    -0.203 F 
ATOM     65  C   UNL A   1      41.102  27.405  26.819  1.00  0.00     0.198 A 
ATOM     66  C   UNL A   1      39.677  25.841  27.953  1.00  0.00     0.198 A 
ATOM     67  F   UNL A   1      38.902  26.310  30.123  1.00  0.00    -0.203 F 
ATOM     68  F   UNL A   1      41.777  27.779  25.723  1.00  0.00    -0.200 F 
ATOM     69  C   UNL A   1      40.403  26.208  26.829  1.00  0.00     0.200 A 
ATOM     70  F   UNL A   1      39.009  24.680  27.966  1.00  0.00    -0.200 F 
ATOM     71  F   UNL A   1      40.420  25.412  25.751  1.00  0.00    -0.200 F 
ENDBRANCH  47  61
BRANCH  48  72
ATOM     72  C   UNL A   1      39.393  33.933  37.004  1.00  0.00     0.064 A 
ATOM     73  C   UNL A   1      39.998  35.197  37.039  1.00  0.00     0.173 A 
ATOM     74  C   UNL A   1      38.656  33.531  38.126  1.00  0.00     0.173 A 
ATOM     75  F   UNL A   1      40.727  35.619  35.995  1.00  0.00    -0.203 F 
ATOM     76  C   UNL A   1      39.890  36.017  38.160  1.00  0.00     0.198 A 
ATOM     77  C   UNL A   1      38.528  34.362  39.237  1.00  0.00     0.198 A 
ATOM     78  F   UNL A   1      38.051  32.334  38.139  1.00  0.00    -0.203 F 
ATOM     79  F   UNL A   1      40.516  37.202  38.184  1.00  0.00    -0.200 F 
ATOM     80  C   UNL A   1      39.151  35.601  39.257  1.00  0.00     0.200 A 
ATOM     81  F   UNL A   1      37.801  33.963  40.291  1.00  0.00    -0.200 F 
ATOM     82  F   UNL A   1      39.046  36.390  40.335  1.00  0.00    -0.200 F 
ENDBRANCH  48  72
BRANCH  60  83
ATOM     83  C   UNL A   1      43.910  28.927  35.256  1.00  0.00     0.064 A 
ATOM     84  C   UNL A   1      45.186  29.455  35.015  1.00  0.00     0.173 A 
ATOM     85  C   UNL A   1      43.790  27.891  36.195  1.00  0.00     0.173 A 
ATOM     86  F   UNL A   1      45.353  30.437  34.117  1.00  0.00    -0.203 F 
ATOM     87  C   UNL A   1      46.303  28.946  35.672  1.00  0.00     0.198 A 
ATOM     88  C   UNL A   1      44.906  27.405  36.870  1.00  0.00     0.198 A 
ATOM     89  F   UNL A   1      42.589  27.359  36.464  1.00  0.00    -0.203 F 
ATOM     90  F   UNL A   1      47.521  29.433  35.393  1.00  0.00    -0.200 F 
ATOM     91  C   UNL A   1      46.162  27.927  36.603  1.00  0.00     0.200 A 
ATOM     92  F   UNL A   1      44.765  26.430  37.778  1.00  0.00    -0.200 F 
ATOM     93  F   UNL A   1      47.238  27.444  37.238  1.00  0.00    -0.200 F 
ENDBRANCH  60  83
ENDBRANCH  34  35
ENDBRANCH  26  29
ENDBRANCH  24  25
ENDBRANCH   1  24
TORSDOF 12
ENDMDL
