MODEL 1
REMARK VINA RESULT:     -13.3      0.000      0.000
REMARK SMILES C[C@H](NC(=O)c1ccc(C(C)(C)C)cc1)C(=O)N[C@@H](C(=O)NCCCCNC(=O)c1ccc(-c2c3nc(c(-c4c(F)c(F)c(F)c(F)c4F)c4ccc([nH]4)c(-c4c(F)c(F)c(F)c(F)c4F)c4nc(c(-c5c(F)c(F)c(F)c(F)c5F)c5ccc2[nH]5)C=C4)C=C3)cc1)[C@H](C)O
REMARK SMILES IDX 23 1 22 2 20 3 21 4 19 6 18 7 16 8 17 9 2 11 1 12 3 13 4 14
REMARK SMILES IDX 5 16 6 17 7 18 15 19 8 20 14 21 9 22 10 23 11 24 12 25 13 26
REMARK SMILES IDX 93 27 94 28 95 29 24 31 25 32 26 33 27 34 28 35 29 37 30 38
REMARK SMILES IDX 31 39 92 40 32 41 91 42 33 43 34 44 35 45 85 46 36 47 90 48
REMARK SMILES IDX 84 49 86 50 37 51 89 52 83 53 82 54 38 56 70 57 50 58 69 59
REMARK SMILES IDX 51 60 54 61 68 62 87 63 52 64 53 65 67 67 88 68 55 69 39 70
REMARK SMILES IDX 40 71 48 72 41 73 42 74 46 75 49 76 43 77 44 78 47 79 45 80
REMARK SMILES IDX 71 81 72 82 80 83 73 84 74 85 78 86 81 87 75 88 76 89 79 90
REMARK SMILES IDX 77 91 56 92 57 93 65 94 58 95 59 96 63 97 66 98 60 99 61 100
REMARK SMILES IDX 64 101 62 102
REMARK H PARENT 22 5 18 10 3 15 95 30 27 36 86 55 54 66
REMARK Flexibility Score: inf
ROOT
ATOM      1  C   UNL A   1      31.111  26.383  25.970  1.00  0.00     0.116 C 
ENDROOT
BRANCH   1   2
ATOM      2  N   UNL A   1      29.979  26.526  25.032  1.00  0.00    -0.354 N 
ATOM      3  C   UNL A   1      29.639  26.886  23.766  1.00  0.00     0.245 C 
ATOM      4  O   UNL A   1      28.419  26.641  23.624  1.00  0.00    -0.273 OA
ATOM      5  H   UNL A   1      29.157  26.260  25.504  1.00  0.00     0.163 HD
BRANCH   3   6
ATOM      6  C   UNL A   1      30.457  27.477  22.468  1.00  0.00     0.200 C 
BRANCH   6   7
ATOM      7  N   UNL A   1      31.824  27.074  21.934  1.00  0.00    -0.340 N 
ATOM      8  C   UNL A   1      32.575  25.954  21.722  1.00  0.00     0.243 C 
ATOM      9  O   UNL A   1      33.305  25.965  20.721  1.00  0.00    -0.273 OA
ATOM     10  H   UNL A   1      32.325  27.874  21.655  1.00  0.00     0.164 HD
BRANCH   8  11
ATOM     11  C   UNL A   1      32.825  24.907  22.802  1.00  0.00     0.168 C 
ATOM     12  C   UNL A   1      34.297  24.632  23.059  1.00  0.00     0.041 C 
BRANCH  11  13
ATOM     13  N   UNL A   1      31.925  23.778  22.514  1.00  0.00    -0.341 N 
ATOM     14  C   UNL A   1      31.707  22.898  23.542  1.00  0.00     0.251 C 
ATOM     15  H   UNL A   1      31.503  23.662  21.632  1.00  0.00     0.164 HD
ATOM     16  O   UNL A   1      31.056  23.378  24.456  1.00  0.00    -0.269 OA
BRANCH  14  17
ATOM     17  C   UNL A   1      32.457  21.573  23.609  1.00  0.00     0.039 A 
ATOM     18  C   UNL A   1      32.057  20.469  22.843  1.00  0.00     0.014 A 
ATOM     19  C   UNL A   1      33.433  21.327  24.565  1.00  0.00     0.014 A 
ATOM     20  C   UNL A   1      32.513  19.169  23.051  1.00  0.00     0.005 A 
ATOM     21  C   UNL A   1      33.885  20.010  24.801  1.00  0.00     0.005 A 
ATOM     22  C   UNL A   1      33.397  18.898  24.079  1.00  0.00    -0.043 A 
BRANCH  22  23
ATOM     23  C   UNL A   1      33.815  17.453  24.380  1.00  0.00    -0.013 C 
ATOM     24  C   UNL A   1      35.242  17.318  24.982  1.00  0.00     0.016 C 
ATOM     25  C   UNL A   1      32.821  16.879  25.402  1.00  0.00     0.016 C 
ATOM     26  C   UNL A   1      33.818  16.611  23.090  1.00  0.00     0.016 C 
ENDBRANCH  22  23
ENDBRANCH  14  17
ENDBRANCH  11  13
ENDBRANCH   8  11
ENDBRANCH   6   7
BRANCH   6  27
ATOM     27  C   UNL A   1      30.793  28.995  22.905  1.00  0.00     0.143 C 
ATOM     28  C   UNL A   1      29.598  29.792  23.510  1.00  0.00     0.041 C 
BRANCH  27  29
ATOM     29  O   UNL A   1      31.366  29.756  21.844  1.00  0.00    -0.391 OA
ATOM     30  H   UNL A   1      32.203  30.146  22.141  1.00  0.00     0.211 HD
ENDBRANCH  27  29
ENDBRANCH   6  27
ENDBRANCH   3   6
ENDBRANCH   1   2
BRANCH   1  31
ATOM     31  C   UNL A   1      32.208  27.493  25.921  1.00  0.00     0.023 C 
BRANCH  31  32
ATOM     32  C   UNL A   1      31.979  28.830  26.607  1.00  0.00     0.023 C 
BRANCH  32  33
ATOM     33  C   UNL A   1      33.066  29.818  26.271  1.00  0.00     0.116 C 
BRANCH  33  34
ATOM     34  N   UNL A   1      32.757  31.188  26.691  1.00  0.00    -0.352 N 
ATOM     35  C   UNL A   1      33.525  32.028  27.452  1.00  0.00     0.251 C 
ATOM     36  H   UNL A   1      31.893  31.548  26.389  1.00  0.00     0.163 HD
ATOM     37  O   UNL A   1      33.132  33.137  27.793  1.00  0.00    -0.269 OA
BRANCH  35  38
ATOM     38  C   UNL A   1      34.821  31.509  27.898  1.00  0.00     0.039 A 
ATOM     39  C   UNL A   1      35.889  32.393  28.025  1.00  0.00     0.014 A 
ATOM     40  C   UNL A   1      34.893  30.196  28.364  1.00  0.00     0.014 A 
ATOM     41  C   UNL A   1      37.036  31.961  28.679  1.00  0.00     0.010 A 
ATOM     42  C   UNL A   1      35.972  29.820  29.138  1.00  0.00     0.010 A 
ATOM     43  C   UNL A   1      37.067  30.686  29.268  1.00  0.00    -0.014 A 
BRANCH  43  44
ATOM     44  C   UNL A   1      38.272  30.198  29.966  1.00  0.00     0.031 A 
ATOM     45  C   UNL A   1      38.526  30.648  31.376  1.00  0.00     0.074 A 
ATOM     46  C   UNL A   1      39.144  29.405  29.317  1.00  0.00     0.049 A 
ATOM     47  N   UNL A   1      39.534  30.376  32.162  1.00  0.00    -0.248 NA
ATOM     48  C   UNL A   1      37.538  31.566  31.970  1.00  0.00     0.031 C 
ATOM     49  C   UNL A   1      39.026  28.974  27.921  1.00  0.00     0.029 A 
ATOM     50  N   UNL A   1      40.302  28.816  29.749  1.00  0.00    -0.354 N 
ATOM     51  C   UNL A   1      39.307  31.104  33.321  1.00  0.00     0.074 A 
ATOM     52  C   UNL A   1      38.122  31.900  33.108  1.00  0.00     0.031 C 
ATOM     53  C   UNL A   1      40.046  28.152  27.628  1.00  0.00     0.029 A 
ATOM     54  C   UNL A   1      40.903  28.025  28.802  1.00  0.00     0.049 A 
ATOM     55  H   UNL A   1      40.668  28.948  30.653  1.00  0.00     0.167 HD
ATOM     56  C   UNL A   1      40.000  31.075  34.481  1.00  0.00     0.037 A 
ATOM     57  C   UNL A   1      42.016  27.275  28.888  1.00  0.00     0.037 A 
ATOM     58  C   UNL A   1      41.150  30.241  34.694  1.00  0.00     0.049 A 
ATOM     59  C   UNL A   1      42.755  27.235  30.200  1.00  0.00     0.074 A 
ATOM     60  C   UNL A   1      41.896  30.075  35.844  1.00  0.00     0.029 A 
ATOM     61  N   UNL A   1      41.713  29.424  33.722  1.00  0.00    -0.354 N 
ATOM     62  N   UNL A   1      42.488  27.862  31.321  1.00  0.00    -0.248 NA
ATOM     63  C   UNL A   1      43.941  26.374  30.262  1.00  0.00     0.031 C 
ATOM     64  C   UNL A   1      42.940  29.189  35.557  1.00  0.00     0.029 A 
ATOM     65  C   UNL A   1      42.811  28.762  34.244  1.00  0.00     0.049 A 
ATOM     66  H   UNL A   1      41.381  29.330  32.801  1.00  0.00     0.167 HD
ATOM     67  C   UNL A   1      43.451  27.450  32.229  1.00  0.00     0.074 A 
ATOM     68  C   UNL A   1      44.299  26.503  31.532  1.00  0.00     0.031 C 
ATOM     69  C   UNL A   1      43.626  27.818  33.523  1.00  0.00     0.037 A 
BRANCH  56  70
ATOM     70  C   UNL A   1      39.518  31.955  35.597  1.00  0.00     0.064 A 
ATOM     71  C   UNL A   1      40.006  33.260  35.773  1.00  0.00     0.173 A 
ATOM     72  C   UNL A   1      38.555  31.489  36.505  1.00  0.00     0.173 A 
ATOM     73  F   UNL A   1      40.945  33.747  34.946  1.00  0.00    -0.203 F 
ATOM     74  C   UNL A   1      39.576  34.051  36.835  1.00  0.00     0.198 A 
ATOM     75  C   UNL A   1      38.101  32.297  37.544  1.00  0.00     0.198 A 
ATOM     76  F   UNL A   1      38.057  30.250  36.386  1.00  0.00    -0.203 F 
ATOM     77  F   UNL A   1      40.106  35.269  37.017  1.00  0.00    -0.200 F 
ATOM     78  C   UNL A   1      38.618  33.572  37.714  1.00  0.00     0.200 A 
ATOM     79  F   UNL A   1      37.167  31.837  38.388  1.00  0.00    -0.200 F 
ATOM     80  F   UNL A   1      38.201  34.337  38.733  1.00  0.00    -0.200 F 
ENDBRANCH  56  70
BRANCH  57  81
ATOM     81  C   UNL A   1      42.466  26.466  27.725  1.00  0.00     0.064 A 
ATOM     82  C   UNL A   1      43.421  26.964  26.827  1.00  0.00     0.173 A 
ATOM     83  C   UNL A   1      41.952  25.184  27.484  1.00  0.00     0.173 A 
ATOM     84  F   UNL A   1      43.933  28.191  27.007  1.00  0.00    -0.203 F 
ATOM     85  C   UNL A   1      43.824  26.223  25.718  1.00  0.00     0.198 A 
ATOM     86  C   UNL A   1      42.378  24.431  26.390  1.00  0.00     0.198 A 
ATOM     87  F   UNL A   1      41.045  24.655  28.318  1.00  0.00    -0.203 F 
ATOM     88  F   UNL A   1      44.700  26.745  24.849  1.00  0.00    -0.200 F 
ATOM     89  C   UNL A   1      43.305  24.956  25.502  1.00  0.00     0.200 A 
ATOM     90  F   UNL A   1      41.887  23.200  26.195  1.00  0.00    -0.200 F 
ATOM     91  F   UNL A   1      43.693  24.242  24.437  1.00  0.00    -0.200 F 
ENDBRANCH  57  81
BRANCH  69  92
ATOM     92  C   UNL A   1      44.752  27.168  34.272  1.00  0.00     0.064 A 
ATOM     93  C   UNL A   1      46.011  27.775  34.380  1.00  0.00     0.173 A 
ATOM     94  C   UNL A   1      44.552  25.942  34.923  1.00  0.00     0.173 A 
ATOM     95  F   UNL A   1      46.254  28.941  33.763  1.00  0.00    -0.203 F 
ATOM     96  C   UNL A   1      47.040  27.160  35.087  1.00  0.00     0.198 A 
ATOM     97  C   UNL A   1      45.571  25.348  35.659  1.00  0.00     0.198 A 
ATOM     98  F   UNL A   1      43.360  25.327  34.859  1.00  0.00    -0.203 F 
ATOM     99  F   UNL A   1      48.252  27.730  35.132  1.00  0.00    -0.200 F 
ATOM    100  C   UNL A   1      46.818  25.952  35.732  1.00  0.00     0.200 A 
ATOM    101  F   UNL A   1      45.349  24.190  36.296  1.00  0.00    -0.200 F 
ATOM    102  F   UNL A   1      47.808  25.367  36.418  1.00  0.00    -0.200 F 
ENDBRANCH  69  92
ENDBRANCH  43  44
ENDBRANCH  35  38
ENDBRANCH  33  34
ENDBRANCH  32  33
ENDBRANCH  31  32
ENDBRANCH   1  31
TORSDOF 18
ENDMDL
MODEL 2
REMARK VINA RESULT:     -12.9      1.738      2.702
REMARK SMILES C[C@H](NC(=O)c1ccc(C(C)(C)C)cc1)C(=O)N[C@@H](C(=O)NCCCCNC(=O)c1ccc(-c2c3nc(c(-c4c(F)c(F)c(F)c(F)c4F)c4ccc([nH]4)c(-c4c(F)c(F)c(F)c(F)c4F)c4nc(c(-c5c(F)c(F)c(F)c(F)c5F)c5ccc2[nH]5)C=C4)C=C3)cc1)[C@H](C)O
REMARK SMILES IDX 23 1 22 2 20 3 21 4 19 6 18 7 16 8 17 9 2 11 1 12 3 13 4 14
REMARK SMILES IDX 5 16 6 17 7 18 15 19 8 20 14 21 9 22 10 23 11 24 12 25 13 26
REMARK SMILES IDX 93 27 94 28 95 29 24 31 25 32 26 33 27 34 28 35 29 37 30 38
REMARK SMILES IDX 31 39 92 40 32 41 91 42 33 43 34 44 35 45 85 46 36 47 90 48
REMARK SMILES IDX 84 49 86 50 37 51 89 52 83 53 82 54 38 56 70 57 50 58 69 59
REMARK SMILES IDX 51 60 54 61 68 62 87 63 52 64 53 65 67 67 88 68 55 69 39 70
REMARK SMILES IDX 40 71 48 72 41 73 42 74 46 75 49 76 43 77 44 78 47 79 45 80
REMARK SMILES IDX 71 81 72 82 80 83 73 84 74 85 78 86 81 87 75 88 76 89 79 90
REMARK SMILES IDX 77 91 56 92 57 93 65 94 58 95 59 96 63 97 66 98 60 99 61 100
REMARK SMILES IDX 64 101 62 102
REMARK H PARENT 22 5 18 10 3 15 95 30 27 36 86 55 54 66
REMARK Flexibility Score: inf
ROOT
ATOM      1  C   UNL A   1      33.713  29.858  26.439  1.00  0.00     0.116 C 
ENDROOT
BRANCH   1   2
ATOM      2  N   UNL A   1      33.576  29.501  25.012  1.00  0.00    -0.354 N 
ATOM      3  C   UNL A   1      32.683  29.157  24.045  1.00  0.00     0.245 C 
ATOM      4  O   UNL A   1      33.312  29.096  22.964  1.00  0.00    -0.273 OA
ATOM      5  H   UNL A   1      34.473  29.517  24.607  1.00  0.00     0.163 HD
BRANCH   3   6
ATOM      6  C   UNL A   1      31.062  28.885  24.006  1.00  0.00     0.200 C 
BRANCH   6   7
ATOM      7  N   UNL A   1      30.307  27.580  24.212  1.00  0.00    -0.340 N 
ATOM      8  C   UNL A   1      30.507  26.320  24.700  1.00  0.00     0.243 C 
ATOM      9  O   UNL A   1      29.546  25.798  25.282  1.00  0.00    -0.273 OA
ATOM     10  H   UNL A   1      29.380  27.673  23.892  1.00  0.00     0.164 HD
BRANCH   8  11
ATOM     11  C   UNL A   1      31.666  25.435  24.255  1.00  0.00     0.168 C 
ATOM     12  C   UNL A   1      31.493  24.856  22.861  1.00  0.00     0.041 C 
BRANCH  11  13
ATOM     13  N   UNL A   1      31.961  24.528  25.377  1.00  0.00    -0.341 N 
ATOM     14  C   UNL A   1      33.204  23.951  25.381  1.00  0.00     0.251 C 
ATOM     15  H   UNL A   1      31.300  24.346  26.084  1.00  0.00     0.164 HD
ATOM     16  O   UNL A   1      34.102  24.749  25.595  1.00  0.00    -0.269 OA
BRANCH  14  17
ATOM     17  C   UNL A   1      33.406  22.523  24.887  1.00  0.00     0.039 A 
ATOM     18  C   UNL A   1      32.361  21.803  24.293  1.00  0.00     0.014 A 
ATOM     19  C   UNL A   1      34.554  21.800  25.178  1.00  0.00     0.014 A 
ATOM     20  C   UNL A   1      32.388  20.427  24.073  1.00  0.00     0.005 A 
ATOM     21  C   UNL A   1      34.586  20.402  24.980  1.00  0.00     0.005 A 
ATOM     22  C   UNL A   1      33.483  19.682  24.467  1.00  0.00    -0.043 A 
BRANCH  22  23
ATOM     23  C   UNL A   1      33.473  18.154  24.326  1.00  0.00    -0.013 C 
ATOM     24  C   UNL A   1      34.886  17.506  24.328  1.00  0.00     0.016 C 
ATOM     25  C   UNL A   1      32.692  17.577  25.517  1.00  0.00     0.016 C 
ATOM     26  C   UNL A   1      32.819  17.739  22.994  1.00  0.00     0.016 C 
ENDBRANCH  22  23
ENDBRANCH  14  17
ENDBRANCH  11  13
ENDBRANCH   8  11
ENDBRANCH   6   7
BRANCH   6  27
ATOM     27  C   UNL A   1      30.682  29.157  22.460  1.00  0.00     0.143 C 
ATOM     28  C   UNL A   1      29.254  29.735  22.220  1.00  0.00     0.041 C 
BRANCH  27  29
ATOM     29  O   UNL A   1      30.857  28.002  21.642  1.00  0.00    -0.391 OA
ATOM     30  H   UNL A   1      31.434  28.219  20.894  1.00  0.00     0.211 HD
ENDBRANCH  27  29
ENDBRANCH   6  27
ENDBRANCH   3   6
ENDBRANCH   1   2
BRANCH   1  31
ATOM     31  C   UNL A   1      32.418  30.330  27.173  1.00  0.00     0.023 C 
BRANCH  31  32
ATOM     32  C   UNL A   1      31.938  31.766  27.034  1.00  0.00     0.023 C 
BRANCH  32  33
ATOM     33  C   UNL A   1      33.053  32.749  27.282  1.00  0.00     0.116 C 
BRANCH  33  34
ATOM     34  N   UNL A   1      32.580  34.081  27.669  1.00  0.00    -0.352 N 
ATOM     35  C   UNL A   1      33.072  34.896  28.653  1.00  0.00     0.251 C 
ATOM     36  H   UNL A   1      31.815  34.433  27.158  1.00  0.00     0.163 HD
ATOM     37  O   UNL A   1      32.551  35.970  28.927  1.00  0.00    -0.269 OA
BRANCH  35  38
ATOM     38  C   UNL A   1      34.218  34.390  29.411  1.00  0.00     0.039 A 
ATOM     39  C   UNL A   1      33.989  33.501  30.459  1.00  0.00     0.014 A 
ATOM     40  C   UNL A   1      35.504  34.657  28.943  1.00  0.00     0.014 A 
ATOM     41  C   UNL A   1      35.072  32.831  31.012  1.00  0.00     0.010 A 
ATOM     42  C   UNL A   1      36.554  33.883  29.393  1.00  0.00     0.010 A 
ATOM     43  C   UNL A   1      36.353  32.994  30.457  1.00  0.00    -0.014 A 
BRANCH  43  44
ATOM     44  C   UNL A   1      37.524  32.298  31.025  1.00  0.00     0.031 A 
ATOM     45  C   UNL A   1      37.990  32.671  32.403  1.00  0.00     0.074 A 
ATOM     46  C   UNL A   1      38.181  31.386  30.286  1.00  0.00     0.049 A 
ATOM     47  N   UNL A   1      39.013  32.219  33.080  1.00  0.00    -0.248 NA
ATOM     48  C   UNL A   1      37.234  33.727  33.099  1.00  0.00     0.031 C 
ATOM     49  C   UNL A   1      37.853  31.010  28.908  1.00  0.00     0.029 A 
ATOM     50  N   UNL A   1      39.262  30.604  30.595  1.00  0.00    -0.354 N 
ATOM     51  C   UNL A   1      39.029  32.950  34.260  1.00  0.00     0.074 A 
ATOM     52  C   UNL A   1      37.977  33.935  34.173  1.00  0.00     0.031 C 
ATOM     53  C   UNL A   1      38.687  30.036  28.508  1.00  0.00     0.029 A 
ATOM     54  C   UNL A   1      39.624  29.744  29.588  1.00  0.00     0.049 A 
ATOM     55  H   UNL A   1      39.735  30.654  31.457  1.00  0.00     0.167 HD
ATOM     56  C   UNL A   1      39.821  32.782  35.342  1.00  0.00     0.037 A 
ATOM     57  C   UNL A   1      40.600  28.819  29.556  1.00  0.00     0.037 A 
ATOM     58  C   UNL A   1      40.830  31.764  35.432  1.00  0.00     0.049 A 
ATOM     59  C   UNL A   1      41.450  28.630  30.785  1.00  0.00     0.074 A 
ATOM     60  C   UNL A   1      41.650  31.453  36.499  1.00  0.00     0.029 A 
ATOM     61  N   UNL A   1      41.148  30.886  34.405  1.00  0.00    -0.354 N 
ATOM     62  N   UNL A   1      41.405  29.269  31.930  1.00  0.00    -0.248 NA
ATOM     63  C   UNL A   1      42.476  27.583  30.722  1.00  0.00     0.031 C 
ATOM     64  C   UNL A   1      42.498  30.412  36.102  1.00  0.00     0.029 A 
ATOM     65  C   UNL A   1      42.167  30.041  34.808  1.00  0.00     0.049 A 
ATOM     66  H   UNL A   1      40.714  30.867  33.521  1.00  0.00     0.167 HD
ATOM     67  C   UNL A   1      42.373  28.683  32.733  1.00  0.00     0.074 A 
ATOM     68  C   UNL A   1      42.976  27.624  31.948  1.00  0.00     0.031 C 
ATOM     69  C   UNL A   1      42.736  28.990  34.003  1.00  0.00     0.037 A 
BRANCH  56  70
ATOM     70  C   UNL A   1      39.607  33.705  36.505  1.00  0.00     0.064 A 
ATOM     71  C   UNL A   1      40.212  34.971  36.564  1.00  0.00     0.173 A 
ATOM     72  C   UNL A   1      38.786  33.322  37.577  1.00  0.00     0.173 A 
ATOM     73  F   UNL A   1      41.025  35.378  35.576  1.00  0.00    -0.203 F 
ATOM     74  C   UNL A   1      40.034  35.802  37.667  1.00  0.00     0.198 A 
ATOM     75  C   UNL A   1      38.581  34.171  38.661  1.00  0.00     0.198 A 
ATOM     76  F   UNL A   1      38.186  32.123  37.574  1.00  0.00    -0.203 F 
ATOM     77  F   UNL A   1      40.675  36.978  37.728  1.00  0.00    -0.200 F 
ATOM     78  C   UNL A   1      39.213  35.405  38.710  1.00  0.00     0.200 A 
ATOM     79  F   UNL A   1      37.779  33.791  39.664  1.00  0.00    -0.200 F 
ATOM     80  F   UNL A   1      39.038  36.209  39.769  1.00  0.00    -0.200 F 
ENDBRANCH  56  70
BRANCH  57  81
ATOM     81  C   UNL A   1      40.788  27.971  28.349  1.00  0.00     0.064 A 
ATOM     82  C   UNL A   1      41.583  28.408  27.280  1.00  0.00     0.173 A 
ATOM     83  C   UNL A   1      40.179  26.713  28.237  1.00  0.00     0.173 A 
ATOM     84  F   UNL A   1      42.178  29.609  27.334  1.00  0.00    -0.203 F 
ATOM     85  C   UNL A   1      41.739  27.630  26.134  1.00  0.00     0.198 A 
ATOM     86  C   UNL A   1      40.360  25.925  27.102  1.00  0.00     0.198 A 
ATOM     87  F   UNL A   1      39.417  26.243  29.236  1.00  0.00    -0.203 F 
ATOM     88  F   UNL A   1      42.465  28.095  25.107  1.00  0.00    -0.200 F 
ATOM     89  C   UNL A   1      41.131  26.388  26.047  1.00  0.00     0.200 A 
ATOM     90  F   UNL A   1      39.784  24.717  27.030  1.00  0.00    -0.200 F 
ATOM     91  F   UNL A   1      41.282  25.640  24.946  1.00  0.00    -0.200 F 
ENDBRANCH  57  81
BRANCH  69  92
ATOM     92  C   UNL A   1      43.808  28.147  34.630  1.00  0.00     0.064 A 
ATOM     93  C   UNL A   1      43.514  26.923  35.248  1.00  0.00     0.173 A 
ATOM     94  C   UNL A   1      45.149  28.552  34.572  1.00  0.00     0.173 A 
ATOM     95  F   UNL A   1      42.244  26.500  35.339  1.00  0.00    -0.203 F 
ATOM     96  C   UNL A   1      44.523  26.151  35.816  1.00  0.00     0.198 A 
ATOM     97  C   UNL A   1      46.159  27.762  35.109  1.00  0.00     0.198 A 
ATOM     98  F   UNL A   1      45.482  29.710  33.980  1.00  0.00    -0.203 F 
ATOM     99  F   UNL A   1      44.215  25.012  36.450  1.00  0.00    -0.200 F 
ATOM    100  C   UNL A   1      45.844  26.566  35.739  1.00  0.00     0.200 A 
ATOM    101  F   UNL A   1      47.437  28.155  35.018  1.00  0.00    -0.200 F 
ATOM    102  F   UNL A   1      46.815  25.817  36.279  1.00  0.00    -0.200 F 
ENDBRANCH  69  92
ENDBRANCH  43  44
ENDBRANCH  35  38
ENDBRANCH  33  34
ENDBRANCH  32  33
ENDBRANCH  31  32
ENDBRANCH   1  31
TORSDOF 18
ENDMDL
MODEL 3
REMARK VINA RESULT:     -12.8      1.317      4.541
REMARK SMILES C[C@H](NC(=O)c1ccc(C(C)(C)C)cc1)C(=O)N[C@@H](C(=O)NCCCCNC(=O)c1ccc(-c2c3nc(c(-c4c(F)c(F)c(F)c(F)c4F)c4ccc([nH]4)c(-c4c(F)c(F)c(F)c(F)c4F)c4nc(c(-c5c(F)c(F)c(F)c(F)c5F)c5ccc2[nH]5)C=C4)C=C3)cc1)[C@H](C)O
REMARK SMILES IDX 23 1 22 2 20 3 21 4 19 6 18 7 16 8 17 9 2 11 1 12 3 13 4 14
REMARK SMILES IDX 5 16 6 17 7 18 15 19 8 20 14 21 9 22 10 23 11 24 12 25 13 26
REMARK SMILES IDX 93 27 94 28 95 29 24 31 25 32 26 33 27 34 28 35 29 37 30 38
REMARK SMILES IDX 31 39 92 40 32 41 91 42 33 43 34 44 35 45 85 46 36 47 90 48
REMARK SMILES IDX 84 49 86 50 37 51 89 52 83 53 82 54 38 56 70 57 50 58 69 59
REMARK SMILES IDX 51 60 54 61 68 62 87 63 52 64 53 65 67 67 88 68 55 69 39 70
REMARK SMILES IDX 40 71 48 72 41 73 42 74 46 75 49 76 43 77 44 78 47 79 45 80
REMARK SMILES IDX 71 81 72 82 80 83 73 84 74 85 78 86 81 87 75 88 76 89 79 90
REMARK SMILES IDX 77 91 56 92 57 93 65 94 58 95 59 96 63 97 66 98 60 99 61 100
REMARK SMILES IDX 64 101 62 102
REMARK H PARENT 22 5 18 10 3 15 95 30 27 36 86 55 54 66
REMARK Flexibility Score: inf
ROOT
ATOM      1  C   UNL A   1      31.378  26.423  26.078  1.00  0.00     0.116 C 
ENDROOT
BRANCH   1   2
ATOM      2  N   UNL A   1      31.293  25.082  26.691  1.00  0.00    -0.354 N 
ATOM      3  C   UNL A   1      31.862  23.847  26.719  1.00  0.00     0.245 C 
ATOM      4  O   UNL A   1      31.285  23.192  27.616  1.00  0.00    -0.273 OA
ATOM      5  H   UNL A   1      30.534  25.082  27.319  1.00  0.00     0.163 HD
BRANCH   3   6
ATOM      6  C   UNL A   1      33.097  23.120  25.914  1.00  0.00     0.200 C 
BRANCH   6   7
ATOM      7  N   UNL A   1      33.375  23.087  24.418  1.00  0.00    -0.340 N 
ATOM      8  C   UNL A   1      33.904  23.872  23.434  1.00  0.00     0.243 C 
ATOM      9  O   UNL A   1      34.535  23.285  22.543  1.00  0.00    -0.273 OA
ATOM     10  H   UNL A   1      33.080  22.226  24.040  1.00  0.00     0.164 HD
BRANCH   8  11
ATOM     11  C   UNL A   1      33.457  25.310  23.193  1.00  0.00     0.168 C 
ATOM     12  C   UNL A   1      34.056  26.308  24.170  1.00  0.00     0.041 C 
BRANCH  11  13
ATOM     13  N   UNL A   1      31.996  25.274  23.011  1.00  0.00    -0.341 N 
ATOM     14  C   UNL A   1      31.474  26.170  22.114  1.00  0.00     0.251 C 
ATOM     15  H   UNL A   1      31.426  24.642  23.507  1.00  0.00     0.164 HD
ATOM     16  O   UNL A   1      31.774  25.921  20.958  1.00  0.00    -0.269 OA
BRANCH  14  17
ATOM     17  C   UNL A   1      30.834  27.469  22.588  1.00  0.00     0.039 A 
ATOM     18  C   UNL A   1      29.478  27.529  22.936  1.00  0.00     0.014 A 
ATOM     19  C   UNL A   1      31.496  28.686  22.509  1.00  0.00     0.014 A 
ATOM     20  C   UNL A   1      28.769  28.716  23.110  1.00  0.00     0.005 A 
ATOM     21  C   UNL A   1      30.784  29.897  22.661  1.00  0.00     0.005 A 
ATOM     22  C   UNL A   1      29.394  29.934  22.918  1.00  0.00    -0.043 A 
BRANCH  22  23
ATOM     23  C   UNL A   1      28.593  31.239  23.001  1.00  0.00    -0.013 C 
ATOM     24  C   UNL A   1      29.322  32.386  23.756  1.00  0.00     0.016 C 
ATOM     25  C   UNL A   1      28.326  31.720  21.566  1.00  0.00     0.016 C 
ATOM     26  C   UNL A   1      27.268  31.013  23.755  1.00  0.00     0.016 C 
ENDBRANCH  22  23
ENDBRANCH  14  17
ENDBRANCH  11  13
ENDBRANCH   8  11
ENDBRANCH   6   7
BRANCH   6  27
ATOM     27  C   UNL A   1      32.818  21.548  26.155  1.00  0.00     0.143 C 
ATOM     28  C   UNL A   1      33.831  20.581  25.470  1.00  0.00     0.041 C 
BRANCH  27  29
ATOM     29  O   UNL A   1      31.494  21.165  25.790  1.00  0.00    -0.391 OA
ATOM     30  H   UNL A   1      31.165  21.760  25.098  1.00  0.00     0.211 HD
ENDBRANCH  27  29
ENDBRANCH   6  27
ENDBRANCH   3   6
ENDBRANCH   1   2
BRANCH   1  31
ATOM     31  C   UNL A   1      31.638  27.622  27.044  1.00  0.00     0.023 C 
BRANCH  31  32
ATOM     32  C   UNL A   1      31.557  29.051  26.531  1.00  0.00     0.023 C 
BRANCH  32  33
ATOM     33  C   UNL A   1      32.846  29.797  26.762  1.00  0.00     0.116 C 
BRANCH  33  34
ATOM     34  N   UNL A   1      32.660  31.238  26.951  1.00  0.00    -0.352 N 
ATOM     35  C   UNL A   1      33.536  32.135  27.500  1.00  0.00     0.251 C 
ATOM     36  H   UNL A   1      31.799  31.606  26.646  1.00  0.00     0.163 HD
ATOM     37  O   UNL A   1      33.243  33.313  27.663  1.00  0.00    -0.269 OA
BRANCH  35  38
ATOM     38  C   UNL A   1      34.826  31.603  27.946  1.00  0.00     0.039 A 
ATOM     39  C   UNL A   1      35.896  32.480  28.101  1.00  0.00     0.014 A 
ATOM     40  C   UNL A   1      34.891  30.280  28.385  1.00  0.00     0.014 A 
ATOM     41  C   UNL A   1      37.035  32.030  28.756  1.00  0.00     0.010 A 
ATOM     42  C   UNL A   1      35.961  29.884  29.161  1.00  0.00     0.010 A 
ATOM     43  C   UNL A   1      37.057  30.743  29.319  1.00  0.00    -0.014 A 
BRANCH  43  44
ATOM     44  C   UNL A   1      38.254  30.236  30.017  1.00  0.00     0.031 A 
ATOM     45  C   UNL A   1      38.506  30.670  31.432  1.00  0.00     0.074 A 
ATOM     46  C   UNL A   1      39.121  29.442  29.363  1.00  0.00     0.049 A 
ATOM     47  N   UNL A   1      39.508  30.380  32.220  1.00  0.00    -0.248 NA
ATOM     48  C   UNL A   1      37.524  31.591  32.031  1.00  0.00     0.031 C 
ATOM     49  C   UNL A   1      39.006  29.027  27.962  1.00  0.00     0.029 A 
ATOM     50  N   UNL A   1      40.272  28.838  29.795  1.00  0.00    -0.354 N 
ATOM     51  C   UNL A   1      39.282  31.098  33.386  1.00  0.00     0.074 A 
ATOM     52  C   UNL A   1      38.105  31.907  33.175  1.00  0.00     0.031 C 
ATOM     53  C   UNL A   1      40.020  28.198  27.665  1.00  0.00     0.029 A 
ATOM     54  C   UNL A   1      40.870  28.051  28.842  1.00  0.00     0.049 A 
ATOM     55  H   UNL A   1      40.636  28.957  30.701  1.00  0.00     0.167 HD
ATOM     56  C   UNL A   1      39.970  31.051  34.549  1.00  0.00     0.037 A 
ATOM     57  C   UNL A   1      41.976  27.290  28.925  1.00  0.00     0.037 A 
ATOM     58  C   UNL A   1      41.111  30.203  34.758  1.00  0.00     0.049 A 
ATOM     59  C   UNL A   1      42.709  27.230  30.240  1.00  0.00     0.074 A 
ATOM     60  C   UNL A   1      41.850  30.018  35.910  1.00  0.00     0.029 A 
ATOM     61  N   UNL A   1      41.671  29.392  33.780  1.00  0.00    -0.354 N 
ATOM     62  N   UNL A   1      42.441  27.847  31.366  1.00  0.00    -0.248 NA
ATOM     63  C   UNL A   1      43.886  26.357  30.299  1.00  0.00     0.031 C 
ATOM     64  C   UNL A   1      42.887  29.126  35.618  1.00  0.00     0.029 A 
ATOM     65  C   UNL A   1      42.759  28.714  34.300  1.00  0.00     0.049 A 
ATOM     66  H   UNL A   1      41.342  29.309  32.856  1.00  0.00     0.167 HD
ATOM     67  C   UNL A   1      43.397  27.416  32.275  1.00  0.00     0.074 A 
ATOM     68  C   UNL A   1      44.239  26.469  31.571  1.00  0.00     0.031 C 
ATOM     69  C   UNL A   1      43.569  27.769  33.573  1.00  0.00     0.037 A 
BRANCH  56  70
ATOM     70  C   UNL A   1      39.491  31.923  35.672  1.00  0.00     0.064 A 
ATOM     71  C   UNL A   1      40.002  33.215  35.873  1.00  0.00     0.173 A 
ATOM     72  C   UNL A   1      38.507  31.463  36.560  1.00  0.00     0.173 A 
ATOM     73  F   UNL A   1      40.960  33.696  35.065  1.00  0.00    -0.203 F 
ATOM     74  C   UNL A   1      39.574  34.000  36.941  1.00  0.00     0.198 A 
ATOM     75  C   UNL A   1      38.055  32.264  37.606  1.00  0.00     0.198 A 
ATOM     76  F   UNL A   1      37.986  30.236  36.416  1.00  0.00    -0.203 F 
ATOM     77  F   UNL A   1      40.125  35.203  37.148  1.00  0.00    -0.200 F 
ATOM     78  C   UNL A   1      38.596  33.526  37.801  1.00  0.00     0.200 A 
ATOM     79  F   UNL A   1      37.102  31.811  38.431  1.00  0.00    -0.200 F 
ATOM     80  F   UNL A   1      38.181  34.284  38.826  1.00  0.00    -0.200 F 
ENDBRANCH  56  70
BRANCH  57  81
ATOM     81  C   UNL A   1      42.424  26.489  27.756  1.00  0.00     0.064 A 
ATOM     82  C   UNL A   1      43.394  26.983  26.873  1.00  0.00     0.173 A 
ATOM     83  C   UNL A   1      41.892  25.218  27.494  1.00  0.00     0.173 A 
ATOM     84  F   UNL A   1      43.924  28.199  27.074  1.00  0.00    -0.203 F 
ATOM     85  C   UNL A   1      43.795  26.250  25.758  1.00  0.00     0.198 A 
ATOM     86  C   UNL A   1      42.315  24.473  26.394  1.00  0.00     0.198 A 
ATOM     87  F   UNL A   1      40.968  24.693  28.313  1.00  0.00    -0.203 F 
ATOM     88  F   UNL A   1      44.688  26.769  24.904  1.00  0.00    -0.200 F 
ATOM     89  C   UNL A   1      43.259  24.994  25.521  1.00  0.00     0.200 A 
ATOM     90  F   UNL A   1      41.806  23.253  26.179  1.00  0.00    -0.200 F 
ATOM     91  F   UNL A   1      43.645  24.288  24.451  1.00  0.00    -0.200 F 
ENDBRANCH  57  81
BRANCH  69  92
ATOM     92  C   UNL A   1      44.685  27.101  34.320  1.00  0.00     0.064 A 
ATOM     93  C   UNL A   1      45.961  27.676  34.406  1.00  0.00     0.173 A 
ATOM     94  C   UNL A   1      44.460  25.891  34.993  1.00  0.00     0.173 A 
ATOM     95  F   UNL A   1      46.229  28.825  33.769  1.00  0.00    -0.203 F 
ATOM     96  C   UNL A   1      46.981  27.044  35.112  1.00  0.00     0.198 A 
ATOM     97  C   UNL A   1      45.471  25.281  35.727  1.00  0.00     0.198 A 
ATOM     98  F   UNL A   1      43.251  25.308  34.951  1.00  0.00    -0.203 F 
ATOM     99  F   UNL A   1      48.209  27.582  35.135  1.00  0.00    -0.200 F 
ATOM    100  C   UNL A   1      46.734  25.853  35.777  1.00  0.00     0.200 A 
ATOM    101  F   UNL A   1      45.225  24.139  36.384  1.00  0.00    -0.200 F 
ATOM    102  F   UNL A   1      47.715  25.251  36.463  1.00  0.00    -0.200 F 
ENDBRANCH  69  92
ENDBRANCH  43  44
ENDBRANCH  35  38
ENDBRANCH  33  34
ENDBRANCH  32  33
ENDBRANCH  31  32
ENDBRANCH   1  31
TORSDOF 18
ENDMDL
