MODEL 1
REMARK VINA RESULT:     -11.6      0.000      0.000
REMARK SMILES CC(C)COc1ccc(CC(=O)NCCCCNC(=O)c2ccc(-c3c4nc(c(-c5c(F)c(F)c(F)c(F)c5F)c5ccc([nH]5)c(-c5c(F)c(F)c(F)c(F)c5F)c5nc(c(-c6c(F)c(F)c(F)c(F)c6F)c6ccc3[nH]6)C=C5)C=C4)cc2)cc1
REMARK SMILES IDX 14 1 13 2 11 3 12 4 10 6 9 7 6 8 7 9 85 10 8 11 84 12 5 13
REMARK SMILES IDX 4 14 2 15 1 16 3 17 15 18 16 19 17 20 18 21 19 22 20 24
REMARK SMILES IDX 21 25 22 26 83 27 23 28 82 29 24 30 25 31 26 32 76 33 27 34
REMARK SMILES IDX 81 35 75 36 77 37 28 38 80 39 74 40 73 41 29 43 61 44 41 45
REMARK SMILES IDX 60 46 42 47 45 48 59 49 78 50 43 51 44 52 58 54 79 55 46 56
REMARK SMILES IDX 30 57 31 58 39 59 32 60 33 61 37 62 40 63 34 64 35 65 38 66
REMARK SMILES IDX 36 67 62 68 63 69 71 70 64 71 65 72 69 73 72 74 66 75 67 76
REMARK SMILES IDX 70 77 68 78 47 79 48 80 56 81 49 82 50 83 54 84 57 85 51 86
REMARK SMILES IDX 52 87 55 88 53 89
REMARK H PARENT 13 5 18 23 77 42 45 53
REMARK Flexibility Score: inf
ROOT
ATOM      1  C   UNL A   1      32.669  29.949  26.971  1.00  0.00     0.116 C 
ENDROOT
BRANCH   1   2
ATOM      2  N   UNL A   1      32.136  28.683  27.435  1.00  0.00    -0.356 N 
ATOM      3  C   UNL A   1      31.986  27.505  26.758  1.00  0.00     0.224 C 
ATOM      4  O   UNL A   1      31.442  26.568  27.347  1.00  0.00    -0.275 OA
ATOM      5  H   UNL A   1      31.841  28.670  28.374  1.00  0.00     0.163 HD
BRANCH   3   6
ATOM      6  C   UNL A   1      32.537  27.334  25.349  1.00  0.00     0.135 C 
BRANCH   6   7
ATOM      7  C   UNL A   1      31.664  27.912  24.262  1.00  0.00    -0.038 A 
ATOM      8  C   UNL A   1      30.082  29.124  22.298  1.00  0.00     0.119 A 
ATOM      9  C   UNL A   1      29.491  28.276  23.230  1.00  0.00     0.047 A 
ATOM     10  C   UNL A   1      31.433  29.424  22.390  1.00  0.00     0.047 A 
ATOM     11  C   UNL A   1      30.280  27.685  24.227  1.00  0.00     0.008 A 
ATOM     12  C   UNL A   1      32.235  28.747  23.296  1.00  0.00     0.008 A 
BRANCH   8  13
ATOM     13  O   UNL A   1      29.327  29.708  21.320  1.00  0.00    -0.493 OA
BRANCH  13  14
ATOM     14  C   UNL A   1      27.948  29.881  21.718  1.00  0.00     0.232 C 
BRANCH  14  15
ATOM     15  C   UNL A   1      27.633  31.318  22.198  1.00  0.00     0.020 C 
ATOM     16  C   UNL A   1      27.585  31.427  23.732  1.00  0.00     0.011 C 
ATOM     17  C   UNL A   1      28.662  32.323  21.683  1.00  0.00     0.011 C 
ENDBRANCH  14  15
ENDBRANCH  13  14
ENDBRANCH   8  13
ENDBRANCH   6   7
ENDBRANCH   3   6
ENDBRANCH   1   2
BRANCH   1  18
ATOM     18  C   UNL A   1      31.636  30.735  26.159  1.00  0.00     0.023 C 
BRANCH  18  19
ATOM     19  C   UNL A   1      31.388  32.157  26.658  1.00  0.00     0.023 C 
BRANCH  19  20
ATOM     20  C   UNL A   1      32.602  32.839  27.267  1.00  0.00     0.116 C 
BRANCH  20  21
ATOM     21  N   UNL A   1      32.355  34.221  27.644  1.00  0.00    -0.352 N 
ATOM     22  C   UNL A   1      32.983  34.975  28.606  1.00  0.00     0.251 C 
ATOM     23  H   UNL A   1      31.643  34.680  27.141  1.00  0.00     0.163 HD
ATOM     24  O   UNL A   1      32.568  36.093  28.885  1.00  0.00    -0.269 OA
BRANCH  22  25
ATOM     25  C   UNL A   1      34.143  34.412  29.332  1.00  0.00     0.039 A 
ATOM     26  C   UNL A   1      33.915  33.727  30.528  1.00  0.00     0.014 A 
ATOM     27  C   UNL A   1      35.441  34.546  28.835  1.00  0.00     0.014 A 
ATOM     28  C   UNL A   1      34.986  33.135  31.198  1.00  0.00     0.010 A 
ATOM     29  C   UNL A   1      36.495  33.882  29.457  1.00  0.00     0.010 A 
ATOM     30  C   UNL A   1      36.280  33.181  30.653  1.00  0.00    -0.014 A 
BRANCH  30  31
ATOM     31  C   UNL A   1      37.420  32.518  31.336  1.00  0.00     0.031 A 
ATOM     32  C   UNL A   1      38.156  31.394  30.661  1.00  0.00     0.074 A 
ATOM     33  C   UNL A   1      37.770  32.906  32.578  1.00  0.00     0.049 A 
ATOM     34  N   UNL A   1      39.165  30.683  31.099  1.00  0.00    -0.248 NA
ATOM     35  C   UNL A   1      37.680  30.995  29.326  1.00  0.00     0.031 C 
ATOM     36  C   UNL A   1      37.101  33.950  33.356  1.00  0.00     0.029 A 
ATOM     37  N   UNL A   1      38.774  32.469  33.403  1.00  0.00    -0.354 N 
ATOM     38  C   UNL A   1      39.437  29.758  30.100  1.00  0.00     0.074 A 
ATOM     39  C   UNL A   1      38.447  29.948  29.064  1.00  0.00     0.031 C 
ATOM     40  C   UNL A   1      37.736  34.097  34.529  1.00  0.00     0.029 A 
ATOM     41  C   UNL A   1      38.829  33.133  34.604  1.00  0.00     0.049 A 
ATOM     42  H   UNL A   1      39.398  31.747  33.157  1.00  0.00     0.167 HD
ATOM     43  C   UNL A   1      40.443  28.851  30.038  1.00  0.00     0.037 A 
ATOM     44  C   UNL A   1      39.667  32.979  35.648  1.00  0.00     0.037 A 
ATOM     45  C   UNL A   1      41.436  28.676  31.064  1.00  0.00     0.049 A 
ATOM     46  C   UNL A   1      40.760  31.948  35.561  1.00  0.00     0.074 A 
ATOM     47  C   UNL A   1      42.524  27.823  31.074  1.00  0.00     0.029 A 
ATOM     48  N   UNL A   1      41.458  29.366  32.268  1.00  0.00    -0.354 N 
ATOM     49  N   UNL A   1      41.057  31.132  34.579  1.00  0.00    -0.248 NA
ATOM     50  C   UNL A   1      41.642  31.821  36.730  1.00  0.00     0.031 C 
ATOM     51  C   UNL A   1      43.172  27.953  32.307  1.00  0.00     0.029 A 
ATOM     52  C   UNL A   1      42.525  28.935  33.040  1.00  0.00     0.049 A 
ATOM     53  H   UNL A   1      40.810  30.058  32.535  1.00  0.00     0.167 HD
ATOM     54  C   UNL A   1      42.173  30.420  34.996  1.00  0.00     0.074 A 
ATOM     55  C   UNL A   1      42.514  30.915  36.313  1.00  0.00     0.031 C 
ATOM     56  C   UNL A   1      42.854  29.443  34.348  1.00  0.00     0.037 A 
BRANCH  43  57
ATOM     57  C   UNL A   1      40.520  27.982  28.814  1.00  0.00     0.064 A 
ATOM     58  C   UNL A   1      39.805  26.779  28.718  1.00  0.00     0.173 A 
ATOM     59  C   UNL A   1      41.291  28.375  27.709  1.00  0.00     0.173 A 
ATOM     60  F   UNL A   1      39.061  26.350  29.750  1.00  0.00    -0.203 F 
ATOM     61  C   UNL A   1      39.882  25.986  27.577  1.00  0.00     0.198 A 
ATOM     62  C   UNL A   1      41.339  27.596  26.555  1.00  0.00     0.198 A 
ATOM     63  F   UNL A   1      41.991  29.519  27.742  1.00  0.00    -0.203 F 
ATOM     64  F   UNL A   1      39.233  24.814  27.532  1.00  0.00    -0.200 F 
ATOM     65  C   UNL A   1      40.642  26.399  26.493  1.00  0.00     0.200 A 
ATOM     66  F   UNL A   1      42.060  28.005  25.503  1.00  0.00    -0.200 F 
ATOM     67  F   UNL A   1      40.708  25.639  25.391  1.00  0.00    -0.200 F 
ENDBRANCH  43  57
BRANCH  44  68
ATOM     68  C   UNL A   1      39.522  33.835  36.855  1.00  0.00     0.064 A 
ATOM     69  C   UNL A   1      38.806  33.389  37.975  1.00  0.00     0.173 A 
ATOM     70  C   UNL A   1      40.079  35.121  36.910  1.00  0.00     0.173 A 
ATOM     71  F   UNL A   1      38.237  32.173  37.964  1.00  0.00    -0.203 F 
ATOM     72  C   UNL A   1      38.627  34.205  39.089  1.00  0.00     0.198 A 
ATOM     73  C   UNL A   1      39.927  35.926  38.038  1.00  0.00     0.198 A 
ATOM     74  F   UNL A   1      40.778  35.597  35.868  1.00  0.00    -0.203 F 
ATOM     75  F   UNL A   1      37.889  33.774  40.121  1.00  0.00    -0.200 F 
ATOM     76  C   UNL A   1      39.192  35.471  39.122  1.00  0.00     0.200 A 
ATOM     77  F   UNL A   1      40.489  37.141  38.072  1.00  0.00    -0.200 F 
ATOM     78  F   UNL A   1      39.020  36.256  40.194  1.00  0.00    -0.200 F 
ENDBRANCH  44  68
BRANCH  56  79
ATOM     79  C   UNL A   1      44.059  28.869  35.039  1.00  0.00     0.064 A 
ATOM     80  C   UNL A   1      43.959  27.769  35.905  1.00  0.00     0.173 A 
ATOM     81  C   UNL A   1      45.334  29.405  34.806  1.00  0.00     0.173 A 
ATOM     82  F   UNL A   1      42.762  27.226  36.174  1.00  0.00    -0.203 F 
ATOM     83  C   UNL A   1      45.087  27.250  36.536  1.00  0.00     0.198 A 
ATOM     84  C   UNL A   1      46.464  28.860  35.409  1.00  0.00     0.198 A 
ATOM     85  F   UNL A   1      45.487  30.451  33.979  1.00  0.00    -0.203 F 
ATOM     86  F   UNL A   1      44.960  26.236  37.402  1.00  0.00    -0.200 F 
ATOM     87  C   UNL A   1      46.338  27.790  36.281  1.00  0.00     0.200 A 
ATOM     88  F   UNL A   1      47.674  29.373  35.147  1.00  0.00    -0.200 F 
ATOM     89  F   UNL A   1      47.423  27.284  36.883  1.00  0.00    -0.200 F 
ENDBRANCH  56  79
ENDBRANCH  30  31
ENDBRANCH  22  25
ENDBRANCH  20  21
ENDBRANCH  19  20
ENDBRANCH  18  19
ENDBRANCH   1  18
TORSDOF 15
ENDMDL
MODEL 2
REMARK VINA RESULT:     -11.2      6.528     10.681
REMARK SMILES CC(C)COc1ccc(CC(=O)NCCCCNC(=O)c2ccc(-c3c4nc(c(-c5c(F)c(F)c(F)c(F)c5F)c5ccc([nH]5)c(-c5c(F)c(F)c(F)c(F)c5F)c5nc(c(-c6c(F)c(F)c(F)c(F)c6F)c6ccc3[nH]6)C=C5)C=C4)cc2)cc1
REMARK SMILES IDX 14 1 13 2 11 3 12 4 10 6 9 7 6 8 7 9 85 10 8 11 84 12 5 13
REMARK SMILES IDX 4 14 2 15 1 16 3 17 15 18 16 19 17 20 18 21 19 22 20 24
REMARK SMILES IDX 21 25 22 26 83 27 23 28 82 29 24 30 25 31 26 32 76 33 27 34
REMARK SMILES IDX 81 35 75 36 77 37 28 38 80 39 74 40 73 41 29 43 61 44 41 45
REMARK SMILES IDX 60 46 42 47 45 48 59 49 78 50 43 51 44 52 58 54 79 55 46 56
REMARK SMILES IDX 30 57 31 58 39 59 32 60 33 61 37 62 40 63 34 64 35 65 38 66
REMARK SMILES IDX 36 67 62 68 63 69 71 70 64 71 65 72 69 73 72 74 66 75 67 76
REMARK SMILES IDX 70 77 68 78 47 79 48 80 56 81 49 82 50 83 54 84 57 85 51 86
REMARK SMILES IDX 52 87 55 88 53 89
REMARK H PARENT 13 5 18 23 77 42 45 53
REMARK Flexibility Score: inf
ROOT
ATOM      1  C   UNL A   1      37.603  22.210  25.192  1.00  0.00     0.116 C 
ENDROOT
BRANCH   1   2
ATOM      2  N   UNL A   1      36.719  22.659  26.249  1.00  0.00    -0.356 N 
ATOM      3  C   UNL A   1      35.409  23.046  26.179  1.00  0.00     0.224 C 
ATOM      4  O   UNL A   1      34.874  23.456  27.212  1.00  0.00    -0.275 OA
ATOM      5  H   UNL A   1      37.119  22.689  27.148  1.00  0.00     0.163 HD
BRANCH   3   6
ATOM      6  C   UNL A   1      34.619  22.907  24.886  1.00  0.00     0.135 C 
BRANCH   6   7
ATOM      7  C   UNL A   1      33.836  21.622  24.765  1.00  0.00    -0.038 A 
ATOM      8  C   UNL A   1      32.519  19.162  24.561  1.00  0.00     0.119 A 
ATOM      9  C   UNL A   1      32.488  20.050  23.489  1.00  0.00     0.047 A 
ATOM     10  C   UNL A   1      33.264  19.464  25.692  1.00  0.00     0.047 A 
ATOM     11  C   UNL A   1      33.165  21.274  23.584  1.00  0.00     0.008 A 
ATOM     12  C   UNL A   1      33.830  20.721  25.836  1.00  0.00     0.008 A 
BRANCH   8  13
ATOM     13  O   UNL A   1      31.865  17.965  24.485  1.00  0.00    -0.493 OA
BRANCH  13  14
ATOM     14  C   UNL A   1      32.493  16.941  25.290  1.00  0.00     0.232 C 
BRANCH  14  15
ATOM     15  C   UNL A   1      33.492  16.071  24.492  1.00  0.00     0.020 C 
ATOM     16  C   UNL A   1      33.831  16.677  23.118  1.00  0.00     0.011 C 
ATOM     17  C   UNL A   1      34.801  15.870  25.256  1.00  0.00     0.011 C 
ENDBRANCH  14  15
ENDBRANCH  13  14
ENDBRANCH   8  13
ENDBRANCH   6   7
ENDBRANCH   3   6
ENDBRANCH   1   2
BRANCH   1  18
ATOM     18  C   UNL A   1      37.161  20.860  24.620  1.00  0.00     0.023 C 
BRANCH  18  19
ATOM     19  C   UNL A   1      38.089  19.694  24.959  1.00  0.00     0.023 C 
BRANCH  19  20
ATOM     20  C   UNL A   1      39.197  20.029  25.944  1.00  0.00     0.116 C 
BRANCH  20  21
ATOM     21  N   UNL A   1      40.287  19.067  25.931  1.00  0.00    -0.352 N 
ATOM     22  C   UNL A   1      41.633  19.292  26.087  1.00  0.00     0.251 C 
ATOM     23  H   UNL A   1      40.025  18.128  25.792  1.00  0.00     0.163 HD
ATOM     24  O   UNL A   1      42.436  18.382  25.924  1.00  0.00    -0.269 OA
BRANCH  22  25
ATOM     25  C   UNL A   1      42.112  20.653  26.417  1.00  0.00     0.039 A 
ATOM     26  C   UNL A   1      42.332  21.555  25.375  1.00  0.00     0.014 A 
ATOM     27  C   UNL A   1      42.332  21.041  27.741  1.00  0.00     0.014 A 
ATOM     28  C   UNL A   1      42.725  22.862  25.665  1.00  0.00     0.010 A 
ATOM     29  C   UNL A   1      42.638  22.366  28.034  1.00  0.00     0.010 A 
ATOM     30  C   UNL A   1      42.852  23.287  26.998  1.00  0.00    -0.014 A 
BRANCH  30  31
ATOM     31  C   UNL A   1      43.228  24.688  27.320  1.00  0.00     0.031 A 
ATOM     32  C   UNL A   1      44.625  25.176  27.054  1.00  0.00     0.074 A 
ATOM     33  C   UNL A   1      42.320  25.509  27.883  1.00  0.00     0.049 A 
ATOM     34  N   UNL A   1      45.147  26.356  27.277  1.00  0.00    -0.248 NA
ATOM     35  C   UNL A   1      45.571  24.203  26.484  1.00  0.00     0.031 C 
ATOM     36  C   UNL A   1      40.949  25.136  28.236  1.00  0.00     0.029 A 
ATOM     37  N   UNL A   1      42.414  26.825  28.257  1.00  0.00    -0.354 N 
ATOM     38  C   UNL A   1      46.475  26.263  26.881  1.00  0.00     0.074 A 
ATOM     39  C   UNL A   1      46.699  24.896  26.469  1.00  0.00     0.031 C 
ATOM     40  C   UNL A   1      40.319  26.209  28.741  1.00  0.00     0.029 A 
ATOM     41  C   UNL A   1      41.251  27.332  28.785  1.00  0.00     0.049 A 
ATOM     42  H   UNL A   1      43.236  27.357  28.156  1.00  0.00     0.167 HD
ATOM     43  C   UNL A   1      47.414  27.239  26.835  1.00  0.00     0.037 A 
ATOM     44  C   UNL A   1      40.971  28.563  29.254  1.00  0.00     0.037 A 
ATOM     45  C   UNL A   1      47.181  28.603  27.231  1.00  0.00     0.049 A 
ATOM     46  C   UNL A   1      42.041  29.622  29.213  1.00  0.00     0.074 A 
ATOM     47  C   UNL A   1      48.050  29.678  27.175  1.00  0.00     0.029 A 
ATOM     48  N   UNL A   1      45.991  29.078  27.763  1.00  0.00    -0.354 N 
ATOM     49  N   UNL A   1      43.270  29.543  28.763  1.00  0.00    -0.248 NA
ATOM     50  C   UNL A   1      41.680  30.946  29.740  1.00  0.00     0.031 C 
ATOM     51  C   UNL A   1      47.406  30.790  27.726  1.00  0.00     0.029 A 
ATOM     52  C   UNL A   1      46.114  30.425  28.067  1.00  0.00     0.049 A 
ATOM     53  H   UNL A   1      45.180  28.539  27.906  1.00  0.00     0.167 HD
ATOM     54  C   UNL A   1      43.818  30.809  28.924  1.00  0.00     0.074 A 
ATOM     55  C   UNL A   1      42.780  31.642  29.493  1.00  0.00     0.031 C 
ATOM     56  C   UNL A   1      45.068  31.242  28.629  1.00  0.00     0.037 A 
BRANCH  43  57
ATOM     57  C   UNL A   1      48.780  26.865  26.334  1.00  0.00     0.064 A 
ATOM     58  C   UNL A   1      49.131  26.999  24.981  1.00  0.00     0.173 A 
ATOM     59  C   UNL A   1      49.763  26.402  27.221  1.00  0.00     0.173 A 
ATOM     60  F   UNL A   1      48.226  27.427  24.088  1.00  0.00    -0.203 F 
ATOM     61  C   UNL A   1      50.402  26.654  24.532  1.00  0.00     0.198 A 
ATOM     62  C   UNL A   1      51.045  26.090  26.774  1.00  0.00     0.198 A 
ATOM     63  F   UNL A   1      49.486  26.259  28.527  1.00  0.00    -0.203 F 
ATOM     64  F   UNL A   1      50.695  26.739  23.227  1.00  0.00    -0.200 F 
ATOM     65  C   UNL A   1      51.360  26.208  25.429  1.00  0.00     0.200 A 
ATOM     66  F   UNL A   1      51.974  25.674  27.645  1.00  0.00    -0.200 F 
ATOM     67  F   UNL A   1      52.587  25.884  24.996  1.00  0.00    -0.200 F 
ENDBRANCH  43  57
BRANCH  44  68
ATOM     68  C   UNL A   1      39.615  28.872  29.780  1.00  0.00     0.064 A 
ATOM     69  C   UNL A   1      38.629  29.428  28.952  1.00  0.00     0.173 A 
ATOM     70  C   UNL A   1      39.280  28.636  31.122  1.00  0.00     0.173 A 
ATOM     71  F   UNL A   1      38.906  29.691  27.666  1.00  0.00    -0.203 F 
ATOM     72  C   UNL A   1      37.373  29.763  29.452  1.00  0.00     0.198 A 
ATOM     73  C   UNL A   1      38.013  28.941  31.613  1.00  0.00     0.198 A 
ATOM     74  F   UNL A   1      40.184  28.102  31.956  1.00  0.00    -0.203 F 
ATOM     75  F   UNL A   1      36.469  30.346  28.651  1.00  0.00    -0.200 F 
ATOM     76  C   UNL A   1      37.063  29.514  30.781  1.00  0.00     0.200 A 
ATOM     77  F   UNL A   1      37.713  28.684  32.893  1.00  0.00    -0.200 F 
ATOM     78  F   UNL A   1      35.855  29.837  31.261  1.00  0.00    -0.200 F 
ENDBRANCH  44  68
BRANCH  56  79
ATOM     79  C   UNL A   1      45.372  32.692  28.882  1.00  0.00     0.064 A 
ATOM     80  C   UNL A   1      45.090  33.683  27.929  1.00  0.00     0.173 A 
ATOM     81  C   UNL A   1      45.923  33.099  30.106  1.00  0.00     0.173 A 
ATOM     82  F   UNL A   1      44.575  33.347  26.736  1.00  0.00    -0.203 F 
ATOM     83  C   UNL A   1      45.378  35.022  28.181  1.00  0.00     0.198 A 
ATOM     84  C   UNL A   1      46.176  34.442  30.369  1.00  0.00     0.198 A 
ATOM     85  F   UNL A   1      46.204  32.194  31.056  1.00  0.00    -0.203 F 
ATOM     86  F   UNL A   1      45.152  35.943  27.234  1.00  0.00    -0.200 F 
ATOM     87  C   UNL A   1      45.913  35.401  29.402  1.00  0.00     0.200 A 
ATOM     88  F   UNL A   1      46.677  34.808  31.557  1.00  0.00    -0.200 F 
ATOM     89  F   UNL A   1      46.183  36.691  29.646  1.00  0.00    -0.200 F 
ENDBRANCH  56  79
ENDBRANCH  30  31
ENDBRANCH  22  25
ENDBRANCH  20  21
ENDBRANCH  19  20
ENDBRANCH  18  19
ENDBRANCH   1  18
TORSDOF 15
ENDMDL
MODEL 3
REMARK VINA RESULT:     -11.2      6.722     11.984
REMARK SMILES CC(C)COc1ccc(CC(=O)NCCCCNC(=O)c2ccc(-c3c4nc(c(-c5c(F)c(F)c(F)c(F)c5F)c5ccc([nH]5)c(-c5c(F)c(F)c(F)c(F)c5F)c5nc(c(-c6c(F)c(F)c(F)c(F)c6F)c6ccc3[nH]6)C=C5)C=C4)cc2)cc1
REMARK SMILES IDX 14 1 13 2 11 3 12 4 10 6 9 7 6 8 7 9 85 10 8 11 84 12 5 13
REMARK SMILES IDX 4 14 2 15 1 16 3 17 15 18 16 19 17 20 18 21 19 22 20 24
REMARK SMILES IDX 21 25 22 26 83 27 23 28 82 29 24 30 25 31 26 32 76 33 27 34
REMARK SMILES IDX 81 35 75 36 77 37 28 38 80 39 74 40 73 41 29 43 61 44 41 45
REMARK SMILES IDX 60 46 42 47 45 48 59 49 78 50 43 51 44 52 58 54 79 55 46 56
REMARK SMILES IDX 30 57 31 58 39 59 32 60 33 61 37 62 40 63 34 64 35 65 38 66
REMARK SMILES IDX 36 67 62 68 63 69 71 70 64 71 65 72 69 73 72 74 66 75 67 76
REMARK SMILES IDX 70 77 68 78 47 79 48 80 56 81 49 82 50 83 54 84 57 85 51 86
REMARK SMILES IDX 52 87 55 88 53 89
REMARK H PARENT 13 5 18 23 77 42 45 53
REMARK Flexibility Score: inf
ROOT
ATOM      1  C   UNL A   1      37.525  22.070  25.035  1.00  0.00     0.116 C 
ENDROOT
BRANCH   1   2
ATOM      2  N   UNL A   1      36.731  22.575  26.136  1.00  0.00    -0.356 N 
ATOM      3  C   UNL A   1      35.440  23.025  26.140  1.00  0.00     0.224 C 
ATOM      4  O   UNL A   1      34.989  23.473  27.197  1.00  0.00    -0.275 OA
ATOM      5  H   UNL A   1      37.186  22.596  27.008  1.00  0.00     0.163 HD
BRANCH   3   6
ATOM      6  C   UNL A   1      34.566  22.909  24.900  1.00  0.00     0.135 C 
BRANCH   6   7
ATOM      7  C   UNL A   1      33.808  21.609  24.787  1.00  0.00    -0.038 A 
ATOM      8  C   UNL A   1      32.537  19.123  24.604  1.00  0.00     0.119 A 
ATOM      9  C   UNL A   1      32.528  19.982  23.509  1.00  0.00     0.047 A 
ATOM     10  C   UNL A   1      33.238  19.466  25.751  1.00  0.00     0.047 A 
ATOM     11  C   UNL A   1      33.182  21.219  23.593  1.00  0.00     0.008 A 
ATOM     12  C   UNL A   1      33.779  20.736  25.880  1.00  0.00     0.008 A 
BRANCH   8  13
ATOM     13  O   UNL A   1      31.904  17.913  24.537  1.00  0.00    -0.493 OA
BRANCH  13  14
ATOM     14  C   UNL A   1      32.531  16.916  25.376  1.00  0.00     0.232 C 
BRANCH  14  15
ATOM     15  C   UNL A   1      33.526  16.016  24.605  1.00  0.00     0.020 C 
ATOM     16  C   UNL A   1      33.869  16.578  23.214  1.00  0.00     0.011 C 
ATOM     17  C   UNL A   1      34.833  15.830  25.376  1.00  0.00     0.011 C 
ENDBRANCH  14  15
ENDBRANCH  13  14
ENDBRANCH   8  13
ENDBRANCH   6   7
ENDBRANCH   3   6
ENDBRANCH   1   2
BRANCH   1  18
ATOM     18  C   UNL A   1      37.094  20.659  24.626  1.00  0.00     0.023 C 
BRANCH  18  19
ATOM     19  C   UNL A   1      38.086  19.559  25.002  1.00  0.00     0.023 C 
BRANCH  19  20
ATOM     20  C   UNL A   1      39.317  20.042  25.751  1.00  0.00     0.116 C 
BRANCH  20  21
ATOM     21  N   UNL A   1      40.342  19.020  25.890  1.00  0.00    -0.352 N 
ATOM     22  C   UNL A   1      41.686  19.178  26.126  1.00  0.00     0.251 C 
ATOM     23  H   UNL A   1      40.030  18.090  25.805  1.00  0.00     0.163 HD
ATOM     24  O   UNL A   1      42.438  18.212  26.091  1.00  0.00    -0.269 OA
BRANCH  22  25
ATOM     25  C   UNL A   1      42.227  20.531  26.385  1.00  0.00     0.039 A 
ATOM     26  C   UNL A   1      42.678  21.289  25.303  1.00  0.00     0.014 A 
ATOM     27  C   UNL A   1      42.281  21.052  27.680  1.00  0.00     0.014 A 
ATOM     28  C   UNL A   1      43.135  22.591  25.515  1.00  0.00     0.010 A 
ATOM     29  C   UNL A   1      42.655  22.377  27.879  1.00  0.00     0.010 A 
ATOM     30  C   UNL A   1      43.099  23.156  26.801  1.00  0.00    -0.014 A 
BRANCH  30  31
ATOM     31  C   UNL A   1      43.544  24.555  27.031  1.00  0.00     0.031 A 
ATOM     32  C   UNL A   1      42.573  25.582  27.545  1.00  0.00     0.074 A 
ATOM     33  C   UNL A   1      44.813  24.905  26.746  1.00  0.00     0.049 A 
ATOM     34  N   UNL A   1      42.767  26.852  27.796  1.00  0.00    -0.248 NA
ATOM     35  C   UNL A   1      41.193  25.130  27.783  1.00  0.00     0.031 C 
ATOM     36  C   UNL A   1      45.833  24.011  26.196  1.00  0.00     0.029 A 
ATOM     37  N   UNL A   1      45.461  26.107  26.880  1.00  0.00    -0.354 N 
ATOM     38  C   UNL A   1      41.539  27.347  28.215  1.00  0.00     0.074 A 
ATOM     39  C   UNL A   1      40.590  26.260  28.119  1.00  0.00     0.031 C 
ATOM     40  C   UNL A   1      46.987  24.686  26.074  1.00  0.00     0.029 A 
ATOM     41  C   UNL A   1      46.779  26.067  26.498  1.00  0.00     0.049 A 
ATOM     42  H   UNL A   1      45.022  26.922  27.219  1.00  0.00     0.167 HD
ATOM     43  C   UNL A   1      41.237  28.587  28.670  1.00  0.00     0.037 A 
ATOM     44  C   UNL A   1      47.714  27.038  26.489  1.00  0.00     0.037 A 
ATOM     45  C   UNL A   1      42.189  29.661  28.780  1.00  0.00     0.049 A 
ATOM     46  C   UNL A   1      47.344  28.413  26.977  1.00  0.00     0.074 A 
ATOM     47  C   UNL A   1      41.996  30.937  29.276  1.00  0.00     0.029 A 
ATOM     48  N   UNL A   1      43.515  29.583  28.381  1.00  0.00    -0.354 N 
ATOM     49  N   UNL A   1      46.200  28.848  27.445  1.00  0.00    -0.248 NA
ATOM     50  C   UNL A   1      48.403  29.432  26.942  1.00  0.00     0.031 C 
ATOM     51  C   UNL A   1      43.189  31.651  29.124  1.00  0.00     0.029 A 
ATOM     52  C   UNL A   1      44.144  30.799  28.593  1.00  0.00     0.049 A 
ATOM     53  H   UNL A   1      43.946  28.783  28.002  1.00  0.00     0.167 HD
ATOM     54  C   UNL A   1      46.407  30.178  27.788  1.00  0.00     0.074 A 
ATOM     55  C   UNL A   1      47.794  30.471  27.494  1.00  0.00     0.031 C 
ATOM     56  C   UNL A   1      45.528  31.075  28.299  1.00  0.00     0.037 A 
BRANCH  43  57
ATOM     57  C   UNL A   1      39.817  28.847  29.089  1.00  0.00     0.064 A 
ATOM     58  C   UNL A   1      39.388  28.638  30.409  1.00  0.00     0.173 A 
ATOM     59  C   UNL A   1      38.883  29.346  28.169  1.00  0.00     0.173 A 
ATOM     60  F   UNL A   1      40.237  28.151  31.327  1.00  0.00    -0.203 F 
ATOM     61  C   UNL A   1      38.071  28.888  30.783  1.00  0.00     0.198 A 
ATOM     62  C   UNL A   1      37.575  29.628  28.555  1.00  0.00     0.198 A 
ATOM     63  F   UNL A   1      39.239  29.570  26.894  1.00  0.00    -0.203 F 
ATOM     64  F   UNL A   1      37.672  28.628  32.036  1.00  0.00    -0.200 F 
ATOM     65  C   UNL A   1      37.168  29.390  29.859  1.00  0.00     0.200 A 
ATOM     66  F   UNL A   1      36.708  30.128  27.665  1.00  0.00    -0.200 F 
ATOM     67  F   UNL A   1      35.902  29.639  30.224  1.00  0.00    -0.200 F 
ENDBRANCH  43  57
BRANCH  44  68
ATOM     68  C   UNL A   1      49.095  26.741  26.024  1.00  0.00     0.064 A 
ATOM     69  C   UNL A   1      50.061  26.237  26.908  1.00  0.00     0.173 A 
ATOM     70  C   UNL A   1      49.485  26.970  24.697  1.00  0.00     0.173 A 
ATOM     71  F   UNL A   1      49.743  26.019  28.193  1.00  0.00    -0.203 F 
ATOM     72  C   UNL A   1      51.368  26.002  26.489  1.00  0.00     0.198 A 
ATOM     73  C   UNL A   1      50.785  26.704  24.270  1.00  0.00     0.198 A 
ATOM     74  F   UNL A   1      48.600  27.446  23.809  1.00  0.00    -0.203 F 
ATOM     75  F   UNL A   1      52.285  25.575  27.369  1.00  0.00    -0.200 F 
ATOM     76  C   UNL A   1      51.728  26.230  25.170  1.00  0.00     0.200 A 
ATOM     77  F   UNL A   1      51.124  26.910  22.991  1.00  0.00    -0.200 F 
ATOM     78  F   UNL A   1      52.986  26.005  24.768  1.00  0.00    -0.200 F 
ENDBRANCH  44  68
BRANCH  56  79
ATOM     79  C   UNL A   1      46.049  32.450  28.607  1.00  0.00     0.064 A 
ATOM     80  C   UNL A   1      45.991  33.490  27.666  1.00  0.00     0.173 A 
ATOM     81  C   UNL A   1      46.583  32.741  29.871  1.00  0.00     0.173 A 
ATOM     82  F   UNL A   1      45.503  33.262  26.437  1.00  0.00    -0.203 F 
ATOM     83  C   UNL A   1      46.478  34.758  27.969  1.00  0.00     0.198 A 
ATOM     84  C   UNL A   1      47.034  34.020  30.183  1.00  0.00     0.198 A 
ATOM     85  F   UNL A   1      46.654  31.787  30.812  1.00  0.00    -0.203 F 
ATOM     86  F   UNL A   1      46.464  35.720  27.036  1.00  0.00    -0.200 F 
ATOM     87  C   UNL A   1      46.991  35.025  29.229  1.00  0.00     0.200 A 
ATOM     88  F   UNL A   1      47.514  34.279  31.408  1.00  0.00    -0.200 F 
ATOM     89  F   UNL A   1      47.452  36.249  29.521  1.00  0.00    -0.200 F 
ENDBRANCH  56  79
ENDBRANCH  30  31
ENDBRANCH  22  25
ENDBRANCH  20  21
ENDBRANCH  19  20
ENDBRANCH  18  19
ENDBRANCH   1  18
TORSDOF 15
ENDMDL
