MODEL 1
REMARK VINA RESULT:     -12.0      0.000      0.000
REMARK SMILES O=C(NCCCCNC(=O)c1cc(SC[C@H]2CCOC2)ccn1)c1ccc(-c2c3nc(c(-c4c(F)c(F)c(F)c(F)c4F)c4ccc([nH]4)c(-c4c(F)c(F)c(F)c(F)c4F)c4nc(c(-c5c(F)c(F)c(F)c(F)c5F)c5ccc2[nH]5)C=C4)C=C3)cc1
REMARK SMILES IDX 6 1 5 2 4 3 3 4 1 5 2 6 24 8 25 9 86 10 26 11 85 12 27 13
REMARK SMILES IDX 28 14 29 15 79 16 30 17 84 18 78 19 80 20 31 21 83 22 77 23
REMARK SMILES IDX 76 24 32 26 64 27 44 28 63 29 45 30 48 31 62 32 81 33 46 34
REMARK SMILES IDX 47 35 61 37 82 38 49 39 33 40 34 41 42 42 35 43 36 44 40 45
REMARK SMILES IDX 43 46 37 47 38 48 41 49 39 50 65 51 66 52 74 53 67 54 68 55
REMARK SMILES IDX 72 56 75 57 69 58 70 59 73 60 71 61 50 62 51 63 59 64 52 65
REMARK SMILES IDX 53 66 57 67 60 68 54 69 55 70 58 71 56 72 7 73 8 74 9 75
REMARK SMILES IDX 10 77 11 78 12 79 23 80 13 81 22 82 21 83 14 84 15 85 16 86
REMARK SMILES IDX 17 87 20 88 18 89 19 90
REMARK H PARENT 3 7 80 25 48 36 8 76
REMARK Flexibility Score: inf
ROOT
ATOM      1  C   UNL A   1      31.589  30.737  25.742  1.00  0.00     0.023 C 
ENDROOT
BRANCH   1   2
ATOM      2  C   UNL A   1      31.458  31.719  26.896  1.00  0.00     0.023 C 
BRANCH   2   3
ATOM      3  C   UNL A   1      32.693  32.558  27.181  1.00  0.00     0.116 C 
BRANCH   3   4
ATOM      4  N   UNL A   1      32.399  33.935  27.555  1.00  0.00    -0.352 N 
ATOM      5  O   UNL A   1      32.579  35.853  28.748  1.00  0.00    -0.269 OA
ATOM      6  C   UNL A   1      33.019  34.736  28.491  1.00  0.00     0.251 C 
ATOM      7  H   UNL A   1      31.650  34.353  27.072  1.00  0.00     0.163 HD
BRANCH   6   8
ATOM      8  C   UNL A   1      34.209  34.235  29.215  1.00  0.00     0.039 A 
ATOM      9  C   UNL A   1      35.492  34.597  28.805  1.00  0.00     0.014 A 
ATOM     10  C   UNL A   1      34.044  33.371  30.303  1.00  0.00     0.014 A 
ATOM     11  C   UNL A   1      36.594  33.945  29.341  1.00  0.00     0.010 A 
ATOM     12  C   UNL A   1      35.164  32.802  30.921  1.00  0.00     0.010 A 
ATOM     13  C   UNL A   1      36.449  33.050  30.416  1.00  0.00    -0.014 A 
BRANCH  13  14
ATOM     14  C   UNL A   1      37.675  32.451  31.007  1.00  0.00     0.031 A 
ATOM     15  C   UNL A   1      38.148  32.812  32.388  1.00  0.00     0.074 A 
ATOM     16  C   UNL A   1      38.319  31.499  30.303  1.00  0.00     0.049 A 
ATOM     17  N   UNL A   1      39.143  32.305  33.076  1.00  0.00    -0.248 NA
ATOM     18  C   UNL A   1      37.425  33.883  33.091  1.00  0.00     0.031 C 
ATOM     19  C   UNL A   1      37.969  31.084  28.941  1.00  0.00     0.029 A 
ATOM     20  N   UNL A   1      39.366  30.680  30.639  1.00  0.00    -0.354 N 
ATOM     21  C   UNL A   1      39.174  32.999  34.278  1.00  0.00     0.074 A 
ATOM     22  C   UNL A   1      38.114  33.984  34.220  1.00  0.00     0.031 C 
ATOM     23  C   UNL A   1      38.734  30.042  28.588  1.00  0.00     0.029 A 
ATOM     24  C   UNL A   1      39.670  29.757  29.669  1.00  0.00     0.049 A 
ATOM     25  H   UNL A   1      39.851  30.746  31.493  1.00  0.00     0.167 HD
ATOM     26  C   UNL A   1      40.003  32.821  35.335  1.00  0.00     0.037 A 
ATOM     27  C   UNL A   1      40.603  28.788  29.645  1.00  0.00     0.037 A 
ATOM     28  C   UNL A   1      41.046  31.829  35.397  1.00  0.00     0.049 A 
ATOM     29  C   UNL A   1      41.491  28.604  30.840  1.00  0.00     0.074 A 
ATOM     30  C   UNL A   1      41.932  31.568  36.428  1.00  0.00     0.029 A 
ATOM     31  N   UNL A   1      41.339  30.927  34.384  1.00  0.00    -0.354 N 
ATOM     32  N   UNL A   1      41.496  29.260  31.973  1.00  0.00    -0.248 NA
ATOM     33  C   UNL A   1      42.506  27.546  30.750  1.00  0.00     0.031 C 
ATOM     34  C   UNL A   1      42.783  30.531  36.028  1.00  0.00     0.029 A 
ATOM     35  C   UNL A   1      42.400  30.116  34.763  1.00  0.00     0.049 A 
ATOM     36  H   UNL A   1      40.865  30.870  33.523  1.00  0.00     0.167 HD
ATOM     37  C   UNL A   1      42.514  28.701  32.730  1.00  0.00     0.074 A 
ATOM     38  C   UNL A   1      43.076  27.622  31.944  1.00  0.00     0.031 C 
ATOM     39  C   UNL A   1      42.954  29.058  33.961  1.00  0.00     0.037 A 
BRANCH  26  40
ATOM     40  C   UNL A   1      39.826  33.722  36.525  1.00  0.00     0.064 A 
ATOM     41  C   UNL A   1      40.451  34.975  36.594  1.00  0.00     0.173 A 
ATOM     42  C   UNL A   1      38.963  33.360  37.571  1.00  0.00     0.173 A 
ATOM     43  F   UNL A   1      41.293  35.363  35.624  1.00  0.00    -0.203 F 
ATOM     44  C   UNL A   1      40.229  35.828  37.673  1.00  0.00     0.198 A 
ATOM     45  C   UNL A   1      38.725  34.226  38.636  1.00  0.00     0.198 A 
ATOM     46  F   UNL A   1      38.333  32.176  37.550  1.00  0.00    -0.203 F 
ATOM     47  F   UNL A   1      40.859  37.011  37.731  1.00  0.00    -0.200 F 
ATOM     48  C   UNL A   1      39.360  35.457  38.688  1.00  0.00     0.200 A 
ATOM     49  F   UNL A   1      37.874  33.872  39.610  1.00  0.00    -0.200 F 
ATOM     50  F   UNL A   1      39.136  36.286  39.716  1.00  0.00    -0.200 F 
ENDBRANCH  26  40
BRANCH  27  51
ATOM     51  C   UNL A   1      40.741  27.929  28.441  1.00  0.00     0.064 A 
ATOM     52  C   UNL A   1      41.527  28.327  27.352  1.00  0.00     0.173 A 
ATOM     53  C   UNL A   1      40.100  26.684  28.365  1.00  0.00     0.173 A 
ATOM     54  F   UNL A   1      42.145  29.517  27.372  1.00  0.00    -0.203 F 
ATOM     55  C   UNL A   1      41.653  27.518  26.224  1.00  0.00     0.198 A 
ATOM     56  C   UNL A   1      40.252  25.862  27.251  1.00  0.00     0.198 A 
ATOM     57  F   UNL A   1      39.343  26.255  29.385  1.00  0.00    -0.203 F 
ATOM     58  F   UNL A   1      42.376  27.940  25.179  1.00  0.00    -0.200 F 
ATOM     59  C   UNL A   1      41.022  26.284  26.178  1.00  0.00     0.200 A 
ATOM     60  F   UNL A   1      39.657  24.662  27.221  1.00  0.00    -0.200 F 
ATOM     61  F   UNL A   1      41.152  25.503  25.098  1.00  0.00    -0.200 F 
ENDBRANCH  27  51
BRANCH  39  62
ATOM     62  C   UNL A   1      44.102  28.271  34.518  1.00  0.00     0.064 A 
ATOM     63  C   UNL A   1      43.890  27.089  35.245  1.00  0.00     0.173 A 
ATOM     64  C   UNL A   1      45.423  28.699  34.327  1.00  0.00     0.173 A 
ATOM     65  F   UNL A   1      42.643  26.649  35.470  1.00  0.00    -0.203 F 
ATOM     66  C   UNL A   1      44.959  26.384  35.790  1.00  0.00     0.198 A 
ATOM     67  C   UNL A   1      46.492  27.977  34.851  1.00  0.00     0.198 A 
ATOM     68  F   UNL A   1      45.676  29.820  33.636  1.00  0.00    -0.203 F 
ATOM     69  F   UNL A   1      44.731  25.290  36.529  1.00  0.00    -0.200 F 
ATOM     70  C   UNL A   1      46.258  26.827  35.590  1.00  0.00     0.200 A 
ATOM     71  F   UNL A   1      47.747  28.401  34.651  1.00  0.00    -0.200 F 
ATOM     72  F   UNL A   1      47.286  26.151  36.121  1.00  0.00    -0.200 F 
ENDBRANCH  39  62
ENDBRANCH  13  14
ENDBRANCH   6   8
ENDBRANCH   3   4
ENDBRANCH   2   3
ENDBRANCH   1   2
BRANCH   1  73
ATOM     73  C   UNL A   1      32.736  29.742  25.851  1.00  0.00     0.116 C 
BRANCH  73  74
ATOM     74  N   UNL A   1      33.531  29.595  24.644  1.00  0.00    -0.351 N 
ATOM     75  C   UNL A   1      33.226  28.835  23.530  1.00  0.00     0.269 C 
ATOM     76  H   UNL A   1      34.381  30.091  24.617  1.00  0.00     0.163 HD
ATOM     77  O   UNL A   1      33.965  28.846  22.551  1.00  0.00    -0.268 OA
BRANCH  75  78
ATOM     78  C   UNL A   1      31.981  28.019  23.550  1.00  0.00     0.129 A 
ATOM     79  C   UNL A   1      30.799  28.574  23.066  1.00  0.00     0.049 A 
ATOM     80  N   UNL A   1      32.060  26.844  24.219  1.00  0.00    -0.251 NA
ATOM     81  C   UNL A   1      29.607  27.923  23.355  1.00  0.00     0.011 A 
ATOM     82  C   UNL A   1      30.900  26.197  24.423  1.00  0.00     0.113 A 
ATOM     83  C   UNL A   1      29.668  26.700  24.034  1.00  0.00     0.035 A 
BRANCH  81  84
ATOM     84  S   UNL A   1      27.971  28.548  22.999  1.00  0.00    -0.126 SA
BRANCH  84  85
ATOM     85  C   UNL A   1      28.199  29.849  21.732  1.00  0.00     0.081 C 
BRANCH  85  86
ATOM     86  C   UNL A   1      27.948  31.308  22.125  1.00  0.00     0.027 C 
ATOM     87  C   UNL A   1      29.013  31.884  23.046  1.00  0.00     0.035 C 
ATOM     88  C   UNL A   1      27.936  32.382  21.054  1.00  0.00     0.164 C 
ATOM     89  C   UNL A   1      28.708  33.372  23.009  1.00  0.00     0.160 C 
ATOM     90  O   UNL A   1      27.996  33.620  21.784  1.00  0.00    -0.381 OA
ENDBRANCH  85  86
ENDBRANCH  84  85
ENDBRANCH  81  84
ENDBRANCH  75  78
ENDBRANCH  73  74
ENDBRANCH   1  73
TORSDOF 14
ENDMDL
MODEL 2
REMARK VINA RESULT:     -11.8      3.683      5.397
REMARK SMILES O=C(NCCCCNC(=O)c1cc(SC[C@H]2CCOC2)ccn1)c1ccc(-c2c3nc(c(-c4c(F)c(F)c(F)c(F)c4F)c4ccc([nH]4)c(-c4c(F)c(F)c(F)c(F)c4F)c4nc(c(-c5c(F)c(F)c(F)c(F)c5F)c5ccc2[nH]5)C=C4)C=C3)cc1
REMARK SMILES IDX 6 1 5 2 4 3 3 4 1 5 2 6 24 8 25 9 86 10 26 11 85 12 27 13
REMARK SMILES IDX 28 14 29 15 79 16 30 17 84 18 78 19 80 20 31 21 83 22 77 23
REMARK SMILES IDX 76 24 32 26 64 27 44 28 63 29 45 30 48 31 62 32 81 33 46 34
REMARK SMILES IDX 47 35 61 37 82 38 49 39 33 40 34 41 42 42 35 43 36 44 40 45
REMARK SMILES IDX 43 46 37 47 38 48 41 49 39 50 65 51 66 52 74 53 67 54 68 55
REMARK SMILES IDX 72 56 75 57 69 58 70 59 73 60 71 61 50 62 51 63 59 64 52 65
REMARK SMILES IDX 53 66 57 67 60 68 54 69 55 70 58 71 56 72 7 73 8 74 9 75
REMARK SMILES IDX 10 77 11 78 12 79 23 80 13 81 22 82 21 83 14 84 15 85 16 86
REMARK SMILES IDX 17 87 20 88 18 89 19 90
REMARK H PARENT 3 7 80 25 48 36 8 76
REMARK Flexibility Score: inf
ROOT
ATOM      1  C   UNL A   1      32.445  26.832  26.288  1.00  0.00     0.023 C 
ENDROOT
BRANCH   1   2
ATOM      2  C   UNL A   1      31.994  28.277  26.443  1.00  0.00     0.023 C 
BRANCH   2   3
ATOM      3  C   UNL A   1      33.026  29.326  26.060  1.00  0.00     0.116 C 
BRANCH   3   4
ATOM      4  N   UNL A   1      32.648  30.686  26.422  1.00  0.00    -0.352 N 
ATOM      5  O   UNL A   1      32.795  32.669  27.507  1.00  0.00    -0.269 OA
ATOM      6  C   UNL A   1      33.306  31.587  27.231  1.00  0.00     0.251 C 
ATOM      7  H   UNL A   1      31.803  31.006  26.033  1.00  0.00     0.163 HD
BRANCH   6   8
ATOM      8  C   UNL A   1      34.628  31.238  27.799  1.00  0.00     0.039 A 
ATOM      9  C   UNL A   1      34.879  29.948  28.264  1.00  0.00     0.014 A 
ATOM     10  C   UNL A   1      35.622  32.218  27.893  1.00  0.00     0.014 A 
ATOM     11  C   UNL A   1      36.030  29.693  28.998  1.00  0.00     0.010 A 
ATOM     12  C   UNL A   1      36.833  31.926  28.532  1.00  0.00     0.010 A 
ATOM     13  C   UNL A   1      37.030  30.673  29.130  1.00  0.00    -0.014 A 
BRANCH  13  14
ATOM     14  C   UNL A   1      38.280  30.313  29.852  1.00  0.00     0.031 A 
ATOM     15  C   UNL A   1      38.537  30.761  31.265  1.00  0.00     0.074 A 
ATOM     16  C   UNL A   1      39.156  29.495  29.235  1.00  0.00     0.049 A 
ATOM     17  N   UNL A   1      39.534  30.449  32.058  1.00  0.00    -0.248 NA
ATOM     18  C   UNL A   1      37.562  31.681  31.869  1.00  0.00     0.031 C 
ATOM     19  C   UNL A   1      39.027  29.018  27.856  1.00  0.00     0.029 A 
ATOM     20  N   UNL A   1      40.296  28.885  29.691  1.00  0.00    -0.354 N 
ATOM     21  C   UNL A   1      39.315  31.141  33.242  1.00  0.00     0.074 A 
ATOM     22  C   UNL A   1      38.104  31.912  33.058  1.00  0.00     0.031 C 
ATOM     23  C   UNL A   1      40.002  28.135  27.602  1.00  0.00     0.029 A 
ATOM     24  C   UNL A   1      40.861  28.031  28.776  1.00  0.00     0.049 A 
ATOM     25  H   UNL A   1      40.672  29.043  30.587  1.00  0.00     0.167 HD
ATOM     26  C   UNL A   1      40.052  31.123  34.379  1.00  0.00     0.037 A 
ATOM     27  C   UNL A   1      41.954  27.252  28.865  1.00  0.00     0.037 A 
ATOM     28  C   UNL A   1      41.248  30.341  34.564  1.00  0.00     0.049 A 
ATOM     29  C   UNL A   1      42.736  27.240  30.145  1.00  0.00     0.074 A 
ATOM     30  C   UNL A   1      42.059  30.253  35.684  1.00  0.00     0.029 A 
ATOM     31  N   UNL A   1      41.803  29.506  33.606  1.00  0.00    -0.354 N 
ATOM     32  N   UNL A   1      42.506  27.889  31.258  1.00  0.00    -0.248 NA
ATOM     33  C   UNL A   1      43.932  26.388  30.179  1.00  0.00     0.031 C 
ATOM     34  C   UNL A   1      43.122  29.390  35.391  1.00  0.00     0.029 A 
ATOM     35  C   UNL A   1      42.951  28.908  34.104  1.00  0.00     0.049 A 
ATOM     36  H   UNL A   1      41.437  29.359  32.704  1.00  0.00     0.167 HD
ATOM     37  C   UNL A   1      43.528  27.531  32.125  1.00  0.00     0.074 A 
ATOM     38  C   UNL A   1      44.355  26.573  31.421  1.00  0.00     0.031 C 
ATOM     39  C   UNL A   1      43.769  27.968  33.384  1.00  0.00     0.037 A 
BRANCH  26  40
ATOM     40  C   UNL A   1      39.594  31.980  35.525  1.00  0.00     0.064 A 
ATOM     41  C   UNL A   1      40.032  33.303  35.672  1.00  0.00     0.173 A 
ATOM     42  C   UNL A   1      38.648  31.496  36.443  1.00  0.00     0.173 A 
ATOM     43  F   UNL A   1      40.943  33.809  34.826  1.00  0.00    -0.203 F 
ATOM     44  C   UNL A   1      39.551  34.107  36.702  1.00  0.00     0.198 A 
ATOM     45  C   UNL A   1      38.152  32.311  37.458  1.00  0.00     0.198 A 
ATOM     46  F   UNL A   1      38.190  30.239  36.343  1.00  0.00    -0.203 F 
ATOM     47  F   UNL A   1      40.005  35.362  36.839  1.00  0.00    -0.200 F 
ATOM     48  C   UNL A   1      38.605  33.614  37.589  1.00  0.00     0.200 A 
ATOM     49  F   UNL A   1      37.228  31.837  38.306  1.00  0.00    -0.200 F 
ATOM     50  F   UNL A   1      38.132  34.395  38.569  1.00  0.00    -0.200 F 
ENDBRANCH  26  40
BRANCH  27  51
ATOM     51  C   UNL A   1      42.368  26.429  27.700  1.00  0.00     0.064 A 
ATOM     52  C   UNL A   1      43.331  26.890  26.792  1.00  0.00     0.173 A 
ATOM     53  C   UNL A   1      41.818  25.158  27.481  1.00  0.00     0.173 A 
ATOM     54  F   UNL A   1      43.873  28.106  26.950  1.00  0.00    -0.203 F 
ATOM     55  C   UNL A   1      43.716  26.115  25.700  1.00  0.00     0.198 A 
ATOM     56  C   UNL A   1      42.227  24.371  26.408  1.00  0.00     0.198 A 
ATOM     57  F   UNL A   1      40.899  24.670  28.327  1.00  0.00    -0.203 F 
ATOM     58  F   UNL A   1      44.608  26.595  24.823  1.00  0.00    -0.200 F 
ATOM     59  C   UNL A   1      43.170  24.854  25.514  1.00  0.00     0.200 A 
ATOM     60  F   UNL A   1      41.711  23.146  26.243  1.00  0.00    -0.200 F 
ATOM     61  F   UNL A   1      43.548  24.105  24.468  1.00  0.00    -0.200 F 
ENDBRANCH  27  51
BRANCH  39  62
ATOM     62  C   UNL A   1      44.980  27.409  34.069  1.00  0.00     0.064 A 
ATOM     63  C   UNL A   1      44.911  26.226  34.821  1.00  0.00     0.173 A 
ATOM     64  C   UNL A   1      46.219  28.059  33.975  1.00  0.00     0.173 A 
ATOM     65  F   UNL A   1      43.743  25.579  34.955  1.00  0.00    -0.203 F 
ATOM     66  C   UNL A   1      46.032  25.734  35.483  1.00  0.00     0.198 A 
ATOM     67  C   UNL A   1      47.344  27.550  34.617  1.00  0.00     0.198 A 
ATOM     68  F   UNL A   1      46.336  29.190  33.265  1.00  0.00    -0.203 F 
ATOM     69  F   UNL A   1      45.930  24.634  36.243  1.00  0.00    -0.200 F 
ATOM     70  C   UNL A   1      47.247  26.394  35.378  1.00  0.00     0.200 A 
ATOM     71  F   UNL A   1      48.520  28.183  34.509  1.00  0.00    -0.200 F 
ATOM     72  F   UNL A   1      48.324  25.922  36.022  1.00  0.00    -0.200 F 
ENDBRANCH  39  62
ENDBRANCH  13  14
ENDBRANCH   6   8
ENDBRANCH   3   4
ENDBRANCH   2   3
ENDBRANCH   1   2
BRANCH   1  73
ATOM     73  C   UNL A   1      31.527  25.941  25.464  1.00  0.00     0.116 C 
BRANCH  73  74
ATOM     74  N   UNL A   1      30.432  25.342  26.208  1.00  0.00    -0.351 N 
ATOM     75  C   UNL A   1      30.389  24.074  26.758  1.00  0.00     0.269 C 
ATOM     76  H   UNL A   1      29.632  25.901  26.335  1.00  0.00     0.163 HD
ATOM     77  O   UNL A   1      29.417  23.715  27.414  1.00  0.00    -0.268 OA
BRANCH  75  78
ATOM     78  C   UNL A   1      31.551  23.169  26.540  1.00  0.00     0.129 A 
ATOM     79  C   UNL A   1      31.565  22.344  25.418  1.00  0.00     0.049 A 
ATOM     80  N   UNL A   1      32.432  23.088  27.565  1.00  0.00    -0.251 NA
ATOM     81  C   UNL A   1      32.495  21.313  25.380  1.00  0.00     0.011 A 
ATOM     82  C   UNL A   1      33.367  22.127  27.469  1.00  0.00     0.113 A 
ATOM     83  C   UNL A   1      33.424  21.219  26.424  1.00  0.00     0.035 A 
BRANCH  81  84
ATOM     84  S   UNL A   1      32.570  20.030  24.138  1.00  0.00    -0.126 SA
BRANCH  84  85
ATOM     85  C   UNL A   1      34.081  19.066  24.507  1.00  0.00     0.081 C 
BRANCH  85  86
ATOM     86  C   UNL A   1      33.944  17.568  24.795  1.00  0.00     0.027 C 
ATOM     87  C   UNL A   1      32.803  17.230  25.745  1.00  0.00     0.035 C 
ATOM     88  C   UNL A   1      33.616  16.613  23.662  1.00  0.00     0.164 C 
ATOM     89  C   UNL A   1      32.692  15.722  25.599  1.00  0.00     0.160 C 
ATOM     90  O   UNL A   1      33.255  15.386  24.318  1.00  0.00    -0.381 OA
ENDBRANCH  85  86
ENDBRANCH  84  85
ENDBRANCH  81  84
ENDBRANCH  75  78
ENDBRANCH  73  74
ENDBRANCH   1  73
TORSDOF 14
ENDMDL
MODEL 3
REMARK VINA RESULT:     -11.8      1.589      2.429
REMARK SMILES O=C(NCCCCNC(=O)c1cc(SC[C@H]2CCOC2)ccn1)c1ccc(-c2c3nc(c(-c4c(F)c(F)c(F)c(F)c4F)c4ccc([nH]4)c(-c4c(F)c(F)c(F)c(F)c4F)c4nc(c(-c5c(F)c(F)c(F)c(F)c5F)c5ccc2[nH]5)C=C4)C=C3)cc1
REMARK SMILES IDX 6 1 5 2 4 3 3 4 1 5 2 6 24 8 25 9 86 10 26 11 85 12 27 13
REMARK SMILES IDX 28 14 29 15 79 16 30 17 84 18 78 19 80 20 31 21 83 22 77 23
REMARK SMILES IDX 76 24 32 26 64 27 44 28 63 29 45 30 48 31 62 32 81 33 46 34
REMARK SMILES IDX 47 35 61 37 82 38 49 39 33 40 34 41 42 42 35 43 36 44 40 45
REMARK SMILES IDX 43 46 37 47 38 48 41 49 39 50 65 51 66 52 74 53 67 54 68 55
REMARK SMILES IDX 72 56 75 57 69 58 70 59 73 60 71 61 50 62 51 63 59 64 52 65
REMARK SMILES IDX 53 66 57 67 60 68 54 69 55 70 58 71 56 72 7 73 8 74 9 75
REMARK SMILES IDX 10 77 11 78 12 79 23 80 13 81 22 82 21 83 14 84 15 85 16 86
REMARK SMILES IDX 17 87 20 88 18 89 19 90
REMARK H PARENT 3 7 80 25 48 36 8 76
REMARK Flexibility Score: inf
ROOT
ATOM      1  C   UNL A   1      33.998  28.507  24.411  1.00  0.00     0.023 C 
ENDROOT
BRANCH   1   2
ATOM      2  C   UNL A   1      32.705  29.202  24.808  1.00  0.00     0.023 C 
BRANCH   2   3
ATOM      3  C   UNL A   1      32.598  29.592  26.274  1.00  0.00     0.116 C 
BRANCH   3   4
ATOM      4  N   UNL A   1      32.310  31.004  26.491  1.00  0.00    -0.352 N 
ATOM      5  O   UNL A   1      32.594  33.079  27.355  1.00  0.00    -0.269 OA
ATOM      6  C   UNL A   1      33.034  31.944  27.193  1.00  0.00     0.251 C 
ATOM      7  H   UNL A   1      31.479  31.333  26.079  1.00  0.00     0.163 HD
BRANCH   6   8
ATOM      8  C   UNL A   1      34.341  31.576  27.782  1.00  0.00     0.039 A 
ATOM      9  C   UNL A   1      34.583  30.270  28.206  1.00  0.00     0.014 A 
ATOM     10  C   UNL A   1      35.330  32.554  27.938  1.00  0.00     0.014 A 
ATOM     11  C   UNL A   1      35.716  29.991  28.959  1.00  0.00     0.010 A 
ATOM     12  C   UNL A   1      36.524  32.241  28.598  1.00  0.00     0.010 A 
ATOM     13  C   UNL A   1      36.709  30.967  29.154  1.00  0.00    -0.014 A 
BRANCH  13  14
ATOM     14  C   UNL A   1      37.941  30.583  29.895  1.00  0.00     0.031 A 
ATOM     15  C   UNL A   1      38.162  30.984  31.328  1.00  0.00     0.074 A 
ATOM     16  C   UNL A   1      38.831  29.784  29.274  1.00  0.00     0.049 A 
ATOM     17  N   UNL A   1      39.138  30.646  32.135  1.00  0.00    -0.248 NA
ATOM     18  C   UNL A   1      37.171  31.884  31.937  1.00  0.00     0.031 C 
ATOM     19  C   UNL A   1      38.738  29.353  27.877  1.00  0.00     0.029 A 
ATOM     20  N   UNL A   1      39.960  29.160  29.738  1.00  0.00    -0.354 N 
ATOM     21  C   UNL A   1      38.890  31.298  33.335  1.00  0.00     0.074 A 
ATOM     22  C   UNL A   1      37.683  32.076  33.146  1.00  0.00     0.031 C 
ATOM     23  C   UNL A   1      39.719  28.478  27.619  1.00  0.00     0.029 A 
ATOM     24  C   UNL A   1      40.548  28.336  28.810  1.00  0.00     0.049 A 
ATOM     25  H   UNL A   1      40.314  29.288  30.648  1.00  0.00     0.167 HD
ATOM     26  C   UNL A   1      39.598  31.243  34.489  1.00  0.00     0.037 A 
ATOM     27  C   UNL A   1      41.639  27.553  28.901  1.00  0.00     0.037 A 
ATOM     28  C   UNL A   1      40.789  30.455  34.679  1.00  0.00     0.049 A 
ATOM     29  C   UNL A   1      42.388  27.499  30.199  1.00  0.00     0.074 A 
ATOM     30  C   UNL A   1      41.572  30.329  35.815  1.00  0.00     0.029 A 
ATOM     31  N   UNL A   1      41.368  29.652  33.708  1.00  0.00    -0.354 N 
ATOM     32  N   UNL A   1      42.131  28.112  31.327  1.00  0.00    -0.248 NA
ATOM     33  C   UNL A   1      43.583  26.646  30.235  1.00  0.00     0.031 C 
ATOM     34  C   UNL A   1      42.642  29.477  35.521  1.00  0.00     0.029 A 
ATOM     35  C   UNL A   1      42.504  29.036  34.215  1.00  0.00     0.049 A 
ATOM     36  H   UNL A   1      41.025  29.534  32.793  1.00  0.00     0.167 HD
ATOM     37  C   UNL A   1      43.130  27.725  32.207  1.00  0.00     0.074 A 
ATOM     38  C   UNL A   1      43.975  26.790  31.493  1.00  0.00     0.031 C 
ATOM     39  C   UNL A   1      43.339  28.120  33.486  1.00  0.00     0.037 A 
BRANCH  26  40
ATOM     40  C   UNL A   1      39.110  32.062  35.651  1.00  0.00     0.064 A 
ATOM     41  C   UNL A   1      38.296  31.507  36.648  1.00  0.00     0.173 A 
ATOM     42  C   UNL A   1      39.524  33.394  35.806  1.00  0.00     0.173 A 
ATOM     43  F   UNL A   1      37.865  30.242  36.540  1.00  0.00    -0.203 F 
ATOM     44  C   UNL A   1      37.902  32.260  37.752  1.00  0.00     0.198 A 
ATOM     45  C   UNL A   1      39.148  34.136  36.925  1.00  0.00     0.198 A 
ATOM     46  F   UNL A   1      40.310  33.971  34.885  1.00  0.00    -0.203 F 
ATOM     47  F   UNL A   1      37.101  31.717  38.680  1.00  0.00    -0.200 F 
ATOM     48  C   UNL A   1      38.336  33.570  37.894  1.00  0.00     0.200 A 
ATOM     49  F   UNL A   1      39.579  35.397  37.067  1.00  0.00    -0.200 F 
ATOM     50  F   UNL A   1      37.969  34.286  38.966  1.00  0.00    -0.200 F 
ENDBRANCH  26  40
BRANCH  27  51
ATOM     51  C   UNL A   1      42.082  26.769  27.720  1.00  0.00     0.064 A 
ATOM     52  C   UNL A   1      43.037  27.277  26.829  1.00  0.00     0.173 A 
ATOM     53  C   UNL A   1      41.570  25.488  27.470  1.00  0.00     0.173 A 
ATOM     54  F   UNL A   1      43.544  28.504  27.018  1.00  0.00    -0.203 F 
ATOM     55  C   UNL A   1      43.450  26.538  25.722  1.00  0.00     0.198 A 
ATOM     56  C   UNL A   1      42.007  24.737  26.382  1.00  0.00     0.198 A 
ATOM     57  F   UNL A   1      40.660  24.956  28.298  1.00  0.00    -0.203 F 
ATOM     58  F   UNL A   1      44.333  27.062  24.862  1.00  0.00    -0.200 F 
ATOM     59  C   UNL A   1      42.941  25.267  25.504  1.00  0.00     0.200 A 
ATOM     60  F   UNL A   1      41.526  23.502  26.187  1.00  0.00    -0.200 F 
ATOM     61  F   UNL A   1      43.345  24.553  24.445  1.00  0.00    -0.200 F 
ENDBRANCH  27  51
BRANCH  39  62
ATOM     62  C   UNL A   1      44.533  27.538  34.182  1.00  0.00     0.064 A 
ATOM     63  C   UNL A   1      44.447  26.327  34.885  1.00  0.00     0.173 A 
ATOM     64  C   UNL A   1      45.771  28.195  34.148  1.00  0.00     0.173 A 
ATOM     65  F   UNL A   1      43.279  25.671  34.960  1.00  0.00    -0.203 F 
ATOM     66  C   UNL A   1      45.551  25.812  35.558  1.00  0.00     0.198 A 
ATOM     67  C   UNL A   1      46.880  27.664  34.801  1.00  0.00     0.198 A 
ATOM     68  F   UNL A   1      45.903  29.354  33.486  1.00  0.00    -0.203 F 
ATOM     69  F   UNL A   1      45.433  24.683  36.272  1.00  0.00    -0.200 F 
ATOM     70  C   UNL A   1      46.766  26.480  35.514  1.00  0.00     0.200 A 
ATOM     71  F   UNL A   1      48.056  28.305  34.752  1.00  0.00    -0.200 F 
ATOM     72  F   UNL A   1      47.826  25.986  36.168  1.00  0.00    -0.200 F 
ENDBRANCH  39  62
ENDBRANCH  13  14
ENDBRANCH   6   8
ENDBRANCH   3   4
ENDBRANCH   2   3
ENDBRANCH   1   2
BRANCH   1  73
ATOM     73  C   UNL A   1      33.896  27.006  24.185  1.00  0.00     0.116 C 
BRANCH  73  74
ATOM     74  N   UNL A   1      33.984  26.592  22.795  1.00  0.00    -0.351 N 
ATOM     75  C   UNL A   1      32.940  26.231  21.963  1.00  0.00     0.269 C 
ATOM     76  H   UNL A   1      34.886  26.566  22.403  1.00  0.00     0.163 HD
ATOM     77  O   UNL A   1      33.152  25.956  20.787  1.00  0.00    -0.268 OA
BRANCH  75  78
ATOM     78  C   UNL A   1      31.564  26.195  22.530  1.00  0.00     0.129 A 
ATOM     79  C   UNL A   1      30.709  27.270  22.301  1.00  0.00     0.049 A 
ATOM     80  N   UNL A   1      31.311  25.182  23.394  1.00  0.00    -0.251 NA
ATOM     81  C   UNL A   1      29.552  27.357  23.064  1.00  0.00     0.011 A 
ATOM     82  C   UNL A   1      30.151  25.253  24.068  1.00  0.00     0.113 A 
ATOM     83  C   UNL A   1      29.265  26.313  23.954  1.00  0.00     0.035 A 
BRANCH  81  84
ATOM     84  S   UNL A   1      28.415  28.736  23.071  1.00  0.00    -0.126 SA
BRANCH  84  85
ATOM     85  C   UNL A   1      29.453  30.237  23.198  1.00  0.00     0.081 C 
BRANCH  85  86
ATOM     86  C   UNL A   1      29.131  31.430  22.292  1.00  0.00     0.027 C 
ATOM     87  C   UNL A   1      28.183  31.092  21.151  1.00  0.00     0.035 C 
ATOM     88  C   UNL A   1      28.412  32.635  22.866  1.00  0.00     0.164 C 
ATOM     89  C   UNL A   1      27.792  32.465  20.633  1.00  0.00     0.160 C 
ATOM     90  O   UNL A   1      28.000  33.392  21.714  1.00  0.00    -0.381 OA
ENDBRANCH  85  86
ENDBRANCH  84  85
ENDBRANCH  81  84
ENDBRANCH  75  78
ENDBRANCH  73  74
ENDBRANCH   1  73
TORSDOF 14
ENDMDL
