MODEL 1
REMARK VINA RESULT:     -12.7      0.000      0.000
REMARK SMILES CCc1nc(N2CC[N@H+](CC=C(C)C)[C@H](C(=O)NCCCCNC(=O)c3ccc(-c4c5nc(c(-c6c(F)c(F)c(F)c(F)c6F)c6ccc([nH]6)c(-c6c(F)c(F)c(F)c(F)c6F)c6nc(c(-c7c(F)c(F)c(F)c(F)c7F)c7ccc4[nH]7)C=C6)C=C5)cc3)C2)no1
REMARK SMILES IDX 20 1 19 2 18 3 16 4 17 5 15 7 6 8 7 9 89 10 8 11 9 12 5 14
REMARK SMILES IDX 3 15 4 16 91 17 90 18 2 19 1 20 10 21 11 22 12 23 13 24
REMARK SMILES IDX 14 25 21 26 22 27 23 28 24 29 25 31 26 32 27 33 88 34 28 35
REMARK SMILES IDX 87 36 29 37 30 38 31 39 81 40 32 41 86 42 80 43 82 44 33 45
REMARK SMILES IDX 85 46 79 47 78 48 34 50 66 51 46 52 65 53 47 54 50 55 64 56
REMARK SMILES IDX 83 57 48 58 49 59 63 61 84 62 51 63 35 64 36 65 44 66 37 67
REMARK SMILES IDX 38 68 42 69 45 70 39 71 40 72 43 73 41 74 67 75 68 76 76 77
REMARK SMILES IDX 69 78 70 79 74 80 77 81 71 82 72 83 75 84 73 85 52 86 53 87
REMARK SMILES IDX 61 88 54 89 55 90 59 91 62 92 56 93 57 94 60 95 58 96
REMARK H PARENT 18 6 9 13 23 30 82 49 50 60
REMARK Flexibility Score: inf
ROOT
ATOM      1  C   UNL A   1      31.581  30.909  26.007  1.00  0.00     0.023 C 
ENDROOT
BRANCH   1   2
ATOM      2  C   UNL A   1      32.816  30.007  26.052  1.00  0.00     0.116 C 
BRANCH   2   3
ATOM      3  N   UNL A   1      33.327  29.732  24.727  1.00  0.00    -0.351 N 
ATOM      4  C   UNL A   1      33.204  28.667  23.889  1.00  0.00     0.280 C 
ATOM      5  O   UNL A   1      33.888  28.741  22.858  1.00  0.00    -0.268 OA
ATOM      6  H   UNL A   1      33.873  30.463  24.357  1.00  0.00     0.163 HD
BRANCH   4   7
ATOM      7  C   UNL A   1      32.291  27.441  24.125  1.00  0.00     0.294 C 
ATOM      8  N   UNL A   1      31.900  24.983  23.818  1.00  0.00    -0.326 N 
ATOM      9  C   UNL A   1      30.452  25.207  23.863  1.00  0.00     0.181 C 
ATOM     10  C   UNL A   1      32.796  26.115  23.529  1.00  0.00     0.195 C 
ATOM     11  C   UNL A   1      30.084  26.548  24.533  1.00  0.00     0.284 C 
ATOM     12  N   UNL A   1      30.830  27.727  24.059  1.00  0.00    -0.318 N 
ATOM     13  H   UNL A   1      30.714  28.524  24.685  1.00  0.00     0.349 HD
BRANCH   8  14
ATOM     14  C   UNL A   1      32.359  23.720  23.677  1.00  0.00     0.266 A 
ATOM     15  C   UNL A   1      33.611  22.095  24.066  1.00  0.00     0.227 A 
ATOM     16  N   UNL A   1      33.565  23.393  24.238  1.00  0.00    -0.176 NA
ATOM     17  O   UNL A   1      32.568  21.605  23.345  1.00  0.00    -0.337 OA
ATOM     18  N   UNL A   1      31.735  22.689  23.089  1.00  0.00    -0.038 NA
BRANCH  15  19
ATOM     19  C   UNL A   1      34.534  21.112  24.668  1.00  0.00     0.097 C 
ATOM     20  C   UNL A   1      33.861  19.747  24.732  1.00  0.00     0.014 C 
ENDBRANCH  15  19
ENDBRANCH   8  14
BRANCH  12  21
ATOM     21  C   UNL A   1      30.265  28.320  22.856  1.00  0.00     0.291 C 
BRANCH  21  22
ATOM     22  C   UNL A   1      29.560  29.639  23.009  1.00  0.00     0.032 C 
ATOM     23  C   UNL A   1      28.237  29.866  23.128  1.00  0.00    -0.075 C 
ATOM     24  C   UNL A   1      27.714  31.272  23.264  1.00  0.00     0.039 C 
ATOM     25  C   UNL A   1      27.203  28.780  23.135  1.00  0.00     0.039 C 
ENDBRANCH  21  22
ENDBRANCH  12  21
ENDBRANCH   4   7
ENDBRANCH   2   3
ENDBRANCH   1   2
BRANCH   1  26
ATOM     26  C   UNL A   1      31.496  31.931  27.132  1.00  0.00     0.023 C 
BRANCH  26  27
ATOM     27  C   UNL A   1      32.703  32.846  27.251  1.00  0.00     0.116 C 
BRANCH  27  28
ATOM     28  N   UNL A   1      32.376  34.216  27.621  1.00  0.00    -0.352 N 
ATOM     29  C   UNL A   1      32.986  35.006  28.569  1.00  0.00     0.251 C 
ATOM     30  H   UNL A   1      31.625  34.627  27.135  1.00  0.00     0.163 HD
ATOM     31  O   UNL A   1      32.557  36.118  28.836  1.00  0.00    -0.269 OA
BRANCH  29  32
ATOM     32  C   UNL A   1      34.149  34.456  29.297  1.00  0.00     0.039 A 
ATOM     33  C   UNL A   1      33.928  33.687  30.439  1.00  0.00     0.014 A 
ATOM     34  C   UNL A   1      35.440  34.632  28.792  1.00  0.00     0.014 A 
ATOM     35  C   UNL A   1      35.003  33.031  31.039  1.00  0.00     0.010 A 
ATOM     36  C   UNL A   1      36.490  33.900  29.332  1.00  0.00     0.010 A 
ATOM     37  C   UNL A   1      36.284  33.101  30.466  1.00  0.00    -0.014 A 
BRANCH  37  38
ATOM     38  C   UNL A   1      37.432  32.368  31.055  1.00  0.00     0.031 A 
ATOM     39  C   UNL A   1      37.915  32.728  32.432  1.00  0.00     0.074 A 
ATOM     40  C   UNL A   1      38.074  31.431  30.331  1.00  0.00     0.049 A 
ATOM     41  N   UNL A   1      38.931  32.250  33.105  1.00  0.00    -0.248 NA
ATOM     42  C   UNL A   1      37.182  33.794  33.133  1.00  0.00     0.031 C 
ATOM     43  C   UNL A   1      37.740  31.043  28.959  1.00  0.00     0.029 A 
ATOM     44  N   UNL A   1      39.146  30.638  30.649  1.00  0.00    -0.354 N 
ATOM     45  C   UNL A   1      38.968  32.970  34.292  1.00  0.00     0.074 A 
ATOM     46  C   UNL A   1      37.918  33.961  34.221  1.00  0.00     0.031 C 
ATOM     47  C   UNL A   1      38.570  30.062  28.566  1.00  0.00     0.029 A 
ATOM     48  C   UNL A   1      39.509  29.773  29.644  1.00  0.00     0.049 A 
ATOM     49  H   UNL A   1      39.611  30.682  31.516  1.00  0.00     0.167 HD
ATOM     50  C   UNL A   1      39.780  32.798  35.360  1.00  0.00     0.037 A 
ATOM     51  C   UNL A   1      40.489  28.850  29.605  1.00  0.00     0.037 A 
ATOM     52  C   UNL A   1      40.797  31.783  35.443  1.00  0.00     0.049 A 
ATOM     53  C   UNL A   1      41.360  28.656  30.817  1.00  0.00     0.074 A 
ATOM     54  C   UNL A   1      41.632  31.481  36.502  1.00  0.00     0.029 A 
ATOM     55  N   UNL A   1      41.109  30.899  34.419  1.00  0.00    -0.354 N 
ATOM     56  N   UNL A   1      41.336  29.292  31.964  1.00  0.00    -0.248 NA
ATOM     57  C   UNL A   1      42.386  27.608  30.734  1.00  0.00     0.031 C 
ATOM     58  C   UNL A   1      42.476  30.437  36.108  1.00  0.00     0.029 A 
ATOM     59  C   UNL A   1      42.134  30.058  34.820  1.00  0.00     0.049 A 
ATOM     60  H   UNL A   1      40.668  30.874  33.540  1.00  0.00     0.167 HD
ATOM     61  C   UNL A   1      42.318  28.703  32.748  1.00  0.00     0.074 A 
ATOM     62  C   UNL A   1      42.910  27.649  31.950  1.00  0.00     0.031 C 
ATOM     63  C   UNL A   1      42.698  29.007  34.013  1.00  0.00     0.037 A 
BRANCH  50  64
ATOM     64  C   UNL A   1      39.590  33.721  36.528  1.00  0.00     0.064 A 
ATOM     65  C   UNL A   1      40.195  34.987  36.571  1.00  0.00     0.173 A 
ATOM     66  C   UNL A   1      38.782  33.345  37.611  1.00  0.00     0.173 A 
ATOM     67  F   UNL A   1      40.991  35.388  35.568  1.00  0.00    -0.203 F 
ATOM     68  C   UNL A   1      40.027  35.826  37.669  1.00  0.00     0.198 A 
ATOM     69  C   UNL A   1      38.589  34.200  38.693  1.00  0.00     0.198 A 
ATOM     70  F   UNL A   1      38.178  32.146  37.620  1.00  0.00    -0.203 F 
ATOM     71  F   UNL A   1      40.663  37.005  37.712  1.00  0.00    -0.200 F 
ATOM     72  C   UNL A   1      39.219  35.435  38.726  1.00  0.00     0.200 A 
ATOM     73  F   UNL A   1      37.800  33.826  39.709  1.00  0.00    -0.200 F 
ATOM     74  F   UNL A   1      39.054  36.245  39.780  1.00  0.00    -0.200 F 
ENDBRANCH  50  64
BRANCH  51  75
ATOM     75  C   UNL A   1      40.665  28.003  28.398  1.00  0.00     0.064 A 
ATOM     76  C   UNL A   1      41.453  28.440  27.324  1.00  0.00     0.173 A 
ATOM     77  C   UNL A   1      40.048  26.749  28.285  1.00  0.00     0.173 A 
ATOM     78  F   UNL A   1      42.048  29.641  27.376  1.00  0.00    -0.203 F 
ATOM     79  C   UNL A   1      41.598  27.666  26.174  1.00  0.00     0.198 A 
ATOM     80  C   UNL A   1      40.216  25.964  27.146  1.00  0.00     0.198 A 
ATOM     81  F   UNL A   1      39.289  26.281  29.287  1.00  0.00    -0.203 F 
ATOM     82  F   UNL A   1      42.320  28.129  25.144  1.00  0.00    -0.200 F 
ATOM     83  C   UNL A   1      40.984  26.426  26.087  1.00  0.00     0.200 A 
ATOM     84  F   UNL A   1      39.631  24.760  27.072  1.00  0.00    -0.200 F 
ATOM     85  F   UNL A   1      41.126  25.681  24.983  1.00  0.00    -0.200 F 
ENDBRANCH  51  75
BRANCH  63  86
ATOM     86  C   UNL A   1      43.775  28.162  34.627  1.00  0.00     0.064 A 
ATOM     87  C   UNL A   1      43.482  26.952  35.274  1.00  0.00     0.173 A 
ATOM     88  C   UNL A   1      45.119  28.551  34.536  1.00  0.00     0.173 A 
ATOM     89  F   UNL A   1      42.210  26.543  35.400  1.00  0.00    -0.203 F 
ATOM     90  C   UNL A   1      44.495  26.178  35.833  1.00  0.00     0.198 A 
ATOM     91  C   UNL A   1      46.132  27.759  35.068  1.00  0.00     0.198 A 
ATOM     92  F   UNL A   1      45.452  29.696  33.920  1.00  0.00    -0.203 F 
ATOM     93  F   UNL A   1      44.189  25.050  36.490  1.00  0.00    -0.200 F 
ATOM     94  C   UNL A   1      45.820  26.578  35.723  1.00  0.00     0.200 A 
ATOM     95  F   UNL A   1      47.411  28.141  34.950  1.00  0.00    -0.200 F 
ATOM     96  F   UNL A   1      46.794  25.828  36.258  1.00  0.00    -0.200 F 
ENDBRANCH  63  86
ENDBRANCH  37  38
ENDBRANCH  29  32
ENDBRANCH  27  28
ENDBRANCH  26  27
ENDBRANCH   1  26
TORSDOF 15
ENDMDL
MODEL 2
REMARK VINA RESULT:     -12.7      0.171      1.599
REMARK SMILES CCc1nc(N2CC[N@H+](CC=C(C)C)[C@H](C(=O)NCCCCNC(=O)c3ccc(-c4c5nc(c(-c6c(F)c(F)c(F)c(F)c6F)c6ccc([nH]6)c(-c6c(F)c(F)c(F)c(F)c6F)c6nc(c(-c7c(F)c(F)c(F)c(F)c7F)c7ccc4[nH]7)C=C6)C=C5)cc3)C2)no1
REMARK SMILES IDX 20 1 19 2 18 3 16 4 17 5 15 7 6 8 7 9 89 10 8 11 9 12 5 14
REMARK SMILES IDX 3 15 4 16 91 17 90 18 2 19 1 20 10 21 11 22 12 23 13 24
REMARK SMILES IDX 14 25 21 26 22 27 23 28 24 29 25 31 26 32 27 33 88 34 28 35
REMARK SMILES IDX 87 36 29 37 30 38 31 39 81 40 32 41 86 42 80 43 82 44 33 45
REMARK SMILES IDX 85 46 79 47 78 48 34 50 66 51 46 52 65 53 47 54 50 55 64 56
REMARK SMILES IDX 83 57 48 58 49 59 63 61 84 62 51 63 35 64 36 65 44 66 37 67
REMARK SMILES IDX 38 68 42 69 45 70 39 71 40 72 43 73 41 74 67 75 68 76 76 77
REMARK SMILES IDX 69 78 70 79 74 80 77 81 71 82 72 83 75 84 73 85 52 86 53 87
REMARK SMILES IDX 61 88 54 89 55 90 59 91 62 92 56 93 57 94 60 95 58 96
REMARK H PARENT 18 6 9 13 23 30 82 49 50 60
REMARK Flexibility Score: inf
ROOT
ATOM      1  C   UNL A   1      31.569  30.902  25.973  1.00  0.00     0.023 C 
ENDROOT
BRANCH   1   2
ATOM      2  C   UNL A   1      32.804  30.004  26.052  1.00  0.00     0.116 C 
BRANCH   2   3
ATOM      3  N   UNL A   1      33.340  29.713  24.740  1.00  0.00    -0.351 N 
ATOM      4  C   UNL A   1      33.225  28.642  23.909  1.00  0.00     0.280 C 
ATOM      5  O   UNL A   1      33.931  28.701  22.892  1.00  0.00    -0.268 OA
ATOM      6  H   UNL A   1      33.900  30.437  24.376  1.00  0.00     0.163 HD
BRANCH   4   7
ATOM      7  C   UNL A   1      32.297  27.426  24.137  1.00  0.00     0.294 C 
ATOM      8  N   UNL A   1      31.880  24.973  23.820  1.00  0.00    -0.326 N 
ATOM      9  C   UNL A   1      30.435  25.214  23.860  1.00  0.00     0.181 C 
ATOM     10  C   UNL A   1      32.790  26.096  23.539  1.00  0.00     0.195 C 
ATOM     11  C   UNL A   1      30.079  26.557  24.532  1.00  0.00     0.284 C 
ATOM     12  N   UNL A   1      30.840  27.728  24.065  1.00  0.00    -0.318 N 
ATOM     13  H   UNL A   1      30.730  28.524  24.694  1.00  0.00     0.349 HD
BRANCH   8  14
ATOM     14  C   UNL A   1      32.325  23.706  23.677  1.00  0.00     0.266 A 
ATOM     15  C   UNL A   1      33.538  22.056  24.087  1.00  0.00     0.227 A 
ATOM     16  N   UNL A   1      33.504  23.352  24.277  1.00  0.00    -0.176 NA
ATOM     17  O   UNL A   1      32.515  21.593  23.320  1.00  0.00    -0.337 OA
ATOM     18  N   UNL A   1      31.708  22.693  23.051  1.00  0.00    -0.038 NA
BRANCH  15  19
ATOM     19  C   UNL A   1      34.424  21.050  24.706  1.00  0.00     0.097 C 
ATOM     20  C   UNL A   1      35.157  21.670  25.889  1.00  0.00     0.014 C 
ENDBRANCH  15  19
ENDBRANCH   8  14
BRANCH  12  21
ATOM     21  C   UNL A   1      30.287  28.332  22.862  1.00  0.00     0.291 C 
BRANCH  21  22
ATOM     22  C   UNL A   1      29.582  29.650  23.019  1.00  0.00     0.032 C 
ATOM     23  C   UNL A   1      28.259  29.877  23.139  1.00  0.00    -0.075 C 
ATOM     24  C   UNL A   1      27.735  31.282  23.280  1.00  0.00     0.039 C 
ATOM     25  C   UNL A   1      27.225  28.790  23.144  1.00  0.00     0.039 C 
ENDBRANCH  21  22
ENDBRANCH  12  21
ENDBRANCH   4   7
ENDBRANCH   2   3
ENDBRANCH   1   2
BRANCH   1  26
ATOM     26  C   UNL A   1      31.460  31.939  27.082  1.00  0.00     0.023 C 
BRANCH  26  27
ATOM     27  C   UNL A   1      32.678  32.836  27.234  1.00  0.00     0.116 C 
BRANCH  27  28
ATOM     28  N   UNL A   1      32.361  34.209  27.600  1.00  0.00    -0.352 N 
ATOM     29  C   UNL A   1      32.984  35.000  28.539  1.00  0.00     0.251 C 
ATOM     30  H   UNL A   1      31.610  34.623  27.117  1.00  0.00     0.163 HD
ATOM     31  O   UNL A   1      32.564  36.116  28.804  1.00  0.00    -0.269 OA
BRANCH  29  32
ATOM     32  C   UNL A   1      34.149  34.447  29.261  1.00  0.00     0.039 A 
ATOM     33  C   UNL A   1      33.932  33.685  30.409  1.00  0.00     0.014 A 
ATOM     34  C   UNL A   1      35.437  34.612  28.746  1.00  0.00     0.014 A 
ATOM     35  C   UNL A   1      35.007  33.025  31.004  1.00  0.00     0.010 A 
ATOM     36  C   UNL A   1      36.486  33.876  29.281  1.00  0.00     0.010 A 
ATOM     37  C   UNL A   1      36.284  33.084  30.420  1.00  0.00    -0.014 A 
BRANCH  37  38
ATOM     38  C   UNL A   1      37.432  32.347  31.004  1.00  0.00     0.031 A 
ATOM     39  C   UNL A   1      37.914  32.696  32.384  1.00  0.00     0.074 A 
ATOM     40  C   UNL A   1      38.074  31.415  30.274  1.00  0.00     0.049 A 
ATOM     41  N   UNL A   1      38.930  32.213  33.055  1.00  0.00    -0.248 NA
ATOM     42  C   UNL A   1      37.180  33.757  33.093  1.00  0.00     0.031 C 
ATOM     43  C   UNL A   1      37.741  31.038  28.898  1.00  0.00     0.029 A 
ATOM     44  N   UNL A   1      39.147  30.620  30.586  1.00  0.00    -0.354 N 
ATOM     45  C   UNL A   1      38.966  32.924  34.246  1.00  0.00     0.074 A 
ATOM     46  C   UNL A   1      37.916  33.915  34.183  1.00  0.00     0.031 C 
ATOM     47  C   UNL A   1      38.572  30.060  28.498  1.00  0.00     0.029 A 
ATOM     48  C   UNL A   1      39.511  29.764  29.575  1.00  0.00     0.049 A 
ATOM     49  H   UNL A   1      39.612  30.658  31.453  1.00  0.00     0.167 HD
ATOM     50  C   UNL A   1      39.778  32.744  35.314  1.00  0.00     0.037 A 
ATOM     51  C   UNL A   1      40.490  28.841  29.529  1.00  0.00     0.037 A 
ATOM     52  C   UNL A   1      40.794  31.729  35.389  1.00  0.00     0.049 A 
ATOM     53  C   UNL A   1      41.361  28.638  30.740  1.00  0.00     0.074 A 
ATOM     54  C   UNL A   1      41.629  31.419  36.447  1.00  0.00     0.029 A 
ATOM     55  N   UNL A   1      41.107  30.853  34.359  1.00  0.00    -0.354 N 
ATOM     56  N   UNL A   1      41.336  29.265  31.891  1.00  0.00    -0.248 NA
ATOM     57  C   UNL A   1      42.387  27.591  30.649  1.00  0.00     0.031 C 
ATOM     58  C   UNL A   1      42.474  30.378  36.044  1.00  0.00     0.029 A 
ATOM     59  C   UNL A   1      42.132  30.009  34.754  1.00  0.00     0.049 A 
ATOM     60  H   UNL A   1      40.667  30.835  33.479  1.00  0.00     0.167 HD
ATOM     61  C   UNL A   1      42.318  28.670  32.672  1.00  0.00     0.074 A 
ATOM     62  C   UNL A   1      42.910  27.622  31.866  1.00  0.00     0.031 C 
ATOM     63  C   UNL A   1      42.697  28.964  33.939  1.00  0.00     0.037 A 
BRANCH  50  64
ATOM     64  C   UNL A   1      39.586  33.658  36.489  1.00  0.00     0.064 A 
ATOM     65  C   UNL A   1      38.772  33.297  37.575  1.00  0.00     0.173 A 
ATOM     66  C   UNL A   1      40.235  34.900  36.541  1.00  0.00     0.173 A 
ATOM     67  F   UNL A   1      38.116  32.127  37.567  1.00  0.00    -0.203 F 
ATOM     68  C   UNL A   1      38.586  34.161  38.650  1.00  0.00     0.198 A 
ATOM     69  C   UNL A   1      40.072  35.748  37.634  1.00  0.00     0.198 A 
ATOM     70  F   UNL A   1      41.026  35.293  35.531  1.00  0.00    -0.203 F 
ATOM     71  F   UNL A   1      37.757  33.820  39.646  1.00  0.00    -0.200 F 
ATOM     72  C   UNL A   1      39.242  35.383  38.682  1.00  0.00     0.200 A 
ATOM     73  F   UNL A   1      40.714  36.924  37.668  1.00  0.00    -0.200 F 
ATOM     74  F   UNL A   1      39.065  36.212  39.719  1.00  0.00    -0.200 F 
ENDBRANCH  50  64
BRANCH  51  75
ATOM     75  C   UNL A   1      40.668  28.003  28.315  1.00  0.00     0.064 A 
ATOM     76  C   UNL A   1      40.066  26.740  28.220  1.00  0.00     0.173 A 
ATOM     77  C   UNL A   1      41.444  28.439  27.231  1.00  0.00     0.173 A 
ATOM     78  F   UNL A   1      39.330  26.272  29.239  1.00  0.00    -0.203 F 
ATOM     79  C   UNL A   1      40.253  25.935  27.098  1.00  0.00     0.198 A 
ATOM     80  C   UNL A   1      41.608  27.643  26.099  1.00  0.00     0.198 A 
ATOM     81  F   UNL A   1      42.036  29.641  27.269  1.00  0.00    -0.203 F 
ATOM     82  F   UNL A   1      39.704  24.713  27.055  1.00  0.00    -0.200 F 
ATOM     83  C   UNL A   1      41.019  26.388  26.036  1.00  0.00     0.200 A 
ATOM     84  F   UNL A   1      42.339  28.091  25.068  1.00  0.00    -0.200 F 
ATOM     85  F   UNL A   1      41.197  25.616  24.956  1.00  0.00    -0.200 F 
ENDBRANCH  51  75
BRANCH  63  86
ATOM     86  C   UNL A   1      43.774  28.115  34.547  1.00  0.00     0.064 A 
ATOM     87  C   UNL A   1      43.481  26.905  35.193  1.00  0.00     0.173 A 
ATOM     88  C   UNL A   1      45.120  28.500  34.452  1.00  0.00     0.173 A 
ATOM     89  F   UNL A   1      42.208  26.499  35.323  1.00  0.00    -0.203 F 
ATOM     90  C   UNL A   1      44.493  26.126  35.746  1.00  0.00     0.198 A 
ATOM     91  C   UNL A   1      46.132  27.704  34.978  1.00  0.00     0.198 A 
ATOM     92  F   UNL A   1      45.453  29.645  33.836  1.00  0.00    -0.203 F 
ATOM     93  F   UNL A   1      44.186  24.998  36.402  1.00  0.00    -0.200 F 
ATOM     94  C   UNL A   1      45.818  26.522  35.632  1.00  0.00     0.200 A 
ATOM     95  F   UNL A   1      47.412  28.082  34.855  1.00  0.00    -0.200 F 
ATOM     96  F   UNL A   1      46.792  25.769  36.161  1.00  0.00    -0.200 F 
ENDBRANCH  63  86
ENDBRANCH  37  38
ENDBRANCH  29  32
ENDBRANCH  27  28
ENDBRANCH  26  27
ENDBRANCH   1  26
TORSDOF 15
ENDMDL
MODEL 3
REMARK VINA RESULT:     -12.4      1.019      7.325
REMARK SMILES CCc1nc(N2CC[N@H+](CC=C(C)C)[C@H](C(=O)NCCCCNC(=O)c3ccc(-c4c5nc(c(-c6c(F)c(F)c(F)c(F)c6F)c6ccc([nH]6)c(-c6c(F)c(F)c(F)c(F)c6F)c6nc(c(-c7c(F)c(F)c(F)c(F)c7F)c7ccc4[nH]7)C=C6)C=C5)cc3)C2)no1
REMARK SMILES IDX 20 1 19 2 18 3 16 4 17 5 15 7 6 8 7 9 89 10 8 11 9 12 5 14
REMARK SMILES IDX 3 15 4 16 91 17 90 18 2 19 1 20 10 21 11 22 12 23 13 24
REMARK SMILES IDX 14 25 21 26 22 27 23 28 24 29 25 31 26 32 27 33 88 34 28 35
REMARK SMILES IDX 87 36 29 37 30 38 31 39 81 40 32 41 86 42 80 43 82 44 33 45
REMARK SMILES IDX 85 46 79 47 78 48 34 50 66 51 46 52 65 53 47 54 50 55 64 56
REMARK SMILES IDX 83 57 48 58 49 59 63 61 84 62 51 63 35 64 36 65 44 66 37 67
REMARK SMILES IDX 38 68 42 69 45 70 39 71 40 72 43 73 41 74 67 75 68 76 76 77
REMARK SMILES IDX 69 78 70 79 74 80 77 81 71 82 72 83 75 84 73 85 52 86 53 87
REMARK SMILES IDX 61 88 54 89 55 90 59 91 62 92 56 93 57 94 60 95 58 96
REMARK H PARENT 18 6 9 13 23 30 82 49 50 60
REMARK Flexibility Score: inf
ROOT
ATOM      1  C   UNL A   1      32.162  30.490  26.630  1.00  0.00     0.023 C 
ENDROOT
BRANCH   1   2
ATOM      2  C   UNL A   1      31.536  29.926  25.353  1.00  0.00     0.116 C 
BRANCH   2   3
ATOM      3  N   UNL A   1      32.539  29.614  24.359  1.00  0.00    -0.351 N 
ATOM      4  C   UNL A   1      33.071  28.443  23.915  1.00  0.00     0.280 C 
ATOM      5  O   UNL A   1      34.009  28.572  23.116  1.00  0.00    -0.268 OA
ATOM      6  H   UNL A   1      32.911  30.409  23.913  1.00  0.00     0.163 HD
BRANCH   4   7
ATOM      7  C   UNL A   1      32.584  27.029  24.313  1.00  0.00     0.294 C 
ATOM      8  N   UNL A   1      32.967  24.551  24.267  1.00  0.00    -0.326 N 
ATOM      9  C   UNL A   1      31.522  24.326  24.359  1.00  0.00     0.181 C 
ATOM     10  C   UNL A   1      33.465  25.864  23.826  1.00  0.00     0.195 C 
ATOM     11  C   UNL A   1      30.768  25.555  24.911  1.00  0.00     0.284 C 
ATOM     12  N   UNL A   1      31.106  26.846  24.289  1.00  0.00    -0.318 N 
ATOM     13  H   UNL A   1      30.759  27.632  24.839  1.00  0.00     0.349 HD
BRANCH   8  14
ATOM     14  C   UNL A   1      33.792  23.481  24.228  1.00  0.00     0.266 A 
ATOM     15  C   UNL A   1      35.627  22.497  24.085  1.00  0.00     0.227 A 
ATOM     16  N   UNL A   1      35.093  23.668  23.845  1.00  0.00    -0.176 NA
ATOM     17  O   UNL A   1      34.727  21.562  24.493  1.00  0.00    -0.337 OA
ATOM     18  N   UNL A   1      33.507  22.222  24.590  1.00  0.00    -0.038 NA
BRANCH  15  19
ATOM     19  C   UNL A   1      37.054  22.117  24.120  1.00  0.00     0.097 C 
ATOM     20  C   UNL A   1      37.651  22.487  25.472  1.00  0.00     0.014 C 
ENDBRANCH  15  19
ENDBRANCH   8  14
BRANCH  12  21
ATOM     21  C   UNL A   1      30.367  27.105  23.063  1.00  0.00     0.291 C 
BRANCH  21  22
ATOM     22  C   UNL A   1      29.100  27.904  23.183  1.00  0.00     0.032 C 
ATOM     23  C   UNL A   1      28.843  29.135  22.698  1.00  0.00    -0.075 C 
ATOM     24  C   UNL A   1      27.503  29.782  22.930  1.00  0.00     0.039 C 
ATOM     25  C   UNL A   1      29.833  29.943  21.912  1.00  0.00     0.039 C 
ENDBRANCH  21  22
ENDBRANCH  12  21
ENDBRANCH   4   7
ENDBRANCH   2   3
ENDBRANCH   1   2
BRANCH   1  26
ATOM     26  C   UNL A   1      31.743  31.914  26.971  1.00  0.00     0.023 C 
BRANCH  26  27
ATOM     27  C   UNL A   1      32.887  32.835  27.364  1.00  0.00     0.116 C 
BRANCH  27  28
ATOM     28  N   UNL A   1      32.474  34.197  27.668  1.00  0.00    -0.352 N 
ATOM     29  C   UNL A   1      32.994  35.048  28.617  1.00  0.00     0.251 C 
ATOM     30  H   UNL A   1      31.731  34.555  27.129  1.00  0.00     0.163 HD
ATOM     31  O   UNL A   1      32.498  36.146  28.822  1.00  0.00    -0.269 OA
BRANCH  29  32
ATOM     32  C   UNL A   1      34.142  34.583  29.423  1.00  0.00     0.039 A 
ATOM     33  C   UNL A   1      33.903  34.039  30.685  1.00  0.00     0.014 A 
ATOM     34  C   UNL A   1      35.432  34.605  28.887  1.00  0.00     0.014 A 
ATOM     35  C   UNL A   1      34.957  33.449  31.385  1.00  0.00     0.010 A 
ATOM     36  C   UNL A   1      36.455  33.932  29.540  1.00  0.00     0.010 A 
ATOM     37  C   UNL A   1      36.231  33.357  30.800  1.00  0.00    -0.014 A 
BRANCH  37  38
ATOM     38  C   UNL A   1      37.353  32.687  31.501  1.00  0.00     0.031 A 
ATOM     39  C   UNL A   1      38.061  31.537  30.841  1.00  0.00     0.074 A 
ATOM     40  C   UNL A   1      37.691  33.069  32.748  1.00  0.00     0.049 A 
ATOM     41  N   UNL A   1      39.026  30.782  31.303  1.00  0.00    -0.248 NA
ATOM     42  C   UNL A   1      37.598  31.159  29.497  1.00  0.00     0.031 C 
ATOM     43  C   UNL A   1      37.033  34.127  33.518  1.00  0.00     0.029 A 
ATOM     44  N   UNL A   1      38.669  32.605  33.590  1.00  0.00    -0.354 N 
ATOM     45  C   UNL A   1      39.266  29.835  30.318  1.00  0.00     0.074 A 
ATOM     46  C   UNL A   1      38.305  30.064  29.263  1.00  0.00     0.031 C 
ATOM     47  C   UNL A   1      37.649  34.254  34.706  1.00  0.00     0.029 A 
ATOM     48  C   UNL A   1      38.723  33.269  34.791  1.00  0.00     0.049 A 
ATOM     49  H   UNL A   1      39.277  31.868  33.354  1.00  0.00     0.167 HD
ATOM     50  C   UNL A   1      40.226  28.881  30.278  1.00  0.00     0.037 A 
ATOM     51  C   UNL A   1      39.551  33.102  35.840  1.00  0.00     0.037 A 
ATOM     52  C   UNL A   1      41.206  28.683  31.311  1.00  0.00     0.049 A 
ATOM     53  C   UNL A   1      40.629  32.054  35.760  1.00  0.00     0.074 A 
ATOM     54  C   UNL A   1      42.260  27.788  31.342  1.00  0.00     0.029 A 
ATOM     55  N   UNL A   1      41.253  29.402  32.497  1.00  0.00    -0.354 N 
ATOM     56  N   UNL A   1      40.895  31.213  34.789  1.00  0.00    -0.248 NA
ATOM     57  C   UNL A   1      41.529  31.941  36.915  1.00  0.00     0.031 C 
ATOM     58  C   UNL A   1      42.925  27.940  32.565  1.00  0.00     0.029 A 
ATOM     59  C   UNL A   1      42.313  28.961  33.273  1.00  0.00     0.049 A 
ATOM     60  H   UNL A   1      40.627  30.117  32.749  1.00  0.00     0.167 HD
ATOM     61  C   UNL A   1      42.009  30.494  35.202  1.00  0.00     0.074 A 
ATOM     62  C   UNL A   1      42.377  31.009  36.505  1.00  0.00     0.031 C 
ATOM     63  C   UNL A   1      42.668  29.498  34.562  1.00  0.00     0.037 A 
BRANCH  50  64
ATOM     64  C   UNL A   1      40.264  27.990  29.070  1.00  0.00     0.064 A 
ATOM     65  C   UNL A   1      41.012  28.330  27.931  1.00  0.00     0.173 A 
ATOM     66  C   UNL A   1      39.561  26.777  29.054  1.00  0.00     0.173 A 
ATOM     67  F   UNL A   1      41.689  29.488  27.888  1.00  0.00    -0.203 F 
ATOM     68  C   UNL A   1      41.024  27.506  26.809  1.00  0.00     0.198 A 
ATOM     69  C   UNL A   1      39.602  25.939  27.943  1.00  0.00     0.198 A 
ATOM     70  F   UNL A   1      38.833  26.403  30.118  1.00  0.00    -0.203 F 
ATOM     71  F   UNL A   1      41.696  27.880  25.712  1.00  0.00    -0.200 F 
ATOM     72  C   UNL A   1      40.325  26.308  26.818  1.00  0.00     0.200 A 
ATOM     73  F   UNL A   1      38.935  24.777  27.957  1.00  0.00    -0.200 F 
ATOM     74  F   UNL A   1      40.341  25.514  25.739  1.00  0.00    -0.200 F 
ENDBRANCH  50  64
BRANCH  51  75
ATOM     75  C   UNL A   1      39.428  33.977  37.033  1.00  0.00     0.064 A 
ATOM     76  C   UNL A   1      40.030  35.244  37.059  1.00  0.00     0.173 A 
ATOM     77  C   UNL A   1      38.718  33.570  38.172  1.00  0.00     0.173 A 
ATOM     78  F   UNL A   1      40.736  35.671  36.001  1.00  0.00    -0.203 F 
ATOM     79  C   UNL A   1      39.946  36.059  38.186  1.00  0.00     0.198 A 
ATOM     80  C   UNL A   1      38.612  34.397  39.288  1.00  0.00     0.198 A 
ATOM     81  F   UNL A   1      38.119  32.371  38.196  1.00  0.00    -0.203 F 
ATOM     82  F   UNL A   1      40.570  37.245  38.200  1.00  0.00    -0.200 F 
ATOM     83  C   UNL A   1      39.233  35.638  39.298  1.00  0.00     0.200 A 
ATOM     84  F   UNL A   1      37.912  33.992  40.357  1.00  0.00    -0.200 F 
ATOM     85  F   UNL A   1      39.150  36.422  40.381  1.00  0.00    -0.200 F 
ENDBRANCH  51  75
BRANCH  63  86
ATOM     86  C   UNL A   1      43.878  28.928  35.242  1.00  0.00     0.064 A 
ATOM     87  C   UNL A   1      45.161  29.448  35.019  1.00  0.00     0.173 A 
ATOM     88  C   UNL A   1      43.745  27.871  36.155  1.00  0.00     0.173 A 
ATOM     89  F   UNL A   1      45.342  30.449  34.143  1.00  0.00    -0.203 F 
ATOM     90  C   UNL A   1      46.272  28.911  35.663  1.00  0.00     0.198 A 
ATOM     91  C   UNL A   1      44.854  27.358  36.822  1.00  0.00     0.198 A 
ATOM     92  F   UNL A   1      42.538  27.345  36.410  1.00  0.00    -0.203 F 
ATOM     93  F   UNL A   1      47.495  29.390  35.398  1.00  0.00    -0.200 F 
ATOM     94  C   UNL A   1      46.117  27.872  36.570  1.00  0.00     0.200 A 
ATOM     95  F   UNL A   1      44.700  26.363  37.707  1.00  0.00    -0.200 F 
ATOM     96  F   UNL A   1      47.187  27.359  37.194  1.00  0.00    -0.200 F 
ENDBRANCH  63  86
ENDBRANCH  37  38
ENDBRANCH  29  32
ENDBRANCH  27  28
ENDBRANCH  26  27
ENDBRANCH   1  26
TORSDOF 15
ENDMDL
