MODEL 1
REMARK VINA RESULT:     -12.5      0.000      0.000
REMARK SMILES CCO[C@H](CCn1nnc2c(cnn2C)c1=O)C(=O)NCCCCNC(=O)c1ccc(-c2c3nc(c(-c4c(F)c(F)c(F)c(F)c4F)c4ccc([nH]4)c(-c4c(F)c(F)c(F)c(F)c4F)c4nc(c(-c5c(F)c(F)c(F)c(F)c5F)c5ccc2[nH]5)C=C4)C=C3)cc1
REMARK SMILES IDX 22 1 21 2 20 3 18 4 19 5 4 7 3 8 2 9 1 10 5 11 6 12 7 13
REMARK SMILES IDX 8 14 16 15 9 16 11 17 17 18 10 19 12 20 14 21 13 22 15 23
REMARK SMILES IDX 23 24 24 25 25 26 26 27 27 29 28 30 29 31 90 32 30 33 89 34
REMARK SMILES IDX 31 35 32 36 33 37 83 38 34 39 88 40 82 41 84 42 35 43 87 44
REMARK SMILES IDX 81 45 80 46 36 48 68 49 48 50 67 51 49 52 52 53 66 54 85 55
REMARK SMILES IDX 50 56 51 57 65 59 86 60 53 61 37 62 38 63 46 64 39 65 40 66
REMARK SMILES IDX 44 67 47 68 41 69 42 70 45 71 43 72 69 73 70 74 78 75 71 76
REMARK SMILES IDX 72 77 76 78 79 79 73 80 74 81 77 82 75 83 54 84 55 85 63 86
REMARK SMILES IDX 56 87 57 88 61 89 64 90 58 91 59 92 62 93 60 94
REMARK H PARENT 20 6 25 28 84 47 52 58
REMARK Flexibility Score: inf
ROOT
ATOM      1  C   UNL A   1      37.435  23.658  25.562  1.00  0.00     0.023 C 
ENDROOT
BRANCH   1   2
ATOM      2  C   UNL A   1      35.915  23.542  25.640  1.00  0.00     0.116 C 
BRANCH   2   3
ATOM      3  N   UNL A   1      35.467  22.636  26.680  1.00  0.00    -0.354 N 
ATOM      4  C   UNL A   1      34.228  22.137  26.964  1.00  0.00     0.249 C 
ATOM      5  O   UNL A   1      34.178  21.239  27.812  1.00  0.00    -0.272 OA
ATOM      6  H   UNL A   1      36.178  22.327  27.286  1.00  0.00     0.163 HD
BRANCH   4   7
ATOM      7  C   UNL A   1      32.928  22.662  26.287  1.00  0.00     0.208 C 
BRANCH   7   8
ATOM      8  O   UNL A   1      31.804  23.100  27.034  1.00  0.00    -0.369 OA
BRANCH   8   9
ATOM      9  C   UNL A   1      30.546  23.281  26.412  1.00  0.00     0.158 C 
ATOM     10  C   UNL A   1      29.379  22.800  27.259  1.00  0.00     0.035 C 
ENDBRANCH   8   9
ENDBRANCH   7   8
BRANCH   7  11
ATOM     11  C   UNL A   1      32.584  21.831  25.031  1.00  0.00     0.066 C 
BRANCH  11  12
ATOM     12  C   UNL A   1      33.692  20.930  24.496  1.00  0.00     0.153 C 
BRANCH  12  13
ATOM     13  N   UNL A   1      33.553  19.510  24.753  1.00  0.00    -0.210 N 
ATOM     14  N   UNL A   1      32.260  19.007  24.914  1.00  0.00    -0.062 NA
ATOM     15  C   UNL A   1      34.710  18.716  24.735  1.00  0.00     0.280 A 
ATOM     16  N   UNL A   1      32.062  17.782  25.123  1.00  0.00    -0.111 NA
ATOM     17  C   UNL A   1      34.437  17.338  24.965  1.00  0.00     0.108 A 
ATOM     18  O   UNL A   1      35.847  19.143  24.531  1.00  0.00    -0.267 OA
ATOM     19  C   UNL A   1      33.136  16.972  25.151  1.00  0.00     0.187 A 
ATOM     20  C   UNL A   1      35.179  16.158  25.060  1.00  0.00     0.151 A 
ATOM     21  N   UNL A   1      33.149  15.628  25.373  1.00  0.00    -0.249 N 
ATOM     22  N   UNL A   1      34.397  15.097  25.309  1.00  0.00    -0.179 NA
ATOM     23  C   UNL A   1      32.025  14.776  25.666  1.00  0.00     0.176 C 
ENDBRANCH  12  13
ENDBRANCH  11  12
ENDBRANCH   7  11
ENDBRANCH   4   7
ENDBRANCH   2   3
ENDBRANCH   1   2
BRANCH   1  24
ATOM     24  C   UNL A   1      38.195  22.335  25.410  1.00  0.00     0.023 C 
BRANCH  24  25
ATOM     25  C   UNL A   1      39.213  22.059  26.508  1.00  0.00     0.116 C 
BRANCH  25  26
ATOM     26  N   UNL A   1      40.577  21.940  26.002  1.00  0.00    -0.352 N 
ATOM     27  C   UNL A   1      41.514  22.945  25.869  1.00  0.00     0.251 C 
ATOM     28  H   UNL A   1      40.861  21.040  25.723  1.00  0.00     0.163 HD
ATOM     29  O   UNL A   1      42.470  22.824  25.113  1.00  0.00    -0.269 OA
BRANCH  27  30
ATOM     30  C   UNL A   1      41.343  24.175  26.658  1.00  0.00     0.039 A 
ATOM     31  C   UNL A   1      41.887  24.286  27.940  1.00  0.00     0.014 A 
ATOM     32  C   UNL A   1      40.649  25.238  26.080  1.00  0.00     0.014 A 
ATOM     33  C   UNL A   1      41.798  25.506  28.604  1.00  0.00     0.010 A 
ATOM     34  C   UNL A   1      40.662  26.471  26.687  1.00  0.00     0.010 A 
ATOM     35  C   UNL A   1      41.202  26.604  27.963  1.00  0.00    -0.014 A 
BRANCH  35  36
ATOM     36  C   UNL A   1      41.243  27.928  28.576  1.00  0.00     0.031 A 
ATOM     37  C   UNL A   1      42.410  28.775  28.196  1.00  0.00     0.074 A 
ATOM     38  C   UNL A   1      40.206  28.447  29.269  1.00  0.00     0.049 A 
ATOM     39  N   UNL A   1      43.325  29.253  28.974  1.00  0.00    -0.248 NA
ATOM     40  C   UNL A   1      42.639  29.050  26.770  1.00  0.00     0.031 C 
ATOM     41  C   UNL A   1      38.878  27.866  29.491  1.00  0.00     0.029 A 
ATOM     42  N   UNL A   1      40.097  29.677  29.843  1.00  0.00    -0.354 N 
ATOM     43  C   UNL A   1      44.163  30.023  28.169  1.00  0.00     0.074 A 
ATOM     44  C   UNL A   1      43.776  29.749  26.810  1.00  0.00     0.031 C 
ATOM     45  C   UNL A   1      38.039  28.820  29.951  1.00  0.00     0.029 A 
ATOM     46  C   UNL A   1      38.805  30.025  30.214  1.00  0.00     0.049 A 
ATOM     47  H   UNL A   1      40.870  30.271  29.983  1.00  0.00     0.167 HD
ATOM     48  C   UNL A   1      44.977  30.976  28.704  1.00  0.00     0.037 A 
ATOM     49  C   UNL A   1      38.387  31.220  30.694  1.00  0.00     0.037 A 
ATOM     50  C   UNL A   1      45.130  30.788  30.124  1.00  0.00     0.049 A 
ATOM     51  C   UNL A   1      39.582  31.927  31.212  1.00  0.00     0.074 A 
ATOM     52  C   UNL A   1      45.633  29.776  30.918  1.00  0.00     0.029 A 
ATOM     53  N   UNL A   1      44.393  31.587  30.962  1.00  0.00    -0.354 N 
ATOM     54  N   UNL A   1      40.235  31.556  32.278  1.00  0.00    -0.248 NA
ATOM     55  C   UNL A   1      40.313  32.792  30.298  1.00  0.00     0.031 C 
ATOM     56  C   UNL A   1      44.777  29.745  32.057  1.00  0.00     0.029 A 
ATOM     57  C   UNL A   1      43.849  30.776  31.922  1.00  0.00     0.049 A 
ATOM     58  H   UNL A   1      44.277  32.563  30.888  1.00  0.00     0.167 HD
ATOM     59  C   UNL A   1      41.567  31.765  31.958  1.00  0.00     0.074 A 
ATOM     60  C   UNL A   1      41.549  32.627  30.780  1.00  0.00     0.031 C 
ATOM     61  C   UNL A   1      42.546  30.988  32.506  1.00  0.00     0.037 A 
BRANCH  48  62
ATOM     62  C   UNL A   1      45.363  32.272  28.031  1.00  0.00     0.064 A 
ATOM     63  C   UNL A   1      44.361  33.225  27.744  1.00  0.00     0.173 A 
ATOM     64  C   UNL A   1      46.600  32.484  27.387  1.00  0.00     0.173 A 
ATOM     65  F   UNL A   1      43.140  33.118  28.288  1.00  0.00    -0.203 F 
ATOM     66  C   UNL A   1      44.559  34.252  26.817  1.00  0.00     0.198 A 
ATOM     67  C   UNL A   1      46.810  33.543  26.504  1.00  0.00     0.198 A 
ATOM     68  F   UNL A   1      47.615  31.620  27.494  1.00  0.00    -0.203 F 
ATOM     69  F   UNL A   1      43.536  35.048  26.478  1.00  0.00    -0.200 F 
ATOM     70  C   UNL A   1      45.781  34.405  26.191  1.00  0.00     0.200 A 
ATOM     71  F   UNL A   1      47.998  33.665  25.895  1.00  0.00    -0.200 F 
ATOM     72  F   UNL A   1      45.954  35.347  25.255  1.00  0.00    -0.200 F 
ENDBRANCH  48  62
BRANCH  49  73
ATOM     73  C   UNL A   1      37.065  31.875  30.575  1.00  0.00     0.064 A 
ATOM     74  C   UNL A   1      36.129  31.822  31.621  1.00  0.00     0.173 A 
ATOM     75  C   UNL A   1      36.801  32.795  29.542  1.00  0.00     0.173 A 
ATOM     76  F   UNL A   1      36.326  31.000  32.661  1.00  0.00    -0.203 F 
ATOM     77  C   UNL A   1      35.012  32.662  31.648  1.00  0.00     0.198 A 
ATOM     78  C   UNL A   1      35.682  33.629  29.567  1.00  0.00     0.198 A 
ATOM     79  F   UNL A   1      37.673  32.968  28.538  1.00  0.00    -0.203 F 
ATOM     80  F   UNL A   1      34.175  32.627  32.694  1.00  0.00    -0.200 F 
ATOM     81  C   UNL A   1      34.796  33.572  30.627  1.00  0.00     0.200 A 
ATOM     82  F   UNL A   1      35.502  34.529  28.590  1.00  0.00    -0.200 F 
ATOM     83  F   UNL A   1      33.760  34.421  30.684  1.00  0.00    -0.200 F 
ENDBRANCH  49  73
BRANCH  61  84
ATOM     84  C   UNL A   1      42.173  30.091  33.653  1.00  0.00     0.064 A 
ATOM     85  C   UNL A   1      41.712  28.772  33.499  1.00  0.00     0.173 A 
ATOM     86  C   UNL A   1      42.457  30.527  34.953  1.00  0.00     0.173 A 
ATOM     87  F   UNL A   1      41.508  28.248  32.285  1.00  0.00    -0.203 F 
ATOM     88  C   UNL A   1      41.516  27.942  34.601  1.00  0.00     0.198 A 
ATOM     89  C   UNL A   1      42.296  29.683  36.049  1.00  0.00     0.198 A 
ATOM     90  F   UNL A   1      42.951  31.758  35.156  1.00  0.00    -0.203 F 
ATOM     91  F   UNL A   1      41.072  26.687  34.426  1.00  0.00    -0.200 F 
ATOM     92  C   UNL A   1      41.819  28.394  35.874  1.00  0.00     0.200 A 
ATOM     93  F   UNL A   1      42.637  30.109  37.272  1.00  0.00    -0.200 F 
ATOM     94  F   UNL A   1      41.680  27.579  36.929  1.00  0.00    -0.200 F 
ENDBRANCH  61  84
ENDBRANCH  35  36
ENDBRANCH  27  30
ENDBRANCH  25  26
ENDBRANCH  24  25
ENDBRANCH   1  24
TORSDOF 16
ENDMDL
MODEL 2
REMARK VINA RESULT:     -12.2      6.017     11.920
REMARK SMILES CCO[C@H](CCn1nnc2c(cnn2C)c1=O)C(=O)NCCCCNC(=O)c1ccc(-c2c3nc(c(-c4c(F)c(F)c(F)c(F)c4F)c4ccc([nH]4)c(-c4c(F)c(F)c(F)c(F)c4F)c4nc(c(-c5c(F)c(F)c(F)c(F)c5F)c5ccc2[nH]5)C=C4)C=C3)cc1
REMARK SMILES IDX 22 1 21 2 20 3 18 4 19 5 4 7 3 8 2 9 1 10 5 11 6 12 7 13
REMARK SMILES IDX 8 14 16 15 9 16 11 17 17 18 10 19 12 20 14 21 13 22 15 23
REMARK SMILES IDX 23 24 24 25 25 26 26 27 27 29 28 30 29 31 90 32 30 33 89 34
REMARK SMILES IDX 31 35 32 36 33 37 83 38 34 39 88 40 82 41 84 42 35 43 87 44
REMARK SMILES IDX 81 45 80 46 36 48 68 49 48 50 67 51 49 52 52 53 66 54 85 55
REMARK SMILES IDX 50 56 51 57 65 59 86 60 53 61 37 62 38 63 46 64 39 65 40 66
REMARK SMILES IDX 44 67 47 68 41 69 42 70 45 71 43 72 69 73 70 74 78 75 71 76
REMARK SMILES IDX 72 77 76 78 79 79 73 80 74 81 77 82 75 83 54 84 55 85 63 86
REMARK SMILES IDX 56 87 57 88 61 89 64 90 58 91 59 92 62 93 60 94
REMARK H PARENT 20 6 25 28 84 47 52 58
REMARK Flexibility Score: inf
ROOT
ATOM      1  C   UNL A   1      38.508  33.436  29.394  1.00  0.00     0.023 C 
ENDROOT
BRANCH   1   2
ATOM      2  C   UNL A   1      39.397  34.071  30.459  1.00  0.00     0.116 C 
BRANCH   2   3
ATOM      3  N   UNL A   1      39.788  33.142  31.501  1.00  0.00    -0.354 N 
ATOM      4  C   UNL A   1      39.145  32.743  32.638  1.00  0.00     0.249 C 
ATOM      5  O   UNL A   1      39.650  31.797  33.252  1.00  0.00    -0.272 OA
ATOM      6  H   UNL A   1      40.670  32.726  31.367  1.00  0.00     0.163 HD
BRANCH   4   7
ATOM      7  C   UNL A   1      37.854  33.434  33.166  1.00  0.00     0.208 C 
BRANCH   7   8
ATOM      8  O   UNL A   1      37.887  34.472  34.133  1.00  0.00    -0.369 OA
BRANCH   8   9
ATOM      9  C   UNL A   1      38.780  34.414  35.229  1.00  0.00     0.158 C 
ATOM     10  C   UNL A   1      38.172  33.780  36.469  1.00  0.00     0.035 C 
ENDBRANCH   8   9
ENDBRANCH   7   8
BRANCH   7  11
ATOM     11  C   UNL A   1      36.718  32.405  33.362  1.00  0.00     0.066 C 
BRANCH  11  12
ATOM     12  C   UNL A   1      35.348  32.974  33.714  1.00  0.00     0.153 C 
BRANCH  12  13
ATOM     13  N   UNL A   1      34.754  33.879  32.749  1.00  0.00    -0.210 N 
ATOM     14  N   UNL A   1      34.359  33.343  31.521  1.00  0.00    -0.062 NA
ATOM     15  C   UNL A   1      34.529  35.209  33.137  1.00  0.00     0.280 A 
ATOM     16  N   UNL A   1      33.820  34.064  30.641  1.00  0.00    -0.111 NA
ATOM     17  C   UNL A   1      33.911  35.984  32.115  1.00  0.00     0.108 A 
ATOM     18  O   UNL A   1      34.817  35.673  34.240  1.00  0.00    -0.267 OA
ATOM     19  C   UNL A   1      33.609  35.359  30.940  1.00  0.00     0.187 A 
ATOM     20  C   UNL A   1      33.486  37.306  31.961  1.00  0.00     0.151 A 
ATOM     21  N   UNL A   1      33.058  36.310  30.137  1.00  0.00    -0.249 N 
ATOM     22  N   UNL A   1      32.957  37.519  30.747  1.00  0.00    -0.179 NA
ATOM     23  C   UNL A   1      32.612  36.159  28.775  1.00  0.00     0.176 C 
ENDBRANCH  12  13
ENDBRANCH  11  12
ENDBRANCH   7  11
ENDBRANCH   4   7
ENDBRANCH   2   3
ENDBRANCH   1   2
BRANCH   1  24
ATOM     24  C   UNL A   1      37.057  33.928  29.359  1.00  0.00     0.023 C 
BRANCH  24  25
ATOM     25  C   UNL A   1      36.321  33.643  28.057  1.00  0.00     0.116 C 
BRANCH  25  26
ATOM     26  N   UNL A   1      35.083  32.896  28.255  1.00  0.00    -0.352 N 
ATOM     27  C   UNL A   1      34.914  31.526  28.223  1.00  0.00     0.251 C 
ATOM     28  H   UNL A   1      34.276  33.430  28.432  1.00  0.00     0.163 HD
ATOM     29  O   UNL A   1      33.811  31.028  28.036  1.00  0.00    -0.269 OA
BRANCH  27  30
ATOM     30  C   UNL A   1      36.093  30.667  28.419  1.00  0.00     0.039 A 
ATOM     31  C   UNL A   1      36.836  30.210  27.327  1.00  0.00     0.014 A 
ATOM     32  C   UNL A   1      36.466  30.346  29.723  1.00  0.00     0.014 A 
ATOM     33  C   UNL A   1      38.006  29.495  27.563  1.00  0.00     0.010 A 
ATOM     34  C   UNL A   1      37.678  29.741  29.957  1.00  0.00     0.010 A 
ATOM     35  C   UNL A   1      38.436  29.281  28.883  1.00  0.00    -0.014 A 
BRANCH  35  36
ATOM     36  C   UNL A   1      39.738  28.676  29.147  1.00  0.00     0.031 A 
ATOM     37  C   UNL A   1      40.091  28.521  30.587  1.00  0.00     0.074 A 
ATOM     38  C   UNL A   1      40.488  28.101  28.184  1.00  0.00     0.049 A 
ATOM     39  N   UNL A   1      41.090  29.048  31.217  1.00  0.00    -0.248 NA
ATOM     40  C   UNL A   1      39.178  27.760  31.453  1.00  0.00     0.031 C 
ATOM     41  C   UNL A   1      40.160  27.909  26.767  1.00  0.00     0.029 A 
ATOM     42  N   UNL A   1      41.685  27.463  28.304  1.00  0.00    -0.354 N 
ATOM     43  C   UNL A   1      41.030  28.566  32.524  1.00  0.00     0.074 A 
ATOM     44  C   UNL A   1      39.762  27.895  32.646  1.00  0.00     0.031 C 
ATOM     45  C   UNL A   1      41.019  27.023  26.219  1.00  0.00     0.029 A 
ATOM     46  C   UNL A   1      42.052  26.716  27.192  1.00  0.00     0.049 A 
ATOM     47  H   UNL A   1      42.245  27.526  29.112  1.00  0.00     0.167 HD
ATOM     48  C   UNL A   1      42.122  28.591  33.337  1.00  0.00     0.037 A 
ATOM     49  C   UNL A   1      43.122  25.894  27.078  1.00  0.00     0.037 A 
ATOM     50  C   UNL A   1      43.126  29.490  32.827  1.00  0.00     0.049 A 
ATOM     51  C   UNL A   1      44.089  26.285  28.130  1.00  0.00     0.074 A 
ATOM     52  C   UNL A   1      43.169  30.845  32.566  1.00  0.00     0.029 A 
ATOM     53  N   UNL A   1      44.195  28.948  32.157  1.00  0.00    -0.354 N 
ATOM     54  N   UNL A   1      44.758  27.404  28.117  1.00  0.00    -0.248 NA
ATOM     55  C   UNL A   1      43.994  25.627  29.425  1.00  0.00     0.031 C 
ATOM     56  C   UNL A   1      43.945  30.965  31.376  1.00  0.00     0.029 A 
ATOM     57  C   UNL A   1      44.381  29.689  31.021  1.00  0.00     0.049 A 
ATOM     58  H   UNL A   1      44.730  28.171  32.441  1.00  0.00     0.167 HD
ATOM     59  C   UNL A   1      44.781  27.809  29.442  1.00  0.00     0.074 A 
ATOM     60  C   UNL A   1      44.397  26.630  30.211  1.00  0.00     0.031 C 
ATOM     61  C   UNL A   1      44.829  29.135  29.766  1.00  0.00     0.037 A 
BRANCH  48  62
ATOM     62  C   UNL A   1      42.444  27.567  34.399  1.00  0.00     0.064 A 
ATOM     63  C   UNL A   1      43.079  26.362  34.026  1.00  0.00     0.173 A 
ATOM     64  C   UNL A   1      41.888  27.580  35.696  1.00  0.00     0.173 A 
ATOM     65  F   UNL A   1      43.633  26.229  32.812  1.00  0.00    -0.203 F 
ATOM     66  C   UNL A   1      43.074  25.235  34.853  1.00  0.00     0.198 A 
ATOM     67  C   UNL A   1      41.934  26.470  36.539  1.00  0.00     0.198 A 
ATOM     68  F   UNL A   1      41.182  28.619  36.157  1.00  0.00    -0.203 F 
ATOM     69  F   UNL A   1      43.571  24.076  34.399  1.00  0.00    -0.200 F 
ATOM     70  C   UNL A   1      42.495  25.287  36.106  1.00  0.00     0.200 A 
ATOM     71  F   UNL A   1      41.351  26.535  37.744  1.00  0.00    -0.200 F 
ATOM     72  F   UNL A   1      42.431  24.192  36.873  1.00  0.00    -0.200 F 
ENDBRANCH  48  62
BRANCH  49  73
ATOM     73  C   UNL A   1      43.296  24.680  26.249  1.00  0.00     0.064 A 
ATOM     74  C   UNL A   1      44.288  24.611  25.258  1.00  0.00     0.173 A 
ATOM     75  C   UNL A   1      42.671  23.467  26.598  1.00  0.00     0.173 A 
ATOM     76  F   UNL A   1      44.957  25.714  24.895  1.00  0.00    -0.203 F 
ATOM     77  C   UNL A   1      44.656  23.396  24.672  1.00  0.00     0.198 A 
ATOM     78  C   UNL A   1      43.035  22.255  26.009  1.00  0.00     0.198 A 
ATOM     79  F   UNL A   1      41.764  23.422  27.584  1.00  0.00    -0.203 F 
ATOM     80  F   UNL A   1      45.651  23.360  23.776  1.00  0.00    -0.200 F 
ATOM     81  C   UNL A   1      44.037  22.218  25.058  1.00  0.00     0.200 A 
ATOM     82  F   UNL A   1      42.453  21.118  26.415  1.00  0.00    -0.200 F 
ATOM     83  F   UNL A   1      44.434  21.045  24.544  1.00  0.00    -0.200 F 
ENDBRANCH  49  73
BRANCH  61  84
ATOM     84  C   UNL A   1      45.124  30.117  28.668  1.00  0.00     0.064 A 
ATOM     85  C   UNL A   1      44.143  30.674  27.829  1.00  0.00     0.173 A 
ATOM     86  C   UNL A   1      46.420  30.638  28.578  1.00  0.00     0.173 A 
ATOM     87  F   UNL A   1      42.863  30.299  27.918  1.00  0.00    -0.203 F 
ATOM     88  C   UNL A   1      44.457  31.685  26.921  1.00  0.00     0.198 A 
ATOM     89  C   UNL A   1      46.723  31.674  27.697  1.00  0.00     0.198 A 
ATOM     90  F   UNL A   1      47.386  30.183  29.391  1.00  0.00    -0.203 F 
ATOM     91  F   UNL A   1      43.501  32.198  26.130  1.00  0.00    -0.200 F 
ATOM     92  C   UNL A   1      45.744  32.191  26.865  1.00  0.00     0.200 A 
ATOM     93  F   UNL A   1      47.957  32.194  27.681  1.00  0.00    -0.200 F 
ATOM     94  F   UNL A   1      46.035  33.198  26.030  1.00  0.00    -0.200 F 
ENDBRANCH  61  84
ENDBRANCH  35  36
ENDBRANCH  27  30
ENDBRANCH  25  26
ENDBRANCH  24  25
ENDBRANCH   1  24
TORSDOF 16
ENDMDL
MODEL 3
REMARK VINA RESULT:     -12.0      1.930      3.942
REMARK SMILES CCO[C@H](CCn1nnc2c(cnn2C)c1=O)C(=O)NCCCCNC(=O)c1ccc(-c2c3nc(c(-c4c(F)c(F)c(F)c(F)c4F)c4ccc([nH]4)c(-c4c(F)c(F)c(F)c(F)c4F)c4nc(c(-c5c(F)c(F)c(F)c(F)c5F)c5ccc2[nH]5)C=C4)C=C3)cc1
REMARK SMILES IDX 22 1 21 2 20 3 18 4 19 5 4 7 3 8 2 9 1 10 5 11 6 12 7 13
REMARK SMILES IDX 8 14 16 15 9 16 11 17 17 18 10 19 12 20 14 21 13 22 15 23
REMARK SMILES IDX 23 24 24 25 25 26 26 27 27 29 28 30 29 31 90 32 30 33 89 34
REMARK SMILES IDX 31 35 32 36 33 37 83 38 34 39 88 40 82 41 84 42 35 43 87 44
REMARK SMILES IDX 81 45 80 46 36 48 68 49 48 50 67 51 49 52 52 53 66 54 85 55
REMARK SMILES IDX 50 56 51 57 65 59 86 60 53 61 37 62 38 63 46 64 39 65 40 66
REMARK SMILES IDX 44 67 47 68 41 69 42 70 45 71 43 72 69 73 70 74 78 75 71 76
REMARK SMILES IDX 72 77 76 78 79 79 73 80 74 81 77 82 75 83 54 84 55 85 63 86
REMARK SMILES IDX 56 87 57 88 61 89 64 90 58 91 59 92 62 93 60 94
REMARK H PARENT 20 6 25 28 84 47 52 58
REMARK Flexibility Score: inf
ROOT
ATOM      1  C   UNL A   1      37.118  21.645  24.460  1.00  0.00     0.023 C 
ENDROOT
BRANCH   1   2
ATOM      2  C   UNL A   1      36.122  20.610  24.976  1.00  0.00     0.116 C 
BRANCH   2   3
ATOM      3  N   UNL A   1      35.303  21.104  26.066  1.00  0.00    -0.354 N 
ATOM      4  C   UNL A   1      33.950  21.093  26.249  1.00  0.00     0.249 C 
ATOM      5  O   UNL A   1      33.544  21.430  27.367  1.00  0.00    -0.272 OA
ATOM      6  H   UNL A   1      35.809  21.518  26.802  1.00  0.00     0.163 HD
BRANCH   4   7
ATOM      7  C   UNL A   1      32.947  20.699  25.126  1.00  0.00     0.208 C 
BRANCH   7   8
ATOM      8  O   UNL A   1      33.176  19.607  24.249  1.00  0.00    -0.369 OA
BRANCH   8   9
ATOM      9  C   UNL A   1      33.300  18.289  24.751  1.00  0.00     0.158 C 
ATOM     10  C   UNL A   1      33.991  17.340  23.785  1.00  0.00     0.035 C 
ENDBRANCH   8   9
ENDBRANCH   7   8
BRANCH   7  11
ATOM     11  C   UNL A   1      32.354  21.955  24.449  1.00  0.00     0.066 C 
BRANCH  11  12
ATOM     12  C   UNL A   1      33.300  22.749  23.555  1.00  0.00     0.153 C 
BRANCH  12  13
ATOM     13  N   UNL A   1      33.403  24.171  23.821  1.00  0.00    -0.210 N 
ATOM     14  N   UNL A   1      33.559  24.568  25.151  1.00  0.00    -0.062 NA
ATOM     15  C   UNL A   1      33.434  25.050  22.728  1.00  0.00     0.280 A 
ATOM     16  N   UNL A   1      33.674  25.783  25.456  1.00  0.00    -0.111 NA
ATOM     17  C   UNL A   1      33.574  26.411  23.120  1.00  0.00     0.108 A 
ATOM     18  O   UNL A   1      33.360  24.702  21.549  1.00  0.00    -0.267 OA
ATOM     19  C   UNL A   1      33.675  26.680  24.453  1.00  0.00     0.187 A 
ATOM     20  C   UNL A   1      33.647  27.650  22.477  1.00  0.00     0.151 A 
ATOM     21  N   UNL A   1      33.773  28.035  24.559  1.00  0.00    -0.249 N 
ATOM     22  N   UNL A   1      33.772  28.658  23.353  1.00  0.00    -0.179 NA
ATOM     23  C   UNL A   1      33.858  28.817  25.767  1.00  0.00     0.176 C 
ENDBRANCH  12  13
ENDBRANCH  11  12
ENDBRANCH   7  11
ENDBRANCH   4   7
ENDBRANCH   2   3
ENDBRANCH   1   2
BRANCH   1  24
ATOM     24  C   UNL A   1      36.920  23.074  24.980  1.00  0.00     0.023 C 
BRANCH  24  25
ATOM     25  C   UNL A   1      37.892  23.490  26.076  1.00  0.00     0.116 C 
BRANCH  25  26
ATOM     26  N   UNL A   1      39.064  22.624  26.155  1.00  0.00    -0.352 N 
ATOM     27  C   UNL A   1      40.385  23.007  26.268  1.00  0.00     0.251 C 
ATOM     28  H   UNL A   1      38.893  21.655  26.122  1.00  0.00     0.163 HD
ATOM     29  O   UNL A   1      41.294  22.246  25.961  1.00  0.00    -0.269 OA
BRANCH  27  30
ATOM     30  C   UNL A   1      40.685  24.358  26.769  1.00  0.00     0.039 A 
ATOM     31  C   UNL A   1      40.473  25.483  25.967  1.00  0.00     0.014 A 
ATOM     32  C   UNL A   1      41.159  24.488  28.074  1.00  0.00     0.014 A 
ATOM     33  C   UNL A   1      40.663  26.746  26.519  1.00  0.00     0.010 A 
ATOM     34  C   UNL A   1      41.235  25.733  28.651  1.00  0.00     0.010 A 
ATOM     35  C   UNL A   1      41.024  26.867  27.870  1.00  0.00    -0.014 A 
BRANCH  35  36
ATOM     36  C   UNL A   1      41.071  28.179  28.508  1.00  0.00     0.031 A 
ATOM     37  C   UNL A   1      42.231  29.035  28.128  1.00  0.00     0.074 A 
ATOM     38  C   UNL A   1      40.044  28.683  29.225  1.00  0.00     0.049 A 
ATOM     39  N   UNL A   1      43.156  29.500  28.902  1.00  0.00    -0.248 NA
ATOM     40  C   UNL A   1      42.439  29.338  26.704  1.00  0.00     0.031 C 
ATOM     41  C   UNL A   1      38.720  28.095  29.455  1.00  0.00     0.029 A 
ATOM     42  N   UNL A   1      39.942  29.902  29.824  1.00  0.00    -0.354 N 
ATOM     43  C   UNL A   1      43.982  30.286  28.099  1.00  0.00     0.074 A 
ATOM     44  C   UNL A   1      43.576  30.038  26.740  1.00  0.00     0.031 C 
ATOM     45  C   UNL A   1      37.886  29.038  29.946  1.00  0.00     0.029 A 
ATOM     46  C   UNL A   1      38.654  30.239  30.221  1.00  0.00     0.049 A 
ATOM     47  H   UNL A   1      40.715  30.494  29.965  1.00  0.00     0.167 HD
ATOM     48  C   UNL A   1      44.802  31.231  28.640  1.00  0.00     0.037 A 
ATOM     49  C   UNL A   1      38.241  31.425  30.729  1.00  0.00     0.037 A 
ATOM     50  C   UNL A   1      44.976  31.016  30.054  1.00  0.00     0.049 A 
ATOM     51  C   UNL A   1      39.443  32.123  31.244  1.00  0.00     0.074 A 
ATOM     52  C   UNL A   1      45.492  29.990  30.821  1.00  0.00     0.029 A 
ATOM     53  N   UNL A   1      44.250  31.798  30.918  1.00  0.00    -0.354 N 
ATOM     54  N   UNL A   1      40.111  31.734  32.293  1.00  0.00    -0.248 NA
ATOM     55  C   UNL A   1      40.159  33.007  30.337  1.00  0.00     0.031 C 
ATOM     56  C   UNL A   1      44.653  29.935  31.972  1.00  0.00     0.029 A 
ATOM     57  C   UNL A   1      43.721  30.967  31.870  1.00  0.00     0.049 A 
ATOM     58  H   UNL A   1      44.131  32.774  30.864  1.00  0.00     0.167 HD
ATOM     59  C   UNL A   1      41.438  31.951  31.958  1.00  0.00     0.074 A 
ATOM     60  C   UNL A   1      41.402  32.835  30.798  1.00  0.00     0.031 C 
ATOM     61  C   UNL A   1      42.427  31.166  32.477  1.00  0.00     0.037 A 
BRANCH  48  62
ATOM     62  C   UNL A   1      45.176  32.540  27.987  1.00  0.00     0.064 A 
ATOM     63  C   UNL A   1      46.520  32.770  27.623  1.00  0.00     0.173 A 
ATOM     64  C   UNL A   1      44.346  33.681  27.984  1.00  0.00     0.173 A 
ATOM     65  F   UNL A   1      47.405  31.763  27.602  1.00  0.00    -0.203 F 
ATOM     66  C   UNL A   1      47.009  34.054  27.367  1.00  0.00     0.198 A 
ATOM     67  C   UNL A   1      44.827  34.953  27.675  1.00  0.00     0.198 A 
ATOM     68  F   UNL A   1      43.071  33.634  28.388  1.00  0.00    -0.203 F 
ATOM     69  F   UNL A   1      48.320  34.237  27.160  1.00  0.00    -0.200 F 
ATOM     70  C   UNL A   1      46.164  35.146  27.401  1.00  0.00     0.200 A 
ATOM     71  F   UNL A   1      43.993  36.002  27.730  1.00  0.00    -0.200 F 
ATOM     72  F   UNL A   1      46.641  36.384  27.221  1.00  0.00    -0.200 F 
ENDBRANCH  48  62
BRANCH  49  73
ATOM     73  C   UNL A   1      36.917  32.079  30.643  1.00  0.00     0.064 A 
ATOM     74  C   UNL A   1      36.002  32.016  31.706  1.00  0.00     0.173 A 
ATOM     75  C   UNL A   1      36.632  33.008  29.623  1.00  0.00     0.173 A 
ATOM     76  F   UNL A   1      36.219  31.185  32.735  1.00  0.00    -0.203 F 
ATOM     77  C   UNL A   1      34.884  32.854  31.762  1.00  0.00     0.198 A 
ATOM     78  C   UNL A   1      35.512  33.840  29.677  1.00  0.00     0.198 A 
ATOM     79  F   UNL A   1      37.483  33.191  28.604  1.00  0.00    -0.203 F 
ATOM     80  F   UNL A   1      34.068  32.809  32.824  1.00  0.00    -0.200 F 
ATOM     81  C   UNL A   1      34.648  33.773  30.754  1.00  0.00     0.200 A 
ATOM     82  F   UNL A   1      35.313  34.750  28.713  1.00  0.00    -0.200 F 
ATOM     83  F   UNL A   1      33.613  34.621  30.839  1.00  0.00    -0.200 F 
ENDBRANCH  49  73
BRANCH  61  84
ATOM     84  C   UNL A   1      42.072  30.245  33.611  1.00  0.00     0.064 A 
ATOM     85  C   UNL A   1      41.652  28.915  33.441  1.00  0.00     0.173 A 
ATOM     86  C   UNL A   1      42.332  30.676  34.918  1.00  0.00     0.173 A 
ATOM     87  F   UNL A   1      41.473  28.398  32.220  1.00  0.00    -0.203 F 
ATOM     88  C   UNL A   1      41.472  28.068  34.533  1.00  0.00     0.198 A 
ATOM     89  C   UNL A   1      42.188  29.816  36.004  1.00  0.00     0.198 A 
ATOM     90  F   UNL A   1      42.787  31.920  35.138  1.00  0.00    -0.203 F 
ATOM     91  F   UNL A   1      41.067  26.802  34.341  1.00  0.00    -0.200 F 
ATOM     92  C   UNL A   1      41.751  28.516  35.812  1.00  0.00     0.200 A 
ATOM     93  F   UNL A   1      42.507  30.240  37.234  1.00  0.00    -0.200 F 
ATOM     94  F   UNL A   1      41.628  27.687  36.858  1.00  0.00    -0.200 F 
ENDBRANCH  61  84
ENDBRANCH  35  36
ENDBRANCH  27  30
ENDBRANCH  25  26
ENDBRANCH  24  25
ENDBRANCH   1  24
TORSDOF 16
ENDMDL
