MODEL 1
REMARK VINA RESULT:     -13.5      0.000      0.000
REMARK SMILES O=C(NCCCCNC(=O)c1cc(-c2ccoc2)nc2c(F)cccc12)c1ccc(-c2c3nc(c(-c4c(F)c(F)c(F)c(F)c4F)c4ccc([nH]4)c(-c4c(F)c(F)c(F)c(F)c4F)c4nc(c(-c5c(F)c(F)c(F)c(F)c5F)c5ccc2[nH]5)C=C4)C=C3)cc1
REMARK SMILES IDX 5 1 4 2 3 3 1 4 2 5 27 7 28 8 89 9 29 10 88 11 30 12 31 13
REMARK SMILES IDX 32 14 82 15 33 16 87 17 81 18 83 19 34 20 86 21 80 22 79 23
REMARK SMILES IDX 35 25 67 26 47 27 66 28 48 29 51 30 65 31 84 32 49 33 50 34
REMARK SMILES IDX 64 36 85 37 52 38 36 39 37 40 45 41 38 42 39 43 43 44 46 45
REMARK SMILES IDX 40 46 41 47 44 48 42 49 68 50 69 51 77 52 70 53 71 54 75 55
REMARK SMILES IDX 78 56 72 57 73 58 76 59 74 60 53 61 54 62 62 63 55 64 56 65
REMARK SMILES IDX 60 66 63 67 57 68 58 69 61 70 59 71 6 72 7 73 8 74 9 75
REMARK SMILES IDX 10 77 11 78 12 79 26 80 13 81 20 82 25 83 19 84 21 85 24 86
REMARK SMILES IDX 22 87 23 88 14 89 15 90 18 91 16 92 17 93
REMARK H PARENT 3 6 83 24 51 35 8 76
REMARK Flexibility Score: inf
ROOT
ATOM      1  C   UNL A   1      31.364  32.064  26.831  1.00  0.00     0.023 C 
ENDROOT
BRANCH   1   2
ATOM      2  C   UNL A   1      32.617  32.838  27.219  1.00  0.00     0.116 C 
BRANCH   2   3
ATOM      3  N   UNL A   1      32.347  34.204  27.639  1.00  0.00    -0.352 N 
ATOM      4  O   UNL A   1      32.524  36.079  28.882  1.00  0.00    -0.269 OA
ATOM      5  C   UNL A   1      32.977  34.976  28.588  1.00  0.00     0.251 C 
ATOM      6  H   UNL A   1      31.601  34.644  27.173  1.00  0.00     0.163 HD
BRANCH   5   7
ATOM      7  C   UNL A   1      34.175  34.464  29.288  1.00  0.00     0.039 A 
ATOM      8  C   UNL A   1      35.448  34.613  28.736  1.00  0.00     0.014 A 
ATOM      9  C   UNL A   1      34.020  33.812  30.516  1.00  0.00     0.014 A 
ATOM     10  C   UNL A   1      36.530  33.955  29.309  1.00  0.00     0.010 A 
ATOM     11  C   UNL A   1      35.128  33.232  31.142  1.00  0.00     0.010 A 
ATOM     12  C   UNL A   1      36.384  33.255  30.518  1.00  0.00    -0.014 A 
BRANCH  12  13
ATOM     13  C   UNL A   1      37.568  32.579  31.112  1.00  0.00     0.031 A 
ATOM     14  C   UNL A   1      38.035  32.904  32.505  1.00  0.00     0.074 A 
ATOM     15  C   UNL A   1      38.191  31.620  30.401  1.00  0.00     0.049 A 
ATOM     16  N   UNL A   1      39.008  32.363  33.195  1.00  0.00    -0.248 NA
ATOM     17  C   UNL A   1      37.329  33.982  33.213  1.00  0.00     0.031 C 
ATOM     18  C   UNL A   1      37.839  31.224  29.036  1.00  0.00     0.029 A 
ATOM     19  N   UNL A   1      39.227  30.784  30.732  1.00  0.00    -0.354 N 
ATOM     20  C   UNL A   1      39.047  33.048  34.403  1.00  0.00     0.074 A 
ATOM     21  C   UNL A   1      38.014  34.061  34.345  1.00  0.00     0.031 C 
ATOM     22  C   UNL A   1      38.599  30.182  28.671  1.00  0.00     0.029 A 
ATOM     23  C   UNL A   1      39.530  29.873  29.751  1.00  0.00     0.049 A 
ATOM     24  H   UNL A   1      39.706  30.833  31.591  1.00  0.00     0.167 HD
ATOM     25  C   UNL A   1      39.864  32.846  35.466  1.00  0.00     0.037 A 
ATOM     26  C   UNL A   1      40.455  28.896  29.722  1.00  0.00     0.037 A 
ATOM     27  C   UNL A   1      40.870  31.816  35.535  1.00  0.00     0.049 A 
ATOM     28  C   UNL A   1      41.345  28.695  30.913  1.00  0.00     0.074 A 
ATOM     29  C   UNL A   1      41.709  31.497  36.589  1.00  0.00     0.029 A 
ATOM     30  N   UNL A   1      41.172  30.936  34.505  1.00  0.00    -0.354 N 
ATOM     31  N   UNL A   1      41.344  29.326  32.062  1.00  0.00    -0.248 NA
ATOM     32  C   UNL A   1      42.371  27.650  30.799  1.00  0.00     0.031 C 
ATOM     33  C   UNL A   1      42.548  30.453  36.183  1.00  0.00     0.029 A 
ATOM     34  C   UNL A   1      42.201  30.090  34.891  1.00  0.00     0.049 A 
ATOM     35  H   UNL A   1      40.721  30.915  33.631  1.00  0.00     0.167 HD
ATOM     36  C   UNL A   1      42.354  28.744  32.814  1.00  0.00     0.074 A 
ATOM     37  C   UNL A   1      42.934  27.697  31.998  1.00  0.00     0.031 C 
ATOM     38  C   UNL A   1      42.766  29.054  34.067  1.00  0.00     0.037 A 
BRANCH  25  39
ATOM     39  C   UNL A   1      39.722  33.768  36.641  1.00  0.00     0.064 A 
ATOM     40  C   UNL A   1      40.369  35.012  36.690  1.00  0.00     0.173 A 
ATOM     41  C   UNL A   1      38.889  33.421  37.716  1.00  0.00     0.173 A 
ATOM     42  F   UNL A   1      41.187  35.386  35.694  1.00  0.00    -0.203 F 
ATOM     43  C   UNL A   1      40.206  35.862  37.781  1.00  0.00     0.198 A 
ATOM     44  C   UNL A   1      38.708  34.285  38.794  1.00  0.00     0.198 A 
ATOM     45  F   UNL A   1      38.241  32.246  37.717  1.00  0.00    -0.203 F 
ATOM     46  F   UNL A   1      40.867  37.027  37.824  1.00  0.00    -0.200 F 
ATOM     47  C   UNL A   1      39.371  35.501  38.828  1.00  0.00     0.200 A 
ATOM     48  F   UNL A   1      37.892  33.939  39.799  1.00  0.00    -0.200 F 
ATOM     49  F   UNL A   1      39.211  36.325  39.874  1.00  0.00    -0.200 F 
ENDBRANCH  25  39
BRANCH  26  50
ATOM     50  C   UNL A   1      40.566  28.025  28.525  1.00  0.00     0.064 A 
ATOM     51  C   UNL A   1      41.345  28.411  27.426  1.00  0.00     0.173 A 
ATOM     52  C   UNL A   1      39.913  26.786  28.462  1.00  0.00     0.173 A 
ATOM     53  F   UNL A   1      41.972  29.596  27.433  1.00  0.00    -0.203 F 
ATOM     54  C   UNL A   1      41.462  27.592  26.306  1.00  0.00     0.198 A 
ATOM     55  C   UNL A   1      40.052  25.956  27.353  1.00  0.00     0.198 A 
ATOM     56  F   UNL A   1      39.159  26.372  29.491  1.00  0.00    -0.203 F 
ATOM     57  F   UNL A   1      42.187  27.998  25.255  1.00  0.00    -0.200 F 
ATOM     58  C   UNL A   1      40.821  26.362  26.273  1.00  0.00     0.200 A 
ATOM     59  F   UNL A   1      39.446  24.761  27.332  1.00  0.00    -0.200 F 
ATOM     60  F   UNL A   1      40.942  25.570  25.199  1.00  0.00    -0.200 F 
ENDBRANCH  26  50
BRANCH  38  61
ATOM     61  C   UNL A   1      43.883  28.230  34.638  1.00  0.00     0.064 A 
ATOM     62  C   UNL A   1      45.223  28.625  34.511  1.00  0.00     0.173 A 
ATOM     63  C   UNL A   1      43.608  27.043  35.331  1.00  0.00     0.173 A 
ATOM     64  F   UNL A   1      45.536  29.745  33.842  1.00  0.00    -0.203 F 
ATOM     65  C   UNL A   1      46.250  27.844  35.034  1.00  0.00     0.198 A 
ATOM     66  C   UNL A   1      44.636  26.278  35.874  1.00  0.00     0.198 A 
ATOM     67  F   UNL A   1      42.342  26.624  35.481  1.00  0.00    -0.203 F 
ATOM     68  F   UNL A   1      47.526  28.213  34.858  1.00  0.00    -0.200 F 
ATOM     69  C   UNL A   1      45.956  26.674  35.718  1.00  0.00     0.200 A 
ATOM     70  F   UNL A   1      44.350  25.152  36.544  1.00  0.00    -0.200 F 
ATOM     71  F   UNL A   1      46.946  25.924  36.220  1.00  0.00    -0.200 F 
ENDBRANCH  38  61
ENDBRANCH  12  13
ENDBRANCH   5   7
ENDBRANCH   2   3
ENDBRANCH   1   2
BRANCH   1  72
ATOM     72  C   UNL A   1      31.593  30.801  26.003  1.00  0.00     0.023 C 
BRANCH  72  73
ATOM     73  C   UNL A   1      32.863  30.021  26.325  1.00  0.00     0.116 C 
BRANCH  73  74
ATOM     74  N   UNL A   1      33.679  29.727  25.157  1.00  0.00    -0.352 N 
ATOM     75  C   UNL A   1      33.517  28.732  24.225  1.00  0.00     0.252 C 
ATOM     76  H   UNL A   1      34.452  30.321  25.016  1.00  0.00     0.163 HD
ATOM     77  O   UNL A   1      34.298  28.623  23.286  1.00  0.00    -0.269 OA
BRANCH  75  78
ATOM     78  C   UNL A   1      32.434  27.746  24.392  1.00  0.00     0.051 A 
ATOM     79  C   UNL A   1      32.743  26.641  25.183  1.00  0.00     0.043 A 
ATOM     80  C   UNL A   1      31.153  27.915  23.825  1.00  0.00     0.016 A 
ATOM     81  C   UNL A   1      31.734  25.738  25.433  1.00  0.00     0.075 A 
ATOM     82  C   UNL A   1      30.178  26.971  24.200  1.00  0.00     0.107 A 
ATOM     83  C   UNL A   1      30.804  28.963  22.933  1.00  0.00     0.011 A 
ATOM     84  N   UNL A   1      30.474  25.904  24.974  1.00  0.00    -0.245 NA
ATOM     85  C   UNL A   1      28.872  27.182  23.752  1.00  0.00     0.149 A 
ATOM     86  C   UNL A   1      29.493  29.135  22.495  1.00  0.00     0.004 A 
ATOM     87  F   UNL A   1      27.895  26.343  24.132  1.00  0.00    -0.205 F 
ATOM     88  C   UNL A   1      28.518  28.250  22.927  1.00  0.00     0.041 A 
BRANCH  81  89
ATOM     89  C   UNL A   1      31.973  24.525  26.182  1.00  0.00     0.038 A 
ATOM     90  C   UNL A   1      33.199  23.856  26.443  1.00  0.00     0.052 A 
ATOM     91  C   UNL A   1      30.996  23.770  26.797  1.00  0.00     0.205 A 
ATOM     92  C   UNL A   1      32.886  22.764  27.219  1.00  0.00     0.195 A 
ATOM     93  O   UNL A   1      31.547  22.703  27.433  1.00  0.00    -0.472 OA
ENDBRANCH  81  89
ENDBRANCH  75  78
ENDBRANCH  73  74
ENDBRANCH  72  73
ENDBRANCH   1  72
TORSDOF 12
ENDMDL
MODEL 2
REMARK VINA RESULT:     -13.4      0.146      1.598
REMARK SMILES O=C(NCCCCNC(=O)c1cc(-c2ccoc2)nc2c(F)cccc12)c1ccc(-c2c3nc(c(-c4c(F)c(F)c(F)c(F)c4F)c4ccc([nH]4)c(-c4c(F)c(F)c(F)c(F)c4F)c4nc(c(-c5c(F)c(F)c(F)c(F)c5F)c5ccc2[nH]5)C=C4)C=C3)cc1
REMARK SMILES IDX 5 1 4 2 3 3 1 4 2 5 27 7 28 8 89 9 29 10 88 11 30 12 31 13
REMARK SMILES IDX 32 14 82 15 33 16 87 17 81 18 83 19 34 20 86 21 80 22 79 23
REMARK SMILES IDX 35 25 67 26 47 27 66 28 48 29 51 30 65 31 84 32 49 33 50 34
REMARK SMILES IDX 64 36 85 37 52 38 36 39 37 40 45 41 38 42 39 43 43 44 46 45
REMARK SMILES IDX 40 46 41 47 44 48 42 49 68 50 69 51 77 52 70 53 71 54 75 55
REMARK SMILES IDX 78 56 72 57 73 58 76 59 74 60 53 61 54 62 62 63 55 64 56 65
REMARK SMILES IDX 60 66 63 67 57 68 58 69 61 70 59 71 6 72 7 73 8 74 9 75
REMARK SMILES IDX 10 77 11 78 12 79 26 80 13 81 20 82 25 83 19 84 21 85 24 86
REMARK SMILES IDX 22 87 23 88 14 89 15 90 18 91 16 92 17 93
REMARK H PARENT 3 6 83 24 51 35 8 76
REMARK Flexibility Score: inf
ROOT
ATOM      1  C   UNL A   1      31.403  32.110  26.909  1.00  0.00     0.023 C 
ENDROOT
BRANCH   1   2
ATOM      2  C   UNL A   1      32.646  32.936  27.217  1.00  0.00     0.116 C 
BRANCH   2   3
ATOM      3  N   UNL A   1      32.345  34.286  27.668  1.00  0.00    -0.352 N 
ATOM      4  O   UNL A   1      32.474  36.132  28.960  1.00  0.00    -0.269 OA
ATOM      5  C   UNL A   1      32.950  35.045  28.644  1.00  0.00     0.251 C 
ATOM      6  H   UNL A   1      31.596  34.724  27.205  1.00  0.00     0.163 HD
BRANCH   5   7
ATOM      7  C   UNL A   1      34.150  34.538  29.345  1.00  0.00     0.039 A 
ATOM      8  C   UNL A   1      35.414  34.629  28.762  1.00  0.00     0.014 A 
ATOM      9  C   UNL A   1      34.005  33.947  30.604  1.00  0.00     0.014 A 
ATOM     10  C   UNL A   1      36.492  33.973  29.344  1.00  0.00     0.010 A 
ATOM     11  C   UNL A   1      35.111  33.371  31.237  1.00  0.00     0.010 A 
ATOM     12  C   UNL A   1      36.354  33.334  30.588  1.00  0.00    -0.014 A 
BRANCH  12  13
ATOM     13  C   UNL A   1      37.534  32.658  31.190  1.00  0.00     0.031 A 
ATOM     14  C   UNL A   1      37.999  32.994  32.581  1.00  0.00     0.074 A 
ATOM     15  C   UNL A   1      38.154  31.689  30.490  1.00  0.00     0.049 A 
ATOM     16  N   UNL A   1      38.969  32.455  33.279  1.00  0.00    -0.248 NA
ATOM     17  C   UNL A   1      37.298  34.081  33.277  1.00  0.00     0.031 C 
ATOM     18  C   UNL A   1      37.802  31.282  29.128  1.00  0.00     0.029 A 
ATOM     19  N   UNL A   1      39.185  30.851  30.831  1.00  0.00    -0.354 N 
ATOM     20  C   UNL A   1      39.009  33.151  34.480  1.00  0.00     0.074 A 
ATOM     21  C   UNL A   1      37.981  34.168  34.410  1.00  0.00     0.031 C 
ATOM     22  C   UNL A   1      38.558  30.233  28.774  1.00  0.00     0.029 A 
ATOM     23  C   UNL A   1      39.485  29.930  29.859  1.00  0.00     0.049 A 
ATOM     24  H   UNL A   1      39.663  30.906  31.690  1.00  0.00     0.167 HD
ATOM     25  C   UNL A   1      39.823  32.955  35.546  1.00  0.00     0.037 A 
ATOM     26  C   UNL A   1      40.406  28.948  29.841  1.00  0.00     0.037 A 
ATOM     27  C   UNL A   1      40.823  31.921  35.627  1.00  0.00     0.049 A 
ATOM     28  C   UNL A   1      41.293  28.754  31.036  1.00  0.00     0.074 A 
ATOM     29  C   UNL A   1      41.659  31.608  36.686  1.00  0.00     0.029 A 
ATOM     30  N   UNL A   1      41.123  31.030  34.606  1.00  0.00    -0.354 N 
ATOM     31  N   UNL A   1      41.292  29.395  32.179  1.00  0.00    -0.248 NA
ATOM     32  C   UNL A   1      42.314  27.703  30.933  1.00  0.00     0.031 C 
ATOM     33  C   UNL A   1      42.493  30.556  36.291  1.00  0.00     0.029 A 
ATOM     34  C   UNL A   1      42.148  30.183  35.002  1.00  0.00     0.049 A 
ATOM     35  H   UNL A   1      40.674  31.002  33.731  1.00  0.00     0.167 HD
ATOM     36  C   UNL A   1      42.298  28.816  32.938  1.00  0.00     0.074 A 
ATOM     37  C   UNL A   1      42.874  27.758  32.133  1.00  0.00     0.031 C 
ATOM     38  C   UNL A   1      42.709  29.136  34.189  1.00  0.00     0.037 A 
BRANCH  25  39
ATOM     39  C   UNL A   1      39.683  33.889  36.713  1.00  0.00     0.064 A 
ATOM     40  C   UNL A   1      38.866  33.584  37.811  1.00  0.00     0.173 A 
ATOM     41  C   UNL A   1      40.413  35.086  36.752  1.00  0.00     0.173 A 
ATOM     42  F   UNL A   1      38.138  32.457  37.819  1.00  0.00    -0.203 F 
ATOM     43  C   UNL A   1      38.767  34.454  38.894  1.00  0.00     0.198 A 
ATOM     44  C   UNL A   1      40.332  35.942  37.848  1.00  0.00     0.198 A 
ATOM     45  F   UNL A   1      41.215  35.423  35.730  1.00  0.00    -0.203 F 
ATOM     46  F   UNL A   1      37.949  34.161  39.914  1.00  0.00    -0.200 F 
ATOM     47  C   UNL A   1      39.505  35.629  38.914  1.00  0.00     0.200 A 
ATOM     48  F   UNL A   1      41.055  37.071  37.870  1.00  0.00    -0.200 F 
ATOM     49  F   UNL A   1      39.412  36.461  39.961  1.00  0.00    -0.200 F 
ENDBRANCH  25  39
BRANCH  26  50
ATOM     50  C   UNL A   1      40.514  28.065  28.653  1.00  0.00     0.064 A 
ATOM     51  C   UNL A   1      39.827  26.845  28.599  1.00  0.00     0.173 A 
ATOM     52  C   UNL A   1      41.290  28.430  27.542  1.00  0.00     0.173 A 
ATOM     53  F   UNL A   1      39.089  26.446  29.645  1.00  0.00    -0.203 F 
ATOM     54  C   UNL A   1      39.917  26.019  27.481  1.00  0.00     0.198 A 
ATOM     55  C   UNL A   1      41.356  27.616  26.414  1.00  0.00     0.198 A 
ATOM     56  F   UNL A   1      41.962  29.590  27.545  1.00  0.00    -0.203 F 
ATOM     57  F   UNL A   1      39.276  24.843  27.468  1.00  0.00    -0.200 F 
ATOM     58  C   UNL A   1      40.675  26.408  26.387  1.00  0.00     0.200 A 
ATOM     59  F   UNL A   1      42.076  28.003  25.353  1.00  0.00    -0.200 F 
ATOM     60  F   UNL A   1      40.752  25.619  25.308  1.00  0.00    -0.200 F 
ENDBRANCH  26  50
BRANCH  38  61
ATOM     61  C   UNL A   1      43.821  28.312  34.770  1.00  0.00     0.064 A 
ATOM     62  C   UNL A   1      45.164  28.696  34.636  1.00  0.00     0.173 A 
ATOM     63  C   UNL A   1      43.539  27.136  35.479  1.00  0.00     0.173 A 
ATOM     64  F   UNL A   1      45.484  29.804  33.951  1.00  0.00    -0.203 F 
ATOM     65  C   UNL A   1      46.185  27.915  35.169  1.00  0.00     0.198 A 
ATOM     66  C   UNL A   1      44.562  26.371  36.032  1.00  0.00     0.198 A 
ATOM     67  F   UNL A   1      42.270  26.729  35.637  1.00  0.00    -0.203 F 
ATOM     68  F   UNL A   1      47.464  28.273  34.986  1.00  0.00    -0.200 F 
ATOM     69  C   UNL A   1      45.884  26.756  35.869  1.00  0.00     0.200 A 
ATOM     70  F   UNL A   1      44.269  25.257  36.717  1.00  0.00    -0.200 F 
ATOM     71  F   UNL A   1      46.869  26.006  36.380  1.00  0.00    -0.200 F 
ENDBRANCH  38  61
ENDBRANCH  12  13
ENDBRANCH   5   7
ENDBRANCH   2   3
ENDBRANCH   1   2
BRANCH   1  72
ATOM     72  C   UNL A   1      31.611  30.925  25.968  1.00  0.00     0.023 C 
BRANCH  72  73
ATOM     73  C   UNL A   1      32.823  30.049  26.265  1.00  0.00     0.116 C 
BRANCH  73  74
ATOM     74  N   UNL A   1      33.626  29.746  25.091  1.00  0.00    -0.352 N 
ATOM     75  C   UNL A   1      33.449  28.749  24.164  1.00  0.00     0.252 C 
ATOM     76  H   UNL A   1      34.401  30.335  24.941  1.00  0.00     0.163 HD
ATOM     77  O   UNL A   1      34.220  28.632  23.217  1.00  0.00    -0.269 OA
BRANCH  75  78
ATOM     78  C   UNL A   1      32.362  27.770  24.344  1.00  0.00     0.051 A 
ATOM     79  C   UNL A   1      32.671  26.667  25.137  1.00  0.00     0.043 A 
ATOM     80  C   UNL A   1      31.076  27.944  23.788  1.00  0.00     0.016 A 
ATOM     81  C   UNL A   1      31.659  25.771  25.399  1.00  0.00     0.075 A 
ATOM     82  C   UNL A   1      30.099  27.008  24.175  1.00  0.00     0.107 A 
ATOM     83  C   UNL A   1      30.725  28.992  22.895  1.00  0.00     0.011 A 
ATOM     84  N   UNL A   1      30.396  25.942  24.950  1.00  0.00    -0.245 NA
ATOM     85  C   UNL A   1      28.791  27.225  23.738  1.00  0.00     0.149 A 
ATOM     86  C   UNL A   1      29.412  29.170  22.468  1.00  0.00     0.004 A 
ATOM     87  F   UNL A   1      27.812  26.393  24.130  1.00  0.00    -0.205 F 
ATOM     88  C   UNL A   1      28.435  28.292  22.912  1.00  0.00     0.041 A 
BRANCH  81  89
ATOM     89  C   UNL A   1      31.898  24.559  26.151  1.00  0.00     0.038 A 
ATOM     90  C   UNL A   1      33.123  23.890  26.414  1.00  0.00     0.052 A 
ATOM     91  C   UNL A   1      30.920  23.806  26.767  1.00  0.00     0.205 A 
ATOM     92  C   UNL A   1      32.810  22.799  27.191  1.00  0.00     0.195 A 
ATOM     93  O   UNL A   1      31.471  22.740  27.406  1.00  0.00    -0.472 OA
ENDBRANCH  81  89
ENDBRANCH  75  78
ENDBRANCH  73  74
ENDBRANCH  72  73
ENDBRANCH   1  72
TORSDOF 12
ENDMDL
MODEL 3
REMARK VINA RESULT:     -13.2      2.214      3.368
REMARK SMILES O=C(NCCCCNC(=O)c1cc(-c2ccoc2)nc2c(F)cccc12)c1ccc(-c2c3nc(c(-c4c(F)c(F)c(F)c(F)c4F)c4ccc([nH]4)c(-c4c(F)c(F)c(F)c(F)c4F)c4nc(c(-c5c(F)c(F)c(F)c(F)c5F)c5ccc2[nH]5)C=C4)C=C3)cc1
REMARK SMILES IDX 5 1 4 2 3 3 1 4 2 5 27 7 28 8 89 9 29 10 88 11 30 12 31 13
REMARK SMILES IDX 32 14 82 15 33 16 87 17 81 18 83 19 34 20 86 21 80 22 79 23
REMARK SMILES IDX 35 25 67 26 47 27 66 28 48 29 51 30 65 31 84 32 49 33 50 34
REMARK SMILES IDX 64 36 85 37 52 38 36 39 37 40 45 41 38 42 39 43 43 44 46 45
REMARK SMILES IDX 40 46 41 47 44 48 42 49 68 50 69 51 77 52 70 53 71 54 75 55
REMARK SMILES IDX 78 56 72 57 73 58 76 59 74 60 53 61 54 62 62 63 55 64 56 65
REMARK SMILES IDX 60 66 63 67 57 68 58 69 61 70 59 71 6 72 7 73 8 74 9 75
REMARK SMILES IDX 10 77 11 78 12 79 26 80 13 81 20 82 25 83 19 84 21 85 24 86
REMARK SMILES IDX 22 87 23 88 14 89 15 90 18 91 16 92 17 93
REMARK H PARENT 3 6 83 24 51 35 8 76
REMARK Flexibility Score: inf
ROOT
ATOM      1  C   UNL A   1      32.042  28.918  24.814  1.00  0.00     0.023 C 
ENDROOT
BRANCH   1   2
ATOM      2  C   UNL A   1      33.071  29.518  25.765  1.00  0.00     0.116 C 
BRANCH   2   3
ATOM      3  N   UNL A   1      32.690  30.823  26.280  1.00  0.00    -0.352 N 
ATOM      4  O   UNL A   1      32.761  32.643  27.613  1.00  0.00    -0.269 OA
ATOM      5  C   UNL A   1      33.305  31.612  27.226  1.00  0.00     0.251 C 
ATOM      6  H   UNL A   1      31.867  31.201  25.894  1.00  0.00     0.163 HD
BRANCH   5   7
ATOM      7  C   UNL A   1      34.600  31.202  27.809  1.00  0.00     0.039 A 
ATOM      8  C   UNL A   1      34.833  29.877  28.181  1.00  0.00     0.014 A 
ATOM      9  C   UNL A   1      35.597  32.164  27.999  1.00  0.00     0.014 A 
ATOM     10  C   UNL A   1      35.975  29.554  28.905  1.00  0.00     0.010 A 
ATOM     11  C   UNL A   1      36.790  31.816  28.642  1.00  0.00     0.010 A 
ATOM     12  C   UNL A   1      36.967  30.519  29.146  1.00  0.00    -0.014 A 
BRANCH  12  13
ATOM     13  C   UNL A   1      38.184  30.133  29.908  1.00  0.00     0.031 A 
ATOM     14  C   UNL A   1      38.378  30.561  31.337  1.00  0.00     0.074 A 
ATOM     15  C   UNL A   1      39.095  29.338  29.314  1.00  0.00     0.049 A 
ATOM     16  N   UNL A   1      39.349  30.258  32.164  1.00  0.00    -0.248 NA
ATOM     17  C   UNL A   1      37.361  31.452  31.913  1.00  0.00     0.031 C 
ATOM     18  C   UNL A   1      39.024  28.867  27.930  1.00  0.00     0.029 A 
ATOM     19  N   UNL A   1      40.240  28.761  29.803  1.00  0.00    -0.354 N 
ATOM     20  C   UNL A   1      39.073  30.938  33.343  1.00  0.00     0.074 A 
ATOM     21  C   UNL A   1      37.856  31.689  33.120  1.00  0.00     0.031 C 
ATOM     22  C   UNL A   1      40.041  28.024  27.699  1.00  0.00     0.029 A 
ATOM     23  C   UNL A   1      40.867  27.940  28.899  1.00  0.00     0.049 A 
ATOM     24  H   UNL A   1      40.579  28.921  30.713  1.00  0.00     0.167 HD
ATOM     25  C   UNL A   1      39.768  30.931  34.507  1.00  0.00     0.037 A 
ATOM     26  C   UNL A   1      41.983  27.199  29.021  1.00  0.00     0.037 A 
ATOM     27  C   UNL A   1      40.962  30.158  34.738  1.00  0.00     0.049 A 
ATOM     28  C   UNL A   1      42.732  27.210  30.321  1.00  0.00     0.074 A 
ATOM     29  C   UNL A   1      41.705  30.042  35.901  1.00  0.00     0.029 A 
ATOM     30  N   UNL A   1      41.587  29.366  33.785  1.00  0.00    -0.354 N 
ATOM     31  N   UNL A   1      42.437  27.828  31.439  1.00  0.00    -0.248 NA
ATOM     32  C   UNL A   1      43.972  26.425  30.374  1.00  0.00     0.031 C 
ATOM     33  C   UNL A   1      42.803  29.215  35.640  1.00  0.00     0.029 A 
ATOM     34  C   UNL A   1      42.721  28.778  34.327  1.00  0.00     0.049 A 
ATOM     35  H   UNL A   1      41.272  29.239  32.862  1.00  0.00     0.167 HD
ATOM     36  C   UNL A   1      43.444  27.494  32.332  1.00  0.00     0.074 A 
ATOM     37  C   UNL A   1      44.347  26.604  31.633  1.00  0.00     0.031 C 
ATOM     38  C   UNL A   1      43.608  27.894  33.617  1.00  0.00     0.037 A 
BRANCH  25  39
ATOM     39  C   UNL A   1      39.269  31.801  35.624  1.00  0.00     0.064 A 
ATOM     40  C   UNL A   1      38.361  31.327  36.583  1.00  0.00     0.173 A 
ATOM     41  C   UNL A   1      39.740  33.116  35.762  1.00  0.00     0.173 A 
ATOM     42  F   UNL A   1      37.871  30.081  36.490  1.00  0.00    -0.203 F 
ATOM     43  C   UNL A   1      37.927  32.144  37.624  1.00  0.00     0.198 A 
ATOM     44  C   UNL A   1      39.323  33.921  36.819  1.00  0.00     0.198 A 
ATOM     45  F   UNL A   1      40.614  33.617  34.876  1.00  0.00    -0.203 F 
ATOM     46  F   UNL A   1      37.029  31.682  38.505  1.00  0.00    -0.200 F 
ATOM     47  C   UNL A   1      38.414  33.437  37.745  1.00  0.00     0.200 A 
ATOM     48  F   UNL A   1      39.804  35.167  36.940  1.00  0.00    -0.200 F 
ATOM     49  F   UNL A   1      37.998  34.219  38.752  1.00  0.00    -0.200 F 
ENDBRANCH  25  39
BRANCH  26  50
ATOM     50  C   UNL A   1      42.444  26.372  27.877  1.00  0.00     0.064 A 
ATOM     51  C   UNL A   1      41.926  25.087  27.666  1.00  0.00     0.173 A 
ATOM     52  C   UNL A   1      43.394  26.853  26.965  1.00  0.00     0.173 A 
ATOM     53  F   UNL A   1      41.030  24.577  28.524  1.00  0.00    -0.203 F 
ATOM     54  C   UNL A   1      42.346  24.311  26.588  1.00  0.00     0.198 A 
ATOM     55  C   UNL A   1      43.792  26.088  25.872  1.00  0.00     0.198 A 
ATOM     56  F   UNL A   1      43.915  28.079  27.123  1.00  0.00    -0.203 F 
ATOM     57  F   UNL A   1      41.860  23.074  26.427  1.00  0.00    -0.200 F 
ATOM     58  C   UNL A   1      43.273  24.815  25.688  1.00  0.00     0.200 A 
ATOM     59  F   UNL A   1      44.676  26.585  24.995  1.00  0.00    -0.200 F 
ATOM     60  F   UNL A   1      43.669  24.073  24.645  1.00  0.00    -0.200 F 
ENDBRANCH  26  50
BRANCH  38  61
ATOM     61  C   UNL A   1      44.796  27.349  34.352  1.00  0.00     0.064 A 
ATOM     62  C   UNL A   1      46.013  28.046  34.397  1.00  0.00     0.173 A 
ATOM     63  C   UNL A   1      44.712  26.125  35.030  1.00  0.00     0.173 A 
ATOM     64  F   UNL A   1      46.147  29.213  33.749  1.00  0.00    -0.203 F 
ATOM     65  C   UNL A   1      47.111  27.521  35.072  1.00  0.00     0.198 A 
ATOM     66  C   UNL A   1      45.805  25.616  35.725  1.00  0.00     0.198 A 
ATOM     67  F   UNL A   1      43.569  25.422  35.019  1.00  0.00    -0.203 F 
ATOM     68  F   UNL A   1      48.279  28.179  35.060  1.00  0.00    -0.200 F 
ATOM     69  C   UNL A   1      47.006  26.309  35.739  1.00  0.00     0.200 A 
ATOM     70  F   UNL A   1      45.699  24.449  36.377  1.00  0.00    -0.200 F 
ATOM     71  F   UNL A   1      48.065  25.806  36.388  1.00  0.00    -0.200 F 
ENDBRANCH  38  61
ENDBRANCH  12  13
ENDBRANCH   5   7
ENDBRANCH   2   3
ENDBRANCH   1   2
BRANCH   1  72
ATOM     72  C   UNL A   1      32.378  29.014  23.327  1.00  0.00     0.023 C 
BRANCH  72  73
ATOM     73  C   UNL A   1      33.603  28.227  22.874  1.00  0.00     0.116 C 
BRANCH  73  74
ATOM     74  N   UNL A   1      33.366  27.406  21.697  1.00  0.00    -0.352 N 
ATOM     75  C   UNL A   1      33.083  26.064  21.628  1.00  0.00     0.252 C 
ATOM     76  H   UNL A   1      33.416  27.875  20.832  1.00  0.00     0.163 HD
ATOM     77  O   UNL A   1      32.902  25.518  20.546  1.00  0.00    -0.269 OA
BRANCH  75  78
ATOM     78  C   UNL A   1      33.063  25.260  22.864  1.00  0.00     0.051 A 
ATOM     79  C   UNL A   1      34.217  24.522  23.120  1.00  0.00     0.043 A 
ATOM     80  C   UNL A   1      31.969  25.257  23.756  1.00  0.00     0.016 A 
ATOM     81  C   UNL A   1      34.271  23.822  24.305  1.00  0.00     0.075 A 
ATOM     82  C   UNL A   1      32.157  24.565  24.967  1.00  0.00     0.107 A 
ATOM     83  C   UNL A   1      30.731  25.907  23.507  1.00  0.00     0.011 A 
ATOM     84  N   UNL A   1      33.278  23.856  25.221  1.00  0.00    -0.245 NA
ATOM     85  C   UNL A   1      31.139  24.647  25.920  1.00  0.00     0.149 A 
ATOM     86  C   UNL A   1      29.731  25.956  24.476  1.00  0.00     0.004 A 
ATOM     87  F   UNL A   1      31.296  24.054  27.115  1.00  0.00    -0.205 F 
ATOM     88  C   UNL A   1      29.948  25.340  25.698  1.00  0.00     0.041 A 
BRANCH  81  89
ATOM     89  C   UNL A   1      35.394  22.971  24.629  1.00  0.00     0.038 A 
ATOM     90  C   UNL A   1      36.627  22.808  23.942  1.00  0.00     0.052 A 
ATOM     91  C   UNL A   1      35.456  22.125  25.716  1.00  0.00     0.205 A 
ATOM     92  C   UNL A   1      37.359  21.901  24.672  1.00  0.00     0.195 A 
ATOM     93  O   UNL A   1      36.651  21.477  25.750  1.00  0.00    -0.472 OA
ENDBRANCH  81  89
ENDBRANCH  75  78
ENDBRANCH  73  74
ENDBRANCH  72  73
ENDBRANCH   1  72
TORSDOF 12
ENDMDL
