MODEL 1
REMARK VINA RESULT:     -13.2      0.000      0.000
REMARK SMILES O=C(NCCCCNC(=O)[C@@H]1[C@H](C(=O)Nc2ccccc2Cc2ccccc2)[C@H]2C=C[C@@H]1O2)c1ccc(-c2c3nc(c(-c4c(F)c(F)c(F)c(F)c4F)c4ccc([nH]4)c(-c4c(F)c(F)c(F)c(F)c4F)c4nc(c(-c5c(F)c(F)c(F)c(F)c5F)c5ccc2[nH]5)C=C4)C=C3)cc1
REMARK SMILES IDX 6 1 5 2 4 3 3 4 1 5 2 6 34 8 35 9 96 10 36 11 95 12 37 13
REMARK SMILES IDX 38 14 39 15 89 16 40 17 94 18 88 19 90 20 41 21 93 22 87 23
REMARK SMILES IDX 86 24 42 26 74 27 54 28 73 29 55 30 58 31 72 32 91 33 56 34
REMARK SMILES IDX 57 35 71 37 92 38 59 39 43 40 44 41 52 42 45 43 46 44 50 45
REMARK SMILES IDX 53 46 47 47 48 48 51 49 49 50 75 51 76 52 84 53 77 54 78 55
REMARK SMILES IDX 82 56 85 57 79 58 80 59 83 60 81 61 60 62 61 63 69 64 62 65
REMARK SMILES IDX 63 66 67 67 70 68 64 69 65 70 68 71 66 72 7 73 8 74 9 75
REMARK SMILES IDX 10 77 11 78 12 79 32 80 29 81 31 82 33 83 30 84 13 85 14 86
REMARK SMILES IDX 15 87 16 89 17 90 21 91 18 92 20 93 19 94 22 95 23 96 24 97
REMARK SMILES IDX 28 98 25 99 27 100 26 101
REMARK H PARENT 3 7 90 25 58 36 8 76 15 88
REMARK Flexibility Score: inf
ROOT
ATOM      1  C   UNL A   1      36.666  20.471  25.001  1.00  0.00     0.023 C 
ENDROOT
BRANCH   1   2
ATOM      2  C   UNL A   1      37.940  19.607  24.948  1.00  0.00     0.023 C 
BRANCH   2   3
ATOM      3  C   UNL A   1      39.117  20.152  25.751  1.00  0.00     0.116 C 
BRANCH   3   4
ATOM      4  N   UNL A   1      40.157  19.152  25.901  1.00  0.00    -0.352 N 
ATOM      5  O   UNL A   1      42.274  18.388  25.841  1.00  0.00    -0.269 OA
ATOM      6  C   UNL A   1      41.512  19.327  26.033  1.00  0.00     0.251 C 
ATOM      7  H   UNL A   1      39.848  18.217  25.911  1.00  0.00     0.163 HD
BRANCH   6   8
ATOM      8  C   UNL A   1      42.051  20.650  26.412  1.00  0.00     0.039 A 
ATOM      9  C   UNL A   1      42.374  21.593  25.433  1.00  0.00     0.014 A 
ATOM     10  C   UNL A   1      42.169  20.976  27.766  1.00  0.00     0.014 A 
ATOM     11  C   UNL A   1      42.912  22.821  25.802  1.00  0.00     0.010 A 
ATOM     12  C   UNL A   1      42.629  22.243  28.137  1.00  0.00     0.010 A 
ATOM     13  C   UNL A   1      43.014  23.172  27.158  1.00  0.00    -0.014 A 
BRANCH  13  14
ATOM     14  C   UNL A   1      43.427  24.549  27.529  1.00  0.00     0.031 A 
ATOM     15  C   UNL A   1      42.414  25.593  27.901  1.00  0.00     0.074 A 
ATOM     16  C   UNL A   1      44.739  24.853  27.509  1.00  0.00     0.049 A 
ATOM     17  N   UNL A   1      42.603  26.850  28.215  1.00  0.00    -0.248 NA
ATOM     18  C   UNL A   1      41.005  25.176  27.912  1.00  0.00     0.031 C 
ATOM     19  C   UNL A   1      45.811  23.926  27.140  1.00  0.00     0.029 A 
ATOM     20  N   UNL A   1      45.398  26.020  27.801  1.00  0.00    -0.354 N 
ATOM     21  C   UNL A   1      41.341  27.380  28.443  1.00  0.00     0.074 A 
ATOM     22  C   UNL A   1      40.389  26.315  28.202  1.00  0.00     0.031 C 
ATOM     23  C   UNL A   1      46.992  24.549  27.253  1.00  0.00     0.029 A 
ATOM     24  C   UNL A   1      46.758  25.936  27.636  1.00  0.00     0.049 A 
ATOM     25  H   UNL A   1      44.940  26.839  28.100  1.00  0.00     0.167 HD
ATOM     26  C   UNL A   1      41.011  28.638  28.825  1.00  0.00     0.037 A 
ATOM     27  C   UNL A   1      47.712  26.878  27.747  1.00  0.00     0.037 A 
ATOM     28  C   UNL A   1      41.970  29.688  29.065  1.00  0.00     0.049 A 
ATOM     29  C   UNL A   1      47.316  28.272  28.140  1.00  0.00     0.074 A 
ATOM     30  C   UNL A   1      41.741  30.982  29.501  1.00  0.00     0.029 A 
ATOM     31  N   UNL A   1      43.341  29.570  28.877  1.00  0.00    -0.354 N 
ATOM     32  N   UNL A   1      46.124  28.747  28.405  1.00  0.00    -0.248 NA
ATOM     33  C   UNL A   1      48.396  29.259  28.251  1.00  0.00     0.031 C 
ATOM     34  C   UNL A   1      42.963  31.663  29.515  1.00  0.00     0.029 A 
ATOM     35  C   UNL A   1      43.964  30.777  29.154  1.00  0.00     0.049 A 
ATOM     36  H   UNL A   1      43.801  28.748  28.588  1.00  0.00     0.167 HD
ATOM     37  C   UNL A   1      46.310  30.082  28.732  1.00  0.00     0.074 A 
ATOM     38  C   UNL A   1      47.735  30.335  28.654  1.00  0.00     0.031 C 
ATOM     39  C   UNL A   1      45.384  31.014  29.068  1.00  0.00     0.037 A 
BRANCH  26  40
ATOM     40  C   UNL A   1      39.551  28.961  28.981  1.00  0.00     0.064 A 
ATOM     41  C   UNL A   1      38.911  28.927  30.229  1.00  0.00     0.173 A 
ATOM     42  C   UNL A   1      38.788  29.348  27.867  1.00  0.00     0.173 A 
ATOM     43  F   UNL A   1      39.591  28.557  31.326  1.00  0.00    -0.203 F 
ATOM     44  C   UNL A   1      37.558  29.236  30.353  1.00  0.00     0.198 A 
ATOM     45  C   UNL A   1      37.444  29.688  28.000  1.00  0.00     0.198 A 
ATOM     46  F   UNL A   1      39.348  29.407  26.650  1.00  0.00    -0.203 F 
ATOM     47  F   UNL A   1      36.958  29.145  31.548  1.00  0.00    -0.200 F 
ATOM     48  C   UNL A   1      36.827  29.622  29.240  1.00  0.00     0.200 A 
ATOM     49  F   UNL A   1      36.744  30.078  26.925  1.00  0.00    -0.200 F 
ATOM     50  F   UNL A   1      35.528  29.924  29.361  1.00  0.00    -0.200 F 
ENDBRANCH  26  40
BRANCH  27  51
ATOM     51  C   UNL A   1      49.128  26.525  27.466  1.00  0.00     0.064 A 
ATOM     52  C   UNL A   1      49.601  26.419  26.152  1.00  0.00     0.173 A 
ATOM     53  C   UNL A   1      50.043  26.308  28.509  1.00  0.00     0.173 A 
ATOM     54  F   UNL A   1      48.762  26.600  25.122  1.00  0.00    -0.203 F 
ATOM     55  C   UNL A   1      50.930  26.091  25.891  1.00  0.00     0.198 A 
ATOM     56  C   UNL A   1      51.378  26.015  28.246  1.00  0.00     0.198 A 
ATOM     57  F   UNL A   1      49.643  26.407  29.785  1.00  0.00    -0.203 F 
ATOM     58  F   UNL A   1      51.346  25.953  24.624  1.00  0.00    -0.200 F 
ATOM     59  C   UNL A   1      51.820  25.898  26.938  1.00  0.00     0.200 A 
ATOM     60  F   UNL A   1      52.238  25.852  29.261  1.00  0.00    -0.200 F 
ATOM     61  F   UNL A   1      53.100  25.595  26.685  1.00  0.00    -0.200 F 
ENDBRANCH  27  51
BRANCH  39  62
ATOM     62  C   UNL A   1      45.889  32.388  29.406  1.00  0.00     0.064 A 
ATOM     63  C   UNL A   1      46.291  32.731  30.705  1.00  0.00     0.173 A 
ATOM     64  C   UNL A   1      45.998  33.368  28.406  1.00  0.00     0.173 A 
ATOM     65  F   UNL A   1      46.189  31.837  31.701  1.00  0.00    -0.203 F 
ATOM     66  C   UNL A   1      46.757  34.010  30.997  1.00  0.00     0.198 A 
ATOM     67  C   UNL A   1      46.496  34.634  28.695  1.00  0.00     0.198 A 
ATOM     68  F   UNL A   1      45.631  33.091  27.146  1.00  0.00    -0.203 F 
ATOM     69  F   UNL A   1      47.082  34.331  32.257  1.00  0.00    -0.200 F 
ATOM     70  C   UNL A   1      46.867  34.958  29.991  1.00  0.00     0.200 A 
ATOM     71  F   UNL A   1      46.617  35.544  27.718  1.00  0.00    -0.200 F 
ATOM     72  F   UNL A   1      47.322  36.186  30.273  1.00  0.00    -0.200 F 
ENDBRANCH  39  62
ENDBRANCH  13  14
ENDBRANCH   6   8
ENDBRANCH   3   4
ENDBRANCH   2   3
ENDBRANCH   1   2
BRANCH   1  73
ATOM     73  C   UNL A   1      36.744  21.830  24.282  1.00  0.00     0.116 C 
BRANCH  73  74
ATOM     74  N   UNL A   1      36.478  22.902  25.204  1.00  0.00    -0.356 N 
ATOM     75  C   UNL A   1      35.372  23.625  25.445  1.00  0.00     0.227 C 
ATOM     76  H   UNL A   1      37.250  23.152  25.763  1.00  0.00     0.163 HD
ATOM     77  O   UNL A   1      35.648  24.791  25.723  1.00  0.00    -0.275 OA
BRANCH  75  78
ATOM     78  C   UNL A   1      33.959  23.049  25.399  1.00  0.00     0.127 C 
ATOM     79  C   UNL A   1      33.140  23.549  24.189  1.00  0.00     0.127 C 
ATOM     80  C   UNL A   1      32.955  23.395  26.538  1.00  0.00     0.155 C 
ATOM     81  C   UNL A   1      31.780  23.894  24.771  1.00  0.00     0.155 C 
ATOM     82  C   UNL A   1      31.809  22.419  26.507  1.00  0.00     0.004 C 
ATOM     83  O   UNL A   1      32.215  24.528  25.991  1.00  0.00    -0.365 OA
ATOM     84  C   UNL A   1      31.119  22.690  25.388  1.00  0.00     0.004 C 
BRANCH  79  85
ATOM     85  C   UNL A   1      33.710  24.683  23.367  1.00  0.00     0.231 C 
ATOM     86  O   UNL A   1      34.403  24.333  22.389  1.00  0.00    -0.274 OA
ATOM     87  N   UNL A   1      33.547  26.022  23.467  1.00  0.00    -0.325 N 
ATOM     88  H   UNL A   1      34.077  26.432  22.746  1.00  0.00     0.169 HD
BRANCH  87  89
ATOM     89  C   UNL A   1      32.929  27.086  24.182  1.00  0.00     0.044 A 
ATOM     90  C   UNL A   1      33.870  27.585  25.123  1.00  0.00     0.026 A 
ATOM     91  C   UNL A   1      31.629  27.664  24.208  1.00  0.00    -0.020 A 
ATOM     92  C   UNL A   1      33.617  28.659  25.972  1.00  0.00     0.002 A 
ATOM     93  C   UNL A   1      31.403  28.761  25.089  1.00  0.00     0.006 A 
ATOM     94  C   UNL A   1      32.380  29.262  25.943  1.00  0.00     0.000 A 
BRANCH  91  95
ATOM     95  C   UNL A   1      30.403  27.347  23.383  1.00  0.00     0.073 C 
BRANCH  95  96
ATOM     96  C   UNL A   1      29.509  28.425  22.764  1.00  0.00    -0.044 A 
ATOM     97  C   UNL A   1      30.053  29.470  22.001  1.00  0.00     0.004 A 
ATOM     98  C   UNL A   1      28.154  28.518  23.126  1.00  0.00     0.004 A 
ATOM     99  C   UNL A   1      29.297  30.611  21.694  1.00  0.00     0.000 A 
ATOM    100  C   UNL A   1      27.390  29.646  22.796  1.00  0.00     0.000 A 
ATOM    101  C   UNL A   1      27.969  30.705  22.103  1.00  0.00     0.000 A 
ENDBRANCH  95  96
ENDBRANCH  91  95
ENDBRANCH  87  89
ENDBRANCH  79  85
ENDBRANCH  75  78
ENDBRANCH  73  74
ENDBRANCH   1  73
TORSDOF 15
ENDMDL
MODEL 2
REMARK VINA RESULT:     -13.1      5.322     10.788
REMARK SMILES O=C(NCCCCNC(=O)[C@@H]1[C@H](C(=O)Nc2ccccc2Cc2ccccc2)[C@H]2C=C[C@@H]1O2)c1ccc(-c2c3nc(c(-c4c(F)c(F)c(F)c(F)c4F)c4ccc([nH]4)c(-c4c(F)c(F)c(F)c(F)c4F)c4nc(c(-c5c(F)c(F)c(F)c(F)c5F)c5ccc2[nH]5)C=C4)C=C3)cc1
REMARK SMILES IDX 6 1 5 2 4 3 3 4 1 5 2 6 34 8 35 9 96 10 36 11 95 12 37 13
REMARK SMILES IDX 38 14 39 15 89 16 40 17 94 18 88 19 90 20 41 21 93 22 87 23
REMARK SMILES IDX 86 24 42 26 74 27 54 28 73 29 55 30 58 31 72 32 91 33 56 34
REMARK SMILES IDX 57 35 71 37 92 38 59 39 43 40 44 41 52 42 45 43 46 44 50 45
REMARK SMILES IDX 53 46 47 47 48 48 51 49 49 50 75 51 76 52 84 53 77 54 78 55
REMARK SMILES IDX 82 56 85 57 79 58 80 59 83 60 81 61 60 62 61 63 69 64 62 65
REMARK SMILES IDX 63 66 67 67 70 68 64 69 65 70 68 71 66 72 7 73 8 74 9 75
REMARK SMILES IDX 10 77 11 78 12 79 32 80 29 81 31 82 33 83 30 84 13 85 14 86
REMARK SMILES IDX 15 87 16 89 17 90 21 91 18 92 20 93 19 94 22 95 23 96 24 97
REMARK SMILES IDX 28 98 25 99 27 100 26 101
REMARK H PARENT 3 7 90 25 58 36 8 76 15 88
REMARK Flexibility Score: inf
ROOT
ATOM      1  C   UNL A   1      31.427  30.885  25.928  1.00  0.00     0.023 C 
ENDROOT
BRANCH   1   2
ATOM      2  C   UNL A   1      31.284  32.278  26.571  1.00  0.00     0.023 C 
BRANCH   2   3
ATOM      3  C   UNL A   1      32.545  32.800  27.252  1.00  0.00     0.116 C 
BRANCH   3   4
ATOM      4  N   UNL A   1      32.411  34.203  27.597  1.00  0.00    -0.352 N 
ATOM      5  O   UNL A   1      32.529  35.985  28.968  1.00  0.00    -0.269 OA
ATOM      6  C   UNL A   1      32.979  34.896  28.637  1.00  0.00     0.251 C 
ATOM      7  H   UNL A   1      31.833  34.732  27.002  1.00  0.00     0.163 HD
BRANCH   6   8
ATOM      8  C   UNL A   1      34.140  34.327  29.355  1.00  0.00     0.039 A 
ATOM      9  C   UNL A   1      33.955  33.551  30.503  1.00  0.00     0.014 A 
ATOM     10  C   UNL A   1      35.423  34.513  28.834  1.00  0.00     0.014 A 
ATOM     11  C   UNL A   1      35.056  33.050  31.187  1.00  0.00     0.010 A 
ATOM     12  C   UNL A   1      36.523  33.937  29.476  1.00  0.00     0.010 A 
ATOM     13  C   UNL A   1      36.350  33.209  30.663  1.00  0.00    -0.014 A 
BRANCH  13  14
ATOM     14  C   UNL A   1      37.493  32.522  31.314  1.00  0.00     0.031 A 
ATOM     15  C   UNL A   1      38.197  31.376  30.646  1.00  0.00     0.074 A 
ATOM     16  C   UNL A   1      37.882  32.936  32.536  1.00  0.00     0.049 A 
ATOM     17  N   UNL A   1      39.187  30.644  31.091  1.00  0.00    -0.248 NA
ATOM     18  C   UNL A   1      37.720  30.994  29.309  1.00  0.00     0.031 C 
ATOM     19  C   UNL A   1      37.256  34.024  33.291  1.00  0.00     0.029 A 
ATOM     20  N   UNL A   1      38.888  32.499  33.358  1.00  0.00    -0.354 N 
ATOM     21  C   UNL A   1      39.442  29.705  30.101  1.00  0.00     0.074 A 
ATOM     22  C   UNL A   1      38.481  29.941  29.043  1.00  0.00     0.031 C 
ATOM     23  C   UNL A   1      37.907  34.187  34.451  1.00  0.00     0.029 A 
ATOM     24  C   UNL A   1      38.950  33.173  34.552  1.00  0.00     0.049 A 
ATOM     25  H   UNL A   1      39.505  31.771  33.116  1.00  0.00     0.167 HD
ATOM     26  C   UNL A   1      40.395  28.741  30.078  1.00  0.00     0.037 A 
ATOM     27  C   UNL A   1      39.738  32.979  35.626  1.00  0.00     0.037 A 
ATOM     28  C   UNL A   1      41.348  28.520  31.139  1.00  0.00     0.049 A 
ATOM     29  C   UNL A   1      40.764  31.884  35.587  1.00  0.00     0.074 A 
ATOM     30  C   UNL A   1      42.383  27.603  31.191  1.00  0.00     0.029 A 
ATOM     31  N   UNL A   1      41.374  29.217  32.340  1.00  0.00    -0.354 N 
ATOM     32  N   UNL A   1      41.031  31.037  34.623  1.00  0.00    -0.248 NA
ATOM     33  C   UNL A   1      41.598  31.717  36.783  1.00  0.00     0.031 C 
ATOM     34  C   UNL A   1      42.993  27.700  32.446  1.00  0.00     0.029 A 
ATOM     35  C   UNL A   1      42.384  28.725  33.152  1.00  0.00     0.049 A 
ATOM     36  H   UNL A   1      40.763  29.952  32.579  1.00  0.00     0.167 HD
ATOM     37  C   UNL A   1      42.075  30.249  35.086  1.00  0.00     0.074 A 
ATOM     38  C   UNL A   1      42.407  30.736  36.410  1.00  0.00     0.031 C 
ATOM     39  C   UNL A   1      42.702  29.218  34.470  1.00  0.00     0.037 A 
BRANCH  26  40
ATOM     40  C   UNL A   1      40.440  27.832  28.883  1.00  0.00     0.064 A 
ATOM     41  C   UNL A   1      41.251  28.105  27.771  1.00  0.00     0.173 A 
ATOM     42  C   UNL A   1      39.689  26.645  28.866  1.00  0.00     0.173 A 
ATOM     43  F   UNL A   1      41.984  29.229  27.730  1.00  0.00    -0.203 F 
ATOM     44  C   UNL A   1      41.283  27.246  26.674  1.00  0.00     0.198 A 
ATOM     45  C   UNL A   1      39.749  25.771  27.783  1.00  0.00     0.198 A 
ATOM     46  F   UNL A   1      38.903  26.326  29.905  1.00  0.00    -0.203 F 
ATOM     47  F   UNL A   1      42.025  27.557  25.602  1.00  0.00    -0.200 F 
ATOM     48  C   UNL A   1      40.537  26.077  26.684  1.00  0.00     0.200 A 
ATOM     49  F   UNL A   1      39.040  24.634  27.802  1.00  0.00    -0.200 F 
ATOM     50  F   UNL A   1      40.573  25.248  25.632  1.00  0.00    -0.200 F 
ENDBRANCH  26  40
BRANCH  27  51
ATOM     51  C   UNL A   1      39.566  33.838  36.827  1.00  0.00     0.064 A 
ATOM     52  C   UNL A   1      38.766  33.430  37.901  1.00  0.00     0.173 A 
ATOM     53  C   UNL A   1      40.217  35.078  36.931  1.00  0.00     0.173 A 
ATOM     54  F   UNL A   1      38.110  32.261  37.842  1.00  0.00    -0.203 F 
ATOM     55  C   UNL A   1      38.609  34.235  39.028  1.00  0.00     0.198 A 
ATOM     56  C   UNL A   1      40.087  35.866  38.072  1.00  0.00     0.198 A 
ATOM     57  F   UNL A   1      41.002  35.511  35.934  1.00  0.00    -0.203 F 
ATOM     58  F   UNL A   1      37.804  33.839  40.023  1.00  0.00    -0.200 F 
ATOM     59  C   UNL A   1      39.277  35.448  39.116  1.00  0.00     0.200 A 
ATOM     60  F   UNL A   1      40.751  37.026  38.162  1.00  0.00    -0.200 F 
ATOM     61  F   UNL A   1      39.135  36.215  40.205  1.00  0.00    -0.200 F 
ENDBRANCH  27  51
BRANCH  39  62
ATOM     62  C   UNL A   1      43.833  28.564  35.211  1.00  0.00     0.064 A 
ATOM     63  C   UNL A   1      45.155  29.016  35.092  1.00  0.00     0.173 A 
ATOM     64  C   UNL A   1      43.583  27.487  36.076  1.00  0.00     0.173 A 
ATOM     65  F   UNL A   1      45.450  30.030  34.264  1.00  0.00    -0.203 F 
ATOM     66  C   UNL A   1      46.189  28.397  35.789  1.00  0.00     0.198 A 
ATOM     67  C   UNL A   1      44.615  26.893  36.797  1.00  0.00     0.198 A 
ATOM     68  F   UNL A   1      42.337  27.018  36.230  1.00  0.00    -0.203 F 
ATOM     69  F   UNL A   1      47.452  28.811  35.616  1.00  0.00    -0.200 F 
ATOM     70  C   UNL A   1      45.918  27.342  36.647  1.00  0.00     0.200 A 
ATOM     71  F   UNL A   1      44.348  25.883  37.637  1.00  0.00    -0.200 F 
ATOM     72  F   UNL A   1      46.914  26.752  37.322  1.00  0.00    -0.200 F 
ENDBRANCH  39  62
ENDBRANCH  13  14
ENDBRANCH   6   8
ENDBRANCH   3   4
ENDBRANCH   2   3
ENDBRANCH   1   2
BRANCH   1  73
ATOM     73  C   UNL A   1      31.800  29.737  26.884  1.00  0.00     0.116 C 
BRANCH  73  74
ATOM     74  N   UNL A   1      33.039  29.128  26.478  1.00  0.00    -0.356 N 
ATOM     75  C   UNL A   1      33.304  28.055  25.716  1.00  0.00     0.227 C 
ATOM     76  H   UNL A   1      33.842  29.584  26.822  1.00  0.00     0.163 HD
ATOM     77  O   UNL A   1      34.295  27.450  26.120  1.00  0.00    -0.275 OA
BRANCH  75  78
ATOM     78  C   UNL A   1      32.481  27.664  24.491  1.00  0.00     0.127 C 
ATOM     79  C   UNL A   1      31.738  26.320  24.663  1.00  0.00     0.127 C 
ATOM     80  C   UNL A   1      33.206  27.375  23.143  1.00  0.00     0.155 C 
ATOM     81  C   UNL A   1      31.973  25.588  23.354  1.00  0.00     0.155 C 
ATOM     82  C   UNL A   1      32.206  27.419  22.018  1.00  0.00     0.004 C 
ATOM     83  O   UNL A   1      33.362  25.924  23.159  1.00  0.00    -0.365 OA
ATOM     84  C   UNL A   1      31.411  26.350  22.183  1.00  0.00     0.004 C 
BRANCH  79  85
ATOM     85  C   UNL A   1      32.085  25.467  25.862  1.00  0.00     0.231 C 
ATOM     86  O   UNL A   1      31.385  25.665  26.876  1.00  0.00    -0.274 OA
ATOM     87  N   UNL A   1      32.989  24.471  26.011  1.00  0.00    -0.325 N 
ATOM     88  H   UNL A   1      32.917  24.154  26.940  1.00  0.00     0.169 HD
BRANCH  87  89
ATOM     89  C   UNL A   1      34.001  23.692  25.384  1.00  0.00     0.044 A 
ATOM     90  C   UNL A   1      35.262  24.235  25.751  1.00  0.00     0.026 A 
ATOM     91  C   UNL A   1      34.015  22.605  24.465  1.00  0.00    -0.020 A 
ATOM     92  C   UNL A   1      36.481  23.697  25.347  1.00  0.00     0.002 A 
ATOM     93  C   UNL A   1      35.279  22.079  24.071  1.00  0.00     0.006 A 
ATOM     94  C   UNL A   1      36.489  22.601  24.515  1.00  0.00     0.000 A 
BRANCH  91  95
ATOM     95  C   UNL A   1      32.870  21.832  23.851  1.00  0.00     0.073 C 
BRANCH  95  96
ATOM     96  C   UNL A   1      32.650  20.335  24.084  1.00  0.00    -0.044 A 
ATOM     97  C   UNL A   1      32.799  19.769  25.360  1.00  0.00     0.004 A 
ATOM     98  C   UNL A   1      32.512  19.459  22.993  1.00  0.00     0.004 A 
ATOM     99  C   UNL A   1      32.903  18.380  25.527  1.00  0.00     0.000 A 
ATOM    100  C   UNL A   1      32.589  18.069  23.164  1.00  0.00     0.000 A 
ATOM    101  C   UNL A   1      32.811  17.531  24.428  1.00  0.00     0.000 A 
ENDBRANCH  95  96
ENDBRANCH  91  95
ENDBRANCH  87  89
ENDBRANCH  79  85
ENDBRANCH  75  78
ENDBRANCH  73  74
ENDBRANCH   1  73
TORSDOF 15
ENDMDL
MODEL 3
REMARK VINA RESULT:     -13.0      5.231      9.933
REMARK SMILES O=C(NCCCCNC(=O)[C@@H]1[C@H](C(=O)Nc2ccccc2Cc2ccccc2)[C@H]2C=C[C@@H]1O2)c1ccc(-c2c3nc(c(-c4c(F)c(F)c(F)c(F)c4F)c4ccc([nH]4)c(-c4c(F)c(F)c(F)c(F)c4F)c4nc(c(-c5c(F)c(F)c(F)c(F)c5F)c5ccc2[nH]5)C=C4)C=C3)cc1
REMARK SMILES IDX 6 1 5 2 4 3 3 4 1 5 2 6 34 8 35 9 96 10 36 11 95 12 37 13
REMARK SMILES IDX 38 14 39 15 89 16 40 17 94 18 88 19 90 20 41 21 93 22 87 23
REMARK SMILES IDX 86 24 42 26 74 27 54 28 73 29 55 30 58 31 72 32 91 33 56 34
REMARK SMILES IDX 57 35 71 37 92 38 59 39 43 40 44 41 52 42 45 43 46 44 50 45
REMARK SMILES IDX 53 46 47 47 48 48 51 49 49 50 75 51 76 52 84 53 77 54 78 55
REMARK SMILES IDX 82 56 85 57 79 58 80 59 83 60 81 61 60 62 61 63 69 64 62 65
REMARK SMILES IDX 63 66 67 67 70 68 64 69 65 70 68 71 66 72 7 73 8 74 9 75
REMARK SMILES IDX 10 77 11 78 12 79 32 80 29 81 31 82 33 83 30 84 13 85 14 86
REMARK SMILES IDX 15 87 16 89 17 90 21 91 18 92 20 93 19 94 22 95 23 96 24 97
REMARK SMILES IDX 28 98 25 99 27 100 26 101
REMARK H PARENT 3 7 90 25 58 36 8 76 15 88
REMARK Flexibility Score: inf
ROOT
ATOM      1  C   UNL A   1      31.532  31.297  26.248  1.00  0.00     0.023 C 
ENDROOT
BRANCH   1   2
ATOM      2  C   UNL A   1      31.465  32.762  26.719  1.00  0.00     0.023 C 
BRANCH   2   3
ATOM      3  C   UNL A   1      32.749  33.293  27.345  1.00  0.00     0.116 C 
BRANCH   3   4
ATOM      4  N   UNL A   1      32.564  34.634  27.866  1.00  0.00    -0.352 N 
ATOM      5  O   UNL A   1      32.587  36.223  29.461  1.00  0.00    -0.269 OA
ATOM      6  C   UNL A   1      33.079  35.199  29.006  1.00  0.00     0.251 C 
ATOM      7  H   UNL A   1      31.987  35.222  27.326  1.00  0.00     0.163 HD
BRANCH   6   8
ATOM      8  C   UNL A   1      34.234  34.571  29.682  1.00  0.00     0.039 A 
ATOM      9  C   UNL A   1      34.054  33.820  30.847  1.00  0.00     0.014 A 
ATOM     10  C   UNL A   1      35.503  34.675  29.105  1.00  0.00     0.014 A 
ATOM     11  C   UNL A   1      35.153  33.263  31.491  1.00  0.00     0.010 A 
ATOM     12  C   UNL A   1      36.594  34.043  29.708  1.00  0.00     0.010 A 
ATOM     13  C   UNL A   1      36.429  33.339  30.911  1.00  0.00    -0.014 A 
BRANCH  13  14
ATOM     14  C   UNL A   1      37.558  32.593  31.522  1.00  0.00     0.031 A 
ATOM     15  C   UNL A   1      38.098  32.966  32.872  1.00  0.00     0.074 A 
ATOM     16  C   UNL A   1      38.106  31.576  30.829  1.00  0.00     0.049 A 
ATOM     17  N   UNL A   1      39.101  32.442  33.532  1.00  0.00    -0.248 NA
ATOM     18  C   UNL A   1      37.436  34.078  33.568  1.00  0.00     0.031 C 
ATOM     19  C   UNL A   1      37.679  31.140  29.498  1.00  0.00     0.029 A 
ATOM     20  N   UNL A   1      39.136  30.726  31.140  1.00  0.00    -0.354 N 
ATOM     21  C   UNL A   1      39.202  33.169  34.711  1.00  0.00     0.074 A 
ATOM     22  C   UNL A   1      38.178  34.192  34.662  1.00  0.00     0.031 C 
ATOM     23  C   UNL A   1      38.419  30.090  29.118  1.00  0.00     0.029 A 
ATOM     24  C   UNL A   1      39.417  29.821  30.146  1.00  0.00     0.049 A 
ATOM     25  H   UNL A   1      39.627  30.761  31.993  1.00  0.00     0.167 HD
ATOM     26  C   UNL A   1      40.068  32.991  35.739  1.00  0.00     0.037 A 
ATOM     27  C   UNL A   1      40.391  28.897  30.055  1.00  0.00     0.037 A 
ATOM     28  C   UNL A   1      41.082  31.966  35.775  1.00  0.00     0.049 A 
ATOM     29  C   UNL A   1      41.357  28.743  31.195  1.00  0.00     0.074 A 
ATOM     30  C   UNL A   1      41.975  31.672  36.791  1.00  0.00     0.029 A 
ATOM     31  N   UNL A   1      41.345  31.073  34.745  1.00  0.00    -0.354 N 
ATOM     32  N   UNL A   1      41.409  29.401  32.327  1.00  0.00    -0.248 NA
ATOM     33  C   UNL A   1      42.397  27.719  31.045  1.00  0.00     0.031 C 
ATOM     34  C   UNL A   1      42.819  30.646  36.350  1.00  0.00     0.029 A 
ATOM     35  C   UNL A   1      42.409  30.253  35.087  1.00  0.00     0.049 A 
ATOM     36  H   UNL A   1      40.848  31.030  33.895  1.00  0.00     0.167 HD
ATOM     37  C   UNL A   1      42.473  28.860  33.033  1.00  0.00     0.074 A 
ATOM     38  C   UNL A   1      43.025  27.803  32.209  1.00  0.00     0.031 C 
ATOM     39  C   UNL A   1      42.949  29.207  34.254  1.00  0.00     0.037 A 
BRANCH  26  40
ATOM     40  C   UNL A   1      39.979  33.943  36.899  1.00  0.00     0.064 A 
ATOM     41  C   UNL A   1      40.708  35.141  36.935  1.00  0.00     0.173 A 
ATOM     42  C   UNL A   1      39.120  33.670  37.976  1.00  0.00     0.173 A 
ATOM     43  F   UNL A   1      41.550  35.449  35.936  1.00  0.00    -0.203 F 
ATOM     44  C   UNL A   1      40.607  36.013  38.018  1.00  0.00     0.198 A 
ATOM     45  C   UNL A   1      38.996  34.559  39.041  1.00  0.00     0.198 A 
ATOM     46  F   UNL A   1      38.391  32.544  37.992  1.00  0.00    -0.203 F 
ATOM     47  F   UNL A   1      41.355  37.125  38.052  1.00  0.00    -0.200 F 
ATOM     48  C   UNL A   1      39.747  35.725  39.066  1.00  0.00     0.200 A 
ATOM     49  F   UNL A   1      38.151  34.286  40.045  1.00  0.00    -0.200 F 
ATOM     50  F   UNL A   1      39.646  36.566  40.103  1.00  0.00    -0.200 F 
ENDBRANCH  26  40
BRANCH  27  51
ATOM     51  C   UNL A   1      40.500  28.064  28.830  1.00  0.00     0.064 A 
ATOM     52  C   UNL A   1      41.283  28.472  27.743  1.00  0.00     0.173 A 
ATOM     53  C   UNL A   1      39.837  26.830  28.730  1.00  0.00     0.173 A 
ATOM     54  F   UNL A   1      41.922  29.651  27.783  1.00  0.00    -0.203 F 
ATOM     55  C   UNL A   1      41.386  27.688  26.596  1.00  0.00     0.198 A 
ATOM     56  C   UNL A   1      39.968  26.032  27.597  1.00  0.00     0.198 A 
ATOM     57  F   UNL A   1      39.081  26.390  29.746  1.00  0.00    -0.203 F 
ATOM     58  F   UNL A   1      42.108  28.122  25.553  1.00  0.00    -0.200 F 
ATOM     59  C   UNL A   1      40.736  26.464  26.527  1.00  0.00     0.200 A 
ATOM     60  F   UNL A   1      39.356  24.841  27.545  1.00  0.00    -0.200 F 
ATOM     61  F   UNL A   1      40.846  25.705  25.429  1.00  0.00    -0.200 F 
ENDBRANCH  27  51
BRANCH  39  62
ATOM     62  C   UNL A   1      44.109  28.413  34.786  1.00  0.00     0.064 A 
ATOM     63  C   UNL A   1      43.924  27.225  35.508  1.00  0.00     0.173 A 
ATOM     64  C   UNL A   1      45.426  28.836  34.543  1.00  0.00     0.173 A 
ATOM     65  F   UNL A   1      42.686  26.789  35.783  1.00  0.00    -0.203 F 
ATOM     66  C   UNL A   1      45.013  26.505  35.992  1.00  0.00     0.198 A 
ATOM     67  C   UNL A   1      46.512  28.094  34.999  1.00  0.00     0.198 A 
ATOM     68  F   UNL A   1      45.659  29.962  33.855  1.00  0.00    -0.203 F 
ATOM     69  F   UNL A   1      44.811  25.402  36.727  1.00  0.00    -0.200 F 
ATOM     70  C   UNL A   1      46.305  26.934  35.730  1.00  0.00     0.200 A 
ATOM     71  F   UNL A   1      47.760  28.503  34.731  1.00  0.00    -0.200 F 
ATOM     72  F   UNL A   1      47.352  26.235  36.190  1.00  0.00    -0.200 F 
ENDBRANCH  39  62
ENDBRANCH  13  14
ENDBRANCH   6   8
ENDBRANCH   3   4
ENDBRANCH   2   3
ENDBRANCH   1   2
BRANCH   1  73
ATOM     73  C   UNL A   1      32.631  30.432  26.892  1.00  0.00     0.116 C 
BRANCH  73  74
ATOM     74  N   UNL A   1      33.374  29.728  25.880  1.00  0.00    -0.356 N 
ATOM     75  C   UNL A   1      33.036  28.722  25.058  1.00  0.00     0.227 C 
ATOM     76  H   UNL A   1      34.301  30.042  25.770  1.00  0.00     0.163 HD
ATOM     77  O   UNL A   1      33.982  27.960  24.865  1.00  0.00    -0.275 OA
BRANCH  75  78
ATOM     78  C   UNL A   1      31.653  28.571  24.429  1.00  0.00     0.127 C 
ATOM     79  C   UNL A   1      30.662  27.793  25.322  1.00  0.00     0.127 C 
ATOM     80  C   UNL A   1      31.496  27.753  23.113  1.00  0.00     0.155 C 
ATOM     81  C   UNL A   1      29.972  26.830  24.371  1.00  0.00     0.155 C 
ATOM     82  C   UNL A   1      30.171  28.080  22.476  1.00  0.00     0.004 C 
ATOM     83  O   UNL A   1      31.118  26.427  23.594  1.00  0.00    -0.365 OA
ATOM     84  C   UNL A   1      29.232  27.561  23.283  1.00  0.00     0.004 C 
BRANCH  79  85
ATOM     85  C   UNL A   1      31.210  27.090  26.543  1.00  0.00     0.231 C 
ATOM     86  O   UNL A   1      31.230  27.775  27.587  1.00  0.00    -0.274 OA
ATOM     87  N   UNL A   1      31.628  25.815  26.722  1.00  0.00    -0.325 N 
ATOM     88  H   UNL A   1      31.912  25.734  27.661  1.00  0.00     0.169 HD
BRANCH  87  89
ATOM     89  C   UNL A   1      31.829  24.544  26.116  1.00  0.00     0.044 A 
ATOM     90  C   UNL A   1      30.798  23.677  26.567  1.00  0.00     0.026 A 
ATOM     91  C   UNL A   1      32.822  23.972  25.272  1.00  0.00    -0.020 A 
ATOM     92  C   UNL A   1      30.659  22.357  26.145  1.00  0.00     0.002 A 
ATOM     93  C   UNL A   1      32.652  22.620  24.860  1.00  0.00     0.006 A 
ATOM     94  C   UNL A   1      31.584  21.830  25.272  1.00  0.00     0.000 A 
BRANCH  91  95
ATOM     95  C   UNL A   1      34.054  24.595  24.655  1.00  0.00     0.073 C 
BRANCH  95  96
ATOM     96  C   UNL A   1      35.419  23.902  24.631  1.00  0.00    -0.044 A 
ATOM     97  C   UNL A   1      35.846  23.179  23.506  1.00  0.00     0.004 A 
ATOM     98  C   UNL A   1      36.179  23.787  25.808  1.00  0.00     0.004 A 
ATOM     99  C   UNL A   1      36.937  22.300  23.582  1.00  0.00     0.000 A 
ATOM    100  C   UNL A   1      37.286  22.929  25.877  1.00  0.00     0.000 A 
ATOM    101  C   UNL A   1      37.648  22.165  24.772  1.00  0.00     0.000 A 
ENDBRANCH  95  96
ENDBRANCH  91  95
ENDBRANCH  87  89
ENDBRANCH  79  85
ENDBRANCH  75  78
ENDBRANCH  73  74
ENDBRANCH   1  73
TORSDOF 15
ENDMDL
