MODEL 1
REMARK VINA RESULT:     -13.3      0.000      0.000
REMARK SMILES CCn1nc(C)c(NS(=O)(=O)c2cc(C(=O)NCCCCNC(=O)c3ccc(-c4c5nc(c(-c6c(F)c(F)c(F)c(F)c6F)c6ccc([nH]6)c(-c6c(F)c(F)c(F)c(F)c6F)c6nc(c(-c7c(F)c(F)c(F)c(F)c7F)c7ccc4[nH]7)C=C6)C=C5)cc3)cc(F)c2C)c1C
REMARK SMILES IDX 18 1 17 2 15 3 16 4 14 6 12 7 13 8 91 9 89 10 92 11 88 12
REMARK SMILES IDX 90 13 9 14 10 15 11 16 8 17 7 19 3 20 4 21 93 22 5 23 94 24
REMARK SMILES IDX 6 25 2 26 1 27 19 28 20 29 21 30 22 31 23 32 24 34 25 35
REMARK SMILES IDX 26 36 87 37 27 38 86 39 28 40 29 41 30 42 80 43 31 44 85 45
REMARK SMILES IDX 79 46 81 47 32 48 84 49 78 50 77 51 33 53 65 54 45 55 64 56
REMARK SMILES IDX 46 57 49 58 63 59 82 60 47 61 48 62 62 64 83 65 50 66 34 67
REMARK SMILES IDX 35 68 43 69 36 70 37 71 41 72 44 73 38 74 39 75 42 76 40 77
REMARK SMILES IDX 66 78 67 79 75 80 68 81 69 82 73 83 76 84 70 85 71 86 74 87
REMARK SMILES IDX 72 88 51 89 52 90 60 91 53 92 54 93 58 94 61 95 55 96 56 97
REMARK SMILES IDX 59 98 57 99
REMARK H PARENT 17 5 8 18 22 33 81 52 49 63
REMARK Flexibility Score: inf
ROOT
ATOM      1  C   UNL A   1      34.118  21.552  27.209  1.00  0.00     0.116 C 
ENDROOT
BRANCH   1   2
ATOM      2  N   UNL A   1      33.289  20.626  26.457  1.00  0.00    -0.352 N 
ATOM      3  C   UNL A   1      32.499  20.739  25.339  1.00  0.00     0.251 C 
ATOM      4  O   UNL A   1      31.871  19.730  25.008  1.00  0.00    -0.269 OA
ATOM      5  H   UNL A   1      33.294  19.716  26.832  1.00  0.00     0.163 HD
BRANCH   3   6
ATOM      6  C   UNL A   1      32.355  21.969  24.501  1.00  0.00     0.044 A 
ATOM      7  C   UNL A   1      31.809  24.344  24.157  1.00  0.00     0.094 A 
ATOM      8  C   UNL A   1      31.817  23.170  24.940  1.00  0.00     0.036 A 
ATOM      9  C   UNL A   1      32.216  24.294  22.826  1.00  0.00     0.005 A 
ATOM     10  C   UNL A   1      32.760  23.077  22.380  1.00  0.00     0.128 A 
ATOM     11  C   UNL A   1      32.139  25.420  21.843  1.00  0.00     0.049 C 
ATOM     12  C   UNL A   1      32.854  21.946  23.197  1.00  0.00     0.053 A 
ATOM     13  F   UNL A   1      33.240  22.993  21.130  1.00  0.00    -0.207 F 
BRANCH   7  14
ATOM     14  S   UNL A   1      31.315  25.782  25.081  1.00  0.00     0.262 S 
ATOM     15  O   UNL A   1      31.416  25.446  26.481  1.00  0.00    -0.201 OA
ATOM     16  O   UNL A   1      30.035  26.182  24.518  1.00  0.00    -0.201 OA
BRANCH  14  17
ATOM     17  N   UNL A   1      32.328  27.066  24.838  1.00  0.00    -0.276 N 
ATOM     18  H   UNL A   1      33.183  26.816  24.416  1.00  0.00     0.180 HD
BRANCH  17  19
ATOM     19  C   UNL A   1      32.223  28.428  25.107  1.00  0.00     0.093 A 
ATOM     20  N   UNL A   1      32.575  30.243  26.279  1.00  0.00    -0.268 N 
ATOM     21  N   UNL A   1      31.524  30.551  25.490  1.00  0.00    -0.176 NA
ATOM     22  C   UNL A   1      33.165  29.067  25.898  1.00  0.00     0.060 A 
ATOM     23  C   UNL A   1      31.325  29.460  24.737  1.00  0.00     0.084 A 
ATOM     24  C   UNL A   1      34.517  28.585  26.280  1.00  0.00     0.069 C 
ATOM     25  C   UNL A   1      30.243  29.513  23.726  1.00  0.00     0.071 C 
BRANCH  20  26
ATOM     26  C   UNL A   1      32.725  31.021  27.500  1.00  0.00     0.141 C 
ATOM     27  C   UNL A   1      34.082  31.621  27.811  1.00  0.00     0.029 C 
ENDBRANCH  20  26
ENDBRANCH  17  19
ENDBRANCH  14  17
ENDBRANCH   7  14
ENDBRANCH   3   6
ENDBRANCH   1   2
BRANCH   1  28
ATOM     28  C   UNL A   1      35.400  21.909  26.450  1.00  0.00     0.023 C 
BRANCH  28  29
ATOM     29  C   UNL A   1      35.530  23.404  26.121  1.00  0.00     0.023 C 
BRANCH  29  30
ATOM     30  C   UNL A   1      36.944  23.814  25.741  1.00  0.00     0.116 C 
BRANCH  30  31
ATOM     31  N   UNL A   1      37.927  22.794  26.106  1.00  0.00    -0.352 N 
ATOM     32  C   UNL A   1      39.227  22.991  26.503  1.00  0.00     0.251 C 
ATOM     33  H   UNL A   1      37.622  21.859  26.061  1.00  0.00     0.163 HD
ATOM     34  O   UNL A   1      40.058  22.088  26.483  1.00  0.00    -0.269 OA
BRANCH  32  35
ATOM     35  C   UNL A   1      39.587  24.312  27.013  1.00  0.00     0.039 A 
ATOM     36  C   UNL A   1      40.257  25.256  26.220  1.00  0.00     0.014 A 
ATOM     37  C   UNL A   1      39.229  24.575  28.331  1.00  0.00     0.014 A 
ATOM     38  C   UNL A   1      40.541  26.505  26.758  1.00  0.00     0.010 A 
ATOM     39  C   UNL A   1      39.397  25.833  28.817  1.00  0.00     0.010 A 
ATOM     40  C   UNL A   1      40.111  26.769  28.055  1.00  0.00    -0.014 A 
BRANCH  40  41
ATOM     41  C   UNL A   1      40.367  27.983  28.795  1.00  0.00     0.031 A 
ATOM     42  C   UNL A   1      39.415  29.095  28.714  1.00  0.00     0.074 A 
ATOM     43  C   UNL A   1      41.283  27.815  29.775  1.00  0.00     0.049 A 
ATOM     44  N   UNL A   1      39.631  30.257  29.209  1.00  0.00    -0.248 NA
ATOM     45  C   UNL A   1      38.119  28.993  28.046  1.00  0.00     0.031 C 
ATOM     46  C   UNL A   1      41.458  28.516  31.033  1.00  0.00     0.029 A 
ATOM     47  N   UNL A   1      42.342  26.890  29.755  1.00  0.00    -0.354 N 
ATOM     48  C   UNL A   1      38.420  30.916  29.256  1.00  0.00     0.074 A 
ATOM     49  C   UNL A   1      37.549  30.152  28.397  1.00  0.00     0.031 C 
ATOM     50  C   UNL A   1      42.693  28.247  31.505  1.00  0.00     0.029 A 
ATOM     51  C   UNL A   1      43.388  27.500  30.466  1.00  0.00     0.049 A 
ATOM     52  H   UNL A   1      42.348  26.001  29.330  1.00  0.00     0.167 HD
ATOM     53  C   UNL A   1      38.280  31.920  30.170  1.00  0.00     0.037 A 
ATOM     54  C   UNL A   1      44.468  27.953  29.759  1.00  0.00     0.037 A 
ATOM     55  C   UNL A   1      39.545  32.100  30.885  1.00  0.00     0.049 A 
ATOM     56  C   UNL A   1      44.563  29.458  29.827  1.00  0.00     0.074 A 
ATOM     57  C   UNL A   1      39.997  31.622  32.105  1.00  0.00     0.029 A 
ATOM     58  N   UNL A   1      40.671  32.502  30.176  1.00  0.00    -0.354 N 
ATOM     59  N   UNL A   1      43.533  30.259  29.911  1.00  0.00    -0.248 NA
ATOM     60  C   UNL A   1      45.837  30.155  29.920  1.00  0.00     0.031 C 
ATOM     61  C   UNL A   1      41.415  31.698  32.104  1.00  0.00     0.029 A 
ATOM     62  C   UNL A   1      41.821  32.227  30.889  1.00  0.00     0.049 A 
ATOM     63  H   UNL A   1      40.651  32.923  29.288  1.00  0.00     0.167 HD
ATOM     64  C   UNL A   1      43.977  31.537  30.138  1.00  0.00     0.074 A 
ATOM     65  C   UNL A   1      45.424  31.418  30.123  1.00  0.00     0.031 C 
ATOM     66  C   UNL A   1      43.128  32.588  30.359  1.00  0.00     0.037 A 
BRANCH  53  67
ATOM     67  C   UNL A   1      36.982  32.547  30.638  1.00  0.00     0.064 A 
ATOM     68  C   UNL A   1      36.316  33.498  29.827  1.00  0.00     0.173 A 
ATOM     69  C   UNL A   1      36.342  32.280  31.863  1.00  0.00     0.173 A 
ATOM     70  F   UNL A   1      36.759  33.811  28.603  1.00  0.00    -0.203 F 
ATOM     71  C   UNL A   1      35.161  34.171  30.236  1.00  0.00     0.198 A 
ATOM     72  C   UNL A   1      35.200  32.975  32.286  1.00  0.00     0.198 A 
ATOM     73  F   UNL A   1      36.761  31.306  32.676  1.00  0.00    -0.203 F 
ATOM     74  F   UNL A   1      34.589  35.065  29.418  1.00  0.00    -0.200 F 
ATOM     75  C   UNL A   1      34.612  33.924  31.474  1.00  0.00     0.200 A 
ATOM     76  F   UNL A   1      34.667  32.709  33.487  1.00  0.00    -0.200 F 
ATOM     77  F   UNL A   1      33.512  34.577  31.873  1.00  0.00    -0.200 F 
ENDBRANCH  53  67
BRANCH  54  78
ATOM     78  C   UNL A   1      44.739  27.090  28.560  1.00  0.00     0.064 A 
ATOM     79  C   UNL A   1      44.411  27.639  27.300  1.00  0.00     0.173 A 
ATOM     80  C   UNL A   1      45.718  26.087  28.586  1.00  0.00     0.173 A 
ATOM     81  F   UNL A   1      43.464  28.589  27.213  1.00  0.00    -0.203 F 
ATOM     82  C   UNL A   1      45.165  27.350  26.164  1.00  0.00     0.198 A 
ATOM     83  C   UNL A   1      46.451  25.777  27.433  1.00  0.00     0.198 A 
ATOM     84  F   UNL A   1      46.063  25.501  29.740  1.00  0.00    -0.203 F 
ATOM     85  F   UNL A   1      44.940  28.022  25.025  1.00  0.00    -0.200 F 
ATOM     86  C   UNL A   1      46.211  26.448  26.242  1.00  0.00     0.200 A 
ATOM     87  F   UNL A   1      47.457  24.892  27.498  1.00  0.00    -0.200 F 
ATOM     88  F   UNL A   1      47.010  26.254  25.182  1.00  0.00    -0.200 F 
ENDBRANCH  54  78
BRANCH  66  89
ATOM     89  C   UNL A   1      43.460  34.061  30.209  1.00  0.00     0.064 A 
ATOM     90  C   UNL A   1      43.580  34.721  28.976  1.00  0.00     0.173 A 
ATOM     91  C   UNL A   1      43.503  34.915  31.345  1.00  0.00     0.173 A 
ATOM     92  F   UNL A   1      43.416  34.081  27.813  1.00  0.00    -0.203 F 
ATOM     93  C   UNL A   1      43.805  36.097  28.885  1.00  0.00     0.198 A 
ATOM     94  C   UNL A   1      43.640  36.298  31.246  1.00  0.00     0.198 A 
ATOM     95  F   UNL A   1      43.378  34.451  32.596  1.00  0.00    -0.203 F 
ATOM     96  F   UNL A   1      43.975  36.657  27.680  1.00  0.00    -0.200 F 
ATOM     97  C   UNL A   1      43.817  36.887  30.016  1.00  0.00     0.200 A 
ATOM     98  F   UNL A   1      43.572  37.052  32.353  1.00  0.00    -0.200 F 
ATOM     99  F   UNL A   1      43.973  38.213  29.919  1.00  0.00    -0.200 F 
ENDBRANCH  66  89
ENDBRANCH  40  41
ENDBRANCH  32  35
ENDBRANCH  30  31
ENDBRANCH  29  30
ENDBRANCH  28  29
ENDBRANCH   1  28
TORSDOF 15
ENDMDL
MODEL 2
REMARK VINA RESULT:     -13.1      3.229      9.107
REMARK SMILES CCn1nc(C)c(NS(=O)(=O)c2cc(C(=O)NCCCCNC(=O)c3ccc(-c4c5nc(c(-c6c(F)c(F)c(F)c(F)c6F)c6ccc([nH]6)c(-c6c(F)c(F)c(F)c(F)c6F)c6nc(c(-c7c(F)c(F)c(F)c(F)c7F)c7ccc4[nH]7)C=C6)C=C5)cc3)cc(F)c2C)c1C
REMARK SMILES IDX 18 1 17 2 15 3 16 4 14 6 12 7 13 8 91 9 89 10 92 11 88 12
REMARK SMILES IDX 90 13 9 14 10 15 11 16 8 17 7 19 3 20 4 21 93 22 5 23 94 24
REMARK SMILES IDX 6 25 2 26 1 27 19 28 20 29 21 30 22 31 23 32 24 34 25 35
REMARK SMILES IDX 26 36 87 37 27 38 86 39 28 40 29 41 30 42 80 43 31 44 85 45
REMARK SMILES IDX 79 46 81 47 32 48 84 49 78 50 77 51 33 53 65 54 45 55 64 56
REMARK SMILES IDX 46 57 49 58 63 59 82 60 47 61 48 62 62 64 83 65 50 66 34 67
REMARK SMILES IDX 35 68 43 69 36 70 37 71 41 72 44 73 38 74 39 75 42 76 40 77
REMARK SMILES IDX 66 78 67 79 75 80 68 81 69 82 73 83 76 84 70 85 71 86 74 87
REMARK SMILES IDX 72 88 51 89 52 90 60 91 53 92 54 93 58 94 61 95 55 96 56 97
REMARK SMILES IDX 59 98 57 99
REMARK H PARENT 17 5 8 18 22 33 81 52 49 63
REMARK Flexibility Score: inf
ROOT
ATOM      1  C   UNL A   1      31.331  30.135  25.201  1.00  0.00     0.116 C 
ENDROOT
BRANCH   1   2
ATOM      2  N   UNL A   1      30.730  30.134  23.879  1.00  0.00    -0.352 N 
ATOM      3  C   UNL A   1      30.442  29.155  22.958  1.00  0.00     0.251 C 
ATOM      4  O   UNL A   1      29.976  29.536  21.881  1.00  0.00    -0.269 OA
ATOM      5  H   UNL A   1      30.473  31.034  23.574  1.00  0.00     0.163 HD
BRANCH   3   6
ATOM      6  C   UNL A   1      30.638  27.688  23.166  1.00  0.00     0.044 A 
ATOM      7  C   UNL A   1      31.834  25.561  22.844  1.00  0.00     0.094 A 
ATOM      8  C   UNL A   1      31.602  26.918  22.532  1.00  0.00     0.036 A 
ATOM      9  C   UNL A   1      30.977  24.892  23.716  1.00  0.00     0.005 A 
ATOM     10  C   UNL A   1      29.999  25.671  24.356  1.00  0.00     0.128 A 
ATOM     11  C   UNL A   1      31.019  23.431  24.036  1.00  0.00     0.049 C 
ATOM     12  C   UNL A   1      29.842  27.040  24.113  1.00  0.00     0.053 A 
ATOM     13  F   UNL A   1      29.196  25.097  25.264  1.00  0.00    -0.207 F 
BRANCH   7  14
ATOM     14  S   UNL A   1      33.307  24.922  22.077  1.00  0.00     0.262 S 
ATOM     15  O   UNL A   1      34.284  25.984  22.078  1.00  0.00    -0.201 OA
ATOM     16  O   UNL A   1      32.866  24.338  20.821  1.00  0.00    -0.201 OA
BRANCH  14  17
ATOM     17  N   UNL A   1      33.975  23.677  22.936  1.00  0.00    -0.276 N 
ATOM     18  H   UNL A   1      33.742  22.788  22.581  1.00  0.00     0.180 HD
BRANCH  17  19
ATOM     19  C   UNL A   1      34.799  23.625  24.056  1.00  0.00     0.093 A 
ATOM     20  N   UNL A   1      36.460  22.850  25.253  1.00  0.00    -0.268 N 
ATOM     21  N   UNL A   1      35.673  23.489  26.144  1.00  0.00    -0.176 NA
ATOM     22  C   UNL A   1      36.089  23.124  23.963  1.00  0.00     0.060 A 
ATOM     23  C   UNL A   1      34.672  24.003  25.416  1.00  0.00     0.084 A 
ATOM     24  C   UNL A   1      36.897  22.904  22.737  1.00  0.00     0.069 C 
ATOM     25  C   UNL A   1      33.652  24.809  26.127  1.00  0.00     0.071 C 
BRANCH  20  26
ATOM     26  C   UNL A   1      37.342  21.820  25.781  1.00  0.00     0.141 C 
ATOM     27  C   UNL A   1      38.777  22.193  26.099  1.00  0.00     0.029 C 
ENDBRANCH  20  26
ENDBRANCH  17  19
ENDBRANCH  14  17
ENDBRANCH   7  14
ENDBRANCH   3   6
ENDBRANCH   1   2
BRANCH   1  28
ATOM     28  C   UNL A   1      32.800  29.703  25.156  1.00  0.00     0.023 C 
BRANCH  28  29
ATOM     29  C   UNL A   1      33.095  28.424  25.954  1.00  0.00     0.023 C 
BRANCH  29  30
ATOM     30  C   UNL A   1      33.953  28.670  27.186  1.00  0.00     0.116 C 
BRANCH  30  31
ATOM     31  N   UNL A   1      33.903  30.066  27.619  1.00  0.00    -0.352 N 
ATOM     32  C   UNL A   1      34.828  30.739  28.377  1.00  0.00     0.251 C 
ATOM     33  H   UNL A   1      33.114  30.583  27.334  1.00  0.00     0.163 HD
ATOM     34  O   UNL A   1      34.560  31.792  28.950  1.00  0.00    -0.269 OA
BRANCH  32  35
ATOM     35  C   UNL A   1      36.181  30.191  28.441  1.00  0.00     0.039 A 
ATOM     36  C   UNL A   1      37.046  30.221  27.338  1.00  0.00     0.014 A 
ATOM     37  C   UNL A   1      36.557  29.636  29.660  1.00  0.00     0.014 A 
ATOM     38  C   UNL A   1      38.331  29.710  27.476  1.00  0.00     0.010 A 
ATOM     39  C   UNL A   1      37.848  29.249  29.833  1.00  0.00     0.010 A 
ATOM     40  C   UNL A   1      38.707  29.224  28.725  1.00  0.00    -0.014 A 
BRANCH  40  41
ATOM     41  C   UNL A   1      39.974  28.605  29.039  1.00  0.00     0.031 A 
ATOM     42  C   UNL A   1      40.181  27.186  28.735  1.00  0.00     0.074 A 
ATOM     43  C   UNL A   1      40.959  29.507  29.244  1.00  0.00     0.049 A 
ATOM     44  N   UNL A   1      41.209  26.518  29.112  1.00  0.00    -0.248 NA
ATOM     45  C   UNL A   1      39.226  26.381  27.977  1.00  0.00     0.031 C 
ATOM     46  C   UNL A   1      42.394  29.397  29.056  1.00  0.00     0.029 A 
ATOM     47  N   UNL A   1      40.786  30.807  29.751  1.00  0.00    -0.354 N 
ATOM     48  C   UNL A   1      41.237  25.355  28.372  1.00  0.00     0.074 A 
ATOM     49  C   UNL A   1      39.920  25.250  27.793  1.00  0.00     0.031 C 
ATOM     50  C   UNL A   1      42.992  30.409  29.717  1.00  0.00     0.029 A 
ATOM     51  C   UNL A   1      41.953  31.087  30.480  1.00  0.00     0.049 A 
ATOM     52  H   UNL A   1      40.008  31.398  29.621  1.00  0.00     0.167 HD
ATOM     53  C   UNL A   1      42.444  24.737  28.208  1.00  0.00     0.037 A 
ATOM     54  C   UNL A   1      41.868  31.112  31.845  1.00  0.00     0.037 A 
ATOM     55  C   UNL A   1      43.468  25.478  28.948  1.00  0.00     0.049 A 
ATOM     56  C   UNL A   1      42.669  29.988  32.455  1.00  0.00     0.074 A 
ATOM     57  C   UNL A   1      44.382  26.442  28.554  1.00  0.00     0.029 A 
ATOM     58  N   UNL A   1      43.369  25.568  30.331  1.00  0.00    -0.354 N 
ATOM     59  N   UNL A   1      42.845  28.820  31.895  1.00  0.00    -0.248 NA
ATOM     60  C   UNL A   1      43.422  30.148  33.690  1.00  0.00     0.031 C 
ATOM     61  C   UNL A   1      44.798  27.147  29.714  1.00  0.00     0.029 A 
ATOM     62  C   UNL A   1      44.143  26.606  30.810  1.00  0.00     0.049 A 
ATOM     63  H   UNL A   1      42.821  24.974  30.892  1.00  0.00     0.167 HD
ATOM     64  C   UNL A   1      43.765  28.108  32.624  1.00  0.00     0.074 A 
ATOM     65  C   UNL A   1      44.084  28.979  33.741  1.00  0.00     0.031 C 
ATOM     66  C   UNL A   1      44.223  26.877  32.238  1.00  0.00     0.037 A 
BRANCH  53  67
ATOM     67  C   UNL A   1      42.786  23.670  27.187  1.00  0.00     0.064 A 
ATOM     68  C   UNL A   1      42.389  22.327  27.399  1.00  0.00     0.173 A 
ATOM     69  C   UNL A   1      43.506  23.881  25.996  1.00  0.00     0.173 A 
ATOM     70  F   UNL A   1      41.639  21.974  28.451  1.00  0.00    -0.203 F 
ATOM     71  C   UNL A   1      42.743  21.284  26.539  1.00  0.00     0.198 A 
ATOM     72  C   UNL A   1      43.885  22.831  25.147  1.00  0.00     0.198 A 
ATOM     73  F   UNL A   1      43.826  25.109  25.578  1.00  0.00    -0.203 F 
ATOM     74  F   UNL A   1      42.338  20.035  26.807  1.00  0.00    -0.200 F 
ATOM     75  C   UNL A   1      43.508  21.532  25.421  1.00  0.00     0.200 A 
ATOM     76  F   UNL A   1      44.614  23.093  24.053  1.00  0.00    -0.200 F 
ATOM     77  F   UNL A   1      43.858  20.533  24.601  1.00  0.00    -0.200 F 
ENDBRANCH  53  67
BRANCH  54  78
ATOM     78  C   UNL A   1      40.526  31.608  32.300  1.00  0.00     0.064 A 
ATOM     79  C   UNL A   1      39.675  30.658  32.909  1.00  0.00     0.173 A 
ATOM     80  C   UNL A   1      40.314  32.956  32.623  1.00  0.00     0.173 A 
ATOM     81  F   UNL A   1      39.819  29.354  32.621  1.00  0.00    -0.203 F 
ATOM     82  C   UNL A   1      38.804  31.016  33.936  1.00  0.00     0.198 A 
ATOM     83  C   UNL A   1      39.412  33.313  33.634  1.00  0.00     0.198 A 
ATOM     84  F   UNL A   1      41.064  33.916  32.066  1.00  0.00    -0.203 F 
ATOM     85  F   UNL A   1      38.142  30.066  34.612  1.00  0.00    -0.200 F 
ATOM     86  C   UNL A   1      38.703  32.341  34.324  1.00  0.00     0.200 A 
ATOM     87  F   UNL A   1      39.299  34.598  34.005  1.00  0.00    -0.200 F 
ATOM     88  F   UNL A   1      37.955  32.674  35.387  1.00  0.00    -0.200 F 
ENDBRANCH  54  78
BRANCH  66  89
ATOM     89  C   UNL A   1      44.890  25.845  33.128  1.00  0.00     0.064 A 
ATOM     90  C   UNL A   1      46.272  25.603  33.158  1.00  0.00     0.173 A 
ATOM     91  C   UNL A   1      44.148  25.162  34.130  1.00  0.00     0.173 A 
ATOM     92  F   UNL A   1      47.124  26.277  32.377  1.00  0.00    -0.203 F 
ATOM     93  C   UNL A   1      46.853  24.700  34.052  1.00  0.00     0.198 A 
ATOM     94  C   UNL A   1      44.742  24.331  35.077  1.00  0.00     0.198 A 
ATOM     95  F   UNL A   1      42.820  25.301  34.258  1.00  0.00    -0.203 F 
ATOM     96  F   UNL A   1      48.170  24.466  33.987  1.00  0.00    -0.200 F 
ATOM     97  C   UNL A   1      46.093  24.079  35.021  1.00  0.00     0.200 A 
ATOM     98  F   UNL A   1      43.995  23.799  36.055  1.00  0.00    -0.200 F 
ATOM     99  F   UNL A   1      46.664  23.261  35.914  1.00  0.00    -0.200 F 
ENDBRANCH  66  89
ENDBRANCH  40  41
ENDBRANCH  32  35
ENDBRANCH  30  31
ENDBRANCH  29  30
ENDBRANCH  28  29
ENDBRANCH   1  28
TORSDOF 15
ENDMDL
MODEL 3
REMARK VINA RESULT:     -13.0      1.366      1.933
REMARK SMILES CCn1nc(C)c(NS(=O)(=O)c2cc(C(=O)NCCCCNC(=O)c3ccc(-c4c5nc(c(-c6c(F)c(F)c(F)c(F)c6F)c6ccc([nH]6)c(-c6c(F)c(F)c(F)c(F)c6F)c6nc(c(-c7c(F)c(F)c(F)c(F)c7F)c7ccc4[nH]7)C=C6)C=C5)cc3)cc(F)c2C)c1C
REMARK SMILES IDX 18 1 17 2 15 3 16 4 14 6 12 7 13 8 91 9 89 10 92 11 88 12
REMARK SMILES IDX 90 13 9 14 10 15 11 16 8 17 7 19 3 20 4 21 93 22 5 23 94 24
REMARK SMILES IDX 6 25 2 26 1 27 19 28 20 29 21 30 22 31 23 32 24 34 25 35
REMARK SMILES IDX 26 36 87 37 27 38 86 39 28 40 29 41 30 42 80 43 31 44 85 45
REMARK SMILES IDX 79 46 81 47 32 48 84 49 78 50 77 51 33 53 65 54 45 55 64 56
REMARK SMILES IDX 46 57 49 58 63 59 82 60 47 61 48 62 62 64 83 65 50 66 34 67
REMARK SMILES IDX 35 68 43 69 36 70 37 71 41 72 44 73 38 74 39 75 42 76 40 77
REMARK SMILES IDX 66 78 67 79 75 80 68 81 69 82 73 83 76 84 70 85 71 86 74 87
REMARK SMILES IDX 72 88 51 89 52 90 60 91 53 92 54 93 58 94 61 95 55 96 56 97
REMARK SMILES IDX 59 98 57 99
REMARK H PARENT 17 5 8 18 22 33 81 52 49 63
REMARK Flexibility Score: inf
ROOT
ATOM      1  C   UNL A   1      35.315  21.135  25.814  1.00  0.00     0.116 C 
ENDROOT
BRANCH   1   2
ATOM      2  N   UNL A   1      34.178  20.359  25.354  1.00  0.00    -0.352 N 
ATOM      3  C   UNL A   1      32.869  20.658  25.060  1.00  0.00     0.251 C 
ATOM      4  O   UNL A   1      32.147  19.708  24.747  1.00  0.00    -0.269 OA
ATOM      5  H   UNL A   1      34.390  19.406  25.225  1.00  0.00     0.163 HD
BRANCH   3   6
ATOM      6  C   UNL A   1      32.270  22.028  25.078  1.00  0.00     0.044 A 
ATOM      7  C   UNL A   1      31.954  24.302  24.192  1.00  0.00     0.094 A 
ATOM      8  C   UNL A   1      32.626  23.061  24.224  1.00  0.00     0.036 A 
ATOM      9  C   UNL A   1      30.983  24.591  25.148  1.00  0.00     0.005 A 
ATOM     10  C   UNL A   1      30.624  23.546  26.015  1.00  0.00     0.128 A 
ATOM     11  C   UNL A   1      30.286  25.904  25.318  1.00  0.00     0.049 C 
ATOM     12  C   UNL A   1      31.229  22.285  25.972  1.00  0.00     0.053 A 
ATOM     13  F   UNL A   1      29.640  23.742  26.905  1.00  0.00    -0.207 F 
BRANCH   7  14
ATOM     14  S   UNL A   1      32.446  25.314  22.813  1.00  0.00     0.262 S 
ATOM     15  O   UNL A   1      31.247  25.659  22.087  1.00  0.00    -0.201 OA
ATOM     16  O   UNL A   1      33.511  24.576  22.153  1.00  0.00    -0.201 OA
BRANCH  14  17
ATOM     17  N   UNL A   1      33.126  26.744  23.291  1.00  0.00    -0.276 N 
ATOM     18  H   UNL A   1      34.087  26.808  23.085  1.00  0.00     0.180 HD
BRANCH  17  19
ATOM     19  C   UNL A   1      32.621  27.875  23.925  1.00  0.00     0.093 A 
ATOM     20  N   UNL A   1      32.204  29.150  25.655  1.00  0.00    -0.268 N 
ATOM     21  N   UNL A   1      31.341  29.575  24.709  1.00  0.00    -0.176 NA
ATOM     22  C   UNL A   1      33.146  28.301  25.135  1.00  0.00     0.060 A 
ATOM     23  C   UNL A   1      31.614  28.828  23.630  1.00  0.00     0.084 A 
ATOM     24  C   UNL A   1      34.436  27.912  25.759  1.00  0.00     0.069 C 
ATOM     25  C   UNL A   1      30.840  29.099  22.396  1.00  0.00     0.071 C 
BRANCH  20  26
ATOM     26  C   UNL A   1      31.847  29.427  27.038  1.00  0.00     0.141 C 
ATOM     27  C   UNL A   1      31.361  28.280  27.902  1.00  0.00     0.029 C 
ENDBRANCH  20  26
ENDBRANCH  17  19
ENDBRANCH  14  17
ENDBRANCH   7  14
ENDBRANCH   3   6
ENDBRANCH   1   2
BRANCH   1  28
ATOM     28  C   UNL A   1      36.161  21.648  24.644  1.00  0.00     0.023 C 
BRANCH  28  29
ATOM     29  C   UNL A   1      36.230  23.180  24.553  1.00  0.00     0.023 C 
BRANCH  29  30
ATOM     30  C   UNL A   1      37.271  23.790  25.478  1.00  0.00     0.116 C 
BRANCH  30  31
ATOM     31  N   UNL A   1      38.168  22.779  26.036  1.00  0.00    -0.352 N 
ATOM     32  C   UNL A   1      39.406  22.978  26.596  1.00  0.00     0.251 C 
ATOM     33  H   UNL A   1      37.848  21.848  26.007  1.00  0.00     0.163 HD
ATOM     34  O   UNL A   1      40.209  22.060  26.746  1.00  0.00    -0.269 OA
BRANCH  32  35
ATOM     35  C   UNL A   1      39.729  24.321  27.069  1.00  0.00     0.039 A 
ATOM     36  C   UNL A   1      40.311  25.283  26.231  1.00  0.00     0.014 A 
ATOM     37  C   UNL A   1      39.425  24.588  28.401  1.00  0.00     0.014 A 
ATOM     38  C   UNL A   1      40.563  26.553  26.737  1.00  0.00     0.010 A 
ATOM     39  C   UNL A   1      39.557  25.860  28.860  1.00  0.00     0.010 A 
ATOM     40  C   UNL A   1      40.186  26.816  28.051  1.00  0.00    -0.014 A 
BRANCH  40  41
ATOM     41  C   UNL A   1      40.422  28.053  28.760  1.00  0.00     0.031 A 
ATOM     42  C   UNL A   1      39.441  29.139  28.666  1.00  0.00     0.074 A 
ATOM     43  C   UNL A   1      41.352  27.929  29.732  1.00  0.00     0.049 A 
ATOM     44  N   UNL A   1      39.634  30.317  29.132  1.00  0.00    -0.248 NA
ATOM     45  C   UNL A   1      38.141  28.990  28.017  1.00  0.00     0.031 C 
ATOM     46  C   UNL A   1      41.526  28.663  30.972  1.00  0.00     0.029 A 
ATOM     47  N   UNL A   1      42.433  27.030  29.719  1.00  0.00    -0.354 N 
ATOM     48  C   UNL A   1      38.409  30.947  29.180  1.00  0.00     0.074 A 
ATOM     49  C   UNL A   1      37.546  30.143  28.349  1.00  0.00     0.031 C 
ATOM     50  C   UNL A   1      42.772  28.434  31.434  1.00  0.00     0.029 A 
ATOM     51  C   UNL A   1      43.473  27.681  30.404  1.00  0.00     0.049 A 
ATOM     52  H   UNL A   1      42.457  26.132  29.315  1.00  0.00     0.167 HD
ATOM     53  C   UNL A   1      38.255  31.968  30.073  1.00  0.00     0.037 A 
ATOM     54  C   UNL A   1      44.533  28.144  29.674  1.00  0.00     0.037 A 
ATOM     55  C   UNL A   1      39.523  32.195  30.769  1.00  0.00     0.049 A 
ATOM     56  C   UNL A   1      44.591  29.652  29.708  1.00  0.00     0.074 A 
ATOM     57  C   UNL A   1      40.001  31.756  31.993  1.00  0.00     0.029 A 
ATOM     58  N   UNL A   1      40.631  32.607  30.037  1.00  0.00    -0.354 N 
ATOM     59  N   UNL A   1      43.544  30.429  29.787  1.00  0.00    -0.248 NA
ATOM     60  C   UNL A   1      45.849  30.382  29.769  1.00  0.00     0.031 C 
ATOM     61  C   UNL A   1      41.416  31.866  31.972  1.00  0.00     0.029 A 
ATOM     62  C   UNL A   1      41.795  32.377  30.741  1.00  0.00     0.049 A 
ATOM     63  H   UNL A   1      40.590  33.008  29.139  1.00  0.00     0.167 HD
ATOM     64  C   UNL A   1      43.959  31.723  29.980  1.00  0.00     0.074 A 
ATOM     65  C   UNL A   1      45.408  31.639  29.950  1.00  0.00     0.031 C 
ATOM     66  C   UNL A   1      43.087  32.757  30.188  1.00  0.00     0.037 A 
BRANCH  53  67
ATOM     67  C   UNL A   1      36.947  32.573  30.543  1.00  0.00     0.064 A 
ATOM     68  C   UNL A   1      36.232  33.465  29.706  1.00  0.00     0.173 A 
ATOM     69  C   UNL A   1      36.344  32.342  31.793  1.00  0.00     0.173 A 
ATOM     70  F   UNL A   1      36.637  33.735  28.459  1.00  0.00    -0.203 F 
ATOM     71  C   UNL A   1      35.065  34.118  30.111  1.00  0.00     0.198 A 
ATOM     72  C   UNL A   1      35.188  33.019  32.211  1.00  0.00     0.198 A 
ATOM     73  F   UNL A   1      36.813  31.420  32.639  1.00  0.00    -0.203 F 
ATOM     74  F   UNL A   1      34.445  34.955  29.268  1.00  0.00    -0.200 F 
ATOM     75  C   UNL A   1      34.551  33.910  31.372  1.00  0.00     0.200 A 
ATOM     76  F   UNL A   1      34.692  32.790  33.436  1.00  0.00    -0.200 F 
ATOM     77  F   UNL A   1      33.440  34.544  31.767  1.00  0.00    -0.200 F 
ENDBRANCH  53  67
BRANCH  54  78
ATOM     78  C   UNL A   1      44.810  27.261  28.492  1.00  0.00     0.064 A 
ATOM     79  C   UNL A   1      45.176  25.926  28.772  1.00  0.00     0.173 A 
ATOM     80  C   UNL A   1      44.241  27.518  27.236  1.00  0.00     0.173 A 
ATOM     81  F   UNL A   1      45.745  25.625  29.952  1.00  0.00    -0.203 F 
ATOM     82  C   UNL A   1      44.803  24.878  27.932  1.00  0.00     0.198 A 
ATOM     83  C   UNL A   1      43.898  26.463  26.381  1.00  0.00     0.198 A 
ATOM     84  F   UNL A   1      43.893  28.764  26.888  1.00  0.00    -0.203 F 
ATOM     85  F   UNL A   1      45.009  23.610  28.314  1.00  0.00    -0.200 F 
ATOM     86  C   UNL A   1      44.128  25.147  26.754  1.00  0.00     0.200 A 
ATOM     87  F   UNL A   1      43.255  26.718  25.230  1.00  0.00    -0.200 F 
ATOM     88  F   UNL A   1      43.665  24.138  26.000  1.00  0.00    -0.200 F 
ENDBRANCH  54  78
BRANCH  66  89
ATOM     89  C   UNL A   1      43.380  34.234  30.001  1.00  0.00     0.064 A 
ATOM     90  C   UNL A   1      43.392  34.885  28.757  1.00  0.00     0.173 A 
ATOM     91  C   UNL A   1      43.498  35.099  31.123  1.00  0.00     0.173 A 
ATOM     92  F   UNL A   1      43.148  34.233  27.616  1.00  0.00    -0.203 F 
ATOM     93  C   UNL A   1      43.586  36.264  28.639  1.00  0.00     0.198 A 
ATOM     94  C   UNL A   1      43.603  36.483  31.004  1.00  0.00     0.198 A 
ATOM     95  F   UNL A   1      43.480  34.644  32.384  1.00  0.00    -0.203 F 
ATOM     96  F   UNL A   1      43.651  36.816  27.420  1.00  0.00    -0.200 F 
ATOM     97  C   UNL A   1      43.673  37.064  29.759  1.00  0.00     0.200 A 
ATOM     98  F   UNL A   1      43.609  37.246  32.107  1.00  0.00    -0.200 F 
ATOM     99  F   UNL A   1      43.798  38.391  29.640  1.00  0.00    -0.200 F 
ENDBRANCH  66  89
ENDBRANCH  40  41
ENDBRANCH  32  35
ENDBRANCH  30  31
ENDBRANCH  29  30
ENDBRANCH  28  29
ENDBRANCH   1  28
TORSDOF 15
ENDMDL
