MODEL 1
REMARK VINA RESULT:     -12.1      0.000      0.000
REMARK SMILES [NH3+][C@@](C(=O)NCCCCNC(=O)c1ccc(-c2c3nc(c(-c4c(F)c(F)c(F)c(F)c4F)c4ccc([nH]4)c(-c4c(F)c(F)c(F)c(F)c4F)c4nc(c(-c5c(F)c(F)c(F)c(F)c5F)c5ccc2[nH]5)C=C4)C=C3)cc1)(c1ccc([P@TB4](=O)([O-])[O-])cc1)C1CC1
REMARK SMILES IDX 7 1 6 2 5 3 3 4 4 5 2 7 1 8 76 12 77 13 85 14 78 15 84 16
REMARK SMILES IDX 79 17 80 18 81 19 82 20 83 21 86 22 87 23 88 24 8 25 9 26
REMARK SMILES IDX 10 27 11 28 12 30 13 31 14 32 75 33 15 34 74 35 16 36 17 37
REMARK SMILES IDX 18 38 68 39 19 40 73 41 67 42 69 43 20 44 72 45 66 46 65 47
REMARK SMILES IDX 21 49 53 50 33 51 52 52 34 53 37 54 51 55 70 56 35 57 36 58
REMARK SMILES IDX 50 60 71 61 38 62 22 63 23 64 31 65 24 66 25 67 29 68 32 69
REMARK SMILES IDX 26 70 27 71 30 72 28 73 54 74 55 75 63 76 56 77 57 78 61 79
REMARK SMILES IDX 64 80 58 81 59 82 62 83 60 84 39 85 40 86 48 87 41 88 42 89
REMARK SMILES IDX 46 90 49 91 43 92 44 93 47 94 45 95
REMARK H PARENT 5 6 1 9 1 10 1 11 10 29 69 48 37 59
REMARK Flexibility Score: inf
ROOT
ATOM      1  C   UNL A   1      31.954  27.804  27.096  1.00  0.00       nan C 
ENDROOT
BRANCH   1   2
ATOM      2  C   UNL A   1      31.818  26.458  26.385  1.00  0.00       nan C 
BRANCH   2   3
ATOM      3  N   UNL A   1      32.917  26.264  25.469  1.00  0.00       nan N 
ATOM      4  C   UNL A   1      32.971  25.749  24.207  1.00  0.00       nan C 
ATOM      5  O   UNL A   1      34.108  25.413  23.854  1.00  0.00       nan OA
ATOM      6  H   UNL A   1      33.789  26.559  25.820  1.00  0.00       nan HD
BRANCH   4   7
ATOM      7  C   UNL A   1      31.667  25.558  23.304  1.00  0.00       nan C 
BRANCH   7   8
ATOM      8  N   UNL A   1      32.129  25.143  21.950  1.00  0.00       nan N 
ATOM      9  H   UNL A   1      33.149  25.146  21.923  1.00  0.00       nan HD
ATOM     10  H   UNL A   1      31.768  25.795  21.253  1.00  0.00       nan HD
ATOM     11  H   UNL A   1      31.786  24.204  21.747  1.00  0.00       nan HD
ENDBRANCH   7   8
BRANCH   7  12
ATOM     12  C   UNL A   1      30.873  26.872  23.158  1.00  0.00       nan A 
ATOM     13  C   UNL A   1      31.475  28.024  22.608  1.00  0.00       nan A 
ATOM     14  C   UNL A   1      29.509  26.934  23.491  1.00  0.00       nan A 
ATOM     15  C   UNL A   1      30.750  29.194  22.417  1.00  0.00       nan A 
ATOM     16  C   UNL A   1      28.781  28.099  23.304  1.00  0.00       nan A 
ATOM     17  C   UNL A   1      29.398  29.227  22.756  1.00  0.00       nan A 
BRANCH  17  18
ATOM     18  P   UNL A   1      28.452  30.749  22.386  1.00  0.00       nan P 
ATOM     19  O   UNL A   1      28.060  30.287  20.975  1.00  0.00       nan OA
ATOM     20  O   UNL A   1      27.203  30.275  23.333  1.00  0.00       nan OA
ATOM     21  O   UNL A   1      27.558  32.188  22.036  1.00  0.00       nan OA
ENDBRANCH  17  18
ENDBRANCH   7  12
BRANCH   7  22
ATOM     22  C   UNL A   1      30.755  24.436  23.840  1.00  0.00       nan C 
ATOM     23  C   UNL A   1      30.806  23.018  23.301  1.00  0.00       nan C 
ATOM     24  C   UNL A   1      31.202  23.286  24.725  1.00  0.00       nan C 
ENDBRANCH   7  22
ENDBRANCH   4   7
ENDBRANCH   2   3
ENDBRANCH   1   2
BRANCH   1  25
ATOM     25  C   UNL A   1      31.673  29.011  26.199  1.00  0.00       nan C 
BRANCH  25  26
ATOM     26  C   UNL A   1      32.874  29.919  25.963  1.00  0.00       nan C 
BRANCH  26  27
ATOM     27  N   UNL A   1      32.628  31.290  26.385  1.00  0.00       inf N 
ATOM     28  C   UNL A   1      33.323  32.060  27.279  1.00  0.00     0.251 C 
ATOM     29  H   UNL A   1      31.851  31.726  25.969  1.00  0.00     0.163 HD
ATOM     30  O   UNL A   1      32.882  33.155  27.618  1.00  0.00    -0.269 OA
BRANCH  28  31
ATOM     31  C   UNL A   1      34.581  31.554  27.859  1.00  0.00     0.039 A 
ATOM     32  C   UNL A   1      35.656  32.435  27.978  1.00  0.00     0.014 A 
ATOM     33  C   UNL A   1      34.699  30.229  28.291  1.00  0.00     0.014 A 
ATOM     34  C   UNL A   1      36.833  32.002  28.584  1.00  0.00     0.010 A 
ATOM     35  C   UNL A   1      35.844  29.823  28.970  1.00  0.00     0.010 A 
ATOM     36  C   UNL A   1      36.923  30.704  29.118  1.00  0.00    -0.014 A 
BRANCH  36  37
ATOM     37  C   UNL A   1      38.145  30.282  29.847  1.00  0.00     0.031 A 
ATOM     38  C   UNL A   1      38.406  30.761  31.247  1.00  0.00     0.074 A 
ATOM     39  C   UNL A   1      39.027  29.472  29.231  1.00  0.00     0.049 A 
ATOM     40  N   UNL A   1      39.398  30.463  32.049  1.00  0.00    -0.248 NA
ATOM     41  C   UNL A   1      37.442  31.715  31.816  1.00  0.00     0.031 C 
ATOM     42  C   UNL A   1      38.917  29.002  27.848  1.00  0.00     0.029 A 
ATOM     43  N   UNL A   1      40.186  28.898  29.685  1.00  0.00    -0.354 N 
ATOM     44  C   UNL A   1      39.172  31.184  33.213  1.00  0.00     0.074 A 
ATOM     45  C   UNL A   1      37.991  31.989  32.992  1.00  0.00     0.031 C 
ATOM     46  C   UNL A   1      39.945  28.182  27.579  1.00  0.00     0.029 A 
ATOM     47  C   UNL A   1      40.802  28.095  28.756  1.00  0.00     0.049 A 
ATOM     48  H   UNL A   1      40.543  29.047  30.590  1.00  0.00     0.167 HD
ATOM     49  C   UNL A   1      39.867  31.150  34.376  1.00  0.00     0.037 A 
ATOM     50  C   UNL A   1      41.931  27.367  28.847  1.00  0.00     0.037 A 
ATOM     51  C   UNL A   1      41.040  30.344  34.594  1.00  0.00     0.049 A 
ATOM     52  C   UNL A   1      42.680  27.346  30.150  1.00  0.00     0.074 A 
ATOM     53  C   UNL A   1      41.797  30.213  35.744  1.00  0.00     0.029 A 
ATOM     54  N   UNL A   1      41.628  29.531  33.635  1.00  0.00    -0.354 N 
ATOM     55  N   UNL A   1      42.412  27.972  31.271  1.00  0.00    -0.248 NA
ATOM     56  C   UNL A   1      43.881  26.502  30.207  1.00  0.00     0.031 C 
ATOM     57  C   UNL A   1      42.870  29.358  35.469  1.00  0.00     0.029 A 
ATOM     58  C   UNL A   1      42.749  28.910  34.164  1.00  0.00     0.049 A 
ATOM     59  H   UNL A   1      41.298  29.413  32.715  1.00  0.00     0.167 HD
ATOM     60  C   UNL A   1      43.397  27.586  32.169  1.00  0.00     0.074 A 
ATOM     61  C   UNL A   1      44.247  26.642  31.473  1.00  0.00     0.031 C 
ATOM     62  C   UNL A   1      43.588  27.980  33.453  1.00  0.00     0.037 A 
BRANCH  49  63
ATOM     63  C   UNL A   1      39.366  31.998  35.510  1.00  0.00     0.064 A 
ATOM     64  C   UNL A   1      38.495  31.480  36.481  1.00  0.00     0.173 A 
ATOM     65  C   UNL A   1      39.797  33.324  35.660  1.00  0.00     0.173 A 
ATOM     66  F   UNL A   1      38.041  30.221  36.378  1.00  0.00    -0.203 F 
ATOM     67  C   UNL A   1      38.057  32.263  37.546  1.00  0.00     0.198 A 
ATOM     68  C   UNL A   1      39.383  34.095  36.743  1.00  0.00     0.198 A 
ATOM     69  F   UNL A   1      40.632  33.870  34.763  1.00  0.00    -0.203 F 
ATOM     70  F   UNL A   1      37.191  31.758  38.436  1.00  0.00    -0.200 F 
ATOM     71  C   UNL A   1      38.509  33.567  37.681  1.00  0.00     0.200 A 
ATOM     72  F   UNL A   1      39.831  35.351  36.880  1.00  0.00    -0.200 F 
ATOM     73  F   UNL A   1      38.099  34.316  38.714  1.00  0.00    -0.200 F 
ENDBRANCH  49  63
BRANCH  50  74
ATOM     74  C   UNL A   1      42.410  26.584  27.676  1.00  0.00     0.064 A 
ATOM     75  C   UNL A   1      41.944  25.284  27.432  1.00  0.00     0.173 A 
ATOM     76  C   UNL A   1      43.360  27.112  26.790  1.00  0.00     0.173 A 
ATOM     77  F   UNL A   1      41.047  24.727  28.260  1.00  0.00    -0.203 F 
ATOM     78  C   UNL A   1      42.435  24.532  26.367  1.00  0.00     0.198 A 
ATOM     79  C   UNL A   1      43.824  26.371  25.705  1.00  0.00     0.198 A 
ATOM     80  F   UNL A   1      43.831  28.354  26.973  1.00  0.00    -0.203 F 
ATOM     81  F   UNL A   1      42.017  23.270  26.193  1.00  0.00    -0.200 F 
ATOM     82  C   UNL A   1      43.371  25.077  25.503  1.00  0.00     0.200 A 
ATOM     83  F   UNL A   1      44.715  26.910  24.862  1.00  0.00    -0.200 F 
ATOM     84  F   UNL A   1      43.844  24.353  24.479  1.00  0.00    -0.200 F 
ENDBRANCH  50  74
BRANCH  62  85
ATOM     85  C   UNL A   1      44.753  27.373  34.183  1.00  0.00     0.064 A 
ATOM     86  C   UNL A   1      46.016  27.985  34.194  1.00  0.00     0.173 A 
ATOM     87  C   UNL A   1      44.605  26.163  34.879  1.00  0.00     0.173 A 
ATOM     88  F   UNL A   1      46.213  29.137  33.533  1.00  0.00    -0.203 F 
ATOM     89  C   UNL A   1      47.097  27.387  34.833  1.00  0.00     0.198 A 
ATOM     90  C   UNL A   1      45.681  25.586  35.549  1.00  0.00     0.198 A 
ATOM     91  F   UNL A   1      43.418  25.540  34.909  1.00  0.00    -0.203 F 
ATOM     92  F   UNL A   1      48.310  27.955  34.769  1.00  0.00    -0.200 F 
ATOM     93  C   UNL A   1      46.928  26.191  35.514  1.00  0.00     0.200 A 
ATOM     94  F   UNL A   1      45.512  24.438  36.219  1.00  0.00    -0.200 F 
ATOM     95  F   UNL A   1      47.971  25.613  36.125  1.00  0.00    -0.200 F 
ENDBRANCH  62  85
ENDBRANCH  36  37
ENDBRANCH  28  31
ENDBRANCH  26  27
ENDBRANCH  25  26
ENDBRANCH   1  25
TORSDOF 15
ENDMDL
MODEL 2
REMARK VINA RESULT:     -11.9      0.140      1.608
REMARK SMILES [NH3+][C@@](C(=O)NCCCCNC(=O)c1ccc(-c2c3nc(c(-c4c(F)c(F)c(F)c(F)c4F)c4ccc([nH]4)c(-c4c(F)c(F)c(F)c(F)c4F)c4nc(c(-c5c(F)c(F)c(F)c(F)c5F)c5ccc2[nH]5)C=C4)C=C3)cc1)(c1ccc([P@TB4](=O)([O-])[O-])cc1)C1CC1
REMARK SMILES IDX 7 1 6 2 5 3 3 4 4 5 2 7 1 8 76 12 77 13 85 14 78 15 84 16
REMARK SMILES IDX 79 17 80 18 81 19 82 20 83 21 86 22 87 23 88 24 8 25 9 26
REMARK SMILES IDX 10 27 11 28 12 30 13 31 14 32 75 33 15 34 74 35 16 36 17 37
REMARK SMILES IDX 18 38 68 39 19 40 73 41 67 42 69 43 20 44 72 45 66 46 65 47
REMARK SMILES IDX 21 49 53 50 33 51 52 52 34 53 37 54 51 55 70 56 35 57 36 58
REMARK SMILES IDX 50 60 71 61 38 62 22 63 23 64 31 65 24 66 25 67 29 68 32 69
REMARK SMILES IDX 26 70 27 71 30 72 28 73 54 74 55 75 63 76 56 77 57 78 61 79
REMARK SMILES IDX 64 80 58 81 59 82 62 83 60 84 39 85 40 86 48 87 41 88 42 89
REMARK SMILES IDX 46 90 49 91 43 92 44 93 47 94 45 95
REMARK H PARENT 5 6 1 9 1 10 1 11 10 29 69 48 37 59
REMARK Flexibility Score: inf
ROOT
ATOM      1  C   UNL A   1      32.099  27.806  27.066  1.00  0.00       nan C 
ENDROOT
BRANCH   1   2
ATOM      2  C   UNL A   1      31.803  26.542  26.261  1.00  0.00       nan C 
BRANCH   2   3
ATOM      3  N   UNL A   1      32.904  26.245  25.375  1.00  0.00       nan N 
ATOM      4  C   UNL A   1      32.947  25.691  24.129  1.00  0.00       nan C 
ATOM      5  O   UNL A   1      34.064  25.267  23.810  1.00  0.00       nan OA
ATOM      6  H   UNL A   1      33.787  26.488  25.737  1.00  0.00       nan HD
BRANCH   4   7
ATOM      7  C   UNL A   1      31.651  25.567  23.202  1.00  0.00       nan C 
BRANCH   7   8
ATOM      8  N   UNL A   1      32.124  25.230  21.831  1.00  0.00       nan N 
ATOM      9  H   UNL A   1      33.141  25.147  21.833  1.00  0.00       nan HD
ATOM     10  H   UNL A   1      31.844  25.967  21.184  1.00  0.00       nan HD
ATOM     11  H   UNL A   1      31.712  24.344  21.536  1.00  0.00       nan HD
ENDBRANCH   7   8
BRANCH   7  12
ATOM     12  C   UNL A   1      30.870  26.894  23.127  1.00  0.00       nan A 
ATOM     13  C   UNL A   1      31.487  28.072  22.656  1.00  0.00       nan A 
ATOM     14  C   UNL A   1      29.502  26.948  23.448  1.00  0.00       nan A 
ATOM     15  C   UNL A   1      30.775  29.258  22.528  1.00  0.00       nan A 
ATOM     16  C   UNL A   1      28.786  28.128  23.324  1.00  0.00       nan A 
ATOM     17  C   UNL A   1      29.418  29.281  22.853  1.00  0.00       nan A 
BRANCH  17  18
ATOM     18  P   UNL A   1      28.489  30.832  22.566  1.00  0.00       nan P 
ATOM     19  O   UNL A   1      28.120  30.465  21.121  1.00  0.00       nan OA
ATOM     20  O   UNL A   1      27.220  30.306  23.458  1.00  0.00       nan OA
ATOM     21  O   UNL A   1      27.611  32.297  22.294  1.00  0.00       nan OA
ENDBRANCH  17  18
ENDBRANCH   7  12
BRANCH   7  22
ATOM     22  C   UNL A   1      30.724  24.423  23.660  1.00  0.00       nan C 
ATOM     23  C   UNL A   1      31.010  22.967  23.341  1.00  0.00       nan C 
ATOM     24  C   UNL A   1      31.031  23.432  24.769  1.00  0.00       nan C 
ENDBRANCH   7  22
ENDBRANCH   4   7
ENDBRANCH   2   3
ENDBRANCH   1   2
BRANCH   1  25
ATOM     25  C   UNL A   1      31.731  29.102  26.342  1.00  0.00       nan C 
BRANCH  25  26
ATOM     26  C   UNL A   1      32.914  30.008  26.022  1.00  0.00       nan C 
BRANCH  26  27
ATOM     27  N   UNL A   1      32.697  31.382  26.450  1.00  0.00       inf N 
ATOM     28  C   UNL A   1      33.414  32.138  27.338  1.00  0.00     0.251 C 
ATOM     29  H   UNL A   1      31.923  31.833  26.041  1.00  0.00     0.163 HD
ATOM     30  O   UNL A   1      32.995  33.239  27.684  1.00  0.00    -0.269 OA
BRANCH  28  31
ATOM     31  C   UNL A   1      34.668  31.608  27.905  1.00  0.00     0.039 A 
ATOM     32  C   UNL A   1      35.759  32.470  28.018  1.00  0.00     0.014 A 
ATOM     33  C   UNL A   1      34.767  30.280  28.332  1.00  0.00     0.014 A 
ATOM     34  C   UNL A   1      36.934  32.015  28.611  1.00  0.00     0.010 A 
ATOM     35  C   UNL A   1      35.910  29.852  28.999  1.00  0.00     0.010 A 
ATOM     36  C   UNL A   1      37.006  30.714  29.140  1.00  0.00    -0.014 A 
BRANCH  36  37
ATOM     37  C   UNL A   1      38.227  30.268  29.857  1.00  0.00     0.031 A 
ATOM     38  C   UNL A   1      38.510  30.739  31.255  1.00  0.00     0.074 A 
ATOM     39  C   UNL A   1      39.088  29.443  29.230  1.00  0.00     0.049 A 
ATOM     40  N   UNL A   1      39.504  30.422  32.047  1.00  0.00    -0.248 NA
ATOM     41  C   UNL A   1      37.569  31.710  31.835  1.00  0.00     0.031 C 
ATOM     42  C   UNL A   1      38.956  28.978  27.848  1.00  0.00     0.029 A 
ATOM     43  N   UNL A   1      40.240  28.847  29.672  1.00  0.00    -0.354 N 
ATOM     44  C   UNL A   1      39.302  31.145  33.215  1.00  0.00     0.074 A 
ATOM     45  C   UNL A   1      38.134  31.972  33.006  1.00  0.00     0.031 C 
ATOM     46  C   UNL A   1      39.966  28.139  27.568  1.00  0.00     0.029 A 
ATOM     47  C   UNL A   1      40.833  28.035  28.736  1.00  0.00     0.049 A 
ATOM     48  H   UNL A   1      40.609  28.988  30.574  1.00  0.00     0.167 HD
ATOM     49  C   UNL A   1      40.007  31.096  34.370  1.00  0.00     0.037 A 
ATOM     50  C   UNL A   1      41.949  27.286  28.815  1.00  0.00     0.037 A 
ATOM     51  C   UNL A   1      41.168  30.268  34.576  1.00  0.00     0.049 A 
ATOM     52  C   UNL A   1      42.710  27.249  30.111  1.00  0.00     0.074 A 
ATOM     53  C   UNL A   1      41.933  30.121  35.718  1.00  0.00     0.029 A 
ATOM     54  N   UNL A   1      41.732  29.446  33.610  1.00  0.00    -0.354 N 
ATOM     55  N   UNL A   1      42.464  27.878  31.236  1.00  0.00    -0.248 NA
ATOM     56  C   UNL A   1      43.896  26.384  30.155  1.00  0.00     0.031 C 
ATOM     57  C   UNL A   1      42.987  29.247  35.431  1.00  0.00     0.029 A 
ATOM     58  C   UNL A   1      42.846  28.803  34.127  1.00  0.00     0.049 A 
ATOM     59  H   UNL A   1      41.391  29.336  32.693  1.00  0.00     0.167 HD
ATOM     60  C   UNL A   1      43.451  27.472  32.124  1.00  0.00     0.074 A 
ATOM     61  C   UNL A   1      44.276  26.514  31.417  1.00  0.00     0.031 C 
ATOM     62  C   UNL A   1      43.661  27.860  33.406  1.00  0.00     0.037 A 
BRANCH  49  63
ATOM     63  C   UNL A   1      39.533  31.951  35.511  1.00  0.00     0.064 A 
ATOM     64  C   UNL A   1      39.984  33.270  35.673  1.00  0.00     0.173 A 
ATOM     65  C   UNL A   1      38.581  31.468  36.421  1.00  0.00     0.173 A 
ATOM     66  F   UNL A   1      40.904  33.776  34.837  1.00  0.00    -0.203 F 
ATOM     67  C   UNL A   1      39.518  34.066  36.716  1.00  0.00     0.198 A 
ATOM     68  C   UNL A   1      38.093  32.277  37.444  1.00  0.00     0.198 A 
ATOM     69  F   UNL A   1      38.113  30.216  36.311  1.00  0.00    -0.203 F 
ATOM     70  F   UNL A   1      39.998  35.307  36.876  1.00  0.00    -0.200 F 
ATOM     71  C   UNL A   1      38.566  33.572  37.595  1.00  0.00     0.200 A 
ATOM     72  F   UNL A   1      37.163  31.804  38.286  1.00  0.00    -0.200 F 
ATOM     73  F   UNL A   1      38.108  34.343  38.590  1.00  0.00    -0.200 F 
ENDBRANCH  49  63
BRANCH  50  74
ATOM     74  C   UNL A   1      42.403  26.497  27.639  1.00  0.00     0.064 A 
ATOM     75  C   UNL A   1      41.887  25.218  27.379  1.00  0.00     0.173 A 
ATOM     76  C   UNL A   1      43.376  26.997  26.762  1.00  0.00     0.173 A 
ATOM     77  F   UNL A   1      40.965  24.689  28.197  1.00  0.00    -0.203 F 
ATOM     78  C   UNL A   1      42.354  24.459  26.308  1.00  0.00     0.198 A 
ATOM     79  C   UNL A   1      43.816  26.249  25.671  1.00  0.00     0.198 A 
ATOM     80  F   UNL A   1      43.895  28.217  26.959  1.00  0.00    -0.203 F 
ATOM     81  F   UNL A   1      41.888  23.216  26.120  1.00  0.00    -0.200 F 
ATOM     82  C   UNL A   1      43.314  24.976  25.454  1.00  0.00     0.200 A 
ATOM     83  F   UNL A   1      44.732  26.761  24.837  1.00  0.00    -0.200 F 
ATOM     84  F   UNL A   1      43.763  24.243  24.424  1.00  0.00    -0.200 F 
ENDBRANCH  50  74
BRANCH  62  85
ATOM     85  C   UNL A   1      44.822  27.230  34.123  1.00  0.00     0.064 A 
ATOM     86  C   UNL A   1      44.687  26.024  34.828  1.00  0.00     0.173 A 
ATOM     87  C   UNL A   1      46.085  27.841  34.107  1.00  0.00     0.173 A 
ATOM     88  F   UNL A   1      43.497  25.406  34.886  1.00  0.00    -0.203 F 
ATOM     89  C   UNL A   1      45.759  25.479  35.528  1.00  0.00     0.198 A 
ATOM     90  C   UNL A   1      47.165  27.273  34.777  1.00  0.00     0.198 A 
ATOM     91  F   UNL A   1      46.273  28.990  33.440  1.00  0.00    -0.203 F 
ATOM     92  F   UNL A   1      45.586  24.364  36.253  1.00  0.00    -0.200 F 
ATOM     93  C   UNL A   1      46.997  26.101  35.499  1.00  0.00     0.200 A 
ATOM     94  F   UNL A   1      48.365  27.868  34.735  1.00  0.00    -0.200 F 
ATOM     95  F   UNL A   1      48.028  25.578  36.177  1.00  0.00    -0.200 F 
ENDBRANCH  62  85
ENDBRANCH  36  37
ENDBRANCH  28  31
ENDBRANCH  26  27
ENDBRANCH  25  26
ENDBRANCH   1  25
TORSDOF 15
ENDMDL
MODEL 3
REMARK VINA RESULT:     -11.8      4.848     10.193
REMARK SMILES [NH3+][C@@](C(=O)NCCCCNC(=O)c1ccc(-c2c3nc(c(-c4c(F)c(F)c(F)c(F)c4F)c4ccc([nH]4)c(-c4c(F)c(F)c(F)c(F)c4F)c4nc(c(-c5c(F)c(F)c(F)c(F)c5F)c5ccc2[nH]5)C=C4)C=C3)cc1)(c1ccc([P@TB4](=O)([O-])[O-])cc1)C1CC1
REMARK SMILES IDX 7 1 6 2 5 3 3 4 4 5 2 7 1 8 76 12 77 13 85 14 78 15 84 16
REMARK SMILES IDX 79 17 80 18 81 19 82 20 83 21 86 22 87 23 88 24 8 25 9 26
REMARK SMILES IDX 10 27 11 28 12 30 13 31 14 32 75 33 15 34 74 35 16 36 17 37
REMARK SMILES IDX 18 38 68 39 19 40 73 41 67 42 69 43 20 44 72 45 66 46 65 47
REMARK SMILES IDX 21 49 53 50 33 51 52 52 34 53 37 54 51 55 70 56 35 57 36 58
REMARK SMILES IDX 50 60 71 61 38 62 22 63 23 64 31 65 24 66 25 67 29 68 32 69
REMARK SMILES IDX 26 70 27 71 30 72 28 73 54 74 55 75 63 76 56 77 57 78 61 79
REMARK SMILES IDX 64 80 58 81 59 82 62 83 60 84 39 85 40 86 48 87 41 88 42 89
REMARK SMILES IDX 46 90 49 91 43 92 44 93 47 94 45 95
REMARK H PARENT 5 6 1 9 1 10 1 11 10 29 69 48 37 59
REMARK Flexibility Score: inf
ROOT
ATOM      1  C   UNL A   1      36.092  22.805  23.402  1.00  0.00       nan C 
ENDROOT
BRANCH   1   2
ATOM      2  C   UNL A   1      34.825  23.650  23.292  1.00  0.00       nan C 
BRANCH   2   3
ATOM      3  N   UNL A   1      34.402  24.090  24.601  1.00  0.00       nan N 
ATOM      4  C   UNL A   1      33.177  24.120  25.200  1.00  0.00       nan C 
ATOM      5  O   UNL A   1      33.121  24.872  26.182  1.00  0.00       nan OA
ATOM      6  H   UNL A   1      35.134  24.430  25.165  1.00  0.00       nan HD
BRANCH   4   7
ATOM      7  C   UNL A   1      31.930  23.294  24.641  1.00  0.00       nan C 
BRANCH   7   8
ATOM      8  N   UNL A   1      30.814  23.475  25.611  1.00  0.00       nan N 
ATOM      9  H   UNL A   1      30.890  24.394  26.048  1.00  0.00       nan HD
ATOM     10  H   UNL A   1      30.866  22.752  26.328  1.00  0.00       nan HD
ATOM     11  H   UNL A   1      29.922  23.405  25.121  1.00  0.00       nan HD
ENDBRANCH   7   8
BRANCH   7  12
ATOM     12  C   UNL A   1      32.239  21.786  24.542  1.00  0.00       nan A 
ATOM     13  C   UNL A   1      32.172  21.112  23.304  1.00  0.00       nan A 
ATOM     14  C   UNL A   1      32.674  21.061  25.666  1.00  0.00       nan A 
ATOM     15  C   UNL A   1      32.507  19.769  23.195  1.00  0.00       nan A 
ATOM     16  C   UNL A   1      33.009  19.720  25.564  1.00  0.00       nan A 
ATOM     17  C   UNL A   1      32.937  19.075  24.326  1.00  0.00       nan A 
BRANCH  17  18
ATOM     18  P   UNL A   1      33.475  17.338  24.121  1.00  0.00       nan P 
ATOM     19  O   UNL A   1      33.247  17.338  22.603  1.00  0.00       nan OA
ATOM     20  O   UNL A   1      35.052  17.743  24.298  1.00  0.00       nan OA
ATOM     21  O   UNL A   1      33.983  15.696  23.927  1.00  0.00       nan OA
ENDBRANCH  17  18
ENDBRANCH   7  12
BRANCH   7  22
ATOM     22  C   UNL A   1      31.445  23.833  23.281  1.00  0.00       nan C 
ATOM     23  C   UNL A   1      30.229  24.731  23.147  1.00  0.00       nan C 
ATOM     24  C   UNL A   1      31.590  25.266  22.800  1.00  0.00       nan C 
ENDBRANCH   7  22
ENDBRANCH   4   7
ENDBRANCH   2   3
ENDBRANCH   1   2
BRANCH   1  25
ATOM     25  C   UNL A   1      36.026  21.726  24.484  1.00  0.00       nan C 
BRANCH  25  26
ATOM     26  C   UNL A   1      36.932  21.973  25.684  1.00  0.00       nan C 
BRANCH  26  27
ATOM     27  N   UNL A   1      37.967  20.959  25.820  1.00  0.00       inf N 
ATOM     28  C   UNL A   1      39.277  21.101  26.192  1.00  0.00     0.251 C 
ATOM     29  H   UNL A   1      37.685  20.038  25.615  1.00  0.00     0.163 HD
ATOM     30  O   UNL A   1      40.044  20.144  26.113  1.00  0.00    -0.269 OA
BRANCH  28  31
ATOM     31  C   UNL A   1      39.770  22.412  26.651  1.00  0.00     0.039 A 
ATOM     32  C   UNL A   1      40.775  22.440  27.618  1.00  0.00     0.014 A 
ATOM     33  C   UNL A   1      39.258  23.604  26.128  1.00  0.00     0.014 A 
ATOM     34  C   UNL A   1      41.306  23.663  28.021  1.00  0.00     0.010 A 
ATOM     35  C   UNL A   1      39.846  24.817  26.468  1.00  0.00     0.010 A 
ATOM     36  C   UNL A   1      40.872  24.859  27.422  1.00  0.00    -0.014 A 
BRANCH  36  37
ATOM     37  C   UNL A   1      41.510  26.149  27.785  1.00  0.00     0.031 A 
ATOM     38  C   UNL A   1      42.915  26.458  27.351  1.00  0.00     0.074 A 
ATOM     39  C   UNL A   1      40.816  27.036  28.523  1.00  0.00     0.049 A 
ATOM     40  N   UNL A   1      43.616  27.547  27.544  1.00  0.00    -0.248 NA
ATOM     41  C   UNL A   1      43.637  25.401  26.627  1.00  0.00     0.031 C 
ATOM     42  C   UNL A   1      39.472  26.816  29.064  1.00  0.00     0.029 A 
ATOM     43  N   UNL A   1      41.139  28.300  28.944  1.00  0.00    -0.354 N 
ATOM     44  C   UNL A   1      44.852  27.309  26.958  1.00  0.00     0.074 A 
ATOM     45  C   UNL A   1      44.834  25.949  26.468  1.00  0.00     0.031 C 
ATOM     46  C   UNL A   1      39.072  27.921  29.711  1.00  0.00     0.029 A 
ATOM     47  C   UNL A   1      40.141  28.913  29.661  1.00  0.00     0.049 A 
ATOM     48  H   UNL A   1      42.005  28.727  28.751  1.00  0.00     0.167 HD
ATOM     49  C   UNL A   1      45.895  28.161  26.812  1.00  0.00     0.037 A 
ATOM     50  C   UNL A   1      40.093  30.140  30.212  1.00  0.00     0.037 A 
ATOM     51  C   UNL A   1      45.907  29.516  27.298  1.00  0.00     0.049 A 
ATOM     52  C   UNL A   1      41.264  31.065  30.031  1.00  0.00     0.074 A 
ATOM     53  C   UNL A   1      46.901  30.470  27.173  1.00  0.00     0.029 A 
ATOM     54  N   UNL A   1      44.872  30.110  28.008  1.00  0.00    -0.354 N 
ATOM     55  N   UNL A   1      42.399  30.854  29.407  1.00  0.00    -0.248 NA
ATOM     56  C   UNL A   1      41.142  32.406  30.617  1.00  0.00     0.031 C 
ATOM     57  C   UNL A   1      46.488  31.626  27.846  1.00  0.00     0.029 A 
ATOM     58  C   UNL A   1      45.212  31.411  28.342  1.00  0.00     0.049 A 
ATOM     59  H   UNL A   1      44.023  29.670  28.240  1.00  0.00     0.167 HD
ATOM     60  C   UNL A   1      43.116  32.039  29.510  1.00  0.00     0.074 A 
ATOM     61  C   UNL A   1      42.272  32.975  30.223  1.00  0.00     0.031 C 
ATOM     62  C   UNL A   1      44.363  32.326  29.061  1.00  0.00     0.037 A 
BRANCH  49  63
ATOM     63  C   UNL A   1      47.106  27.657  26.080  1.00  0.00     0.064 A 
ATOM     64  C   UNL A   1      47.192  27.714  24.680  1.00  0.00     0.173 A 
ATOM     65  C   UNL A   1      48.213  27.159  26.783  1.00  0.00     0.173 A 
ATOM     66  F   UNL A   1      46.155  28.170  23.960  1.00  0.00    -0.203 F 
ATOM     67  C   UNL A   1      48.329  27.273  24.011  1.00  0.00     0.198 A 
ATOM     68  C   UNL A   1      49.362  26.747  26.112  1.00  0.00     0.198 A 
ATOM     69  F   UNL A   1      48.188  27.084  28.122  1.00  0.00    -0.203 F 
ATOM     70  F   UNL A   1      48.368  27.297  22.671  1.00  0.00    -0.200 F 
ATOM     71  C   UNL A   1      49.417  26.798  24.727  1.00  0.00     0.200 A 
ATOM     72  F   UNL A   1      50.418  26.301  26.806  1.00  0.00    -0.200 F 
ATOM     73  F   UNL A   1      50.517  26.385  24.083  1.00  0.00    -0.200 F 
ENDBRANCH  49  63
BRANCH  50  74
ATOM     74  C   UNL A   1      38.888  30.571  30.970  1.00  0.00     0.064 A 
ATOM     75  C   UNL A   1      37.780  31.130  30.316  1.00  0.00     0.173 A 
ATOM     76  C   UNL A   1      38.828  30.452  32.366  1.00  0.00     0.173 A 
ATOM     77  F   UNL A   1      37.794  31.280  28.983  1.00  0.00    -0.203 F 
ATOM     78  C   UNL A   1      36.675  31.584  31.033  1.00  0.00     0.198 A 
ATOM     79  C   UNL A   1      37.707  30.875  33.078  1.00  0.00     0.198 A 
ATOM     80  F   UNL A   1      39.856  29.916  33.039  1.00  0.00    -0.203 F 
ATOM     81  F   UNL A   1      35.656  32.170  30.388  1.00  0.00    -0.200 F 
ATOM     82  C   UNL A   1      36.637  31.452  32.412  1.00  0.00     0.200 A 
ATOM     83  F   UNL A   1      37.668  30.729  34.409  1.00  0.00    -0.200 F 
ATOM     84  F   UNL A   1      35.574  31.890  33.101  1.00  0.00    -0.200 F 
ENDBRANCH  50  74
BRANCH  62  85
ATOM     85  C   UNL A   1      44.873  33.716  29.319  1.00  0.00     0.064 A 
ATOM     86  C   UNL A   1      45.608  34.028  30.473  1.00  0.00     0.173 A 
ATOM     87  C   UNL A   1      44.624  34.748  28.401  1.00  0.00     0.173 A 
ATOM     88  F   UNL A   1      45.863  33.080  31.388  1.00  0.00    -0.203 F 
ATOM     89  C   UNL A   1      46.033  35.330  30.721  1.00  0.00     0.198 A 
ATOM     90  C   UNL A   1      45.083  36.041  28.635  1.00  0.00     0.198 A 
ATOM     91  F   UNL A   1      43.936  34.502  27.277  1.00  0.00    -0.203 F 
ATOM     92  F   UNL A   1      46.670  35.618  31.866  1.00  0.00    -0.200 F 
ATOM     93  C   UNL A   1      45.774  36.334  29.801  1.00  0.00     0.200 A 
ATOM     94  F   UNL A   1      44.845  37.007  27.738  1.00  0.00    -0.200 F 
ATOM     95  F   UNL A   1      46.179  37.588  30.044  1.00  0.00    -0.200 F 
ENDBRANCH  62  85
ENDBRANCH  36  37
ENDBRANCH  28  31
ENDBRANCH  26  27
ENDBRANCH  25  26
ENDBRANCH   1  25
TORSDOF 15
ENDMDL
