MODEL 1
REMARK VINA RESULT:     -12.5      0.000      0.000
REMARK SMILES CC[C@](C)(NC(=O)N1Cc2ccccc2C1)C(=O)NCCCCNC(=O)c1ccc(-c2c3nc(c(-c4c(F)c(F)c(F)c(F)c4F)c4ccc([nH]4)c(-c4c(F)c(F)c(F)c(F)c4F)c4nc(c(-c5c(F)c(F)c(F)c(F)c5F)c5ccc2[nH]5)C=C4)C=C3)cc1
REMARK SMILES IDX 22 1 21 2 20 3 19 4 17 5 18 6 3 8 4 9 2 10 1 11 5 12 6 13
REMARK SMILES IDX 7 15 8 16 9 17 16 18 10 19 15 20 11 21 14 22 12 23 13 24
REMARK SMILES IDX 23 25 24 26 25 27 26 29 27 30 28 31 89 32 29 33 88 34 30 35
REMARK SMILES IDX 31 36 32 37 82 38 33 39 87 40 81 41 83 42 34 43 86 44 80 45
REMARK SMILES IDX 79 46 35 48 67 49 47 50 66 51 48 52 51 53 65 54 84 55 49 56
REMARK SMILES IDX 50 57 64 59 85 60 52 61 36 62 37 63 45 64 38 65 39 66 43 67
REMARK SMILES IDX 46 68 40 69 41 70 44 71 42 72 68 73 69 74 77 75 70 76 71 77
REMARK SMILES IDX 75 78 78 79 72 80 73 81 76 82 74 83 53 84 54 85 62 86 55 87
REMARK SMILES IDX 56 88 60 89 63 90 57 91 58 92 61 93 59 94
REMARK H PARENT 19 7 5 14 24 28 83 47 51 58
REMARK Flexibility Score: inf
ROOT
ATOM      1  C   UNL A   1      38.127  19.655  24.744  1.00  0.00     0.023 C 
ENDROOT
BRANCH   1   2
ATOM      2  C   UNL A   1      36.710  20.158  25.002  1.00  0.00     0.023 C 
BRANCH   2   3
ATOM      3  C   UNL A   1      36.508  21.639  25.340  1.00  0.00     0.116 C 
BRANCH   3   4
ATOM      4  N   UNL A   1      35.565  21.969  26.395  1.00  0.00    -0.354 N 
ATOM      5  C   UNL A   1      34.196  21.971  26.450  1.00  0.00     0.245 C 
ATOM      6  O   UNL A   1      33.697  22.157  27.567  1.00  0.00    -0.272 OA
ATOM      7  H   UNL A   1      35.995  22.247  27.236  1.00  0.00     0.163 HD
BRANCH   5   8
ATOM      8  C   UNL A   1      33.311  21.665  25.215  1.00  0.00     0.117 C 
ATOM      9  C   UNL A   1      31.873  22.213  25.328  1.00  0.00     0.045 C 
BRANCH   8  10
ATOM     10  C   UNL A   1      33.193  20.100  25.173  1.00  0.00     0.035 C 
ATOM     11  C   UNL A   1      32.528  19.548  23.903  1.00  0.00     0.007 C 
ENDBRANCH   8  10
BRANCH   8  12
ATOM     12  N   UNL A   1      33.888  22.194  23.951  1.00  0.00    -0.324 N 
ATOM     13  C   UNL A   1      33.785  23.366  23.268  1.00  0.00     0.318 C 
ATOM     14  H   UNL A   1      34.481  21.548  23.506  1.00  0.00     0.166 HD
ATOM     15  O   UNL A   1      34.059  23.302  22.065  1.00  0.00    -0.249 OA
ATOM     16  N   UNL A   1      33.473  24.557  23.849  1.00  0.00    -0.316 N 
ATOM     17  C   UNL A   1      33.486  25.799  23.048  1.00  0.00     0.157 C 
ATOM     18  C   UNL A   1      33.320  24.877  25.255  1.00  0.00     0.157 C 
ATOM     19  C   UNL A   1      33.479  26.905  24.069  1.00  0.00    -0.023 A 
ATOM     20  C   UNL A   1      33.392  26.356  25.344  1.00  0.00    -0.023 A 
ATOM     21  C   UNL A   1      33.595  28.275  23.923  1.00  0.00     0.006 A 
ATOM     22  C   UNL A   1      33.471  27.118  26.499  1.00  0.00     0.006 A 
ATOM     23  C   UNL A   1      33.659  29.068  25.081  1.00  0.00     0.000 A 
ATOM     24  C   UNL A   1      33.612  28.492  26.361  1.00  0.00     0.000 A 
ENDBRANCH   8  12
ENDBRANCH   5   8
ENDBRANCH   3   4
ENDBRANCH   2   3
ENDBRANCH   1   2
BRANCH   1  25
ATOM     25  C   UNL A   1      39.178  20.085  25.750  1.00  0.00     0.116 C 
BRANCH  25  26
ATOM     26  N   UNL A   1      40.228  19.095  25.906  1.00  0.00    -0.352 N 
ATOM     27  C   UNL A   1      41.569  19.281  26.128  1.00  0.00     0.251 C 
ATOM     28  H   UNL A   1      39.937  18.157  25.844  1.00  0.00     0.163 HD
ATOM     29  O   UNL A   1      42.339  18.330  26.059  1.00  0.00    -0.269 OA
BRANCH  27  30
ATOM     30  C   UNL A   1      42.089  20.631  26.430  1.00  0.00     0.039 A 
ATOM     31  C   UNL A   1      42.421  21.476  25.367  1.00  0.00     0.014 A 
ATOM     32  C   UNL A   1      42.263  21.061  27.749  1.00  0.00     0.014 A 
ATOM     33  C   UNL A   1      42.885  22.766  25.627  1.00  0.00     0.010 A 
ATOM     34  C   UNL A   1      42.648  22.374  28.006  1.00  0.00     0.010 A 
ATOM     35  C   UNL A   1      42.977  23.235  26.948  1.00  0.00    -0.014 A 
BRANCH  35  36
ATOM     36  C   UNL A   1      43.439  24.614  27.243  1.00  0.00     0.031 A 
ATOM     37  C   UNL A   1      42.468  25.636  27.768  1.00  0.00     0.074 A 
ATOM     38  C   UNL A   1      44.715  24.960  26.989  1.00  0.00     0.049 A 
ATOM     39  N   UNL A   1      42.659  26.905  28.026  1.00  0.00    -0.248 NA
ATOM     40  C   UNL A   1      41.091  25.178  28.009  1.00  0.00     0.031 C 
ATOM     41  C   UNL A   1      45.739  24.072  26.439  1.00  0.00     0.029 A 
ATOM     42  N   UNL A   1      45.367  26.157  27.151  1.00  0.00    -0.354 N 
ATOM     43  C   UNL A   1      41.428  27.396  28.444  1.00  0.00     0.074 A 
ATOM     44  C   UNL A   1      40.484  26.304  28.350  1.00  0.00     0.031 C 
ATOM     45  C   UNL A   1      46.894  24.746  26.330  1.00  0.00     0.029 A 
ATOM     46  C   UNL A   1      46.684  26.123  26.764  1.00  0.00     0.049 A 
ATOM     47  H   UNL A   1      44.932  26.964  27.511  1.00  0.00     0.167 HD
ATOM     48  C   UNL A   1      41.120  28.637  28.889  1.00  0.00     0.037 A 
ATOM     49  C   UNL A   1      47.614  27.098  26.753  1.00  0.00     0.037 A 
ATOM     50  C   UNL A   1      42.070  29.713  29.004  1.00  0.00     0.049 A 
ATOM     51  C   UNL A   1      47.243  28.471  27.244  1.00  0.00     0.074 A 
ATOM     52  C   UNL A   1      41.871  30.990  29.498  1.00  0.00     0.029 A 
ATOM     53  N   UNL A   1      43.399  29.636  28.616  1.00  0.00    -0.354 N 
ATOM     54  N   UNL A   1      46.093  28.906  27.700  1.00  0.00    -0.248 NA
ATOM     55  C   UNL A   1      48.301  29.490  27.223  1.00  0.00     0.031 C 
ATOM     56  C   UNL A   1      43.067  31.701  29.362  1.00  0.00     0.029 A 
ATOM     57  C   UNL A   1      44.027  30.851  28.837  1.00  0.00     0.049 A 
ATOM     58  H   UNL A   1      43.834  28.836  28.241  1.00  0.00     0.167 HD
ATOM     59  C   UNL A   1      46.297  30.233  28.049  1.00  0.00     0.074 A 
ATOM     60  C   UNL A   1      47.685  30.531  27.766  1.00  0.00     0.031 C 
ATOM     61  C   UNL A   1      45.414  31.127  28.558  1.00  0.00     0.037 A 
BRANCH  48  62
ATOM     62  C   UNL A   1      39.697  28.899  29.289  1.00  0.00     0.064 A 
ATOM     63  C   UNL A   1      38.734  29.322  28.358  1.00  0.00     0.173 A 
ATOM     64  C   UNL A   1      39.278  28.688  30.612  1.00  0.00     0.173 A 
ATOM     65  F   UNL A   1      39.084  29.549  27.083  1.00  0.00    -0.203 F 
ATOM     66  C   UNL A   1      37.416  29.552  28.743  1.00  0.00     0.198 A 
ATOM     67  C   UNL A   1      37.952  28.889  30.986  1.00  0.00     0.198 A 
ATOM     68  F   UNL A   1      40.154  28.279  31.541  1.00  0.00    -0.203 F 
ATOM     69  F   UNL A   1      36.529  30.005  27.847  1.00  0.00    -0.200 F 
ATOM     70  C   UNL A   1      37.025  29.328  30.053  1.00  0.00     0.200 A 
ATOM     71  F   UNL A   1      37.572  28.656  32.250  1.00  0.00    -0.200 F 
ATOM     72  F   UNL A   1      35.753  29.541  30.420  1.00  0.00    -0.200 F 
ENDBRANCH  48  62
BRANCH  49  73
ATOM     73  C   UNL A   1      48.993  26.804  26.279  1.00  0.00     0.064 A 
ATOM     74  C   UNL A   1      49.352  27.004  24.939  1.00  0.00     0.173 A 
ATOM     75  C   UNL A   1      49.975  26.310  27.150  1.00  0.00     0.173 A 
ATOM     76  F   UNL A   1      48.442  27.455  24.062  1.00  0.00    -0.203 F 
ATOM     77  C   UNL A   1      50.632  26.697  24.482  1.00  0.00     0.198 A 
ATOM     78  C   UNL A   1      51.264  26.034  26.699  1.00  0.00     0.198 A 
ATOM     79  F   UNL A   1      49.685  26.107  28.443  1.00  0.00    -0.203 F 
ATOM     80  F   UNL A   1      50.932  26.847  23.185  1.00  0.00    -0.200 F 
ATOM     81  C   UNL A   1      51.588  26.218  25.364  1.00  0.00     0.200 A 
ATOM     82  F   UNL A   1      52.190  25.585  27.558  1.00  0.00    -0.200 F 
ATOM     83  F   UNL A   1      52.820  25.924  24.925  1.00  0.00    -0.200 F 
ENDBRANCH  49  73
BRANCH  61  84
ATOM     84  C   UNL A   1      45.930  32.501  28.879  1.00  0.00     0.064 A 
ATOM     85  C   UNL A   1      46.500  32.803  30.123  1.00  0.00     0.173 A 
ATOM     86  C   UNL A   1      45.886  33.516  27.911  1.00  0.00     0.173 A 
ATOM     87  F   UNL A   1      46.552  31.871  31.088  1.00  0.00    -0.203 F 
ATOM     88  C   UNL A   1      46.985  34.080  30.397  1.00  0.00     0.198 A 
ATOM     89  C   UNL A   1      46.402  34.782  28.177  1.00  0.00     0.198 A 
ATOM     90  F   UNL A   1      45.357  33.277  26.702  1.00  0.00    -0.203 F 
ATOM     91  F   UNL A   1      47.480  34.360  31.610  1.00  0.00    -0.200 F 
ATOM     92  C   UNL A   1      46.943  35.065  29.422  1.00  0.00     0.200 A 
ATOM     93  F   UNL A   1      46.375  35.727  27.227  1.00  0.00    -0.200 F 
ATOM     94  F   UNL A   1      47.418  36.291  29.684  1.00  0.00    -0.200 F 
ENDBRANCH  61  84
ENDBRANCH  35  36
ENDBRANCH  27  30
ENDBRANCH  25  26
ENDBRANCH   1  25
TORSDOF 13
ENDMDL
MODEL 2
REMARK VINA RESULT:     -12.5      4.921      9.574
REMARK SMILES CC[C@](C)(NC(=O)N1Cc2ccccc2C1)C(=O)NCCCCNC(=O)c1ccc(-c2c3nc(c(-c4c(F)c(F)c(F)c(F)c4F)c4ccc([nH]4)c(-c4c(F)c(F)c(F)c(F)c4F)c4nc(c(-c5c(F)c(F)c(F)c(F)c5F)c5ccc2[nH]5)C=C4)C=C3)cc1
REMARK SMILES IDX 22 1 21 2 20 3 19 4 17 5 18 6 3 8 4 9 2 10 1 11 5 12 6 13
REMARK SMILES IDX 7 15 8 16 9 17 16 18 10 19 15 20 11 21 14 22 12 23 13 24
REMARK SMILES IDX 23 25 24 26 25 27 26 29 27 30 28 31 89 32 29 33 88 34 30 35
REMARK SMILES IDX 31 36 32 37 82 38 33 39 87 40 81 41 83 42 34 43 86 44 80 45
REMARK SMILES IDX 79 46 35 48 67 49 47 50 66 51 48 52 51 53 65 54 84 55 49 56
REMARK SMILES IDX 50 57 64 59 85 60 52 61 36 62 37 63 45 64 38 65 39 66 43 67
REMARK SMILES IDX 46 68 40 69 41 70 44 71 42 72 68 73 69 74 77 75 70 76 71 77
REMARK SMILES IDX 75 78 78 79 72 80 73 81 76 82 74 83 53 84 54 85 62 86 55 87
REMARK SMILES IDX 56 88 60 89 63 90 57 91 58 92 61 93 59 94
REMARK H PARENT 19 7 5 14 24 28 83 47 51 58
REMARK Flexibility Score: inf
ROOT
ATOM      1  C   UNL A   1      34.408  33.135  29.905  1.00  0.00     0.023 C 
ENDROOT
BRANCH   1   2
ATOM      2  C   UNL A   1      35.659  32.920  30.752  1.00  0.00     0.023 C 
BRANCH   2   3
ATOM      3  C   UNL A   1      35.554  32.043  32.004  1.00  0.00     0.116 C 
BRANCH   3   4
ATOM      4  N   UNL A   1      35.590  32.703  33.298  1.00  0.00    -0.354 N 
ATOM      5  C   UNL A   1      36.508  32.706  34.314  1.00  0.00     0.245 C 
ATOM      6  O   UNL A   1      36.304  33.511  35.230  1.00  0.00    -0.272 OA
ATOM      7  H   UNL A   1      34.798  33.258  33.480  1.00  0.00     0.163 HD
BRANCH   5   8
ATOM      8  C   UNL A   1      37.785  31.826  34.287  1.00  0.00     0.117 C 
ATOM      9  C   UNL A   1      38.610  31.883  35.590  1.00  0.00     0.045 C 
BRANCH   8  10
ATOM     10  C   UNL A   1      38.685  32.444  33.159  1.00  0.00     0.035 C 
ATOM     11  C   UNL A   1      39.326  33.791  33.524  1.00  0.00     0.007 C 
ENDBRANCH   8  10
BRANCH   8  12
ATOM     12  N   UNL A   1      37.489  30.395  34.014  1.00  0.00    -0.324 N 
ATOM     13  C   UNL A   1      38.115  29.403  33.324  1.00  0.00     0.318 C 
ATOM     14  H   UNL A   1      36.647  30.097  34.426  1.00  0.00     0.166 HD
ATOM     15  O   UNL A   1      37.386  28.474  32.959  1.00  0.00    -0.249 OA
ATOM     16  N   UNL A   1      39.456  29.368  33.096  1.00  0.00    -0.316 N 
ATOM     17  C   UNL A   1      40.065  28.198  32.428  1.00  0.00     0.157 C 
ATOM     18  C   UNL A   1      40.494  30.241  33.607  1.00  0.00     0.157 C 
ATOM     19  C   UNL A   1      41.539  28.338  32.695  1.00  0.00    -0.023 A 
ATOM     20  C   UNL A   1      41.773  29.522  33.387  1.00  0.00    -0.023 A 
ATOM     21  C   UNL A   1      42.596  27.491  32.416  1.00  0.00     0.006 A 
ATOM     22  C   UNL A   1      43.023  29.878  33.868  1.00  0.00     0.006 A 
ATOM     23  C   UNL A   1      43.875  27.842  32.880  1.00  0.00     0.000 A 
ATOM     24  C   UNL A   1      44.084  29.020  33.614  1.00  0.00     0.000 A 
ENDBRANCH   8  12
ENDBRANCH   5   8
ENDBRANCH   3   4
ENDBRANCH   2   3
ENDBRANCH   1   2
BRANCH   1  25
ATOM     25  C   UNL A   1      34.510  32.717  28.451  1.00  0.00     0.116 C 
BRANCH  25  26
ATOM     26  N   UNL A   1      33.794  31.483  28.181  1.00  0.00    -0.352 N 
ATOM     27  C   UNL A   1      34.289  30.218  27.986  1.00  0.00     0.251 C 
ATOM     28  H   UNL A   1      32.815  31.566  28.129  1.00  0.00     0.163 HD
ATOM     29  O   UNL A   1      33.547  29.325  27.594  1.00  0.00    -0.269 OA
BRANCH  27  30
ATOM     30  C   UNL A   1      35.719  29.938  28.229  1.00  0.00     0.039 A 
ATOM     31  C   UNL A   1      36.624  30.106  27.177  1.00  0.00     0.014 A 
ATOM     32  C   UNL A   1      36.168  29.498  29.477  1.00  0.00     0.014 A 
ATOM     33  C   UNL A   1      37.984  29.877  27.391  1.00  0.00     0.010 A 
ATOM     34  C   UNL A   1      37.533  29.348  29.711  1.00  0.00     0.010 A 
ATOM     35  C   UNL A   1      38.453  29.522  28.666  1.00  0.00    -0.014 A 
BRANCH  35  36
ATOM     36  C   UNL A   1      39.898  29.302  28.920  1.00  0.00     0.031 A 
ATOM     37  C   UNL A   1      40.718  30.382  29.574  1.00  0.00     0.074 A 
ATOM     38  C   UNL A   1      40.483  28.159  28.516  1.00  0.00     0.049 A 
ATOM     39  N   UNL A   1      42.004  30.410  29.822  1.00  0.00    -0.248 NA
ATOM     40  C   UNL A   1      40.004  31.603  29.976  1.00  0.00     0.031 C 
ATOM     41  C   UNL A   1      39.803  27.059  27.832  1.00  0.00     0.029 A 
ATOM     42  N   UNL A   1      41.785  27.737  28.612  1.00  0.00    -0.354 N 
ATOM     43  C   UNL A   1      42.250  31.651  30.395  1.00  0.00     0.074 A 
ATOM     44  C   UNL A   1      40.995  32.370  30.403  1.00  0.00     0.031 C 
ATOM     45  C   UNL A   1      40.688  26.078  27.591  1.00  0.00     0.029 A 
ATOM     46  C   UNL A   1      42.003  26.496  28.065  1.00  0.00     0.049 A 
ATOM     47  H   UNL A   1      42.496  28.273  29.033  1.00  0.00     0.167 HD
ATOM     48  C   UNL A   1      43.413  32.137  30.890  1.00  0.00     0.037 A 
ATOM     49  C   UNL A   1      43.139  25.781  27.953  1.00  0.00     0.037 A 
ATOM     50  C   UNL A   1      44.654  31.407  30.902  1.00  0.00     0.049 A 
ATOM     51  C   UNL A   1      44.420  26.349  28.503  1.00  0.00     0.074 A 
ATOM     52  C   UNL A   1      45.874  31.788  31.433  1.00  0.00     0.029 A 
ATOM     53  N   UNL A   1      44.832  30.146  30.353  1.00  0.00    -0.354 N 
ATOM     54  N   UNL A   1      44.628  27.496  29.103  1.00  0.00    -0.248 NA
ATOM     55  C   UNL A   1      45.624  25.519  28.366  1.00  0.00     0.031 C 
ATOM     56  C   UNL A   1      46.802  30.779  31.160  1.00  0.00     0.029 A 
ATOM     57  C   UNL A   1      46.148  29.744  30.511  1.00  0.00     0.049 A 
ATOM     58  H   UNL A   1      44.128  29.614  29.916  1.00  0.00     0.167 HD
ATOM     59  C   UNL A   1      45.974  27.511  29.442  1.00  0.00     0.074 A 
ATOM     60  C   UNL A   1      46.532  26.253  28.994  1.00  0.00     0.031 C 
ATOM     61  C   UNL A   1      46.685  28.482  30.067  1.00  0.00     0.037 A 
BRANCH  48  62
ATOM     62  C   UNL A   1      43.399  33.524  31.466  1.00  0.00     0.064 A 
ATOM     63  C   UNL A   1      43.040  33.766  32.801  1.00  0.00     0.173 A 
ATOM     64  C   UNL A   1      43.786  34.623  30.684  1.00  0.00     0.173 A 
ATOM     65  F   UNL A   1      42.651  32.752  33.589  1.00  0.00    -0.203 F 
ATOM     66  C   UNL A   1      43.040  35.057  33.322  1.00  0.00     0.198 A 
ATOM     67  C   UNL A   1      43.816  35.909  31.218  1.00  0.00     0.198 A 
ATOM     68  F   UNL A   1      44.144  34.450  29.403  1.00  0.00    -0.203 F 
ATOM     69  F   UNL A   1      42.644  35.267  34.585  1.00  0.00    -0.200 F 
ATOM     70  C   UNL A   1      43.436  36.125  32.534  1.00  0.00     0.200 A 
ATOM     71  F   UNL A   1      44.214  36.939  30.459  1.00  0.00    -0.200 F 
ATOM     72  F   UNL A   1      43.445  37.367  33.040  1.00  0.00    -0.200 F 
ENDBRANCH  48  62
BRANCH  49  73
ATOM     73  C   UNL A   1      43.114  24.441  27.309  1.00  0.00     0.064 A 
ATOM     74  C   UNL A   1      43.442  24.285  25.955  1.00  0.00     0.173 A 
ATOM     75  C   UNL A   1      42.752  23.292  28.028  1.00  0.00     0.173 A 
ATOM     76  F   UNL A   1      43.774  25.357  25.220  1.00  0.00    -0.203 F 
ATOM     77  C   UNL A   1      43.385  23.037  25.339  1.00  0.00     0.198 A 
ATOM     78  C   UNL A   1      42.726  22.040  27.418  1.00  0.00     0.198 A 
ATOM     79  F   UNL A   1      42.434  23.385  29.327  1.00  0.00    -0.203 F 
ATOM     80  F   UNL A   1      43.653  22.926  24.030  1.00  0.00    -0.200 F 
ATOM     81  C   UNL A   1      43.033  21.915  26.073  1.00  0.00     0.200 A 
ATOM     82  F   UNL A   1      42.399  20.955  28.135  1.00  0.00    -0.200 F 
ATOM     83  F   UNL A   1      42.980  20.714  25.479  1.00  0.00    -0.200 F 
ENDBRANCH  49  73
BRANCH  61  84
ATOM     84  C   UNL A   1      48.136  28.207  30.339  1.00  0.00     0.064 A 
ATOM     85  C   UNL A   1      48.557  27.553  31.506  1.00  0.00     0.173 A 
ATOM     86  C   UNL A   1      49.114  28.568  29.399  1.00  0.00     0.173 A 
ATOM     87  F   UNL A   1      47.664  27.200  32.443  1.00  0.00    -0.203 F 
ATOM     88  C   UNL A   1      49.907  27.296  31.735  1.00  0.00     0.198 A 
ATOM     89  C   UNL A   1      50.458  28.280  29.616  1.00  0.00     0.198 A 
ATOM     90  F   UNL A   1      48.763  29.189  28.263  1.00  0.00    -0.203 F 
ATOM     91  F   UNL A   1      50.291  26.716  32.880  1.00  0.00    -0.200 F 
ATOM     92  C   UNL A   1      50.855  27.651  30.787  1.00  0.00     0.200 A 
ATOM     93  F   UNL A   1      51.370  28.609  28.690  1.00  0.00    -0.200 F 
ATOM     94  F   UNL A   1      52.152  27.394  31.004  1.00  0.00    -0.200 F 
ENDBRANCH  61  84
ENDBRANCH  35  36
ENDBRANCH  27  30
ENDBRANCH  25  26
ENDBRANCH   1  25
TORSDOF 13
ENDMDL
MODEL 3
REMARK VINA RESULT:     -12.5      0.152      1.599
REMARK SMILES CC[C@](C)(NC(=O)N1Cc2ccccc2C1)C(=O)NCCCCNC(=O)c1ccc(-c2c3nc(c(-c4c(F)c(F)c(F)c(F)c4F)c4ccc([nH]4)c(-c4c(F)c(F)c(F)c(F)c4F)c4nc(c(-c5c(F)c(F)c(F)c(F)c5F)c5ccc2[nH]5)C=C4)C=C3)cc1
REMARK SMILES IDX 22 1 21 2 20 3 19 4 17 5 18 6 3 8 4 9 2 10 1 11 5 12 6 13
REMARK SMILES IDX 7 15 8 16 9 17 16 18 10 19 15 20 11 21 14 22 12 23 13 24
REMARK SMILES IDX 23 25 24 26 25 27 26 29 27 30 28 31 89 32 29 33 88 34 30 35
REMARK SMILES IDX 31 36 32 37 82 38 33 39 87 40 81 41 83 42 34 43 86 44 80 45
REMARK SMILES IDX 79 46 35 48 67 49 47 50 66 51 48 52 51 53 65 54 84 55 49 56
REMARK SMILES IDX 50 57 64 59 85 60 52 61 36 62 37 63 45 64 38 65 39 66 43 67
REMARK SMILES IDX 46 68 40 69 41 70 44 71 42 72 68 73 69 74 77 75 70 76 71 77
REMARK SMILES IDX 75 78 78 79 72 80 73 81 76 82 74 83 53 84 54 85 62 86 55 87
REMARK SMILES IDX 56 88 60 89 63 90 57 91 58 92 61 93 59 94
REMARK H PARENT 19 7 5 14 24 28 83 47 51 58
REMARK Flexibility Score: inf
ROOT
ATOM      1  C   UNL A   1      38.152  19.578  24.755  1.00  0.00     0.023 C 
ENDROOT
BRANCH   1   2
ATOM      2  C   UNL A   1      36.738  20.095  25.001  1.00  0.00     0.023 C 
BRANCH   2   3
ATOM      3  C   UNL A   1      36.546  21.581  25.321  1.00  0.00     0.116 C 
BRANCH   3   4
ATOM      4  N   UNL A   1      35.611  21.931  26.377  1.00  0.00    -0.354 N 
ATOM      5  C   UNL A   1      34.243  21.958  26.434  1.00  0.00     0.245 C 
ATOM      6  O   UNL A   1      33.748  22.155  27.550  1.00  0.00    -0.272 OA
ATOM      7  H   UNL A   1      36.047  22.201  27.217  1.00  0.00     0.163 HD
BRANCH   5   8
ATOM      8  C   UNL A   1      33.351  21.667  25.200  1.00  0.00     0.117 C 
ATOM      9  C   UNL A   1      31.916  22.221  25.323  1.00  0.00     0.045 C 
BRANCH   8  10
ATOM     10  C   UNL A   1      33.223  20.103  25.146  1.00  0.00     0.035 C 
ATOM     11  C   UNL A   1      32.548  19.564  23.876  1.00  0.00     0.007 C 
ENDBRANCH   8  10
BRANCH   8  12
ATOM     12  N   UNL A   1      33.925  22.202  23.938  1.00  0.00    -0.324 N 
ATOM     13  C   UNL A   1      33.815  23.376  23.258  1.00  0.00     0.318 C 
ATOM     14  H   UNL A   1      34.522  21.561  23.491  1.00  0.00     0.166 HD
ATOM     15  O   UNL A   1      34.090  23.316  22.055  1.00  0.00    -0.249 OA
ATOM     16  N   UNL A   1      33.496  24.563  23.842  1.00  0.00    -0.316 N 
ATOM     17  C   UNL A   1      33.502  25.808  23.044  1.00  0.00     0.157 C 
ATOM     18  C   UNL A   1      33.340  24.879  25.248  1.00  0.00     0.157 C 
ATOM     19  C   UNL A   1      33.488  26.910  24.067  1.00  0.00    -0.023 A 
ATOM     20  C   UNL A   1      33.403  26.357  25.341  1.00  0.00    -0.023 A 
ATOM     21  C   UNL A   1      33.595  28.281  23.925  1.00  0.00     0.006 A 
ATOM     22  C   UNL A   1      33.476  27.118  26.498  1.00  0.00     0.006 A 
ATOM     23  C   UNL A   1      33.654  29.072  25.085  1.00  0.00     0.000 A 
ATOM     24  C   UNL A   1      33.610  28.492  26.363  1.00  0.00     0.000 A 
ENDBRANCH   8  12
ENDBRANCH   5   8
ENDBRANCH   3   4
ENDBRANCH   2   3
ENDBRANCH   1   2
BRANCH   1  25
ATOM     25  C   UNL A   1      39.200  20.004  25.766  1.00  0.00     0.116 C 
BRANCH  25  26
ATOM     26  N   UNL A   1      40.251  19.014  25.920  1.00  0.00    -0.352 N 
ATOM     27  C   UNL A   1      41.594  19.201  26.127  1.00  0.00     0.251 C 
ATOM     28  H   UNL A   1      39.959  18.076  25.868  1.00  0.00     0.163 HD
ATOM     29  O   UNL A   1      42.363  18.249  26.058  1.00  0.00    -0.269 OA
BRANCH  27  30
ATOM     30  C   UNL A   1      42.118  20.553  26.414  1.00  0.00     0.039 A 
ATOM     31  C   UNL A   1      42.468  21.378  25.341  1.00  0.00     0.014 A 
ATOM     32  C   UNL A   1      42.279  21.004  27.727  1.00  0.00     0.014 A 
ATOM     33  C   UNL A   1      42.936  22.670  25.586  1.00  0.00     0.010 A 
ATOM     34  C   UNL A   1      42.667  22.319  27.968  1.00  0.00     0.010 A 
ATOM     35  C   UNL A   1      43.014  23.161  26.900  1.00  0.00    -0.014 A 
BRANCH  35  36
ATOM     36  C   UNL A   1      43.480  24.541  27.178  1.00  0.00     0.031 A 
ATOM     37  C   UNL A   1      42.521  25.562  27.729  1.00  0.00     0.074 A 
ATOM     38  C   UNL A   1      44.747  24.891  26.887  1.00  0.00     0.049 A 
ATOM     39  N   UNL A   1      42.716  26.832  27.978  1.00  0.00    -0.248 NA
ATOM     40  C   UNL A   1      41.153  25.100  28.010  1.00  0.00     0.031 C 
ATOM     41  C   UNL A   1      45.757  24.004  26.310  1.00  0.00     0.029 A 
ATOM     42  N   UNL A   1      45.400  26.090  27.027  1.00  0.00    -0.354 N 
ATOM     43  C   UNL A   1      41.496  27.320  28.430  1.00  0.00     0.074 A 
ATOM     44  C   UNL A   1      40.553  26.225  28.365  1.00  0.00     0.031 C 
ATOM     45  C   UNL A   1      46.907  24.682  26.166  1.00  0.00     0.029 A 
ATOM     46  C   UNL A   1      46.705  26.059  26.603  1.00  0.00     0.049 A 
ATOM     47  H   UNL A   1      44.972  26.896  27.398  1.00  0.00     0.167 HD
ATOM     48  C   UNL A   1      41.197  28.561  28.880  1.00  0.00     0.037 A 
ATOM     49  C   UNL A   1      47.632  27.037  26.562  1.00  0.00     0.037 A 
ATOM     50  C   UNL A   1      42.146  29.640  28.966  1.00  0.00     0.049 A 
ATOM     51  C   UNL A   1      47.270  28.410  27.060  1.00  0.00     0.074 A 
ATOM     52  C   UNL A   1      41.957  30.918  29.462  1.00  0.00     0.029 A 
ATOM     53  N   UNL A   1      43.464  29.566  28.540  1.00  0.00    -0.354 N 
ATOM     54  N   UNL A   1      46.132  28.842  27.549  1.00  0.00    -0.248 NA
ATOM     55  C   UNL A   1      48.324  29.432  27.007  1.00  0.00     0.031 C 
ATOM     56  C   UNL A   1      43.147  31.633  29.290  1.00  0.00     0.029 A 
ATOM     57  C   UNL A   1      44.094  30.784  28.740  1.00  0.00     0.049 A 
ATOM     58  H   UNL A   1      43.890  28.767  28.154  1.00  0.00     0.167 HD
ATOM     59  C   UNL A   1      46.343  30.172  27.889  1.00  0.00     0.074 A 
ATOM     60  C   UNL A   1      47.721  30.472  27.565  1.00  0.00     0.031 C 
ATOM     61  C   UNL A   1      45.471  31.064  28.421  1.00  0.00     0.037 A 
BRANCH  48  62
ATOM     62  C   UNL A   1      39.785  28.820  29.321  1.00  0.00     0.064 A 
ATOM     63  C   UNL A   1      39.387  28.660  30.657  1.00  0.00     0.173 A 
ATOM     64  C   UNL A   1      38.824  29.272  28.403  1.00  0.00     0.173 A 
ATOM     65  F   UNL A   1      40.263  28.219  31.573  1.00  0.00    -0.203 F 
ATOM     66  C   UNL A   1      38.076  28.912  31.051  1.00  0.00     0.198 A 
ATOM     67  C   UNL A   1      37.522  29.555  28.807  1.00  0.00     0.198 A 
ATOM     68  F   UNL A   1      39.150  29.449  27.114  1.00  0.00    -0.203 F 
ATOM     69  F   UNL A   1      37.708  28.702  32.323  1.00  0.00    -0.200 F 
ATOM     70  C   UNL A   1      37.147  29.367  30.129  1.00  0.00     0.200 A 
ATOM     71  F   UNL A   1      36.630  30.010  27.916  1.00  0.00    -0.200 F 
ATOM     72  F   UNL A   1      35.888  29.619  30.511  1.00  0.00    -0.200 F 
ENDBRANCH  48  62
BRANCH  49  73
ATOM     73  C   UNL A   1      48.997  26.746  26.050  1.00  0.00     0.064 A 
ATOM     74  C   UNL A   1      49.992  26.238  26.897  1.00  0.00     0.173 A 
ATOM     75  C   UNL A   1      49.339  26.981  24.710  1.00  0.00     0.173 A 
ATOM     76  F   UNL A   1      49.719  26.017  28.192  1.00  0.00    -0.203 F 
ATOM     77  C   UNL A   1      51.282  25.999  26.430  1.00  0.00     0.198 A 
ATOM     78  C   UNL A   1      50.622  26.711  24.237  1.00  0.00     0.198 A 
ATOM     79  F   UNL A   1      48.424  27.462  23.857  1.00  0.00    -0.203 F 
ATOM     80  F   UNL A   1      52.227  25.562  27.274  1.00  0.00    -0.200 F 
ATOM     81  C   UNL A   1      51.594  26.229  25.099  1.00  0.00     0.200 A 
ATOM     82  F   UNL A   1      50.915  26.922  22.946  1.00  0.00    -0.200 F 
ATOM     83  F   UNL A   1      52.836  25.997  24.650  1.00  0.00    -0.200 F 
ENDBRANCH  49  73
BRANCH  61  84
ATOM     84  C   UNL A   1      45.992  32.440  28.723  1.00  0.00     0.064 A 
ATOM     85  C   UNL A   1      46.600  32.746  29.948  1.00  0.00     0.173 A 
ATOM     86  C   UNL A   1      45.915  33.454  27.755  1.00  0.00     0.173 A 
ATOM     87  F   UNL A   1      46.686  31.816  30.912  1.00  0.00    -0.203 F 
ATOM     88  C   UNL A   1      47.088  34.025  30.205  1.00  0.00     0.198 A 
ATOM     89  C   UNL A   1      46.433  34.722  28.003  1.00  0.00     0.198 A 
ATOM     90  F   UNL A   1      45.349  33.211  26.564  1.00  0.00    -0.203 F 
ATOM     91  F   UNL A   1      47.621  34.309  31.401  1.00  0.00    -0.200 F 
ATOM     92  C   UNL A   1      47.012  35.009  29.230  1.00  0.00     0.200 A 
ATOM     93  F   UNL A   1      46.373  35.665  27.053  1.00  0.00    -0.200 F 
ATOM     94  F   UNL A   1      47.491  36.236  29.475  1.00  0.00    -0.200 F 
ENDBRANCH  61  84
ENDBRANCH  35  36
ENDBRANCH  27  30
ENDBRANCH  25  26
ENDBRANCH   1  25
TORSDOF 13
ENDMDL
