MODEL 1
REMARK VINA RESULT:     -10.6      0.000      0.000
REMARK SMILES CCN(CCC(=O)NCCCCNC(=O)c1ccc(-c2c3nc(c(-c4c(F)c(F)c(F)c(F)c4F)c4ccc([nH]4)c(-c4c(F)c(F)c(F)c(F)c4F)c4nc(c(-c5c(F)c(F)c(F)c(F)c5F)c5ccc2[nH]5)C=C4)C=C3)cc1)S(=O)(=O)c1cn(CC)cn1
REMARK SMILES IDX 9 1 8 2 6 3 7 4 5 6 4 7 3 8 2 9 1 10 79 11 80 12 81 13 82 14
REMARK SMILES IDX 83 15 88 16 84 17 87 18 85 19 86 20 10 21 11 22 12 23 13 24
REMARK SMILES IDX 14 25 15 27 16 28 17 29 78 30 18 31 77 32 19 33 20 34 21 35
REMARK SMILES IDX 71 36 22 37 76 38 70 39 72 40 23 41 75 42 69 43 68 44 24 46
REMARK SMILES IDX 56 47 36 48 55 49 37 50 40 51 54 52 73 53 38 54 39 55 53 57
REMARK SMILES IDX 74 58 41 59 25 60 26 61 34 62 27 63 28 64 32 65 35 66 29 67
REMARK SMILES IDX 30 68 33 69 31 70 57 71 58 72 66 73 59 74 60 75 64 76 67 77
REMARK SMILES IDX 61 78 62 79 65 80 63 81 42 82 43 83 51 84 44 85 45 86 49 87
REMARK SMILES IDX 52 88 46 89 47 90 50 91 48 92
REMARK H PARENT 8 5 13 26 72 45 40 56
REMARK Flexibility Score: inf
ROOT
ATOM      1  C   UNL A   1      30.734  26.887  25.654  1.00  0.00     0.116 C 
ENDROOT
BRANCH   1   2
ATOM      2  N   UNL A   1      30.298  25.794  26.502  1.00  0.00    -0.356 N 
ATOM      3  C   UNL A   1      30.320  24.451  26.282  1.00  0.00     0.221 C 
ATOM      4  O   UNL A   1      29.981  23.699  27.199  1.00  0.00    -0.275 OA
ATOM      5  H   UNL A   1      29.929  26.066  27.373  1.00  0.00     0.163 HD
BRANCH   3   6
ATOM      6  C   UNL A   1      30.800  23.897  24.959  1.00  0.00     0.116 C 
BRANCH   6   7
ATOM      7  C   UNL A   1      32.311  23.670  24.994  1.00  0.00     0.112 C 
BRANCH   7   8
ATOM      8  N   UNL A   1      32.630  22.280  24.584  1.00  0.00    -0.196 NA
BRANCH   8   9
ATOM      9  C   UNL A   1      32.995  22.069  23.171  1.00  0.00     0.099 C 
ATOM     10  C   UNL A   1      33.989  23.147  22.754  1.00  0.00     0.022 C 
ENDBRANCH   8   9
BRANCH   8  11
ATOM     11  S   UNL A   1      33.329  21.259  25.743  1.00  0.00     0.262 S 
ATOM     12  O   UNL A   1      33.086  21.828  27.046  1.00  0.00    -0.205 OA
ATOM     13  O   UNL A   1      32.949  19.887  25.445  1.00  0.00    -0.205 OA
BRANCH  11  14
ATOM     14  C   UNL A   1      35.072  21.250  25.666  1.00  0.00     0.188 A 
ATOM     15  C   UNL A   1      35.872  22.305  26.063  1.00  0.00     0.129 A 
ATOM     16  N   UNL A   1      35.823  20.293  25.002  1.00  0.00    -0.224 NA
ATOM     17  N   UNL A   1      37.102  22.031  25.536  1.00  0.00    -0.336 N 
ATOM     18  C   UNL A   1      37.029  20.811  24.915  1.00  0.00     0.201 A 
BRANCH  17  19
ATOM     19  C   UNL A   1      38.223  22.947  25.497  1.00  0.00     0.120 C 
ATOM     20  C   UNL A   1      38.111  24.078  26.502  1.00  0.00     0.027 C 
ENDBRANCH  17  19
ENDBRANCH  11  14
ENDBRANCH   8  11
ENDBRANCH   7   8
ENDBRANCH   6   7
ENDBRANCH   3   6
ENDBRANCH   1   2
BRANCH   1  21
ATOM     21  C   UNL A   1      32.073  27.504  26.065  1.00  0.00     0.023 C 
BRANCH  21  22
ATOM     22  C   UNL A   1      33.082  27.659  24.925  1.00  0.00     0.023 C 
BRANCH  22  23
ATOM     23  C   UNL A   1      33.779  29.008  24.859  1.00  0.00     0.116 C 
BRANCH  23  24
ATOM     24  N   UNL A   1      32.975  30.078  25.422  1.00  0.00    -0.352 N 
ATOM     25  C   UNL A   1      33.160  30.772  26.593  1.00  0.00     0.251 C 
ATOM     26  H   UNL A   1      32.189  30.344  24.891  1.00  0.00     0.163 HD
ATOM     27  O   UNL A   1      32.297  31.552  26.986  1.00  0.00    -0.269 OA
BRANCH  25  28
ATOM     28  C   UNL A   1      34.387  30.573  27.403  1.00  0.00     0.039 A 
ATOM     29  C   UNL A   1      35.228  31.671  27.626  1.00  0.00     0.014 A 
ATOM     30  C   UNL A   1      34.739  29.318  27.904  1.00  0.00     0.014 A 
ATOM     31  C   UNL A   1      36.397  31.518  28.379  1.00  0.00     0.010 A 
ATOM     32  C   UNL A   1      35.874  29.177  28.700  1.00  0.00     0.010 A 
ATOM     33  C   UNL A   1      36.720  30.271  28.933  1.00  0.00    -0.014 A 
BRANCH  33  34
ATOM     34  C   UNL A   1      37.968  30.060  29.705  1.00  0.00     0.031 A 
ATOM     35  C   UNL A   1      39.055  29.197  29.130  1.00  0.00     0.074 A 
ATOM     36  C   UNL A   1      38.095  30.559  30.948  1.00  0.00     0.049 A 
ATOM     37  N   UNL A   1      40.119  28.705  29.710  1.00  0.00    -0.248 NA
ATOM     38  C   UNL A   1      38.902  28.804  27.719  1.00  0.00     0.031 C 
ATOM     39  C   UNL A   1      37.103  31.381  31.641  1.00  0.00     0.029 A 
ATOM     40  N   UNL A   1      39.116  30.429  31.856  1.00  0.00    -0.354 N 
ATOM     41  C   UNL A   1      40.713  27.879  28.766  1.00  0.00     0.074 A 
ATOM     42  C   UNL A   1      39.910  27.958  27.564  1.00  0.00     0.031 C 
ATOM     43  C   UNL A   1      37.571  31.695  32.861  1.00  0.00     0.029 A 
ATOM     44  C   UNL A   1      38.880  31.073  33.044  1.00  0.00     0.049 A 
ATOM     45  H   UNL A   1      39.939  29.921  31.673  1.00  0.00     0.167 HD
ATOM     46  C   UNL A   1      41.818  27.110  28.901  1.00  0.00     0.037 A 
ATOM     47  C   UNL A   1      39.635  31.146  34.156  1.00  0.00     0.037 A 
ATOM     48  C   UNL A   1      42.664  27.091  30.063  1.00  0.00     0.049 A 
ATOM     49  C   UNL A   1      40.956  30.435  34.207  1.00  0.00     0.074 A 
ATOM     50  C   UNL A   1      43.810  26.354  30.292  1.00  0.00     0.029 A 
ATOM     51  N   UNL A   1      42.466  27.885  31.181  1.00  0.00    -0.354 N 
ATOM     52  N   UNL A   1      41.488  29.624  33.327  1.00  0.00    -0.248 NA
ATOM     53  C   UNL A   1      41.783  30.653  35.401  1.00  0.00     0.031 C 
ATOM     54  C   UNL A   1      44.318  26.712  31.549  1.00  0.00     0.029 A 
ATOM     55  C   UNL A   1      43.490  27.680  32.092  1.00  0.00     0.049 A 
ATOM     56  H   UNL A   1      41.710  28.502  31.310  1.00  0.00     0.167 HD
ATOM     57  C   UNL A   1      42.709  29.237  33.855  1.00  0.00     0.074 A 
ATOM     58  C   UNL A   1      42.850  29.913  35.130  1.00  0.00     0.031 C 
ATOM     59  C   UNL A   1      43.624  28.384  33.337  1.00  0.00     0.037 A 
BRANCH  46  60
ATOM     60  C   UNL A   1      42.155  26.197  27.761  1.00  0.00     0.064 A 
ATOM     61  C   UNL A   1      43.028  26.587  26.741  1.00  0.00     0.173 A 
ATOM     62  C   UNL A   1      41.594  24.914  27.705  1.00  0.00     0.173 A 
ATOM     63  F   UNL A   1      43.569  27.815  26.744  1.00  0.00    -0.203 F 
ATOM     64  C   UNL A   1      43.316  25.725  25.685  1.00  0.00     0.198 A 
ATOM     65  C   UNL A   1      41.897  24.050  26.657  1.00  0.00     0.198 A 
ATOM     66  F   UNL A   1      40.749  24.500  28.661  1.00  0.00    -0.203 F 
ATOM     67  F   UNL A   1      44.126  26.129  24.694  1.00  0.00    -0.200 F 
ATOM     68  C   UNL A   1      42.753  24.457  25.646  1.00  0.00     0.200 A 
ATOM     69  F   UNL A   1      41.353  22.824  26.622  1.00  0.00    -0.200 F 
ATOM     70  F   UNL A   1      43.030  23.633  24.627  1.00  0.00    -0.200 F 
ENDBRANCH  46  60
BRANCH  47  71
ATOM     71  C   UNL A   1      39.166  31.959  35.303  1.00  0.00     0.064 A 
ATOM     72  C   UNL A   1      39.439  33.332  35.357  1.00  0.00     0.173 A 
ATOM     73  C   UNL A   1      38.425  31.389  36.343  1.00  0.00     0.173 A 
ATOM     74  F   UNL A   1      40.163  33.911  34.388  1.00  0.00    -0.203 F 
ATOM     75  C   UNL A   1      38.989  34.108  36.422  1.00  0.00     0.198 A 
ATOM     76  C   UNL A   1      37.966  32.169  37.402  1.00  0.00     0.198 A 
ATOM     77  F   UNL A   1      38.142  30.078  36.328  1.00  0.00    -0.203 F 
ATOM     78  F   UNL A   1      39.279  35.416  36.465  1.00  0.00    -0.200 F 
ATOM     79  C   UNL A   1      38.249  33.527  37.442  1.00  0.00     0.200 A 
ATOM     80  F   UNL A   1      37.248  31.607  38.385  1.00  0.00    -0.200 F 
ATOM     81  F   UNL A   1      37.815  34.274  38.465  1.00  0.00    -0.200 F 
ENDBRANCH  47  71
BRANCH  59  82
ATOM     82  C   UNL A   1      44.872  28.158  34.130  1.00  0.00     0.064 A 
ATOM     83  C   UNL A   1      46.006  28.957  33.938  1.00  0.00     0.173 A 
ATOM     84  C   UNL A   1      44.916  27.164  35.115  1.00  0.00     0.173 A 
ATOM     85  F   UNL A   1      46.007  29.914  32.997  1.00  0.00    -0.203 F 
ATOM     86  C   UNL A   1      47.150  28.764  34.706  1.00  0.00     0.198 A 
ATOM     87  C   UNL A   1      46.059  26.976  35.886  1.00  0.00     0.198 A 
ATOM     88  F   UNL A   1      43.852  26.374  35.326  1.00  0.00    -0.203 F 
ATOM     89  F   UNL A   1      48.232  29.527  34.499  1.00  0.00    -0.200 F 
ATOM     90  C   UNL A   1      47.175  27.775  35.681  1.00  0.00     0.200 A 
ATOM     91  F   UNL A   1      46.085  26.021  36.825  1.00  0.00    -0.200 F 
ATOM     92  F   UNL A   1      48.279  27.589  36.417  1.00  0.00    -0.200 F 
ENDBRANCH  59  82
ENDBRANCH  33  34
ENDBRANCH  25  28
ENDBRANCH  23  24
ENDBRANCH  22  23
ENDBRANCH  21  22
ENDBRANCH   1  21
TORSDOF 17
ENDMDL
MODEL 2
REMARK VINA RESULT:     -10.6      1.588      2.489
REMARK SMILES CCN(CCC(=O)NCCCCNC(=O)c1ccc(-c2c3nc(c(-c4c(F)c(F)c(F)c(F)c4F)c4ccc([nH]4)c(-c4c(F)c(F)c(F)c(F)c4F)c4nc(c(-c5c(F)c(F)c(F)c(F)c5F)c5ccc2[nH]5)C=C4)C=C3)cc1)S(=O)(=O)c1cn(CC)cn1
REMARK SMILES IDX 9 1 8 2 6 3 7 4 5 6 4 7 3 8 2 9 1 10 79 11 80 12 81 13 82 14
REMARK SMILES IDX 83 15 88 16 84 17 87 18 85 19 86 20 10 21 11 22 12 23 13 24
REMARK SMILES IDX 14 25 15 27 16 28 17 29 78 30 18 31 77 32 19 33 20 34 21 35
REMARK SMILES IDX 71 36 22 37 76 38 70 39 72 40 23 41 75 42 69 43 68 44 24 46
REMARK SMILES IDX 56 47 36 48 55 49 37 50 40 51 54 52 73 53 38 54 39 55 53 57
REMARK SMILES IDX 74 58 41 59 25 60 26 61 34 62 27 63 28 64 32 65 35 66 29 67
REMARK SMILES IDX 30 68 33 69 31 70 57 71 58 72 66 73 59 74 60 75 64 76 67 77
REMARK SMILES IDX 61 78 62 79 65 80 63 81 42 82 43 83 51 84 44 85 45 86 49 87
REMARK SMILES IDX 52 88 46 89 47 90 50 91 48 92
REMARK H PARENT 8 5 13 26 72 45 40 56
REMARK Flexibility Score: inf
ROOT
ATOM      1  C   UNL A   1      30.986  27.484  22.741  1.00  0.00     0.116 C 
ENDROOT
BRANCH   1   2
ATOM      2  N   UNL A   1      31.769  27.008  21.616  1.00  0.00    -0.356 N 
ATOM      3  C   UNL A   1      32.348  25.794  21.403  1.00  0.00     0.221 C 
ATOM      4  O   UNL A   1      32.891  25.585  20.315  1.00  0.00    -0.275 OA
ATOM      5  H   UNL A   1      31.901  27.664  20.895  1.00  0.00     0.163 HD
BRANCH   3   6
ATOM      6  C   UNL A   1      32.279  24.715  22.459  1.00  0.00     0.116 C 
BRANCH   6   7
ATOM      7  C   UNL A   1      33.676  24.180  22.767  1.00  0.00     0.112 C 
BRANCH   7   8
ATOM      8  N   UNL A   1      33.831  23.956  24.226  1.00  0.00    -0.196 NA
BRANCH   8   9
ATOM      9  C   UNL A   1      32.660  24.252  25.072  1.00  0.00     0.099 C 
ATOM     10  C   UNL A   1      32.944  25.511  25.882  1.00  0.00     0.022 C 
ENDBRANCH   8   9
BRANCH   8  11
ATOM     11  S   UNL A   1      34.876  22.719  24.725  1.00  0.00     0.262 S 
ATOM     12  O   UNL A   1      35.938  22.609  23.754  1.00  0.00    -0.205 OA
ATOM     13  O   UNL A   1      35.173  22.901  26.137  1.00  0.00    -0.205 OA
BRANCH  11  14
ATOM     14  C   UNL A   1      34.138  21.140  24.640  1.00  0.00     0.188 A 
ATOM     15  C   UNL A   1      34.775  19.966  24.995  1.00  0.00     0.129 A 
ATOM     16  N   UNL A   1      32.936  20.869  24.007  1.00  0.00    -0.224 NA
ATOM     17  N   UNL A   1      33.997  18.972  24.473  1.00  0.00    -0.336 N 
ATOM     18  C   UNL A   1      32.901  19.559  23.896  1.00  0.00     0.201 A 
BRANCH  17  19
ATOM     19  C   UNL A   1      34.360  17.572  24.396  1.00  0.00     0.120 C 
ATOM     20  C   UNL A   1      33.797  16.872  23.172  1.00  0.00     0.027 C 
ENDBRANCH  17  19
ENDBRANCH  11  14
ENDBRANCH   8  11
ENDBRANCH   7   8
ENDBRANCH   6   7
ENDBRANCH   3   6
ENDBRANCH   1   2
BRANCH   1  21
ATOM     21  C   UNL A   1      31.572  28.715  23.436  1.00  0.00     0.023 C 
BRANCH  21  22
ATOM     22  C   UNL A   1      33.093  28.690  23.606  1.00  0.00     0.023 C 
BRANCH  22  23
ATOM     23  C   UNL A   1      33.594  29.068  24.989  1.00  0.00     0.116 C 
BRANCH  23  24
ATOM     24  N   UNL A   1      32.863  30.185  25.561  1.00  0.00    -0.352 N 
ATOM     25  C   UNL A   1      33.142  30.910  26.695  1.00  0.00     0.251 C 
ATOM     26  H   UNL A   1      32.056  30.462  25.069  1.00  0.00     0.163 HD
ATOM     27  O   UNL A   1      32.331  31.733  27.111  1.00  0.00    -0.269 OA
BRANCH  25  28
ATOM     28  C   UNL A   1      34.408  30.693  27.438  1.00  0.00     0.039 A 
ATOM     29  C   UNL A   1      34.666  29.421  27.963  1.00  0.00     0.014 A 
ATOM     30  C   UNL A   1      35.315  31.732  27.659  1.00  0.00     0.014 A 
ATOM     31  C   UNL A   1      35.846  29.183  28.676  1.00  0.00     0.010 A 
ATOM     32  C   UNL A   1      36.515  31.482  28.321  1.00  0.00     0.010 A 
ATOM     33  C   UNL A   1      36.786  30.209  28.847  1.00  0.00    -0.014 A 
BRANCH  33  34
ATOM     34  C   UNL A   1      38.030  30.007  29.627  1.00  0.00     0.031 A 
ATOM     35  C   UNL A   1      39.122  29.142  29.063  1.00  0.00     0.074 A 
ATOM     36  C   UNL A   1      38.150  30.518  30.865  1.00  0.00     0.049 A 
ATOM     37  N   UNL A   1      40.185  28.658  29.653  1.00  0.00    -0.248 NA
ATOM     38  C   UNL A   1      38.976  28.736  27.656  1.00  0.00     0.031 C 
ATOM     39  C   UNL A   1      37.154  31.343  31.546  1.00  0.00     0.029 A 
ATOM     40  N   UNL A   1      39.168  30.398  31.779  1.00  0.00    -0.354 N 
ATOM     41  C   UNL A   1      40.784  27.825  28.719  1.00  0.00     0.074 A 
ATOM     42  C   UNL A   1      39.987  27.891  27.513  1.00  0.00     0.031 C 
ATOM     43  C   UNL A   1      37.615  31.669  32.766  1.00  0.00     0.029 A 
ATOM     44  C   UNL A   1      38.924  31.052  32.961  1.00  0.00     0.049 A 
ATOM     45  H   UNL A   1      39.993  29.891  31.604  1.00  0.00     0.167 HD
ATOM     46  C   UNL A   1      41.891  27.059  28.866  1.00  0.00     0.037 A 
ATOM     47  C   UNL A   1      39.674  31.137  34.075  1.00  0.00     0.037 A 
ATOM     48  C   UNL A   1      42.731  27.053  30.032  1.00  0.00     0.049 A 
ATOM     49  C   UNL A   1      40.997  30.429  34.138  1.00  0.00     0.074 A 
ATOM     50  C   UNL A   1      43.878  26.320  30.273  1.00  0.00     0.029 A 
ATOM     51  N   UNL A   1      42.526  27.856  31.142  1.00  0.00    -0.354 N 
ATOM     52  N   UNL A   1      41.534  29.612  33.268  1.00  0.00    -0.248 NA
ATOM     53  C   UNL A   1      41.818  30.659  35.334  1.00  0.00     0.031 C 
ATOM     54  C   UNL A   1      44.380  26.690  31.528  1.00  0.00     0.029 A 
ATOM     55  C   UNL A   1      43.546  27.661  32.060  1.00  0.00     0.049 A 
ATOM     56  H   UNL A   1      41.769  28.472  31.262  1.00  0.00     0.167 HD
ATOM     57  C   UNL A   1      42.754  29.231  33.805  1.00  0.00     0.074 A 
ATOM     58  C   UNL A   1      42.888  29.920  35.074  1.00  0.00     0.031 C 
ATOM     59  C   UNL A   1      43.673  28.376  33.299  1.00  0.00     0.037 A 
BRANCH  46  60
ATOM     60  C   UNL A   1      42.235  26.137  27.735  1.00  0.00     0.064 A 
ATOM     61  C   UNL A   1      41.625  24.887  27.597  1.00  0.00     0.173 A 
ATOM     62  C   UNL A   1      43.186  26.525  26.783  1.00  0.00     0.173 A 
ATOM     63  F   UNL A   1      40.726  24.466  28.500  1.00  0.00    -0.203 F 
ATOM     64  C   UNL A   1      41.971  24.041  26.545  1.00  0.00     0.198 A 
ATOM     65  C   UNL A   1      43.517  25.685  25.724  1.00  0.00     0.198 A 
ATOM     66  F   UNL A   1      43.798  27.715  26.879  1.00  0.00    -0.203 F 
ATOM     67  F   UNL A   1      41.404  22.829  26.447  1.00  0.00    -0.200 F 
ATOM     68  C   UNL A   1      42.913  24.442  25.608  1.00  0.00     0.200 A 
ATOM     69  F   UNL A   1      44.427  26.074  24.819  1.00  0.00    -0.200 F 
ATOM     70  F   UNL A   1      43.246  23.625  24.600  1.00  0.00    -0.200 F 
ENDBRANCH  46  60
BRANCH  47  71
ATOM     71  C   UNL A   1      39.199  31.958  35.212  1.00  0.00     0.064 A 
ATOM     72  C   UNL A   1      39.462  33.333  35.253  1.00  0.00     0.173 A 
ATOM     73  C   UNL A   1      38.460  31.394  36.258  1.00  0.00     0.173 A 
ATOM     74  F   UNL A   1      40.184  33.907  34.279  1.00  0.00    -0.203 F 
ATOM     75  C   UNL A   1      39.006  34.118  36.309  1.00  0.00     0.198 A 
ATOM     76  C   UNL A   1      37.994  32.183  37.307  1.00  0.00     0.198 A 
ATOM     77  F   UNL A   1      38.186  30.082  36.256  1.00  0.00    -0.203 F 
ATOM     78  F   UNL A   1      39.287  35.428  36.338  1.00  0.00    -0.200 F 
ATOM     79  C   UNL A   1      38.268  33.543  37.333  1.00  0.00     0.200 A 
ATOM     80  F   UNL A   1      37.278  31.627  38.295  1.00  0.00    -0.200 F 
ATOM     81  F   UNL A   1      37.827  34.298  38.348  1.00  0.00    -0.200 F 
ENDBRANCH  47  71
BRANCH  59  82
ATOM     82  C   UNL A   1      44.918  28.161  34.099  1.00  0.00     0.064 A 
ATOM     83  C   UNL A   1      46.051  28.960  33.904  1.00  0.00     0.173 A 
ATOM     84  C   UNL A   1      44.959  27.176  35.094  1.00  0.00     0.173 A 
ATOM     85  F   UNL A   1      46.055  29.906  32.954  1.00  0.00    -0.203 F 
ATOM     86  C   UNL A   1      47.193  28.775  34.679  1.00  0.00     0.198 A 
ATOM     87  C   UNL A   1      46.099  26.998  35.872  1.00  0.00     0.198 A 
ATOM     88  F   UNL A   1      43.896  26.387  35.309  1.00  0.00    -0.203 F 
ATOM     89  F   UNL A   1      48.275  29.538  34.469  1.00  0.00    -0.200 F 
ATOM     90  C   UNL A   1      47.215  27.797  35.664  1.00  0.00     0.200 A 
ATOM     91  F   UNL A   1      46.122  26.052  36.820  1.00  0.00    -0.200 F 
ATOM     92  F   UNL A   1      48.316  27.619  36.407  1.00  0.00    -0.200 F 
ENDBRANCH  59  82
ENDBRANCH  33  34
ENDBRANCH  25  28
ENDBRANCH  23  24
ENDBRANCH  22  23
ENDBRANCH  21  22
ENDBRANCH   1  21
TORSDOF 17
ENDMDL
MODEL 3
REMARK VINA RESULT:     -10.6      2.344      3.991
REMARK SMILES CCN(CCC(=O)NCCCCNC(=O)c1ccc(-c2c3nc(c(-c4c(F)c(F)c(F)c(F)c4F)c4ccc([nH]4)c(-c4c(F)c(F)c(F)c(F)c4F)c4nc(c(-c5c(F)c(F)c(F)c(F)c5F)c5ccc2[nH]5)C=C4)C=C3)cc1)S(=O)(=O)c1cn(CC)cn1
REMARK SMILES IDX 9 1 8 2 6 3 7 4 5 6 4 7 3 8 2 9 1 10 79 11 80 12 81 13 82 14
REMARK SMILES IDX 83 15 88 16 84 17 87 18 85 19 86 20 10 21 11 22 12 23 13 24
REMARK SMILES IDX 14 25 15 27 16 28 17 29 78 30 18 31 77 32 19 33 20 34 21 35
REMARK SMILES IDX 71 36 22 37 76 38 70 39 72 40 23 41 75 42 69 43 68 44 24 46
REMARK SMILES IDX 56 47 36 48 55 49 37 50 40 51 54 52 73 53 38 54 39 55 53 57
REMARK SMILES IDX 74 58 41 59 25 60 26 61 34 62 27 63 28 64 32 65 35 66 29 67
REMARK SMILES IDX 30 68 33 69 31 70 57 71 58 72 66 73 59 74 60 75 64 76 67 77
REMARK SMILES IDX 61 78 62 79 65 80 63 81 42 82 43 83 51 84 44 85 45 86 49 87
REMARK SMILES IDX 52 88 46 89 47 90 50 91 48 92
REMARK H PARENT 8 5 13 26 72 45 40 56
REMARK Flexibility Score: inf
ROOT
ATOM      1  C   UNL A   1      33.044  29.928  25.924  1.00  0.00     0.116 C 
ENDROOT
BRANCH   1   2
ATOM      2  N   UNL A   1      33.473  29.703  24.556  1.00  0.00    -0.356 N 
ATOM      3  C   UNL A   1      33.749  28.540  23.904  1.00  0.00     0.221 C 
ATOM      4  O   UNL A   1      34.007  28.589  22.699  1.00  0.00    -0.275 OA
ATOM      5  H   UNL A   1      33.578  30.518  24.015  1.00  0.00     0.163 HD
BRANCH   3   6
ATOM      6  C   UNL A   1      33.690  27.218  24.635  1.00  0.00     0.116 C 
BRANCH   6   7
ATOM      7  C   UNL A   1      32.716  26.268  23.940  1.00  0.00     0.112 C 
BRANCH   7   8
ATOM      8  N   UNL A   1      31.317  26.708  24.170  1.00  0.00    -0.196 NA
BRANCH   8   9
ATOM      9  C   UNL A   1      30.527  27.066  22.978  1.00  0.00     0.099 C 
ATOM     10  C   UNL A   1      30.166  28.545  23.053  1.00  0.00     0.022 C 
ENDBRANCH   8   9
BRANCH   8  11
ATOM     11  S   UNL A   1      30.494  26.048  25.497  1.00  0.00     0.262 S 
ATOM     12  O   UNL A   1      30.911  26.758  26.682  1.00  0.00    -0.205 OA
ATOM     13  O   UNL A   1      29.085  25.927  25.157  1.00  0.00    -0.205 OA
BRANCH  11  14
ATOM     14  C   UNL A   1      30.993  24.415  25.853  1.00  0.00     0.188 A 
ATOM     15  C   UNL A   1      31.906  24.079  26.836  1.00  0.00     0.129 A 
ATOM     16  N   UNL A   1      30.709  23.316  25.058  1.00  0.00    -0.224 NA
ATOM     17  N   UNL A   1      32.258  22.788  26.563  1.00  0.00    -0.336 N 
ATOM     18  C   UNL A   1      31.510  22.368  25.494  1.00  0.00     0.201 A 
BRANCH  17  19
ATOM     19  C   UNL A   1      33.347  22.064  27.184  1.00  0.00     0.120 C 
ATOM     20  C   UNL A   1      34.688  22.762  27.048  1.00  0.00     0.027 C 
ENDBRANCH  17  19
ENDBRANCH  11  14
ENDBRANCH   8  11
ENDBRANCH   7   8
ENDBRANCH   6   7
ENDBRANCH   3   6
ENDBRANCH   1   2
BRANCH   1  21
ATOM     21  C   UNL A   1      31.583  30.362  26.060  1.00  0.00     0.023 C 
BRANCH  21  22
ATOM     22  C   UNL A   1      31.385  31.821  26.478  1.00  0.00     0.023 C 
BRANCH  22  23
ATOM     23  C   UNL A   1      32.591  32.473  27.135  1.00  0.00     0.116 C 
BRANCH  23  24
ATOM     24  N   UNL A   1      32.347  33.858  27.497  1.00  0.00    -0.352 N 
ATOM     25  C   UNL A   1      32.972  34.623  28.451  1.00  0.00     0.251 C 
ATOM     26  H   UNL A   1      31.636  34.311  26.988  1.00  0.00     0.163 HD
ATOM     27  O   UNL A   1      32.538  35.740  28.722  1.00  0.00    -0.269 OA
BRANCH  25  28
ATOM     28  C   UNL A   1      34.159  34.106  29.177  1.00  0.00     0.039 A 
ATOM     29  C   UNL A   1      35.433  34.472  28.724  1.00  0.00     0.014 A 
ATOM     30  C   UNL A   1      34.032  33.235  30.261  1.00  0.00     0.014 A 
ATOM     31  C   UNL A   1      36.573  33.997  29.380  1.00  0.00     0.010 A 
ATOM     32  C   UNL A   1      35.166  32.806  30.948  1.00  0.00     0.010 A 
ATOM     33  C   UNL A   1      36.446  33.172  30.506  1.00  0.00    -0.014 A 
BRANCH  33  34
ATOM     34  C   UNL A   1      37.630  32.618  31.205  1.00  0.00     0.031 A 
ATOM     35  C   UNL A   1      38.437  31.535  30.547  1.00  0.00     0.074 A 
ATOM     36  C   UNL A   1      37.932  33.013  32.456  1.00  0.00     0.049 A 
ATOM     37  N   UNL A   1      39.365  30.765  31.055  1.00  0.00    -0.248 NA
ATOM     38  C   UNL A   1      38.131  31.257  29.134  1.00  0.00     0.031 C 
ATOM     39  C   UNL A   1      37.212  34.027  33.225  1.00  0.00     0.029 A 
ATOM     40  N   UNL A   1      38.923  32.589  33.305  1.00  0.00    -0.354 N 
ATOM     41  C   UNL A   1      39.689  29.859  30.056  1.00  0.00     0.074 A 
ATOM     42  C   UNL A   1      38.883  30.191  28.899  1.00  0.00     0.031 C 
ATOM     43  C   UNL A   1      37.794  34.158  34.429  1.00  0.00     0.029 A 
ATOM     44  C   UNL A   1      38.908  33.218  34.524  1.00  0.00     0.049 A 
ATOM     45  H   UNL A   1      39.582  31.899  33.063  1.00  0.00     0.167 HD
ATOM     46  C   UNL A   1      40.567  28.830  30.108  1.00  0.00     0.037 A 
ATOM     47  C   UNL A   1      39.702  33.049  35.597  1.00  0.00     0.037 A 
ATOM     48  C   UNL A   1      41.428  28.547  31.224  1.00  0.00     0.049 A 
ATOM     49  C   UNL A   1      40.800  32.026  35.556  1.00  0.00     0.074 A 
ATOM     50  C   UNL A   1      42.358  27.535  31.369  1.00  0.00     0.029 A 
ATOM     51  N   UNL A   1      41.485  29.314  32.376  1.00  0.00    -0.354 N 
ATOM     52  N   UNL A   1      41.071  31.147  34.625  1.00  0.00    -0.248 NA
ATOM     53  C   UNL A   1      41.705  31.974  36.713  1.00  0.00     0.031 C 
ATOM     54  C   UNL A   1      42.992  27.697  32.609  1.00  0.00     0.029 A 
ATOM     55  C   UNL A   1      42.460  28.817  33.226  1.00  0.00     0.049 A 
ATOM     56  H   UNL A   1      40.917  30.096  32.563  1.00  0.00     0.167 HD
ATOM     57  C   UNL A   1      42.174  30.440  35.076  1.00  0.00     0.074 A 
ATOM     58  C   UNL A   1      42.536  31.002  36.363  1.00  0.00     0.031 C 
ATOM     59  C   UNL A   1      42.820  29.408  34.485  1.00  0.00     0.037 A 
BRANCH  46  60
ATOM     60  C   UNL A   1      40.613  27.913  28.923  1.00  0.00     0.064 A 
ATOM     61  C   UNL A   1      39.814  26.768  28.850  1.00  0.00     0.173 A 
ATOM     62  C   UNL A   1      41.469  28.200  27.852  1.00  0.00     0.173 A 
ATOM     63  F   UNL A   1      38.997  26.445  29.864  1.00  0.00    -0.203 F 
ATOM     64  C   UNL A   1      39.884  25.924  27.744  1.00  0.00     0.198 A 
ATOM     65  C   UNL A   1      41.524  27.363  26.742  1.00  0.00     0.198 A 
ATOM     66  F   UNL A   1      42.256  29.286  27.882  1.00  0.00    -0.203 F 
ATOM     67  F   UNL A   1      39.138  24.809  27.705  1.00  0.00    -0.200 F 
ATOM     68  C   UNL A   1      40.735  26.224  26.690  1.00  0.00     0.200 A 
ATOM     69  F   UNL A   1      42.347  27.655  25.723  1.00  0.00    -0.200 F 
ATOM     70  F   UNL A   1      40.802  25.408  25.629  1.00  0.00    -0.200 F 
ENDBRANCH  46  60
BRANCH  47  71
ATOM     71  C   UNL A   1      39.504  33.902  36.792  1.00  0.00     0.064 A 
ATOM     72  C   UNL A   1      38.750  33.438  37.878  1.00  0.00     0.173 A 
ATOM     73  C   UNL A   1      40.078  35.175  36.880  1.00  0.00     0.173 A 
ATOM     74  F   UNL A   1      38.169  32.230  37.823  1.00  0.00    -0.203 F 
ATOM     75  C   UNL A   1      38.571  34.224  39.012  1.00  0.00     0.198 A 
ATOM     76  C   UNL A   1      39.908  35.956  38.021  1.00  0.00     0.198 A 
ATOM     77  F   UNL A   1      40.807  35.655  35.863  1.00  0.00    -0.203 F 
ATOM     78  F   UNL A   1      37.829  33.768  40.031  1.00  0.00    -0.200 F 
ATOM     79  C   UNL A   1      39.154  35.481  39.085  1.00  0.00     0.200 A 
ATOM     80  F   UNL A   1      40.474  37.169  38.092  1.00  0.00    -0.200 F 
ATOM     81  F   UNL A   1      38.984  36.237  40.178  1.00  0.00    -0.200 F 
ENDBRANCH  47  71
BRANCH  59  82
ATOM     82  C   UNL A   1      44.002  28.840  35.204  1.00  0.00     0.064 A 
ATOM     83  C   UNL A   1      43.850  27.817  36.149  1.00  0.00     0.173 A 
ATOM     84  C   UNL A   1      45.294  29.294  34.914  1.00  0.00     0.173 A 
ATOM     85  F   UNL A   1      42.628  27.363  36.462  1.00  0.00    -0.203 F 
ATOM     86  C   UNL A   1      44.959  27.270  36.788  1.00  0.00     0.198 A 
ATOM     87  C   UNL A   1      46.402  28.740  35.549  1.00  0.00     0.198 A 
ATOM     88  F   UNL A   1      45.481  30.275  34.019  1.00  0.00    -0.203 F 
ATOM     89  F   UNL A   1      44.795  26.302  37.701  1.00  0.00    -0.200 F 
ATOM     90  C   UNL A   1      46.234  27.729  36.486  1.00  0.00     0.200 A 
ATOM     91  F   UNL A   1      47.632  29.185  35.260  1.00  0.00    -0.200 F 
ATOM     92  F   UNL A   1      47.300  27.202  37.103  1.00  0.00    -0.200 F 
ENDBRANCH  59  82
ENDBRANCH  33  34
ENDBRANCH  25  28
ENDBRANCH  23  24
ENDBRANCH  22  23
ENDBRANCH  21  22
ENDBRANCH   1  21
TORSDOF 17
ENDMDL
