MODEL 1
REMARK VINA RESULT:     -11.5      0.000      0.000
REMARK SMILES [NH3+][C@H](CC(F)(F)C(F)(F)C(F)(F)C(F)(F)Cl)C(=O)NCCCCNC(=O)c1ccc(-c2c3nc(c(-c4c(F)c(F)c(F)c(F)c4F)c4ccc([nH]4)c(-c4c(F)c(F)c(F)c(F)c4F)c4nc(c(-c5c(F)c(F)c(F)c(F)c5F)c5ccc2[nH]5)C=C4)C=C3)cc1
REMARK SMILES IDX 20 1 19 2 17 3 18 4 2 6 1 7 3 11 4 12 5 13 6 14 7 15 8 16
REMARK SMILES IDX 9 17 10 18 11 19 12 20 13 21 14 22 15 23 16 24 21 25 22 26
REMARK SMILES IDX 23 27 24 28 25 29 26 31 27 32 28 33 89 34 29 35 88 36 30 37
REMARK SMILES IDX 31 38 32 39 82 40 33 41 87 42 81 43 83 44 34 45 86 46 80 47
REMARK SMILES IDX 79 48 35 50 67 51 47 52 66 53 48 54 51 55 65 56 84 57 49 58
REMARK SMILES IDX 50 59 64 61 85 62 52 63 36 64 37 65 45 66 38 67 39 68 43 69
REMARK SMILES IDX 46 70 40 71 41 72 44 73 42 74 68 75 69 76 77 77 70 78 71 79
REMARK SMILES IDX 75 80 78 81 72 82 73 83 76 84 74 85 53 86 54 87 62 88 55 89
REMARK SMILES IDX 56 90 60 91 63 92 57 93 58 94 61 95 59 96
REMARK H PARENT 19 5 1 8 1 9 1 10 24 30 83 49 51 60
REMARK Flexibility Score: inf
ROOT
ATOM      1  C   UNL A   1      33.073  29.481  26.212  1.00  0.00     0.116 C 
ENDROOT
BRANCH   1   2
ATOM      2  N   UNL A   1      33.280  29.680  24.794  1.00  0.00    -0.351 N 
ATOM      3  C   UNL A   1      33.196  28.822  23.739  1.00  0.00     0.278 C 
ATOM      4  O   UNL A   1      33.724  29.178  22.682  1.00  0.00    -0.268 OA
ATOM      5  H   UNL A   1      33.525  30.601  24.546  1.00  0.00     0.163 HD
BRANCH   3   6
ATOM      6  C   UNL A   1      32.383  27.510  23.819  1.00  0.00     0.277 C 
BRANCH   6   7
ATOM      7  N   UNL A   1      33.356  26.409  23.861  1.00  0.00    -0.347 N 
ATOM      8  H   UNL A   1      34.095  26.634  24.527  1.00  0.00     0.345 HD
ATOM      9  H   UNL A   1      33.762  26.279  22.935  1.00  0.00     0.345 HD
ATOM     10  H   UNL A   1      32.886  25.552  24.151  1.00  0.00     0.345 HD
ENDBRANCH   6   7
BRANCH   6  11
ATOM     11  C   UNL A   1      31.203  27.417  22.828  1.00  0.00     0.159 C 
BRANCH  11  12
ATOM     12  C   UNL A   1      29.923  28.101  23.300  1.00  0.00     0.323 C 
ATOM     13  F   UNL A   1      28.882  27.314  22.921  1.00  0.00    -0.199 F 
ATOM     14  F   UNL A   1      29.909  28.087  24.665  1.00  0.00    -0.199 F 
BRANCH  12  15
ATOM     15  C   UNL A   1      29.749  29.553  22.823  1.00  0.00     0.379 C 
ATOM     16  F   UNL A   1      30.470  30.383  23.630  1.00  0.00    -0.192 F 
ATOM     17  F   UNL A   1      30.298  29.729  21.589  1.00  0.00    -0.192 F 
BRANCH  15  18
ATOM     18  C   UNL A   1      28.288  29.950  22.782  1.00  0.00     0.392 C 
ATOM     19  F   UNL A   1      27.821  29.888  21.498  1.00  0.00    -0.191 F 
ATOM     20  F   UNL A   1      27.534  29.079  23.501  1.00  0.00    -0.191 F 
BRANCH  18  21
ATOM     21  C   UNL A   1      28.130  31.378  23.286  1.00  0.00     0.390 C 
ATOM     22  F   UNL A   1      26.902  31.578  23.827  1.00  0.00    -0.181 F 
ATOM     23  F   UNL A   1      29.027  31.638  24.278  1.00  0.00    -0.181 F 
ATOM     24  Cl  UNL A   1      28.387  32.579  21.994  1.00  0.00    -0.041 Cl
ENDBRANCH  18  21
ENDBRANCH  15  18
ENDBRANCH  12  15
ENDBRANCH  11  12
ENDBRANCH   6  11
ENDBRANCH   3   6
ENDBRANCH   1   2
BRANCH   1  25
ATOM     25  C   UNL A   1      31.709  30.050  26.617  1.00  0.00     0.023 C 
BRANCH  25  26
ATOM     26  C   UNL A   1      31.621  31.576  26.501  1.00  0.00     0.023 C 
BRANCH  26  27
ATOM     27  C   UNL A   1      32.851  32.319  27.005  1.00  0.00     0.116 C 
BRANCH  27  28
ATOM     28  N   UNL A   1      32.550  33.684  27.405  1.00  0.00    -0.352 N 
ATOM     29  C   UNL A   1      33.102  34.414  28.429  1.00  0.00     0.251 C 
ATOM     30  H   UNL A   1      31.861  34.145  26.873  1.00  0.00     0.163 HD
ATOM     31  O   UNL A   1      32.625  35.498  28.750  1.00  0.00    -0.269 OA
BRANCH  29  32
ATOM     32  C   UNL A   1      34.257  33.863  29.164  1.00  0.00     0.039 A 
ATOM     33  C   UNL A   1      34.029  32.968  30.211  1.00  0.00     0.014 A 
ATOM     34  C   UNL A   1      35.561  34.201  28.791  1.00  0.00     0.014 A 
ATOM     35  C   UNL A   1      35.114  32.365  30.848  1.00  0.00     0.010 A 
ATOM     36  C   UNL A   1      36.637  33.541  29.375  1.00  0.00     0.010 A 
ATOM     37  C   UNL A   1      36.425  32.619  30.411  1.00  0.00    -0.014 A 
BRANCH  37  38
ATOM     38  C   UNL A   1      37.587  31.928  31.025  1.00  0.00     0.031 A 
ATOM     39  C   UNL A   1      38.057  32.319  32.398  1.00  0.00     0.074 A 
ATOM     40  C   UNL A   1      38.254  30.992  30.322  1.00  0.00     0.049 A 
ATOM     41  N   UNL A   1      39.087  31.881  33.077  1.00  0.00    -0.248 NA
ATOM     42  C   UNL A   1      37.283  33.361  33.089  1.00  0.00     0.031 C 
ATOM     43  C   UNL A   1      37.925  30.563  28.962  1.00  0.00     0.029 A 
ATOM     44  N   UNL A   1      39.355  30.241  30.650  1.00  0.00    -0.354 N 
ATOM     45  C   UNL A   1      39.087  32.598  34.266  1.00  0.00     0.074 A 
ATOM     46  C   UNL A   1      37.996  33.543  34.191  1.00  0.00     0.031 C 
ATOM     47  C   UNL A   1      38.792  29.611  28.581  1.00  0.00     0.029 A 
ATOM     48  C   UNL A   1      39.760  29.392  29.650  1.00  0.00     0.049 A 
ATOM     49  H   UNL A   1      39.811  30.306  31.521  1.00  0.00     0.167 HD
ATOM     50  C   UNL A   1      39.908  32.460  35.335  1.00  0.00     0.037 A 
ATOM     51  C   UNL A   1      40.802  28.540  29.598  1.00  0.00     0.037 A 
ATOM     52  C   UNL A   1      40.984  31.507  35.411  1.00  0.00     0.049 A 
ATOM     53  C   UNL A   1      41.709  28.418  30.794  1.00  0.00     0.074 A 
ATOM     54  C   UNL A   1      41.841  31.255  36.467  1.00  0.00     0.029 A 
ATOM     55  N   UNL A   1      41.354  30.651  34.384  1.00  0.00    -0.354 N 
ATOM     56  N   UNL A   1      41.657  29.050  31.940  1.00  0.00    -0.248 NA
ATOM     57  C   UNL A   1      42.815  27.456  30.690  1.00  0.00     0.031 C 
ATOM     58  C   UNL A   1      42.762  30.284  36.063  1.00  0.00     0.029 A 
ATOM     59  C   UNL A   1      42.442  29.886  34.774  1.00  0.00     0.049 A 
ATOM     60  H   UNL A   1      40.909  30.594  33.507  1.00  0.00     0.167 HD
ATOM     61  C   UNL A   1      42.701  28.545  32.703  1.00  0.00     0.074 A 
ATOM     62  C   UNL A   1      43.359  27.539  31.895  1.00  0.00     0.031 C 
ATOM     63  C   UNL A   1      43.081  28.883  33.961  1.00  0.00     0.037 A 
BRANCH  50  64
ATOM     64  C   UNL A   1      39.670  33.362  36.513  1.00  0.00     0.064 A 
ATOM     65  C   UNL A   1      40.290  34.618  36.614  1.00  0.00     0.173 A 
ATOM     66  C   UNL A   1      38.787  32.984  37.535  1.00  0.00     0.173 A 
ATOM     67  F   UNL A   1      41.153  35.023  35.669  1.00  0.00    -0.203 F 
ATOM     68  C   UNL A   1      40.060  35.445  37.709  1.00  0.00     0.198 A 
ATOM     69  C   UNL A   1      38.533  33.830  38.612  1.00  0.00     0.198 A 
ATOM     70  F   UNL A   1      38.163  31.798  37.487  1.00  0.00    -0.203 F 
ATOM     71  F   UNL A   1      40.705  36.616  37.809  1.00  0.00    -0.200 F 
ATOM     72  C   UNL A   1      39.176  35.055  38.703  1.00  0.00     0.200 A 
ATOM     73  F   UNL A   1      37.667  33.457  39.565  1.00  0.00    -0.200 F 
ATOM     74  F   UNL A   1      38.948  35.856  39.752  1.00  0.00    -0.200 F 
ENDBRANCH  50  64
BRANCH  51  75
ATOM     75  C   UNL A   1      41.035  27.723  28.378  1.00  0.00     0.064 A 
ATOM     76  C   UNL A   1      40.431  26.467  28.223  1.00  0.00     0.173 A 
ATOM     77  C   UNL A   1      41.870  28.174  27.346  1.00  0.00     0.173 A 
ATOM     78  F   UNL A   1      39.639  25.982  29.191  1.00  0.00    -0.203 F 
ATOM     79  C   UNL A   1      40.673  25.684  27.096  1.00  0.00     0.198 A 
ATOM     80  C   UNL A   1      42.087  27.405  26.205  1.00  0.00     0.198 A 
ATOM     81  F   UNL A   1      42.468  29.372  27.440  1.00  0.00    -0.203 F 
ATOM     82  F   UNL A   1      40.124  24.466  26.999  1.00  0.00    -0.200 F 
ATOM     83  C   UNL A   1      41.497  26.156  26.085  1.00  0.00     0.200 A 
ATOM     84  F   UNL A   1      42.870  27.872  25.223  1.00  0.00    -0.200 F 
ATOM     85  F   UNL A   1      41.727  25.404  25.000  1.00  0.00    -0.200 F 
ENDBRANCH  51  75
BRANCH  63  86
ATOM     86  C   UNL A   1      44.238  28.133  34.557  1.00  0.00     0.064 A 
ATOM     87  C   UNL A   1      45.555  28.609  34.463  1.00  0.00     0.173 A 
ATOM     88  C   UNL A   1      44.020  26.942  35.266  1.00  0.00     0.173 A 
ATOM     89  F   UNL A   1      45.819  29.735  33.783  1.00  0.00    -0.203 F 
ATOM     90  C   UNL A   1      46.612  27.905  35.034  1.00  0.00     0.198 A 
ATOM     91  C   UNL A   1      45.075  26.259  35.864  1.00  0.00     0.198 A 
ATOM     92  F   UNL A   1      42.780  26.448  35.393  1.00  0.00    -0.203 F 
ATOM     93  F   UNL A   1      47.868  28.352  34.887  1.00  0.00    -0.200 F 
ATOM     94  C   UNL A   1      46.371  26.737  35.740  1.00  0.00     0.200 A 
ATOM     95  F   UNL A   1      44.837  25.140  36.562  1.00  0.00    -0.200 F 
ATOM     96  F   UNL A   1      47.389  26.066  36.297  1.00  0.00    -0.200 F 
ENDBRANCH  63  86
ENDBRANCH  37  38
ENDBRANCH  29  32
ENDBRANCH  27  28
ENDBRANCH  26  27
ENDBRANCH  25  26
ENDBRANCH   1  25
TORSDOF 17
ENDMDL
MODEL 2
REMARK VINA RESULT:     -11.5      5.296      7.967
REMARK SMILES [NH3+][C@H](CC(F)(F)C(F)(F)C(F)(F)C(F)(F)Cl)C(=O)NCCCCNC(=O)c1ccc(-c2c3nc(c(-c4c(F)c(F)c(F)c(F)c4F)c4ccc([nH]4)c(-c4c(F)c(F)c(F)c(F)c4F)c4nc(c(-c5c(F)c(F)c(F)c(F)c5F)c5ccc2[nH]5)C=C4)C=C3)cc1
REMARK SMILES IDX 20 1 19 2 17 3 18 4 2 6 1 7 3 11 4 12 5 13 6 14 7 15 8 16
REMARK SMILES IDX 9 17 10 18 11 19 12 20 13 21 14 22 15 23 16 24 21 25 22 26
REMARK SMILES IDX 23 27 24 28 25 29 26 31 27 32 28 33 89 34 29 35 88 36 30 37
REMARK SMILES IDX 31 38 32 39 82 40 33 41 87 42 81 43 83 44 34 45 86 46 80 47
REMARK SMILES IDX 79 48 35 50 67 51 47 52 66 53 48 54 51 55 65 56 84 57 49 58
REMARK SMILES IDX 50 59 64 61 85 62 52 63 36 64 37 65 45 66 38 67 39 68 43 69
REMARK SMILES IDX 46 70 40 71 41 72 44 73 42 74 68 75 69 76 77 77 70 78 71 79
REMARK SMILES IDX 75 80 78 81 72 82 73 83 76 84 74 85 53 86 54 87 62 88 55 89
REMARK SMILES IDX 56 90 60 91 63 92 57 93 58 94 61 95 59 96
REMARK H PARENT 19 5 1 8 1 9 1 10 24 30 83 49 51 60
REMARK Flexibility Score: inf
ROOT
ATOM      1  C   UNL A   1      33.064  36.020  29.144  1.00  0.00     0.116 C 
ENDROOT
BRANCH   1   2
ATOM      2  N   UNL A   1      33.346  36.993  30.178  1.00  0.00    -0.351 N 
ATOM      3  C   UNL A   1      33.160  36.958  31.527  1.00  0.00     0.278 C 
ATOM      4  O   UNL A   1      33.199  38.035  32.127  1.00  0.00    -0.268 OA
ATOM      5  H   UNL A   1      33.745  37.830  29.847  1.00  0.00     0.163 HD
BRANCH   3   6
ATOM      6  C   UNL A   1      33.018  35.625  32.295  1.00  0.00     0.277 C 
BRANCH   6   7
ATOM      7  N   UNL A   1      31.673  35.617  32.888  1.00  0.00    -0.347 N 
ATOM      8  H   UNL A   1      31.694  36.105  33.784  1.00  0.00     0.345 HD
ATOM      9  H   UNL A   1      31.372  34.654  33.033  1.00  0.00     0.345 HD
ATOM     10  H   UNL A   1      31.022  36.086  32.260  1.00  0.00     0.345 HD
ENDBRANCH   6   7
BRANCH   6  11
ATOM     11  C   UNL A   1      34.222  35.259  33.189  1.00  0.00     0.159 C 
BRANCH  11  12
ATOM     12  C   UNL A   1      34.686  33.810  33.066  1.00  0.00     0.323 C 
ATOM     13  F   UNL A   1      34.001  33.088  33.992  1.00  0.00    -0.199 F 
ATOM     14  F   UNL A   1      34.275  33.330  31.857  1.00  0.00    -0.199 F 
BRANCH  12  15
ATOM     15  C   UNL A   1      36.205  33.602  33.186  1.00  0.00     0.379 C 
ATOM     16  F   UNL A   1      36.852  34.654  32.605  1.00  0.00    -0.192 F 
ATOM     17  F   UNL A   1      36.602  33.647  34.487  1.00  0.00    -0.192 F 
BRANCH  15  18
ATOM     18  C   UNL A   1      36.633  32.284  32.577  1.00  0.00     0.392 C 
ATOM     19  F   UNL A   1      35.694  31.323  32.831  1.00  0.00    -0.191 F 
ATOM     20  F   UNL A   1      36.715  32.385  31.224  1.00  0.00    -0.191 F 
BRANCH  18  21
ATOM     21  C   UNL A   1      37.956  31.840  33.187  1.00  0.00     0.390 C 
ATOM     22  F   UNL A   1      38.481  30.785  32.516  1.00  0.00    -0.181 F 
ATOM     23  F   UNL A   1      38.879  32.839  33.105  1.00  0.00    -0.181 F 
ATOM     24  Cl  UNL A   1      37.788  31.398  34.905  1.00  0.00    -0.041 Cl
ENDBRANCH  18  21
ENDBRANCH  15  18
ENDBRANCH  12  15
ENDBRANCH  11  12
ENDBRANCH   6  11
ENDBRANCH   3   6
ENDBRANCH   1   2
BRANCH   1  25
ATOM     25  C   UNL A   1      34.135  34.926  29.161  1.00  0.00     0.023 C 
BRANCH  25  26
ATOM     26  C   UNL A   1      33.839  33.759  28.211  1.00  0.00     0.023 C 
BRANCH  26  27
ATOM     27  C   UNL A   1      34.761  32.558  28.381  1.00  0.00     0.116 C 
BRANCH  27  28
ATOM     28  N   UNL A   1      34.083  31.298  28.124  1.00  0.00    -0.352 N 
ATOM     29  C   UNL A   1      34.630  30.044  28.013  1.00  0.00     0.251 C 
ATOM     30  H   UNL A   1      33.105  31.351  28.015  1.00  0.00     0.163 HD
ATOM     31  O   UNL A   1      33.949  29.098  27.627  1.00  0.00    -0.269 OA
BRANCH  29  32
ATOM     32  C   UNL A   1      36.058  29.851  28.332  1.00  0.00     0.039 A 
ATOM     33  C   UNL A   1      36.410  29.365  29.592  1.00  0.00     0.014 A 
ATOM     34  C   UNL A   1      37.040  30.113  27.373  1.00  0.00     0.014 A 
ATOM     35  C   UNL A   1      37.747  29.085  29.872  1.00  0.00     0.010 A 
ATOM     36  C   UNL A   1      38.361  29.761  27.627  1.00  0.00     0.010 A 
ATOM     37  C   UNL A   1      38.729  29.246  28.880  1.00  0.00    -0.014 A 
BRANCH  37  38
ATOM     38  C   UNL A   1      40.146  28.881  29.134  1.00  0.00     0.031 A 
ATOM     39  C   UNL A   1      41.064  29.854  29.818  1.00  0.00     0.074 A 
ATOM     40  C   UNL A   1      40.618  27.697  28.695  1.00  0.00     0.049 A 
ATOM     41  N   UNL A   1      42.344  29.746  30.071  1.00  0.00    -0.248 NA
ATOM     42  C   UNL A   1      40.473  31.129  30.249  1.00  0.00     0.031 C 
ATOM     43  C   UNL A   1      39.837  26.691  27.974  1.00  0.00     0.029 A 
ATOM     44  N   UNL A   1      41.872  27.147  28.779  1.00  0.00    -0.354 N 
ATOM     45  C   UNL A   1      42.709  30.939  30.682  1.00  0.00     0.074 A 
ATOM     46  C   UNL A   1      41.533  31.780  30.704  1.00  0.00     0.031 C 
ATOM     47  C   UNL A   1      40.624  25.638  27.701  1.00  0.00     0.029 A 
ATOM     48  C   UNL A   1      41.971  25.910  28.190  1.00  0.00     0.049 A 
ATOM     49  H   UNL A   1      42.629  27.596  29.222  1.00  0.00     0.167 HD
ATOM     50  C   UNL A   1      43.910  31.289  31.202  1.00  0.00     0.037 A 
ATOM     51  C   UNL A   1      43.034  25.094  28.051  1.00  0.00     0.037 A 
ATOM     52  C   UNL A   1      45.074  30.442  31.190  1.00  0.00     0.049 A 
ATOM     53  C   UNL A   1      44.361  25.514  28.623  1.00  0.00     0.074 A 
ATOM     54  C   UNL A   1      46.322  30.684  31.734  1.00  0.00     0.029 A 
ATOM     55  N   UNL A   1      45.132  29.188  30.599  1.00  0.00    -0.354 N 
ATOM     56  N   UNL A   1      44.677  26.614  29.261  1.00  0.00    -0.248 NA
ATOM     57  C   UNL A   1      45.478  24.573  28.463  1.00  0.00     0.031 C 
ATOM     58  C   UNL A   1      47.152  29.601  31.427  1.00  0.00     0.029 A 
ATOM     59  C   UNL A   1      46.403  28.655  30.744  1.00  0.00     0.049 A 
ATOM     60  H   UNL A   1      44.381  28.743  30.143  1.00  0.00     0.167 HD
ATOM     61  C   UNL A   1      46.016  26.487  29.603  1.00  0.00     0.074 A 
ATOM     62  C   UNL A   1      46.450  25.193  29.117  1.00  0.00     0.031 C 
ATOM     63  C   UNL A   1      46.817  27.362  30.261  1.00  0.00     0.037 A 
BRANCH  50  64
ATOM     64  C   UNL A   1      44.023  32.648  31.831  1.00  0.00     0.064 A 
ATOM     65  C   UNL A   1      43.751  32.853  33.194  1.00  0.00     0.173 A 
ATOM     66  C   UNL A   1      44.442  33.753  31.075  1.00  0.00     0.173 A 
ATOM     67  F   UNL A   1      43.336  31.833  33.960  1.00  0.00    -0.203 F 
ATOM     68  C   UNL A   1      43.862  34.117  33.766  1.00  0.00     0.198 A 
ATOM     69  C   UNL A   1      44.586  35.009  31.659  1.00  0.00     0.198 A 
ATOM     70  F   UNL A   1      44.721  33.613  29.771  1.00  0.00    -0.203 F 
ATOM     71  F   UNL A   1      43.544  34.297  35.055  1.00  0.00    -0.200 F 
ATOM     72  C   UNL A   1      44.286  35.192  33.000  1.00  0.00     0.200 A 
ATOM     73  F   UNL A   1      45.010  36.045  30.921  1.00  0.00    -0.200 F 
ATOM     74  F   UNL A   1      44.402  36.407  33.554  1.00  0.00    -0.200 F 
ENDBRANCH  50  64
BRANCH  51  75
ATOM     75  C   UNL A   1      42.882  23.789  27.354  1.00  0.00     0.064 A 
ATOM     76  C   UNL A   1      43.249  23.642  26.009  1.00  0.00     0.173 A 
ATOM     77  C   UNL A   1      42.359  22.666  28.012  1.00  0.00     0.173 A 
ATOM     78  F   UNL A   1      43.735  24.692  25.330  1.00  0.00    -0.203 F 
ATOM     79  C   UNL A   1      43.076  22.430  25.343  1.00  0.00     0.198 A 
ATOM     80  C   UNL A   1      42.217  21.446  27.354  1.00  0.00     0.198 A 
ATOM     81  F   UNL A   1      41.998  22.750  29.302  1.00  0.00    -0.203 F 
ATOM     82  F   UNL A   1      43.387  22.332  24.043  1.00  0.00    -0.200 F 
ATOM     83  C   UNL A   1      42.566  21.332  26.018  1.00  0.00     0.200 A 
ATOM     84  F   UNL A   1      41.739  20.383  28.016  1.00  0.00    -0.200 F 
ATOM     85  F   UNL A   1      42.404  20.166  25.378  1.00  0.00    -0.200 F 
ENDBRANCH  51  75
BRANCH  63  86
ATOM     86  C   UNL A   1      48.232  26.936  30.529  1.00  0.00     0.064 A 
ATOM     87  C   UNL A   1      48.566  26.126  31.624  1.00  0.00     0.173 A 
ATOM     88  C   UNL A   1      49.261  27.312  29.652  1.00  0.00     0.173 A 
ATOM     89  F   UNL A   1      47.621  25.751  32.500  1.00  0.00    -0.203 F 
ATOM     90  C   UNL A   1      49.883  25.731  31.847  1.00  0.00     0.198 A 
ATOM     91  C   UNL A   1      50.571  26.887  29.859  1.00  0.00     0.198 A 
ATOM     92  F   UNL A   1      48.996  28.079  28.585  1.00  0.00    -0.203 F 
ATOM     93  F   UNL A   1      50.186  24.999  32.929  1.00  0.00    -0.200 F 
ATOM     94  C   UNL A   1      50.881  26.105  30.961  1.00  0.00     0.200 A 
ATOM     95  F   UNL A   1      51.532  27.235  28.992  1.00  0.00    -0.200 F 
ATOM     96  F   UNL A   1      52.146  25.715  31.172  1.00  0.00    -0.200 F 
ENDBRANCH  63  86
ENDBRANCH  37  38
ENDBRANCH  29  32
ENDBRANCH  27  28
ENDBRANCH  26  27
ENDBRANCH  25  26
ENDBRANCH   1  25
TORSDOF 17
ENDMDL
MODEL 3
REMARK VINA RESULT:     -11.5      1.090      7.499
REMARK SMILES [NH3+][C@H](CC(F)(F)C(F)(F)C(F)(F)C(F)(F)Cl)C(=O)NCCCCNC(=O)c1ccc(-c2c3nc(c(-c4c(F)c(F)c(F)c(F)c4F)c4ccc([nH]4)c(-c4c(F)c(F)c(F)c(F)c4F)c4nc(c(-c5c(F)c(F)c(F)c(F)c5F)c5ccc2[nH]5)C=C4)C=C3)cc1
REMARK SMILES IDX 20 1 19 2 17 3 18 4 2 6 1 7 3 11 4 12 5 13 6 14 7 15 8 16
REMARK SMILES IDX 9 17 10 18 11 19 12 20 13 21 14 22 15 23 16 24 21 25 22 26
REMARK SMILES IDX 23 27 24 28 25 29 26 31 27 32 28 33 89 34 29 35 88 36 30 37
REMARK SMILES IDX 31 38 32 39 82 40 33 41 87 42 81 43 83 44 34 45 86 46 80 47
REMARK SMILES IDX 79 48 35 50 67 51 47 52 66 53 48 54 51 55 65 56 84 57 49 58
REMARK SMILES IDX 50 59 64 61 85 62 52 63 36 64 37 65 45 66 38 67 39 68 43 69
REMARK SMILES IDX 46 70 40 71 41 72 44 73 42 74 68 75 69 76 77 77 70 78 71 79
REMARK SMILES IDX 75 80 78 81 72 82 73 83 76 84 74 85 53 86 54 87 62 88 55 89
REMARK SMILES IDX 56 90 60 91 63 92 57 93 58 94 61 95 59 96
REMARK H PARENT 19 5 1 8 1 9 1 10 24 30 83 49 51 60
REMARK Flexibility Score: inf
ROOT
ATOM      1  C   UNL A   1      31.916  29.548  26.937  1.00  0.00     0.116 C 
ENDROOT
BRANCH   1   2
ATOM      2  N   UNL A   1      32.859  28.656  26.295  1.00  0.00    -0.351 N 
ATOM      3  C   UNL A   1      32.675  27.595  25.462  1.00  0.00     0.278 C 
ATOM      4  O   UNL A   1      33.629  26.825  25.314  1.00  0.00    -0.268 OA
ATOM      5  H   UNL A   1      33.802  28.853  26.497  1.00  0.00     0.163 HD
BRANCH   3   6
ATOM      6  C   UNL A   1      31.375  27.414  24.647  1.00  0.00     0.277 C 
BRANCH   6   7
ATOM      7  N   UNL A   1      31.464  26.103  23.990  1.00  0.00    -0.347 N 
ATOM      8  H   UNL A   1      32.353  26.030  23.494  1.00  0.00     0.345 HD
ATOM      9  H   UNL A   1      30.696  26.003  23.325  1.00  0.00     0.345 HD
ATOM     10  H   UNL A   1      31.404  25.366  24.691  1.00  0.00     0.345 HD
ENDBRANCH   6   7
BRANCH   6  11
ATOM     11  C   UNL A   1      30.963  28.639  23.802  1.00  0.00     0.159 C 
BRANCH  11  12
ATOM     12  C   UNL A   1      29.584  28.529  23.157  1.00  0.00     0.323 C 
ATOM     13  F   UNL A   1      29.764  28.045  21.900  1.00  0.00    -0.199 F 
ATOM     14  F   UNL A   1      28.878  27.566  23.818  1.00  0.00    -0.199 F 
BRANCH  12  15
ATOM     15  C   UNL A   1      28.761  29.829  23.160  1.00  0.00     0.379 C 
ATOM     16  F   UNL A   1      27.492  29.559  23.580  1.00  0.00    -0.192 F 
ATOM     17  F   UNL A   1      29.239  30.705  24.086  1.00  0.00    -0.192 F 
BRANCH  15  18
ATOM     18  C   UNL A   1      28.765  30.488  21.797  1.00  0.00     0.392 C 
ATOM     19  F   UNL A   1      30.019  30.436  21.254  1.00  0.00    -0.191 F 
ATOM     20  F   UNL A   1      27.953  29.818  20.938  1.00  0.00    -0.191 F 
BRANCH  18  21
ATOM     21  C   UNL A   1      28.356  31.949  21.931  1.00  0.00     0.390 C 
ATOM     22  F   UNL A   1      27.419  32.113  22.898  1.00  0.00    -0.181 F 
ATOM     23  F   UNL A   1      29.422  32.712  22.304  1.00  0.00    -0.181 F 
ATOM     24  Cl  UNL A   1      27.721  32.612  20.403  1.00  0.00    -0.041 Cl
ENDBRANCH  18  21
ENDBRANCH  15  18
ENDBRANCH  12  15
ENDBRANCH  11  12
ENDBRANCH   6  11
ENDBRANCH   3   6
ENDBRANCH   1   2
BRANCH   1  25
ATOM     25  C   UNL A   1      31.775  30.828  26.108  1.00  0.00     0.023 C 
BRANCH  25  26
ATOM     26  C   UNL A   1      31.476  32.076  26.949  1.00  0.00     0.023 C 
BRANCH  26  27
ATOM     27  C   UNL A   1      32.712  32.843  27.401  1.00  0.00     0.116 C 
BRANCH  27  28
ATOM     28  N   UNL A   1      32.425  34.238  27.688  1.00  0.00    -0.352 N 
ATOM     29  C   UNL A   1      32.996  35.048  28.638  1.00  0.00     0.251 C 
ATOM     30  H   UNL A   1      31.730  34.657  27.129  1.00  0.00     0.163 HD
ATOM     31  O   UNL A   1      32.531  36.159  28.873  1.00  0.00    -0.269 OA
BRANCH  29  32
ATOM     32  C   UNL A   1      34.160  34.553  29.400  1.00  0.00     0.039 A 
ATOM     33  C   UNL A   1      33.952  33.976  30.653  1.00  0.00     0.014 A 
ATOM     34  C   UNL A   1      35.446  34.627  28.857  1.00  0.00     0.014 A 
ATOM     35  C   UNL A   1      35.030  33.415  31.339  1.00  0.00     0.010 A 
ATOM     36  C   UNL A   1      36.504  34.001  29.507  1.00  0.00     0.010 A 
ATOM     37  C   UNL A   1      36.308  33.392  30.755  1.00  0.00    -0.014 A 
BRANCH  37  38
ATOM     38  C   UNL A   1      37.451  32.732  31.436  1.00  0.00     0.031 A 
ATOM     39  C   UNL A   1      38.153  31.576  30.780  1.00  0.00     0.074 A 
ATOM     40  C   UNL A   1      37.816  33.135  32.668  1.00  0.00     0.049 A 
ATOM     41  N   UNL A   1      39.125  30.830  31.239  1.00  0.00    -0.248 NA
ATOM     42  C   UNL A   1      37.680  31.189  29.442  1.00  0.00     0.031 C 
ATOM     43  C   UNL A   1      37.179  34.211  33.429  1.00  0.00     0.029 A 
ATOM     44  N   UNL A   1      38.804  32.677  33.504  1.00  0.00    -0.354 N 
ATOM     45  C   UNL A   1      39.373  29.885  30.252  1.00  0.00     0.074 A 
ATOM     46  C   UNL A   1      38.409  30.110  29.198  1.00  0.00     0.031 C 
ATOM     47  C   UNL A   1      37.806  34.345  34.609  1.00  0.00     0.029 A 
ATOM     48  C   UNL A   1      38.859  33.340  34.706  1.00  0.00     0.049 A 
ATOM     49  H   UNL A   1      39.416  31.944  33.264  1.00  0.00     0.167 HD
ATOM     50  C   UNL A   1      40.337  28.933  30.217  1.00  0.00     0.037 A 
ATOM     51  C   UNL A   1      39.663  33.150  35.770  1.00  0.00     0.037 A 
ATOM     52  C   UNL A   1      41.304  28.722  31.262  1.00  0.00     0.049 A 
ATOM     53  C   UNL A   1      40.714  32.074  35.712  1.00  0.00     0.074 A 
ATOM     54  C   UNL A   1      42.350  27.818  31.299  1.00  0.00     0.029 A 
ATOM     55  N   UNL A   1      41.340  29.424  32.458  1.00  0.00    -0.354 N 
ATOM     56  N   UNL A   1      40.986  31.233  34.744  1.00  0.00    -0.248 NA
ATOM     57  C   UNL A   1      41.578  31.928  36.891  1.00  0.00     0.031 C 
ATOM     58  C   UNL A   1      42.987  27.936  32.539  1.00  0.00     0.029 A 
ATOM     59  C   UNL A   1      42.376  28.957  33.250  1.00  0.00     0.049 A 
ATOM     60  H   UNL A   1      40.720  30.148  32.707  1.00  0.00     0.167 HD
ATOM     61  C   UNL A   1      42.065  30.479  35.184  1.00  0.00     0.074 A 
ATOM     62  C   UNL A   1      42.411  30.975  36.500  1.00  0.00     0.031 C 
ATOM     63  C   UNL A   1      42.713  29.466  34.555  1.00  0.00     0.037 A 
BRANCH  50  64
ATOM     64  C   UNL A   1      40.393  28.048  29.004  1.00  0.00     0.064 A 
ATOM     65  C   UNL A   1      39.684  26.836  28.945  1.00  0.00     0.173 A 
ATOM     66  C   UNL A   1      41.135  28.427  27.876  1.00  0.00     0.173 A 
ATOM     67  F   UNL A   1      38.968  26.420  30.001  1.00  0.00    -0.203 F 
ATOM     68  C   UNL A   1      39.742  26.026  27.815  1.00  0.00     0.198 A 
ATOM     69  C   UNL A   1      41.162  27.630  26.734  1.00  0.00     0.198 A 
ATOM     70  F   UNL A   1      41.826  29.576  27.876  1.00  0.00    -0.203 F 
ATOM     71  F   UNL A   1      39.100  24.849  27.803  1.00  0.00    -0.200 F 
ATOM     72  C   UNL A   1      40.474  26.426  26.708  1.00  0.00     0.200 A 
ATOM     73  F   UNL A   1      41.859  28.025  25.659  1.00  0.00    -0.200 F 
ATOM     74  F   UNL A   1      40.522  25.649  25.617  1.00  0.00    -0.200 F 
ENDBRANCH  50  64
BRANCH  51  75
ATOM     75  C   UNL A   1      39.516  34.009  36.975  1.00  0.00     0.064 A 
ATOM     76  C   UNL A   1      40.142  35.261  37.051  1.00  0.00     0.173 A 
ATOM     77  C   UNL A   1      38.756  33.593  38.078  1.00  0.00     0.173 A 
ATOM     78  F   UNL A   1      40.896  35.694  36.030  1.00  0.00    -0.203 F 
ATOM     79  C   UNL A   1      40.034  36.053  38.192  1.00  0.00     0.198 A 
ATOM     80  C   UNL A   1      38.622  34.400  39.206  1.00  0.00     0.198 A 
ATOM     81  F   UNL A   1      38.130  32.406  38.056  1.00  0.00    -0.203 F 
ATOM     82  F   UNL A   1      40.685  37.222  38.257  1.00  0.00    -0.200 F 
ATOM     83  C   UNL A   1      39.269  35.624  39.267  1.00  0.00     0.200 A 
ATOM     84  F   UNL A   1      37.868  33.989  40.236  1.00  0.00    -0.200 F 
ATOM     85  F   UNL A   1      39.163  36.388  40.362  1.00  0.00    -0.200 F 
ENDBRANCH  51  75
BRANCH  63  86
ATOM     86  C   UNL A   1      43.886  28.852  35.264  1.00  0.00     0.064 A 
ATOM     87  C   UNL A   1      45.186  29.357  35.117  1.00  0.00     0.173 A 
ATOM     88  C   UNL A   1      43.697  27.768  36.135  1.00  0.00     0.173 A 
ATOM     89  F   UNL A   1      45.422  30.383  34.285  1.00  0.00    -0.203 F 
ATOM     90  C   UNL A   1      46.258  28.781  35.794  1.00  0.00     0.198 A 
ATOM     91  C   UNL A   1      44.766  27.217  36.836  1.00  0.00     0.198 A 
ATOM     92  F   UNL A   1      42.473  27.252  36.319  1.00  0.00    -0.203 F 
ATOM     93  F   UNL A   1      47.500  29.247  35.597  1.00  0.00    -0.200 F 
ATOM     94  C   UNL A   1      46.046  27.718  36.658  1.00  0.00     0.200 A 
ATOM     95  F   UNL A   1      44.556  26.200  37.684  1.00  0.00    -0.200 F 
ATOM     96  F   UNL A   1      47.078  27.172  37.316  1.00  0.00    -0.200 F 
ENDBRANCH  63  86
ENDBRANCH  37  38
ENDBRANCH  29  32
ENDBRANCH  27  28
ENDBRANCH  26  27
ENDBRANCH  25  26
ENDBRANCH   1  25
TORSDOF 17
ENDMDL
