MODEL 1
REMARK VINA RESULT:     -10.8      0.000      0.000
REMARK SMILES CN(CC(C)(C)O)S(=O)(=O)CCCC(=O)NCCCCNC(=O)c1ccc(-c2c3nc(c(-c4c(F)c(F)c(F)c(F)c4F)c4ccc([nH]4)c(-c4c(F)c(F)c(F)c(F)c4F)c4nc(c(-c5c(F)c(F)c(F)c(F)c5F)c5ccc2[nH]5)C=C4)C=C3)cc1
REMARK SMILES IDX 14 1 15 2 16 3 13 5 12 6 11 7 8 8 9 9 10 10 2 11 1 12 3 13
REMARK SMILES IDX 4 14 5 15 6 16 7 17 17 19 18 20 19 21 20 22 21 23 22 24
REMARK SMILES IDX 23 26 24 27 25 28 86 29 26 30 85 31 27 32 28 33 29 34 79 35
REMARK SMILES IDX 30 36 84 37 78 38 80 39 31 40 83 41 77 42 76 43 32 45 64 46
REMARK SMILES IDX 44 47 63 48 45 49 48 50 62 51 81 52 46 53 47 54 61 56 82 57
REMARK SMILES IDX 49 58 33 59 34 60 42 61 35 62 36 63 40 64 43 65 37 66 38 67
REMARK SMILES IDX 41 68 39 69 65 70 66 71 74 72 67 73 68 74 72 75 75 76 69 77
REMARK SMILES IDX 70 78 73 79 71 80 50 81 51 82 59 83 52 84 53 85 57 86 60 87
REMARK SMILES IDX 54 88 55 89 58 90 56 91
REMARK H PARENT 16 4 7 18 21 25 80 44 48 55
REMARK Flexibility Score: inf
ROOT
ATOM      1  C   UNL A   1      33.742  28.303  24.564  1.00  0.00     0.220 C 
ATOM      2  O   UNL A   1      33.843  28.537  23.356  1.00  0.00    -0.275 OA
ATOM      3  N   UNL A   1      34.078  29.312  25.413  1.00  0.00    -0.356 N 
ATOM      4  H   UNL A   1      34.477  30.092  24.964  1.00  0.00     0.163 HD
ENDROOT
BRANCH   1   5
ATOM      5  C   UNL A   1      33.231  26.950  25.037  1.00  0.00     0.101 C 
BRANCH   5   6
ATOM      6  C   UNL A   1      31.985  26.415  24.337  1.00  0.00     0.027 C 
BRANCH   6   7
ATOM      7  C   UNL A   1      30.672  27.131  24.591  1.00  0.00     0.155 C 
BRANCH   7   8
ATOM      8  S   UNL A   1      29.739  27.789  23.209  1.00  0.00     0.213 S 
ATOM      9  O   UNL A   1      28.398  27.263  23.353  1.00  0.00    -0.212 OA
ATOM     10  O   UNL A   1      30.506  27.461  22.023  1.00  0.00    -0.212 OA
BRANCH   8  11
ATOM     11  N   UNL A   1      29.645  29.467  23.274  1.00  0.00    -0.202 NA
ATOM     12  C   UNL A   1      30.585  30.067  24.258  1.00  0.00     0.124 C 
BRANCH  11  13
ATOM     13  C   UNL A   1      29.433  30.373  22.110  1.00  0.00     0.136 C 
BRANCH  13  14
ATOM     14  C   UNL A   1      28.348  31.479  22.135  1.00  0.00     0.073 C 
ATOM     15  C   UNL A   1      28.822  32.819  22.685  1.00  0.00     0.043 C 
ATOM     16  C   UNL A   1      27.869  31.694  20.683  1.00  0.00     0.043 C 
BRANCH  14  17
ATOM     17  O   UNL A   1      27.205  31.039  22.874  1.00  0.00    -0.389 OA
ATOM     18  H   UNL A   1      26.773  31.804  23.286  1.00  0.00     0.211 HD
ENDBRANCH  14  17
ENDBRANCH  13  14
ENDBRANCH  11  13
ENDBRANCH   8  11
ENDBRANCH   7   8
ENDBRANCH   6   7
ENDBRANCH   5   6
ENDBRANCH   1   5
BRANCH   3  19
ATOM     19  C   UNL A   1      33.962  29.459  26.847  1.00  0.00     0.116 C 
BRANCH  19  20
ATOM     20  C   UNL A   1      32.572  29.919  27.293  1.00  0.00     0.023 C 
BRANCH  20  21
ATOM     21  C   UNL A   1      32.250  31.369  26.931  1.00  0.00     0.023 C 
BRANCH  21  22
ATOM     22  C   UNL A   1      33.221  32.412  27.482  1.00  0.00     0.116 C 
BRANCH  22  23
ATOM     23  N   UNL A   1      32.647  33.732  27.685  1.00  0.00    -0.352 N 
ATOM     24  C   UNL A   1      33.096  34.717  28.541  1.00  0.00     0.251 C 
ATOM     25  H   UNL A   1      31.847  33.948  27.153  1.00  0.00     0.163 HD
ATOM     26  O   UNL A   1      32.511  35.789  28.640  1.00  0.00    -0.269 OA
BRANCH  24  27
ATOM     27  C   UNL A   1      34.270  34.434  29.393  1.00  0.00     0.039 A 
ATOM     28  C   UNL A   1      34.053  33.897  30.665  1.00  0.00     0.014 A 
ATOM     29  C   UNL A   1      35.566  34.588  28.897  1.00  0.00     0.014 A 
ATOM     30  C   UNL A   1      35.136  33.410  31.396  1.00  0.00     0.010 A 
ATOM     31  C   UNL A   1      36.639  34.050  29.603  1.00  0.00     0.010 A 
ATOM     32  C   UNL A   1      36.428  33.427  30.844  1.00  0.00    -0.014 A 
BRANCH  32  33
ATOM     33  C   UNL A   1      37.547  32.721  31.515  1.00  0.00     0.031 A 
ATOM     34  C   UNL A   1      38.215  31.548  30.862  1.00  0.00     0.074 A 
ATOM     35  C   UNL A   1      37.910  33.102  32.756  1.00  0.00     0.049 A 
ATOM     36  N   UNL A   1      39.189  30.798  31.313  1.00  0.00    -0.248 NA
ATOM     37  C   UNL A   1      37.709  31.150  29.540  1.00  0.00     0.031 C 
ATOM     38  C   UNL A   1      37.293  34.188  33.521  1.00  0.00     0.029 A 
ATOM     39  N   UNL A   1      38.880  32.616  33.596  1.00  0.00    -0.354 N 
ATOM     40  C   UNL A   1      39.408  29.837  30.335  1.00  0.00     0.074 A 
ATOM     41  C   UNL A   1      38.434  30.069  29.289  1.00  0.00     0.031 C 
ATOM     42  C   UNL A   1      37.915  34.301  34.705  1.00  0.00     0.029 A 
ATOM     43  C   UNL A   1      38.955  33.281  34.795  1.00  0.00     0.049 A 
ATOM     44  H   UNL A   1      39.468  31.861  33.361  1.00  0.00     0.167 HD
ATOM     45  C   UNL A   1      40.349  28.864  30.306  1.00  0.00     0.037 A 
ATOM     46  C   UNL A   1      39.772  33.091  35.849  1.00  0.00     0.037 A 
ATOM     47  C   UNL A   1      41.329  28.649  31.339  1.00  0.00     0.049 A 
ATOM     48  C   UNL A   1      40.813  32.009  35.786  1.00  0.00     0.074 A 
ATOM     49  C   UNL A   1      42.368  27.734  31.367  1.00  0.00     0.029 A 
ATOM     50  N   UNL A   1      41.387  29.356  32.530  1.00  0.00    -0.354 N 
ATOM     51  N   UNL A   1      41.068  31.163  34.817  1.00  0.00    -0.248 NA
ATOM     52  C   UNL A   1      41.685  31.859  36.959  1.00  0.00     0.031 C 
ATOM     53  C   UNL A   1      43.031  27.861  32.592  1.00  0.00     0.029 A 
ATOM     54  C   UNL A   1      42.431  28.882  33.311  1.00  0.00     0.049 A 
ATOM     55  H   UNL A   1      40.778  30.085  32.785  1.00  0.00     0.167 HD
ATOM     56  C   UNL A   1      42.145  30.403  35.250  1.00  0.00     0.074 A 
ATOM     57  C   UNL A   1      42.503  30.893  36.564  1.00  0.00     0.031 C 
ATOM     58  C   UNL A   1      42.780  29.388  34.613  1.00  0.00     0.037 A 
BRANCH  45  59
ATOM     59  C   UNL A   1      40.370  27.958  29.111  1.00  0.00     0.064 A 
ATOM     60  C   UNL A   1      39.635  26.762  29.086  1.00  0.00     0.173 A 
ATOM     61  C   UNL A   1      41.099  28.307  27.966  1.00  0.00     0.173 A 
ATOM     62  F   UNL A   1      38.932  26.380  30.162  1.00  0.00    -0.203 F 
ATOM     63  C   UNL A   1      39.653  25.935  27.966  1.00  0.00     0.198 A 
ATOM     64  C   UNL A   1      41.093  27.489  26.837  1.00  0.00     0.198 A 
ATOM     65  F   UNL A   1      41.814  29.440  27.937  1.00  0.00    -0.203 F 
ATOM     66  F   UNL A   1      38.980  24.776  27.981  1.00  0.00    -0.200 F 
ATOM     67  C   UNL A   1      40.375  26.302  26.841  1.00  0.00     0.200 A 
ATOM     68  F   UNL A   1      41.784  27.850  25.747  1.00  0.00    -0.200 F 
ATOM     69  F   UNL A   1      40.386  25.509  25.762  1.00  0.00    -0.200 F 
ENDBRANCH  45  59
BRANCH  46  70
ATOM     70  C   UNL A   1      39.665  33.973  37.040  1.00  0.00     0.064 A 
ATOM     71  C   UNL A   1      38.905  33.586  38.152  1.00  0.00     0.173 A 
ATOM     72  C   UNL A   1      40.311  35.215  37.090  1.00  0.00     0.173 A 
ATOM     73  F   UNL A   1      38.253  32.413  38.142  1.00  0.00    -0.203 F 
ATOM     74  C   UNL A   1      38.780  34.416  39.263  1.00  0.00     0.198 A 
ATOM     75  C   UNL A   1      40.205  36.035  38.212  1.00  0.00     0.198 A 
ATOM     76  F   UNL A   1      41.055  35.628  36.054  1.00  0.00    -0.203 F 
ATOM     77  F   UNL A   1      38.014  34.040  40.295  1.00  0.00    -0.200 F 
ATOM     78  C   UNL A   1      39.434  35.639  39.295  1.00  0.00     0.200 A 
ATOM     79  F   UNL A   1      40.850  37.210  38.244  1.00  0.00    -0.200 F 
ATOM     80  F   UNL A   1      39.315  36.437  40.364  1.00  0.00    -0.200 F 
ENDBRANCH  46  70
BRANCH  58  81
ATOM     81  C   UNL A   1      43.947  28.760  35.317  1.00  0.00     0.064 A 
ATOM     82  C   UNL A   1      45.256  29.223  35.123  1.00  0.00     0.173 A 
ATOM     83  C   UNL A   1      43.746  27.709  36.223  1.00  0.00     0.173 A 
ATOM     84  F   UNL A   1      45.499  30.215  34.252  1.00  0.00    -0.203 F 
ATOM     85  C   UNL A   1      46.326  28.641  35.797  1.00  0.00     0.198 A 
ATOM     86  C   UNL A   1      44.816  27.148  36.915  1.00  0.00     0.198 A 
ATOM     87  F   UNL A   1      42.511  27.234  36.446  1.00  0.00    -0.203 F 
ATOM     88  F   UNL A   1      47.575  29.071  35.565  1.00  0.00    -0.200 F 
ATOM     89  C   UNL A   1      46.105  27.609  36.697  1.00  0.00     0.200 A 
ATOM     90  F   UNL A   1      44.598  26.158  37.792  1.00  0.00    -0.200 F 
ATOM     91  F   UNL A   1      47.136  27.055  37.349  1.00  0.00    -0.200 F 
ENDBRANCH  58  81
ENDBRANCH  32  33
ENDBRANCH  24  27
ENDBRANCH  22  23
ENDBRANCH  21  22
ENDBRANCH  20  21
ENDBRANCH  19  20
ENDBRANCH   3  19
TORSDOF 18
ENDMDL
MODEL 2
REMARK VINA RESULT:     -10.7      2.093      8.191
REMARK SMILES CN(CC(C)(C)O)S(=O)(=O)CCCC(=O)NCCCCNC(=O)c1ccc(-c2c3nc(c(-c4c(F)c(F)c(F)c(F)c4F)c4ccc([nH]4)c(-c4c(F)c(F)c(F)c(F)c4F)c4nc(c(-c5c(F)c(F)c(F)c(F)c5F)c5ccc2[nH]5)C=C4)C=C3)cc1
REMARK SMILES IDX 14 1 15 2 16 3 13 5 12 6 11 7 8 8 9 9 10 10 2 11 1 12 3 13
REMARK SMILES IDX 4 14 5 15 6 16 7 17 17 19 18 20 19 21 20 22 21 23 22 24
REMARK SMILES IDX 23 26 24 27 25 28 86 29 26 30 85 31 27 32 28 33 29 34 79 35
REMARK SMILES IDX 30 36 84 37 78 38 80 39 31 40 83 41 77 42 76 43 32 45 64 46
REMARK SMILES IDX 44 47 63 48 45 49 48 50 62 51 81 52 46 53 47 54 61 56 82 57
REMARK SMILES IDX 49 58 33 59 34 60 42 61 35 62 36 63 40 64 43 65 37 66 38 67
REMARK SMILES IDX 41 68 39 69 65 70 66 71 74 72 67 73 68 74 72 75 75 76 69 77
REMARK SMILES IDX 70 78 73 79 71 80 50 81 51 82 59 83 52 84 53 85 57 86 60 87
REMARK SMILES IDX 54 88 55 89 58 90 56 91
REMARK H PARENT 16 4 7 18 21 25 80 44 48 55
REMARK Flexibility Score: inf
ROOT
ATOM      1  C   UNL A   1      31.053  28.877  23.833  1.00  0.00     0.220 C 
ATOM      2  O   UNL A   1      30.144  29.306  23.116  1.00  0.00    -0.275 OA
ATOM      3  N   UNL A   1      31.833  29.804  24.453  1.00  0.00    -0.356 N 
ATOM      4  H   UNL A   1      31.652  30.729  24.168  1.00  0.00     0.163 HD
ENDROOT
BRANCH   1   5
ATOM      5  C   UNL A   1      31.237  27.377  24.013  1.00  0.00     0.101 C 
BRANCH   5   6
ATOM      6  C   UNL A   1      30.584  26.758  25.246  1.00  0.00     0.027 C 
BRANCH   6   7
ATOM      7  C   UNL A   1      31.475  25.988  26.203  1.00  0.00     0.155 C 
BRANCH   7   8
ATOM      8  S   UNL A   1      31.533  24.199  26.114  1.00  0.00     0.213 S 
ATOM      9  O   UNL A   1      30.673  23.831  25.011  1.00  0.00    -0.212 OA
ATOM     10  O   UNL A   1      31.219  23.727  27.448  1.00  0.00    -0.212 OA
BRANCH   8  11
ATOM     11  N   UNL A   1      33.085  23.653  25.762  1.00  0.00    -0.202 NA
ATOM     12  C   UNL A   1      34.058  24.756  25.545  1.00  0.00     0.124 C 
BRANCH  11  13
ATOM     13  C   UNL A   1      33.747  22.463  26.367  1.00  0.00     0.136 C 
BRANCH  13  14
ATOM     14  C   UNL A   1      33.722  21.081  25.666  1.00  0.00     0.073 C 
ATOM     15  C   UNL A   1      32.774  20.992  24.476  1.00  0.00     0.043 C 
ATOM     16  C   UNL A   1      35.153  20.786  25.167  1.00  0.00     0.043 C 
BRANCH  14  17
ATOM     17  O   UNL A   1      33.404  20.052  26.606  1.00  0.00    -0.389 OA
ATOM     18  H   UNL A   1      34.212  19.571  26.845  1.00  0.00     0.211 HD
ENDBRANCH  14  17
ENDBRANCH  13  14
ENDBRANCH  11  13
ENDBRANCH   8  11
ENDBRANCH   7   8
ENDBRANCH   6   7
ENDBRANCH   5   6
ENDBRANCH   1   5
BRANCH   3  19
ATOM     19  C   UNL A   1      32.875  29.692  25.449  1.00  0.00     0.116 C 
BRANCH  19  20
ATOM     20  C   UNL A   1      32.431  30.159  26.838  1.00  0.00     0.023 C 
BRANCH  20  21
ATOM     21  C   UNL A   1      31.980  31.618  26.888  1.00  0.00     0.023 C 
BRANCH  21  22
ATOM     22  C   UNL A   1      33.010  32.603  27.442  1.00  0.00     0.116 C 
BRANCH  22  23
ATOM     23  N   UNL A   1      32.498  33.940  27.699  1.00  0.00    -0.352 N 
ATOM     24  C   UNL A   1      33.019  34.882  28.561  1.00  0.00     0.251 C 
ATOM     25  H   UNL A   1      31.689  34.201  27.202  1.00  0.00     0.163 HD
ATOM     26  O   UNL A   1      32.482  35.975  28.708  1.00  0.00    -0.269 OA
BRANCH  24  27
ATOM     27  C   UNL A   1      34.209  34.530  29.361  1.00  0.00     0.039 A 
ATOM     28  C   UNL A   1      34.017  33.955  30.620  1.00  0.00     0.014 A 
ATOM     29  C   UNL A   1      35.493  34.659  28.827  1.00  0.00     0.014 A 
ATOM     30  C   UNL A   1      35.106  33.406  31.296  1.00  0.00     0.010 A 
ATOM     31  C   UNL A   1      36.569  34.061  29.476  1.00  0.00     0.010 A 
ATOM     32  C   UNL A   1      36.379  33.400  30.700  1.00  0.00    -0.014 A 
BRANCH  32  33
ATOM     33  C   UNL A   1      37.495  32.634  31.307  1.00  0.00     0.031 A 
ATOM     34  C   UNL A   1      38.021  32.990  32.666  1.00  0.00     0.074 A 
ATOM     35  C   UNL A   1      38.083  31.656  30.589  1.00  0.00     0.049 A 
ATOM     36  N   UNL A   1      39.004  32.447  33.338  1.00  0.00    -0.248 NA
ATOM     37  C   UNL A   1      37.372  34.119  33.350  1.00  0.00     0.031 C 
ATOM     38  C   UNL A   1      37.703  31.259  29.232  1.00  0.00     0.029 A 
ATOM     39  N   UNL A   1      39.129  30.822  30.897  1.00  0.00    -0.354 N 
ATOM     40  C   UNL A   1      39.097  33.170  34.519  1.00  0.00     0.074 A 
ATOM     41  C   UNL A   1      38.103  34.219  34.452  1.00  0.00     0.031 C 
ATOM     42  C   UNL A   1      38.486  30.244  28.834  1.00  0.00     0.029 A 
ATOM     43  C   UNL A   1      39.440  29.936  29.895  1.00  0.00     0.049 A 
ATOM     44  H   UNL A   1      39.611  30.856  31.756  1.00  0.00     0.167 HD
ATOM     45  C   UNL A   1      39.924  32.961  35.571  1.00  0.00     0.037 A 
ATOM     46  C   UNL A   1      40.387  28.980  29.839  1.00  0.00     0.037 A 
ATOM     47  C   UNL A   1      40.898  31.904  35.643  1.00  0.00     0.049 A 
ATOM     48  C   UNL A   1      41.286  28.766  31.025  1.00  0.00     0.074 A 
ATOM     49  C   UNL A   1      41.733  31.568  36.696  1.00  0.00     0.029 A 
ATOM     50  N   UNL A   1      41.171  31.011  34.617  1.00  0.00    -0.354 N 
ATOM     51  N   UNL A   1      41.304  29.398  32.173  1.00  0.00    -0.248 NA
ATOM     52  C   UNL A   1      42.290  27.698  30.911  1.00  0.00     0.031 C 
ATOM     53  C   UNL A   1      42.538  30.498  36.292  1.00  0.00     0.029 A 
ATOM     54  C   UNL A   1      42.178  30.140  35.004  1.00  0.00     0.049 A 
ATOM     55  H   UNL A   1      40.718  30.999  33.743  1.00  0.00     0.167 HD
ATOM     56  C   UNL A   1      42.298  28.790  32.926  1.00  0.00     0.074 A 
ATOM     57  C   UNL A   1      42.852  27.730  32.111  1.00  0.00     0.031 C 
ATOM     58  C   UNL A   1      42.713  29.084  34.183  1.00  0.00     0.037 A 
BRANCH  45  59
ATOM     59  C   UNL A   1      39.806  33.895  36.738  1.00  0.00     0.064 A 
ATOM     60  C   UNL A   1      38.979  33.598  37.833  1.00  0.00     0.173 A 
ATOM     61  C   UNL A   1      40.556  35.079  36.783  1.00  0.00     0.173 A 
ATOM     62  F   UNL A   1      38.232  32.484  37.831  1.00  0.00    -0.203 F 
ATOM     63  C   UNL A   1      38.887  34.467  38.917  1.00  0.00     0.198 A 
ATOM     64  C   UNL A   1      40.482  35.933  37.881  1.00  0.00     0.198 A 
ATOM     65  F   UNL A   1      41.365  35.406  35.765  1.00  0.00    -0.203 F 
ATOM     66  F   UNL A   1      38.057  34.185  39.931  1.00  0.00    -0.200 F 
ATOM     67  C   UNL A   1      39.643  35.629  38.944  1.00  0.00     0.200 A 
ATOM     68  F   UNL A   1      41.221  37.051  37.910  1.00  0.00    -0.200 F 
ATOM     69  F   UNL A   1      39.558  36.461  39.990  1.00  0.00    -0.200 F 
ENDBRANCH  45  59
BRANCH  46  70
ATOM     70  C   UNL A   1      40.509  28.125  28.630  1.00  0.00     0.064 A 
ATOM     71  C   UNL A   1      39.838  26.897  28.550  1.00  0.00     0.173 A 
ATOM     72  C   UNL A   1      41.297  28.511  27.538  1.00  0.00     0.173 A 
ATOM     73  F   UNL A   1      39.087  26.477  29.580  1.00  0.00    -0.203 F 
ATOM     74  C   UNL A   1      39.966  26.078  27.431  1.00  0.00     0.198 A 
ATOM     75  C   UNL A   1      41.405  27.703  26.408  1.00  0.00     0.198 A 
ATOM     76  F   UNL A   1      41.954  29.680  27.563  1.00  0.00    -0.203 F 
ATOM     77  F   UNL A   1      39.347  24.890  27.399  1.00  0.00    -0.200 F 
ATOM     78  C   UNL A   1      40.746  26.483  26.358  1.00  0.00     0.200 A 
ATOM     79  F   UNL A   1      42.149  28.104  25.368  1.00  0.00    -0.200 F 
ATOM     80  F   UNL A   1      40.868  25.696  25.281  1.00  0.00    -0.200 F 
ENDBRANCH  46  70
BRANCH  58  81
ATOM     81  C   UNL A   1      43.799  28.229  34.765  1.00  0.00     0.064 A 
ATOM     82  C   UNL A   1      43.510  27.040  35.449  1.00  0.00     0.173 A 
ATOM     83  C   UNL A   1      45.146  28.586  34.603  1.00  0.00     0.173 A 
ATOM     84  F   UNL A   1      42.235  26.666  35.644  1.00  0.00    -0.203 F 
ATOM     85  C   UNL A   1      44.530  26.248  35.967  1.00  0.00     0.198 A 
ATOM     86  C   UNL A   1      46.164  27.778  35.100  1.00  0.00     0.198 A 
ATOM     87  F   UNL A   1      45.473  29.713  33.952  1.00  0.00    -0.203 F 
ATOM     88  F   UNL A   1      44.230  25.136  36.654  1.00  0.00    -0.200 F 
ATOM     89  C   UNL A   1      45.856  26.614  35.787  1.00  0.00     0.200 A 
ATOM     90  F   UNL A   1      47.445  28.128  34.916  1.00  0.00    -0.200 F 
ATOM     91  F   UNL A   1      46.837  25.846  36.282  1.00  0.00    -0.200 F 
ENDBRANCH  58  81
ENDBRANCH  32  33
ENDBRANCH  24  27
ENDBRANCH  22  23
ENDBRANCH  21  22
ENDBRANCH  20  21
ENDBRANCH  19  20
ENDBRANCH   3  19
TORSDOF 18
ENDMDL
MODEL 3
REMARK VINA RESULT:     -10.7      1.901      8.052
REMARK SMILES CN(CC(C)(C)O)S(=O)(=O)CCCC(=O)NCCCCNC(=O)c1ccc(-c2c3nc(c(-c4c(F)c(F)c(F)c(F)c4F)c4ccc([nH]4)c(-c4c(F)c(F)c(F)c(F)c4F)c4nc(c(-c5c(F)c(F)c(F)c(F)c5F)c5ccc2[nH]5)C=C4)C=C3)cc1
REMARK SMILES IDX 14 1 15 2 16 3 13 5 12 6 11 7 8 8 9 9 10 10 2 11 1 12 3 13
REMARK SMILES IDX 4 14 5 15 6 16 7 17 17 19 18 20 19 21 20 22 21 23 22 24
REMARK SMILES IDX 23 26 24 27 25 28 86 29 26 30 85 31 27 32 28 33 29 34 79 35
REMARK SMILES IDX 30 36 84 37 78 38 80 39 31 40 83 41 77 42 76 43 32 45 64 46
REMARK SMILES IDX 44 47 63 48 45 49 48 50 62 51 81 52 46 53 47 54 61 56 82 57
REMARK SMILES IDX 49 58 33 59 34 60 42 61 35 62 36 63 40 64 43 65 37 66 38 67
REMARK SMILES IDX 41 68 39 69 65 70 66 71 74 72 67 73 68 74 72 75 75 76 69 77
REMARK SMILES IDX 70 78 73 79 71 80 50 81 51 82 59 83 52 84 53 85 57 86 60 87
REMARK SMILES IDX 54 88 55 89 58 90 56 91
REMARK H PARENT 16 4 7 18 21 25 80 44 48 55
REMARK Flexibility Score: inf
ROOT
ATOM      1  C   UNL A   1      33.432  28.371  23.644  1.00  0.00     0.220 C 
ATOM      2  O   UNL A   1      34.224  28.508  22.708  1.00  0.00    -0.275 OA
ATOM      3  N   UNL A   1      32.989  29.508  24.244  1.00  0.00    -0.356 N 
ATOM      4  H   UNL A   1      33.443  30.324  23.932  1.00  0.00     0.163 HD
ENDROOT
BRANCH   1   5
ATOM      5  C   UNL A   1      32.973  26.978  24.055  1.00  0.00     0.101 C 
BRANCH   5   6
ATOM      6  C   UNL A   1      33.434  26.490  25.425  1.00  0.00     0.027 C 
BRANCH   6   7
ATOM      7  C   UNL A   1      32.390  25.889  26.347  1.00  0.00     0.155 C 
BRANCH   7   8
ATOM      8  S   UNL A   1      32.024  24.137  26.249  1.00  0.00     0.213 S 
ATOM      9  O   UNL A   1      31.588  23.900  24.890  1.00  0.00    -0.212 OA
ATOM     10  O   UNL A   1      31.114  23.862  27.344  1.00  0.00    -0.212 OA
BRANCH   8  11
ATOM     11  N   UNL A   1      33.399  23.207  26.519  1.00  0.00    -0.202 NA
ATOM     12  C   UNL A   1      33.402  22.539  27.848  1.00  0.00     0.124 C 
BRANCH  11  13
ATOM     13  C   UNL A   1      34.104  22.379  25.500  1.00  0.00     0.136 C 
BRANCH  13  14
ATOM     14  C   UNL A   1      35.279  22.951  24.667  1.00  0.00     0.073 C 
ATOM     15  C   UNL A   1      34.855  23.737  23.432  1.00  0.00     0.043 C 
ATOM     16  C   UNL A   1      36.087  23.891  25.586  1.00  0.00     0.043 C 
BRANCH  14  17
ATOM     17  O   UNL A   1      36.171  21.902  24.280  1.00  0.00    -0.389 OA
ATOM     18  H   UNL A   1      35.762  21.374  23.577  1.00  0.00     0.211 HD
ENDBRANCH  14  17
ENDBRANCH  13  14
ENDBRANCH  11  13
ENDBRANCH   8  11
ENDBRANCH   7   8
ENDBRANCH   6   7
ENDBRANCH   5   6
ENDBRANCH   1   5
BRANCH   3  19
ATOM     19  C   UNL A   1      31.979  29.751  25.251  1.00  0.00     0.116 C 
BRANCH  19  20
ATOM     20  C   UNL A   1      32.555  30.305  26.557  1.00  0.00     0.023 C 
BRANCH  20  21
ATOM     21  C   UNL A   1      31.993  31.669  26.955  1.00  0.00     0.023 C 
BRANCH  21  22
ATOM     22  C   UNL A   1      33.023  32.680  27.457  1.00  0.00     0.116 C 
BRANCH  22  23
ATOM     23  N   UNL A   1      32.490  34.002  27.746  1.00  0.00    -0.352 N 
ATOM     24  C   UNL A   1      32.995  34.933  28.630  1.00  0.00     0.251 C 
ATOM     25  H   UNL A   1      31.676  34.261  27.255  1.00  0.00     0.163 HD
ATOM     26  O   UNL A   1      32.440  36.012  28.803  1.00  0.00    -0.269 OA
BRANCH  24  27
ATOM     27  C   UNL A   1      34.193  34.581  29.421  1.00  0.00     0.039 A 
ATOM     28  C   UNL A   1      34.010  34.024  30.689  1.00  0.00     0.014 A 
ATOM     29  C   UNL A   1      35.471  34.693  28.870  1.00  0.00     0.014 A 
ATOM     30  C   UNL A   1      35.103  33.476  31.360  1.00  0.00     0.010 A 
ATOM     31  C   UNL A   1      36.550  34.095  29.514  1.00  0.00     0.010 A 
ATOM     32  C   UNL A   1      36.369  33.452  30.749  1.00  0.00    -0.014 A 
BRANCH  32  33
ATOM     33  C   UNL A   1      37.486  32.685  31.353  1.00  0.00     0.031 A 
ATOM     34  C   UNL A   1      38.023  33.048  32.705  1.00  0.00     0.074 A 
ATOM     35  C   UNL A   1      38.065  31.699  30.638  1.00  0.00     0.049 A 
ATOM     36  N   UNL A   1      39.009  32.506  33.374  1.00  0.00    -0.248 NA
ATOM     37  C   UNL A   1      37.384  34.184  33.387  1.00  0.00     0.031 C 
ATOM     38  C   UNL A   1      37.673  31.296  29.285  1.00  0.00     0.029 A 
ATOM     39  N   UNL A   1      39.109  30.864  30.943  1.00  0.00    -0.354 N 
ATOM     40  C   UNL A   1      39.114  33.236  34.550  1.00  0.00     0.074 A 
ATOM     41  C   UNL A   1      38.123  34.289  34.482  1.00  0.00     0.031 C 
ATOM     42  C   UNL A   1      38.449  30.274  28.889  1.00  0.00     0.029 A 
ATOM     43  C   UNL A   1      39.409  29.969  29.945  1.00  0.00     0.049 A 
ATOM     44  H   UNL A   1      39.597  30.901  31.798  1.00  0.00     0.167 HD
ATOM     45  C   UNL A   1      39.947  33.030  35.597  1.00  0.00     0.037 A 
ATOM     46  C   UNL A   1      40.352  29.009  29.888  1.00  0.00     0.037 A 
ATOM     47  C   UNL A   1      40.918  31.969  35.669  1.00  0.00     0.049 A 
ATOM     48  C   UNL A   1      41.258  28.798  31.069  1.00  0.00     0.074 A 
ATOM     49  C   UNL A   1      41.758  31.637  36.718  1.00  0.00     0.029 A 
ATOM     50  N   UNL A   1      41.179  31.069  34.647  1.00  0.00    -0.354 N 
ATOM     51  N   UNL A   1      41.287  29.439  32.213  1.00  0.00    -0.248 NA
ATOM     52  C   UNL A   1      42.257  27.726  30.956  1.00  0.00     0.031 C 
ATOM     53  C   UNL A   1      42.556  30.561  36.316  1.00  0.00     0.029 A 
ATOM     54  C   UNL A   1      42.185  30.196  35.032  1.00  0.00     0.049 A 
ATOM     55  H   UNL A   1      40.720  31.053  33.777  1.00  0.00     0.167 HD
ATOM     56  C   UNL A   1      42.284  28.831  32.963  1.00  0.00     0.074 A 
ATOM     57  C   UNL A   1      42.828  27.763  32.151  1.00  0.00     0.031 C 
ATOM     58  C   UNL A   1      42.709  29.132  34.215  1.00  0.00     0.037 A 
BRANCH  45  59
ATOM     59  C   UNL A   1      39.842  33.973  36.759  1.00  0.00     0.064 A 
ATOM     60  C   UNL A   1      39.023  33.686  37.862  1.00  0.00     0.173 A 
ATOM     61  C   UNL A   1      40.596  35.154  36.789  1.00  0.00     0.173 A 
ATOM     62  F   UNL A   1      38.273  32.574  37.874  1.00  0.00    -0.203 F 
ATOM     63  C   UNL A   1      38.942  34.563  38.941  1.00  0.00     0.198 A 
ATOM     64  C   UNL A   1      40.533  36.016  37.882  1.00  0.00     0.198 A 
ATOM     65  F   UNL A   1      41.397  35.472  35.762  1.00  0.00    -0.203 F 
ATOM     66  F   UNL A   1      38.120  34.290  39.963  1.00  0.00    -0.200 F 
ATOM     67  C   UNL A   1      39.702  35.723  38.953  1.00  0.00     0.200 A 
ATOM     68  F   UNL A   1      41.276  37.132  37.897  1.00  0.00    -0.200 F 
ATOM     69  F   UNL A   1      39.629  36.562  39.994  1.00  0.00    -0.200 F 
ENDBRANCH  45  59
BRANCH  46  70
ATOM     70  C   UNL A   1      40.461  28.145  28.685  1.00  0.00     0.064 A 
ATOM     71  C   UNL A   1      39.782  26.921  28.617  1.00  0.00     0.173 A 
ATOM     72  C   UNL A   1      41.245  28.519  27.585  1.00  0.00     0.173 A 
ATOM     73  F   UNL A   1      39.035  26.512  29.654  1.00  0.00    -0.203 F 
ATOM     74  C   UNL A   1      39.898  26.094  27.502  1.00  0.00     0.198 A 
ATOM     75  C   UNL A   1      41.342  27.703  26.460  1.00  0.00     0.198 A 
ATOM     76  F   UNL A   1      41.910  29.684  27.599  1.00  0.00    -0.203 F 
ATOM     77  F   UNL A   1      39.272  24.910  27.481  1.00  0.00    -0.200 F 
ATOM     78  C   UNL A   1      40.674  26.487  26.422  1.00  0.00     0.200 A 
ATOM     79  F   UNL A   1      42.082  28.092  25.413  1.00  0.00    -0.200 F 
ATOM     80  F   UNL A   1      40.785  25.692  25.349  1.00  0.00    -0.200 F 
ENDBRANCH  46  70
BRANCH  58  81
ATOM     81  C   UNL A   1      43.796  28.276  34.795  1.00  0.00     0.064 A 
ATOM     82  C   UNL A   1      45.148  28.625  34.674  1.00  0.00     0.173 A 
ATOM     83  C   UNL A   1      43.476  27.113  35.511  1.00  0.00     0.173 A 
ATOM     84  F   UNL A   1      45.503  29.719  33.984  1.00  0.00    -0.203 F 
ATOM     85  C   UNL A   1      46.143  27.829  35.233  1.00  0.00     0.198 A 
ATOM     86  C   UNL A   1      44.473  26.334  36.090  1.00  0.00     0.198 A 
ATOM     87  F   UNL A   1      42.196  26.739  35.656  1.00  0.00    -0.203 F 
ATOM     88  F   UNL A   1      47.433  28.159  35.071  1.00  0.00    -0.200 F 
ATOM     89  C   UNL A   1      45.805  26.688  35.946  1.00  0.00     0.200 A 
ATOM     90  F   UNL A   1      44.143  25.237  36.788  1.00  0.00    -0.200 F 
ATOM     91  F   UNL A   1      46.765  25.927  36.489  1.00  0.00    -0.200 F 
ENDBRANCH  58  81
ENDBRANCH  32  33
ENDBRANCH  24  27
ENDBRANCH  22  23
ENDBRANCH  21  22
ENDBRANCH  20  21
ENDBRANCH  19  20
ENDBRANCH   3  19
TORSDOF 18
ENDMDL
