MODEL 1
REMARK VINA RESULT:     -12.9      0.000      0.000
REMARK SMILES COc1cc2c(cc1OC)[C@@H](CC(=O)NCCCCNC(=O)c1ccc(-c3c4nc(c(-c5c(F)c(F)c(F)c(F)c5F)c5ccc([nH]5)c(-c5c(F)c(F)c(F)c(F)c5F)c5nc(c(-c6c(F)c(F)c(F)c(F)c6F)c6ccc3[nH]6)C=C5)C=C4)cc1)N(C(=O)Nc1ccc(Cl)cc1)CC2
REMARK SMILES IDX 17 1 16 2 15 3 13 4 14 5 12 7 11 8 3 9 4 10 8 11 5 12 7 13
REMARK SMILES IDX 6 14 98 15 97 16 86 17 2 18 1 19 9 20 10 21 87 22 88 23
REMARK SMILES IDX 89 24 90 26 91 27 96 28 92 29 95 30 93 31 94 32 18 33 19 34
REMARK SMILES IDX 20 35 21 36 22 38 23 39 24 40 85 41 25 42 84 43 26 44 27 45
REMARK SMILES IDX 28 46 78 47 29 48 83 49 77 50 79 51 30 52 82 53 76 54 75 55
REMARK SMILES IDX 31 57 63 58 43 59 62 60 44 61 47 62 61 63 80 64 45 65 46 66
REMARK SMILES IDX 60 68 81 69 48 70 32 71 33 72 41 73 34 74 35 75 39 76 42 77
REMARK SMILES IDX 36 78 37 79 40 80 38 81 64 82 65 83 73 84 66 85 67 86 71 87
REMARK SMILES IDX 74 88 68 89 69 90 72 91 70 92 49 93 50 94 58 95 51 96 52 97
REMARK SMILES IDX 56 98 59 99 53 100 54 101 57 102 55 103
REMARK H PARENT 15 6 89 25 20 37 79 56 47 67
REMARK Flexibility Score: inf
ROOT
ATOM      1  C   UNL A   1      31.550  30.443  26.102  1.00  0.00     0.023 C 
ENDROOT
BRANCH   1   2
ATOM      2  C   UNL A   1      32.154  29.530  27.173  1.00  0.00     0.116 C 
BRANCH   2   3
ATOM      3  N   UNL A   1      31.379  28.301  27.275  1.00  0.00    -0.356 N 
ATOM      4  C   UNL A   1      31.444  27.123  26.594  1.00  0.00     0.222 C 
ATOM      5  O   UNL A   1      30.512  26.327  26.732  1.00  0.00    -0.275 OA
ATOM      6  H   UNL A   1      30.676  28.327  27.965  1.00  0.00     0.163 HD
BRANCH   4   7
ATOM      7  C   UNL A   1      32.659  26.740  25.770  1.00  0.00     0.130 C 
BRANCH   7   8
ATOM      8  C   UNL A   1      32.282  25.918  24.508  1.00  0.00     0.127 C 
ATOM      9  C   UNL A   1      32.984  21.608  24.489  1.00  0.00     0.161 A 
ATOM     10  C   UNL A   1      32.728  22.294  23.316  1.00  0.00     0.054 A 
ATOM     11  C   UNL A   1      32.869  22.250  25.732  1.00  0.00     0.161 A 
ATOM     12  C   UNL A   1      32.453  23.658  23.371  1.00  0.00    -0.037 A 
ATOM     13  C   UNL A   1      32.534  23.621  25.780  1.00  0.00     0.056 A 
ATOM     14  C   UNL A   1      32.395  24.370  24.599  1.00  0.00    -0.018 A 
ATOM     15  C   UNL A   1      32.525  24.447  22.097  1.00  0.00     0.057 C 
ATOM     16  C   UNL A   1      33.636  25.435  22.403  1.00  0.00     0.127 C 
ATOM     17  N   UNL A   1      33.143  26.412  23.378  1.00  0.00    -0.317 N 
BRANCH   9  18
ATOM     18  O   UNL A   1      33.532  20.361  24.321  1.00  0.00    -0.493 OA
ATOM     19  C   UNL A   1      32.563  19.386  23.964  1.00  0.00     0.278 C 
ENDBRANCH   9  18
BRANCH  11  20
ATOM     20  O   UNL A   1      33.168  21.476  26.822  1.00  0.00    -0.493 OA
ATOM     21  C   UNL A   1      34.323  21.811  27.574  1.00  0.00     0.278 C 
ENDBRANCH  11  20
BRANCH  17  22
ATOM     22  C   UNL A   1      32.906  27.641  22.784  1.00  0.00     0.322 C 
ATOM     23  O   UNL A   1      33.595  28.626  22.998  1.00  0.00    -0.248 OA
ATOM     24  N   UNL A   1      31.733  27.578  22.052  1.00  0.00    -0.308 N 
ATOM     25  H   UNL A   1      31.682  26.906  21.335  1.00  0.00     0.171 HD
BRANCH  24  26
ATOM     26  C   UNL A   1      30.609  28.396  22.249  1.00  0.00     0.042 A 
ATOM     27  C   UNL A   1      29.578  27.872  23.035  1.00  0.00     0.028 A 
ATOM     28  C   UNL A   1      30.580  29.737  21.867  1.00  0.00     0.028 A 
ATOM     29  C   UNL A   1      28.556  28.703  23.495  1.00  0.00     0.022 A 
ATOM     30  C   UNL A   1      29.561  30.570  22.334  1.00  0.00     0.022 A 
ATOM     31  C   UNL A   1      28.565  30.053  23.161  1.00  0.00     0.041 A 
ATOM     32  Cl  UNL A   1      27.359  31.098  23.802  1.00  0.00    -0.084 Cl
ENDBRANCH  24  26
ENDBRANCH  17  22
ENDBRANCH   7   8
ENDBRANCH   4   7
ENDBRANCH   2   3
ENDBRANCH   1   2
BRANCH   1  33
ATOM     33  C   UNL A   1      31.277  31.878  26.506  1.00  0.00     0.023 C 
BRANCH  33  34
ATOM     34  C   UNL A   1      32.506  32.760  26.644  1.00  0.00     0.116 C 
BRANCH  34  35
ATOM     35  N   UNL A   1      32.402  33.876  27.578  1.00  0.00    -0.352 N 
ATOM     36  C   UNL A   1      33.332  34.313  28.507  1.00  0.00     0.251 C 
ATOM     37  H   UNL A   1      31.560  34.386  27.543  1.00  0.00     0.163 HD
ATOM     38  O   UNL A   1      33.143  35.313  29.174  1.00  0.00    -0.269 OA
BRANCH  36  39
ATOM     39  C   UNL A   1      34.542  33.490  28.735  1.00  0.00     0.039 A 
ATOM     40  C   UNL A   1      35.795  34.102  28.657  1.00  0.00     0.014 A 
ATOM     41  C   UNL A   1      34.425  32.175  29.174  1.00  0.00     0.014 A 
ATOM     42  C   UNL A   1      36.916  33.428  29.146  1.00  0.00     0.010 A 
ATOM     43  C   UNL A   1      35.510  31.570  29.791  1.00  0.00     0.010 A 
ATOM     44  C   UNL A   1      36.769  32.187  29.787  1.00  0.00    -0.014 A 
BRANCH  44  45
ATOM     45  C   UNL A   1      37.910  31.522  30.471  1.00  0.00     0.031 A 
ATOM     46  C   UNL A   1      38.254  31.888  31.891  1.00  0.00     0.074 A 
ATOM     47  C   UNL A   1      38.697  30.668  29.788  1.00  0.00     0.049 A 
ATOM     48  N   UNL A   1      39.252  31.482  32.634  1.00  0.00    -0.248 NA
ATOM     49  C   UNL A   1      37.395  32.891  32.544  1.00  0.00     0.031 C 
ATOM     50  C   UNL A   1      38.546  30.315  28.374  1.00  0.00     0.029 A 
ATOM     51  N   UNL A   1      39.791  29.941  30.191  1.00  0.00    -0.354 N 
ATOM     52  C   UNL A   1      39.161  32.208  33.815  1.00  0.00     0.074 A 
ATOM     53  C   UNL A   1      38.061  33.133  33.661  1.00  0.00     0.031 C 
ATOM     54  C   UNL A   1      39.475  29.403  28.043  1.00  0.00     0.029 A 
ATOM     55  C   UNL A   1      40.306  29.127  29.210  1.00  0.00     0.049 A 
ATOM     56  H   UNL A   1      40.171  29.997  31.097  1.00  0.00     0.167 HD
ATOM     57  C   UNL A   1      39.898  32.086  34.943  1.00  0.00     0.037 A 
ATOM     58  C   UNL A   1      41.322  28.244  29.255  1.00  0.00     0.037 A 
ATOM     59  C   UNL A   1      40.941  31.113  35.118  1.00  0.00     0.049 A 
ATOM     60  C   UNL A   1      42.057  28.048  30.553  1.00  0.00     0.074 A 
ATOM     61  C   UNL A   1      41.689  30.840  36.248  1.00  0.00     0.029 A 
ATOM     62  N   UNL A   1      41.372  30.240  34.130  1.00  0.00    -0.354 N 
ATOM     63  N   UNL A   1      41.900  28.672  31.695  1.00  0.00    -0.248 NA
ATOM     64  C   UNL A   1      43.095  27.008  30.575  1.00  0.00     0.031 C 
ATOM     65  C   UNL A   1      42.592  29.816  35.936  1.00  0.00     0.029 A 
ATOM     66  C   UNL A   1      42.378  29.427  34.624  1.00  0.00     0.049 A 
ATOM     67  H   UNL A   1      41.016  30.205  33.213  1.00  0.00     0.167 HD
ATOM     68  C   UNL A   1      42.795  28.085  32.578  1.00  0.00     0.074 A 
ATOM     69  C   UNL A   1      43.480  27.041  31.843  1.00  0.00     0.031 C 
ATOM     70  C   UNL A   1      43.032  28.383  33.879  1.00  0.00     0.037 A 
BRANCH  57  71
ATOM     71  C   UNL A   1      39.575  33.011  36.081  1.00  0.00     0.064 A 
ATOM     72  C   UNL A   1      40.213  34.255  36.223  1.00  0.00     0.173 A 
ATOM     73  C   UNL A   1      38.618  32.655  37.043  1.00  0.00     0.173 A 
ATOM     74  F   UNL A   1      41.148  34.638  35.342  1.00  0.00    -0.203 F 
ATOM     75  C   UNL A   1      39.937  35.085  37.306  1.00  0.00     0.198 A 
ATOM     76  C   UNL A   1      38.318  33.504  38.106  1.00  0.00     0.198 A 
ATOM     77  F   UNL A   1      37.975  31.480  36.954  1.00  0.00    -0.203 F 
ATOM     78  F   UNL A   1      40.609  36.233  37.456  1.00  0.00    -0.200 F 
ATOM     79  C   UNL A   1      38.985  34.711  38.243  1.00  0.00     0.200 A 
ATOM     80  F   UNL A   1      37.390  33.147  39.004  1.00  0.00    -0.200 F 
ATOM     81  F   UNL A   1      38.721  35.511  39.285  1.00  0.00    -0.200 F 
ENDBRANCH  57  71
BRANCH  58  82
ATOM     82  C   UNL A   1      41.651  27.425  28.058  1.00  0.00     0.064 A 
ATOM     83  C   UNL A   1      41.049  26.174  27.862  1.00  0.00     0.173 A 
ATOM     84  C   UNL A   1      42.560  27.871  27.090  1.00  0.00     0.173 A 
ATOM     85  F   UNL A   1      40.186  25.696  28.770  1.00  0.00    -0.203 F 
ATOM     86  C   UNL A   1      41.362  25.388  26.754  1.00  0.00     0.198 A 
ATOM     87  C   UNL A   1      42.853  27.096  25.969  1.00  0.00     0.198 A 
ATOM     88  F   UNL A   1      43.155  29.065  27.226  1.00  0.00    -0.203 F 
ATOM     89  F   UNL A   1      40.806  24.178  26.616  1.00  0.00    -0.200 F 
ATOM     90  C   UNL A   1      42.260  25.853  25.805  1.00  0.00     0.200 A 
ATOM     91  F   UNL A   1      43.711  27.553  25.046  1.00  0.00    -0.200 F 
ATOM     92  F   UNL A   1      42.559  25.099  24.738  1.00  0.00    -0.200 F 
ENDBRANCH  58  82
BRANCH  70  93
ATOM     93  C   UNL A   1      44.042  27.542  34.601  1.00  0.00     0.064 A 
ATOM     94  C   UNL A   1      45.387  27.928  34.696  1.00  0.00     0.173 A 
ATOM     95  C   UNL A   1      43.649  26.354  35.233  1.00  0.00     0.173 A 
ATOM     96  F   UNL A   1      45.812  29.049  34.096  1.00  0.00    -0.203 F 
ATOM     97  C   UNL A   1      46.309  27.137  35.374  1.00  0.00     0.198 A 
ATOM     98  C   UNL A   1      44.569  25.580  35.935  1.00  0.00     0.198 A 
ATOM     99  F   UNL A   1      42.372  25.948  35.178  1.00  0.00    -0.203 F 
ATOM    100  F   UNL A   1      47.599  27.497  35.411  1.00  0.00    -0.200 F 
ATOM    101  C   UNL A   1      45.899  25.967  35.998  1.00  0.00     0.200 A 
ATOM    102  F   UNL A   1      44.168  24.458  36.548  1.00  0.00    -0.200 F 
ATOM    103  F   UNL A   1      46.788  25.209  36.654  1.00  0.00    -0.200 F 
ENDBRANCH  70  93
ENDBRANCH  44  45
ENDBRANCH  36  39
ENDBRANCH  34  35
ENDBRANCH  33  34
ENDBRANCH   1  33
TORSDOF 16
ENDMDL
MODEL 2
REMARK VINA RESULT:     -12.8      1.183      2.093
REMARK SMILES COc1cc2c(cc1OC)[C@@H](CC(=O)NCCCCNC(=O)c1ccc(-c3c4nc(c(-c5c(F)c(F)c(F)c(F)c5F)c5ccc([nH]5)c(-c5c(F)c(F)c(F)c(F)c5F)c5nc(c(-c6c(F)c(F)c(F)c(F)c6F)c6ccc3[nH]6)C=C5)C=C4)cc1)N(C(=O)Nc1ccc(Cl)cc1)CC2
REMARK SMILES IDX 17 1 16 2 15 3 13 4 14 5 12 7 11 8 3 9 4 10 8 11 5 12 7 13
REMARK SMILES IDX 6 14 98 15 97 16 86 17 2 18 1 19 9 20 10 21 87 22 88 23
REMARK SMILES IDX 89 24 90 26 91 27 96 28 92 29 95 30 93 31 94 32 18 33 19 34
REMARK SMILES IDX 20 35 21 36 22 38 23 39 24 40 85 41 25 42 84 43 26 44 27 45
REMARK SMILES IDX 28 46 78 47 29 48 83 49 77 50 79 51 30 52 82 53 76 54 75 55
REMARK SMILES IDX 31 57 63 58 43 59 62 60 44 61 47 62 61 63 80 64 45 65 46 66
REMARK SMILES IDX 60 68 81 69 48 70 32 71 33 72 41 73 34 74 35 75 39 76 42 77
REMARK SMILES IDX 36 78 37 79 40 80 38 81 64 82 65 83 73 84 66 85 67 86 71 87
REMARK SMILES IDX 74 88 68 89 69 90 72 91 70 92 49 93 50 94 58 95 51 96 52 97
REMARK SMILES IDX 56 98 59 99 53 100 54 101 57 102 55 103
REMARK H PARENT 15 6 89 25 20 37 79 56 47 67
REMARK Flexibility Score: inf
ROOT
ATOM      1  C   UNL A   1      34.690  30.918  28.125  1.00  0.00     0.023 C 
ENDROOT
BRANCH   1   2
ATOM      2  C   UNL A   1      34.726  29.506  27.534  1.00  0.00     0.116 C 
BRANCH   2   3
ATOM      3  N   UNL A   1      33.428  28.865  27.694  1.00  0.00    -0.356 N 
ATOM      4  C   UNL A   1      32.767  27.944  26.939  1.00  0.00     0.222 C 
ATOM      5  O   UNL A   1      31.576  27.743  27.191  1.00  0.00    -0.275 OA
ATOM      6  H   UNL A   1      32.936  29.151  28.498  1.00  0.00     0.163 HD
BRANCH   4   7
ATOM      7  C   UNL A   1      33.476  27.109  25.890  1.00  0.00     0.130 C 
BRANCH   7   8
ATOM      8  C   UNL A   1      32.484  26.395  24.932  1.00  0.00     0.127 C 
ATOM      9  C   UNL A   1      31.845  22.095  25.352  1.00  0.00     0.161 A 
ATOM     10  C   UNL A   1      31.433  22.771  24.218  1.00  0.00     0.054 A 
ATOM     11  C   UNL A   1      32.335  22.799  26.463  1.00  0.00     0.161 A 
ATOM     12  C   UNL A   1      31.603  24.150  24.147  1.00  0.00    -0.037 A 
ATOM     13  C   UNL A   1      32.453  24.205  26.403  1.00  0.00     0.056 A 
ATOM     14  C   UNL A   1      32.161  24.901  25.217  1.00  0.00    -0.018 A 
ATOM     15  C   UNL A   1      31.483  24.811  22.805  1.00  0.00     0.057 C 
ATOM     16  C   UNL A   1      32.871  25.396  22.619  1.00  0.00     0.127 C 
ATOM     17  N   UNL A   1      33.033  26.526  23.538  1.00  0.00    -0.317 N 
BRANCH   9  18
ATOM     18  O   UNL A   1      31.916  20.732  25.219  1.00  0.00    -0.493 OA
ATOM     19  C   UNL A   1      32.409  20.336  23.948  1.00  0.00     0.278 C 
ENDBRANCH   9  18
BRANCH  11  20
ATOM     20  O   UNL A   1      32.734  22.023  27.520  1.00  0.00    -0.493 OA
ATOM     21  C   UNL A   1      34.096  21.635  27.579  1.00  0.00     0.278 C 
ENDBRANCH  11  20
BRANCH  17  22
ATOM     22  C   UNL A   1      32.986  27.735  22.863  1.00  0.00     0.322 C 
ATOM     23  O   UNL A   1      33.917  28.526  22.852  1.00  0.00    -0.248 OA
ATOM     24  N   UNL A   1      31.715  27.925  22.349  1.00  0.00    -0.308 N 
ATOM     25  H   UNL A   1      31.373  27.244  21.726  1.00  0.00     0.171 HD
BRANCH  24  26
ATOM     26  C   UNL A   1      30.875  29.010  22.641  1.00  0.00     0.042 A 
ATOM     27  C   UNL A   1      30.003  29.423  21.628  1.00  0.00     0.028 A 
ATOM     28  C   UNL A   1      30.749  29.538  23.926  1.00  0.00     0.028 A 
ATOM     29  C   UNL A   1      28.964  30.308  21.916  1.00  0.00     0.022 A 
ATOM     30  C   UNL A   1      29.704  30.419  24.215  1.00  0.00     0.022 A 
ATOM     31  C   UNL A   1      28.806  30.785  23.213  1.00  0.00     0.041 A 
ATOM     32  Cl  UNL A   1      27.472  31.802  23.591  1.00  0.00    -0.084 Cl
ENDBRANCH  24  26
ENDBRANCH  17  22
ENDBRANCH   7   8
ENDBRANCH   4   7
ENDBRANCH   2   3
ENDBRANCH   1   2
BRANCH   1  33
ATOM     33  C   UNL A   1      33.388  31.682  27.984  1.00  0.00     0.023 C 
BRANCH  33  34
ATOM     34  C   UNL A   1      33.484  32.995  27.227  1.00  0.00     0.116 C 
BRANCH  34  35
ATOM     35  N   UNL A   1      32.743  34.121  27.784  1.00  0.00    -0.352 N 
ATOM     36  C   UNL A   1      33.099  34.952  28.834  1.00  0.00     0.251 C 
ATOM     37  H   UNL A   1      31.878  34.316  27.358  1.00  0.00     0.163 HD
ATOM     38  O   UNL A   1      32.415  35.909  29.147  1.00  0.00    -0.269 OA
BRANCH  36  39
ATOM     39  C   UNL A   1      34.300  34.610  29.630  1.00  0.00     0.039 A 
ATOM     40  C   UNL A   1      34.132  33.976  30.863  1.00  0.00     0.014 A 
ATOM     41  C   UNL A   1      35.571  34.772  29.087  1.00  0.00     0.014 A 
ATOM     42  C   UNL A   1      35.235  33.390  31.486  1.00  0.00     0.010 A 
ATOM     43  C   UNL A   1      36.633  34.066  29.633  1.00  0.00     0.010 A 
ATOM     44  C   UNL A   1      36.481  33.364  30.837  1.00  0.00    -0.014 A 
BRANCH  44  45
ATOM     45  C   UNL A   1      37.632  32.602  31.389  1.00  0.00     0.031 A 
ATOM     46  C   UNL A   1      38.191  32.957  32.741  1.00  0.00     0.074 A 
ATOM     47  C   UNL A   1      38.238  31.663  30.636  1.00  0.00     0.049 A 
ATOM     48  N   UNL A   1      39.234  32.467  33.362  1.00  0.00    -0.248 NA
ATOM     49  C   UNL A   1      37.525  34.050  33.469  1.00  0.00     0.031 C 
ATOM     50  C   UNL A   1      37.871  31.302  29.265  1.00  0.00     0.029 A 
ATOM     51  N   UNL A   1      39.300  30.838  30.917  1.00  0.00    -0.354 N 
ATOM     52  C   UNL A   1      39.368  33.218  34.523  1.00  0.00     0.074 A 
ATOM     53  C   UNL A   1      38.351  34.245  34.484  1.00  0.00     0.031 C 
ATOM     54  C   UNL A   1      38.657  30.297  28.845  1.00  0.00     0.029 A 
ATOM     55  C   UNL A   1      39.603  29.961  29.903  1.00  0.00     0.049 A 
ATOM     56  H   UNL A   1      39.799  30.872  31.766  1.00  0.00     0.167 HD
ATOM     57  C   UNL A   1      40.231  33.044  35.551  1.00  0.00     0.037 A 
ATOM     58  C   UNL A   1      40.528  28.983  29.844  1.00  0.00     0.037 A 
ATOM     59  C   UNL A   1      41.190  31.976  35.620  1.00  0.00     0.049 A 
ATOM     60  C   UNL A   1      41.402  28.737  31.043  1.00  0.00     0.074 A 
ATOM     61  C   UNL A   1      42.049  31.649  36.652  1.00  0.00     0.029 A 
ATOM     62  N   UNL A   1      41.402  31.048  34.611  1.00  0.00    -0.354 N 
ATOM     63  N   UNL A   1      41.457  29.393  32.176  1.00  0.00    -0.248 NA
ATOM     64  C   UNL A   1      42.330  27.600  30.963  1.00  0.00     0.031 C 
ATOM     65  C   UNL A   1      42.802  30.537  36.258  1.00  0.00     0.029 A 
ATOM     66  C   UNL A   1      42.382  30.147  34.997  1.00  0.00     0.049 A 
ATOM     67  H   UNL A   1      40.929  31.032  33.749  1.00  0.00     0.167 HD
ATOM     68  C   UNL A   1      42.399  28.736  32.955  1.00  0.00     0.074 A 
ATOM     69  C   UNL A   1      42.879  27.617  32.170  1.00  0.00     0.031 C 
ATOM     70  C   UNL A   1      42.830  29.032  34.205  1.00  0.00     0.037 A 
BRANCH  57  71
ATOM     71  C   UNL A   1      40.149  34.016  36.693  1.00  0.00     0.064 A 
ATOM     72  C   UNL A   1      39.268  33.816  37.769  1.00  0.00     0.173 A 
ATOM     73  C   UNL A   1      40.960  35.160  36.717  1.00  0.00     0.173 A 
ATOM     74  F   UNL A   1      38.459  32.747  37.788  1.00  0.00    -0.203 F 
ATOM     75  C   UNL A   1      39.171  34.746  38.800  1.00  0.00     0.198 A 
ATOM     76  C   UNL A   1      40.885  36.071  37.768  1.00  0.00     0.198 A 
ATOM     77  F   UNL A   1      41.822  35.400  35.717  1.00  0.00    -0.203 F 
ATOM     78  F   UNL A   1      38.273  34.567  39.778  1.00  0.00    -0.200 F 
ATOM     79  C   UNL A   1      39.984  35.869  38.802  1.00  0.00     0.200 A 
ATOM     80  F   UNL A   1      41.679  37.151  37.774  1.00  0.00    -0.200 F 
ATOM     81  F   UNL A   1      39.888  36.764  39.795  1.00  0.00    -0.200 F 
ENDBRANCH  57  71
BRANCH  58  82
ATOM     82  C   UNL A   1      40.617  28.115  28.640  1.00  0.00     0.064 A 
ATOM     83  C   UNL A   1      41.418  28.486  27.551  1.00  0.00     0.173 A 
ATOM     84  C   UNL A   1      39.916  26.905  28.552  1.00  0.00     0.173 A 
ATOM     85  F   UNL A   1      42.094  29.644  27.580  1.00  0.00    -0.203 F 
ATOM     86  C   UNL A   1      41.497  27.692  26.408  1.00  0.00     0.198 A 
ATOM     87  C   UNL A   1      40.015  26.098  27.420  1.00  0.00     0.198 A 
ATOM     88  F   UNL A   1      39.144  26.501  29.571  1.00  0.00    -0.203 F 
ATOM     89  F   UNL A   1      42.234  28.093  25.365  1.00  0.00    -0.200 F 
ATOM     90  C   UNL A   1      40.799  26.495  26.347  1.00  0.00     0.200 A 
ATOM     91  F   UNL A   1      39.351  24.935  27.368  1.00  0.00    -0.200 F 
ATOM     92  F   UNL A   1      40.877  25.728  25.250  1.00  0.00    -0.200 F 
ENDBRANCH  58  82
BRANCH  70  93
ATOM     93  C   UNL A   1      43.841  28.108  34.817  1.00  0.00     0.064 A 
ATOM     94  C   UNL A   1      45.218  28.340  34.696  1.00  0.00     0.173 A 
ATOM     95  C   UNL A   1      43.422  26.995  35.561  1.00  0.00     0.173 A 
ATOM     96  F   UNL A   1      45.667  29.384  33.982  1.00  0.00    -0.203 F 
ATOM     97  C   UNL A   1      46.142  27.474  35.274  1.00  0.00     0.198 A 
ATOM     98  C   UNL A   1      44.347  26.147  36.162  1.00  0.00     0.198 A 
ATOM     99  F   UNL A   1      42.114  26.736  35.712  1.00  0.00    -0.203 F 
ATOM    100  F   UNL A   1      47.453  27.687  35.105  1.00  0.00    -0.200 F 
ATOM    101  C   UNL A   1      45.705  26.382  36.011  1.00  0.00     0.200 A 
ATOM    102  F   UNL A   1      43.924  25.102  36.884  1.00  0.00    -0.200 F 
ATOM    103  F   UNL A   1      46.596  25.552  36.571  1.00  0.00    -0.200 F 
ENDBRANCH  70  93
ENDBRANCH  44  45
ENDBRANCH  36  39
ENDBRANCH  34  35
ENDBRANCH  33  34
ENDBRANCH   1  33
TORSDOF 16
ENDMDL
MODEL 3
REMARK VINA RESULT:     -12.7      5.250     10.661
REMARK SMILES COc1cc2c(cc1OC)[C@@H](CC(=O)NCCCCNC(=O)c1ccc(-c3c4nc(c(-c5c(F)c(F)c(F)c(F)c5F)c5ccc([nH]5)c(-c5c(F)c(F)c(F)c(F)c5F)c5nc(c(-c6c(F)c(F)c(F)c(F)c6F)c6ccc3[nH]6)C=C5)C=C4)cc1)N(C(=O)Nc1ccc(Cl)cc1)CC2
REMARK SMILES IDX 17 1 16 2 15 3 13 4 14 5 12 7 11 8 3 9 4 10 8 11 5 12 7 13
REMARK SMILES IDX 6 14 98 15 97 16 86 17 2 18 1 19 9 20 10 21 87 22 88 23
REMARK SMILES IDX 89 24 90 26 91 27 96 28 92 29 95 30 93 31 94 32 18 33 19 34
REMARK SMILES IDX 20 35 21 36 22 38 23 39 24 40 85 41 25 42 84 43 26 44 27 45
REMARK SMILES IDX 28 46 78 47 29 48 83 49 77 50 79 51 30 52 82 53 76 54 75 55
REMARK SMILES IDX 31 57 63 58 43 59 62 60 44 61 47 62 61 63 80 64 45 65 46 66
REMARK SMILES IDX 60 68 81 69 48 70 32 71 33 72 41 73 34 74 35 75 39 76 42 77
REMARK SMILES IDX 36 78 37 79 40 80 38 81 64 82 65 83 73 84 66 85 67 86 71 87
REMARK SMILES IDX 74 88 68 89 69 90 72 91 70 92 49 93 50 94 58 95 51 96 52 97
REMARK SMILES IDX 56 98 59 99 53 100 54 101 57 102 55 103
REMARK H PARENT 15 6 89 25 20 37 79 56 47 67
REMARK Flexibility Score: inf
ROOT
ATOM      1  C   UNL A   1      39.337  22.864  26.481  1.00  0.00     0.023 C 
ENDROOT
BRANCH   1   2
ATOM      2  C   UNL A   1      38.019  23.610  26.258  1.00  0.00     0.116 C 
BRANCH   2   3
ATOM      3  N   UNL A   1      37.567  23.424  24.886  1.00  0.00    -0.356 N 
ATOM      4  C   UNL A   1      36.328  23.461  24.321  1.00  0.00     0.222 C 
ATOM      5  O   UNL A   1      36.211  23.042  23.167  1.00  0.00    -0.275 OA
ATOM      6  H   UNL A   1      38.294  23.237  24.247  1.00  0.00     0.163 HD
BRANCH   4   7
ATOM      7  C   UNL A   1      35.142  24.086  25.030  1.00  0.00     0.130 C 
BRANCH   7   8
ATOM      8  C   UNL A   1      33.789  23.693  24.377  1.00  0.00     0.127 C 
ATOM      9  C   UNL A   1      31.491  26.740  22.254  1.00  0.00     0.161 A 
ATOM     10  C   UNL A   1      30.914  25.537  22.618  1.00  0.00     0.054 A 
ATOM     11  C   UNL A   1      32.869  26.950  22.415  1.00  0.00     0.161 A 
ATOM     12  C   UNL A   1      31.696  24.569  23.243  1.00  0.00    -0.037 A 
ATOM     13  C   UNL A   1      33.664  25.940  22.999  1.00  0.00     0.056 A 
ATOM     14  C   UNL A   1      33.082  24.761  23.495  1.00  0.00    -0.018 A 
ATOM     15  C   UNL A   1      31.001  23.436  23.938  1.00  0.00     0.057 C 
ATOM     16  C   UNL A   1      31.445  23.631  25.376  1.00  0.00     0.127 C 
ATOM     17  N   UNL A   1      32.862  23.273  25.484  1.00  0.00    -0.317 N 
BRANCH   9  18
ATOM     18  O   UNL A   1      30.600  27.731  21.926  1.00  0.00    -0.493 OA
ATOM     19  C   UNL A   1      29.939  28.265  23.064  1.00  0.00     0.278 C 
ENDBRANCH   9  18
BRANCH  11  20
ATOM     20  O   UNL A   1      33.322  28.187  22.040  1.00  0.00    -0.493 OA
ATOM     21  C   UNL A   1      33.708  29.089  23.064  1.00  0.00     0.278 C 
ENDBRANCH  11  20
BRANCH  17  22
ATOM     22  C   UNL A   1      33.027  22.060  26.132  1.00  0.00     0.322 C 
ATOM     23  O   UNL A   1      33.946  21.839  26.906  1.00  0.00    -0.248 OA
ATOM     24  N   UNL A   1      32.090  21.156  25.660  1.00  0.00    -0.308 N 
ATOM     25  H   UNL A   1      31.141  21.398  25.757  1.00  0.00     0.171 HD
BRANCH  24  26
ATOM     26  C   UNL A   1      32.383  19.924  25.057  1.00  0.00     0.042 A 
ATOM     27  C   UNL A   1      32.345  19.880  23.659  1.00  0.00     0.028 A 
ATOM     28  C   UNL A   1      32.887  18.838  25.773  1.00  0.00     0.028 A 
ATOM     29  C   UNL A   1      32.872  18.784  22.977  1.00  0.00     0.022 A 
ATOM     30  C   UNL A   1      33.422  17.744  25.089  1.00  0.00     0.022 A 
ATOM     31  C   UNL A   1      33.429  17.730  23.695  1.00  0.00     0.041 A 
ATOM     32  Cl  UNL A   1      34.163  16.421  22.857  1.00  0.00    -0.084 Cl
ENDBRANCH  24  26
ENDBRANCH  17  22
ENDBRANCH   7   8
ENDBRANCH   4   7
ENDBRANCH   2   3
ENDBRANCH   1   2
BRANCH   1  33
ATOM     33  C   UNL A   1      39.528  21.572  25.712  1.00  0.00     0.023 C 
BRANCH  33  34
ATOM     34  C   UNL A   1      39.698  20.327  26.566  1.00  0.00     0.116 C 
BRANCH  34  35
ATOM     35  N   UNL A   1      40.576  19.291  26.034  1.00  0.00    -0.352 N 
ATOM     36  C   UNL A   1      41.961  19.261  26.014  1.00  0.00     0.251 C 
ATOM     37  H   UNL A   1      40.125  18.511  25.637  1.00  0.00     0.163 HD
ATOM     38  O   UNL A   1      42.570  18.290  25.604  1.00  0.00    -0.269 OA
BRANCH  36  39
ATOM     39  C   UNL A   1      42.700  20.474  26.434  1.00  0.00     0.039 A 
ATOM     40  C   UNL A   1      43.284  21.279  25.453  1.00  0.00     0.014 A 
ATOM     41  C   UNL A   1      42.675  20.886  27.763  1.00  0.00     0.014 A 
ATOM     42  C   UNL A   1      43.725  22.559  25.794  1.00  0.00     0.010 A 
ATOM     43  C   UNL A   1      42.978  22.205  28.066  1.00  0.00     0.010 A 
ATOM     44  C   UNL A   1      43.505  23.060  27.087  1.00  0.00    -0.014 A 
BRANCH  44  45
ATOM     45  C   UNL A   1      43.805  24.474  27.437  1.00  0.00     0.031 A 
ATOM     46  C   UNL A   1      45.224  24.975  27.402  1.00  0.00     0.074 A 
ATOM     47  C   UNL A   1      42.819  25.279  27.884  1.00  0.00     0.049 A 
ATOM     48  N   UNL A   1      45.700  26.145  27.744  1.00  0.00    -0.248 NA
ATOM     49  C   UNL A   1      46.257  24.012  26.981  1.00  0.00     0.031 C 
ATOM     50  C   UNL A   1      41.421  24.887  28.078  1.00  0.00     0.029 A 
ATOM     51  N   UNL A   1      42.843  26.599  28.262  1.00  0.00    -0.354 N 
ATOM     52  C   UNL A   1      47.080  26.040  27.619  1.00  0.00     0.074 A 
ATOM     53  C   UNL A   1      47.370  24.675  27.247  1.00  0.00     0.031 C 
ATOM     54  C   UNL A   1      40.714  25.953  28.487  1.00  0.00     0.029 A 
ATOM     55  C   UNL A   1      41.611  27.096  28.614  1.00  0.00     0.049 A 
ATOM     56  H   UNL A   1      43.666  27.139  28.281  1.00  0.00     0.167 HD
ATOM     57  C   UNL A   1      48.019  27.005  27.759  1.00  0.00     0.037 A 
ATOM     58  C   UNL A   1      41.245  28.340  28.977  1.00  0.00     0.037 A 
ATOM     59  C   UNL A   1      47.719  28.379  28.056  1.00  0.00     0.049 A 
ATOM     60  C   UNL A   1      42.290  29.422  29.020  1.00  0.00     0.074 A 
ATOM     61  C   UNL A   1      48.581  29.457  28.130  1.00  0.00     0.029 A 
ATOM     62  N   UNL A   1      46.445  28.864  28.313  1.00  0.00    -0.354 N 
ATOM     63  N   UNL A   1      43.581  29.334  28.807  1.00  0.00    -0.248 NA
ATOM     64  C   UNL A   1      41.824  30.780  29.332  1.00  0.00     0.031 C 
ATOM     65  C   UNL A   1      47.831  30.593  28.457  1.00  0.00     0.029 A 
ATOM     66  C   UNL A   1      46.498  30.228  28.547  1.00  0.00     0.049 A 
ATOM     67  H   UNL A   1      45.625  28.320  28.328  1.00  0.00     0.167 HD
ATOM     68  C   UNL A   1      44.077  30.624  28.929  1.00  0.00     0.074 A 
ATOM     69  C   UNL A   1      42.945  31.480  29.218  1.00  0.00     0.031 C 
ATOM     70  C   UNL A   1      45.355  31.061  28.816  1.00  0.00     0.037 A 
BRANCH  57  71
ATOM     71  C   UNL A   1      49.453  26.606  27.562  1.00  0.00     0.064 A 
ATOM     72  C   UNL A   1      49.997  26.421  26.280  1.00  0.00     0.173 A 
ATOM     73  C   UNL A   1      50.297  26.405  28.665  1.00  0.00     0.173 A 
ATOM     74  F   UNL A   1      49.230  26.585  25.193  1.00  0.00    -0.203 F 
ATOM     75  C   UNL A   1      51.316  26.010  26.112  1.00  0.00     0.198 A 
ATOM     76  C   UNL A   1      51.626  26.027  28.491  1.00  0.00     0.198 A 
ATOM     77  F   UNL A   1      49.831  26.570  29.913  1.00  0.00    -0.203 F 
ATOM     78  F   UNL A   1      51.790  25.774  24.881  1.00  0.00    -0.200 F 
ATOM     79  C   UNL A   1      52.131  25.819  27.217  1.00  0.00     0.200 A 
ATOM     80  F   UNL A   1      52.416  25.853  29.560  1.00  0.00    -0.200 F 
ATOM     81  F   UNL A   1      53.400  25.421  27.053  1.00  0.00    -0.200 F 
ENDBRANCH  57  71
BRANCH  58  82
ATOM     82  C   UNL A   1      39.816  28.646  29.252  1.00  0.00     0.064 A 
ATOM     83  C   UNL A   1      39.279  28.460  30.533  1.00  0.00     0.173 A 
ATOM     84  C   UNL A   1      38.963  29.130  28.251  1.00  0.00     0.173 A 
ATOM     85  F   UNL A   1      40.051  27.980  31.520  1.00  0.00    -0.203 F 
ATOM     86  C   UNL A   1      37.937  28.724  30.799  1.00  0.00     0.198 A 
ATOM     87  C   UNL A   1      37.627  29.420  28.524  1.00  0.00     0.198 A 
ATOM     88  F   UNL A   1      39.431  29.335  27.011  1.00  0.00    -0.203 F 
ATOM     89  F   UNL A   1      37.440  28.494  32.022  1.00  0.00    -0.200 F 
ATOM     90  C   UNL A   1      37.113  29.210  29.795  1.00  0.00     0.200 A 
ATOM     91  F   UNL A   1      36.836  29.901  27.555  1.00  0.00    -0.200 F 
ATOM     92  F   UNL A   1      35.823  29.468  30.051  1.00  0.00    -0.200 F 
ENDBRANCH  58  82
BRANCH  70  93
ATOM     93  C   UNL A   1      45.589  32.535  28.961  1.00  0.00     0.064 A 
ATOM     94  C   UNL A   1      45.526  33.402  27.860  1.00  0.00     0.173 A 
ATOM     95  C   UNL A   1      45.847  33.090  30.223  1.00  0.00     0.173 A 
ATOM     96  F   UNL A   1      45.295  32.917  26.631  1.00  0.00    -0.203 F 
ATOM     97  C   UNL A   1      45.741  34.768  28.015  1.00  0.00     0.198 A 
ATOM     98  C   UNL A   1      46.034  34.460  30.378  1.00  0.00     0.198 A 
ATOM     99  F   UNL A   1      45.909  32.302  31.308  1.00  0.00    -0.203 F 
ATOM    100  F   UNL A   1      45.725  35.572  26.943  1.00  0.00    -0.200 F 
ATOM    101  C   UNL A   1      45.989  35.297  29.274  1.00  0.00     0.200 A 
ATOM    102  F   UNL A   1      46.259  34.970  31.597  1.00  0.00    -0.200 F 
ATOM    103  F   UNL A   1      46.192  36.613  29.421  1.00  0.00    -0.200 F 
ENDBRANCH  70  93
ENDBRANCH  44  45
ENDBRANCH  36  39
ENDBRANCH  34  35
ENDBRANCH  33  34
ENDBRANCH   1  33
TORSDOF 16
ENDMDL
