MODEL 1
REMARK VINA RESULT:     -12.2      0.000      0.000
REMARK SMILES CC[C@H](C(=O)NCc1ccc(C(=O)NCCCCNC(=O)c2ccc(-c3c4nc(c(-c5c(F)c(F)c(F)c(F)c5F)c5ccc([nH]5)c(-c5c(F)c(F)c(F)c(F)c5F)c5nc(c(-c6c(F)c(F)c(F)c(F)c6F)c6ccc3[nH]6)C=C5)C=C4)cc2)o1)c1ccccc1
REMARK SMILES IDX 15 1 14 2 12 3 13 4 11 6 8 7 9 8 85 9 10 10 7 11 6 12 4 13
REMARK SMILES IDX 5 14 3 16 2 17 1 18 86 19 87 20 91 21 88 22 90 23 89 24
REMARK SMILES IDX 16 25 17 26 18 27 19 28 20 29 21 31 22 32 23 33 84 34 24 35
REMARK SMILES IDX 83 36 25 37 26 38 27 39 77 40 28 41 82 42 76 43 78 44 29 45
REMARK SMILES IDX 81 46 75 47 74 48 30 50 62 51 42 52 61 53 43 54 46 55 60 56
REMARK SMILES IDX 79 57 44 58 45 59 59 61 80 62 47 63 31 64 32 65 40 66 33 67
REMARK SMILES IDX 34 68 38 69 41 70 35 71 36 72 39 73 37 74 63 75 64 76 72 77
REMARK SMILES IDX 65 78 66 79 70 80 73 81 67 82 68 83 71 84 69 85 48 86 49 87
REMARK SMILES IDX 57 88 50 89 51 90 55 91 58 92 52 93 53 94 56 95 54 96
REMARK H PARENT 14 5 6 15 19 30 78 49 46 60
REMARK Flexibility Score: inf
ROOT
ATOM      1  C   UNL A   1      31.894  29.990  25.216  1.00  0.00     0.116 C 
ENDROOT
BRANCH   1   2
ATOM      2  N   UNL A   1      30.788  30.448  24.418  1.00  0.00    -0.349 N 
ATOM      3  C   UNL A   1      29.960  29.716  23.606  1.00  0.00     0.286 C 
ATOM      4  O   UNL A   1      29.082  30.342  23.012  1.00  0.00    -0.266 OA
ATOM      5  H   UNL A   1      30.601  31.414  24.459  1.00  0.00     0.163 HD
BRANCH   3   6
ATOM      6  C   UNL A   1      30.121  28.279  23.507  1.00  0.00     0.191 A 
ATOM      7  C   UNL A   1      31.126  26.513  22.659  1.00  0.00     0.124 A 
ATOM      8  C   UNL A   1      30.213  26.018  23.558  1.00  0.00     0.048 A 
ATOM      9  O   UNL A   1      31.042  27.863  22.594  1.00  0.00    -0.454 OA
ATOM     10  C   UNL A   1      29.602  27.160  24.140  1.00  0.00     0.056 A 
BRANCH   7  11
ATOM     11  C   UNL A   1      32.310  25.974  21.987  1.00  0.00     0.191 C 
BRANCH  11  12
ATOM     12  N   UNL A   1      32.522  24.566  22.102  1.00  0.00    -0.348 N 
ATOM     13  C   UNL A   1      33.022  23.985  23.246  1.00  0.00     0.227 C 
ATOM     14  O   UNL A   1      32.605  22.856  23.509  1.00  0.00    -0.274 OA
ATOM     15  H   UNL A   1      32.302  23.989  21.335  1.00  0.00     0.163 HD
BRANCH  13  16
ATOM     16  C   UNL A   1      34.103  24.740  24.087  1.00  0.00     0.108 C 
BRANCH  16  17
ATOM     17  C   UNL A   1      33.616  25.297  25.466  1.00  0.00     0.015 C 
ATOM     18  C   UNL A   1      33.275  26.752  25.714  1.00  0.00     0.005 C 
ENDBRANCH  16  17
BRANCH  16  19
ATOM     19  C   UNL A   1      35.403  23.912  24.330  1.00  0.00    -0.036 A 
ATOM     20  C   UNL A   1      35.969  23.083  23.351  1.00  0.00     0.004 A 
ATOM     21  C   UNL A   1      36.042  23.932  25.590  1.00  0.00     0.004 A 
ATOM     22  C   UNL A   1      36.991  22.181  23.672  1.00  0.00     0.000 A 
ATOM     23  C   UNL A   1      37.048  23.022  25.919  1.00  0.00     0.000 A 
ATOM     24  C   UNL A   1      37.500  22.121  24.966  1.00  0.00     0.000 A 
ENDBRANCH  16  19
ENDBRANCH  13  16
ENDBRANCH  11  12
ENDBRANCH   7  11
ENDBRANCH   3   6
ENDBRANCH   1   2
BRANCH   1  25
ATOM     25  C   UNL A   1      31.727  30.477  26.654  1.00  0.00     0.023 C 
BRANCH  25  26
ATOM     26  C   UNL A   1      31.523  31.989  26.753  1.00  0.00     0.023 C 
BRANCH  26  27
ATOM     27  C   UNL A   1      32.723  32.740  27.320  1.00  0.00     0.116 C 
BRANCH  27  28
ATOM     28  N   UNL A   1      32.426  34.131  27.629  1.00  0.00    -0.352 N 
ATOM     29  C   UNL A   1      32.988  34.926  28.593  1.00  0.00     0.251 C 
ATOM     30  H   UNL A   1      31.733  34.555  27.073  1.00  0.00     0.163 HD
ATOM     31  O   UNL A   1      32.534  36.040  28.826  1.00  0.00    -0.269 OA
BRANCH  29  32
ATOM     32  C   UNL A   1      34.120  34.399  29.373  1.00  0.00     0.039 A 
ATOM     33  C   UNL A   1      33.851  33.714  30.556  1.00  0.00     0.014 A 
ATOM     34  C   UNL A   1      35.431  34.537  28.906  1.00  0.00     0.014 A 
ATOM     35  C   UNL A   1      34.902  33.120  31.250  1.00  0.00     0.010 A 
ATOM     36  C   UNL A   1      36.463  33.867  29.551  1.00  0.00     0.010 A 
ATOM     37  C   UNL A   1      36.210  33.159  30.734  1.00  0.00    -0.014 A 
BRANCH  37  38
ATOM     38  C   UNL A   1      37.306  32.447  31.430  1.00  0.00     0.031 A 
ATOM     39  C   UNL A   1      38.010  31.295  30.772  1.00  0.00     0.074 A 
ATOM     40  C   UNL A   1      37.653  32.839  32.671  1.00  0.00     0.049 A 
ATOM     41  N   UNL A   1      39.034  30.600  31.201  1.00  0.00    -0.248 NA
ATOM     42  C   UNL A   1      37.482  30.844  29.475  1.00  0.00     0.031 C 
ATOM     43  C   UNL A   1      36.989  33.895  33.440  1.00  0.00     0.029 A 
ATOM     44  N   UNL A   1      38.657  32.408  33.499  1.00  0.00    -0.354 N 
ATOM     45  C   UNL A   1      39.271  29.637  30.230  1.00  0.00     0.074 A 
ATOM     46  C   UNL A   1      38.241  29.788  29.225  1.00  0.00     0.031 C 
ATOM     47  C   UNL A   1      37.637  34.065  34.602  1.00  0.00     0.029 A 
ATOM     48  C   UNL A   1      38.737  33.110  34.677  1.00  0.00     0.049 A 
ATOM     49  H   UNL A   1      39.264  31.667  33.271  1.00  0.00     0.167 HD
ATOM     50  C   UNL A   1      40.275  28.732  30.167  1.00  0.00     0.037 A 
ATOM     51  C   UNL A   1      39.609  33.002  35.696  1.00  0.00     0.037 A 
ATOM     52  C   UNL A   1      41.299  28.594  31.170  1.00  0.00     0.049 A 
ATOM     53  C   UNL A   1      40.720  31.993  35.594  1.00  0.00     0.074 A 
ATOM     54  C   UNL A   1      42.391  27.744  31.179  1.00  0.00     0.029 A 
ATOM     55  N   UNL A   1      41.352  29.324  32.350  1.00  0.00    -0.354 N 
ATOM     56  N   UNL A   1      40.991  31.149  34.628  1.00  0.00    -0.248 NA
ATOM     57  C   UNL A   1      41.660  31.937  36.721  1.00  0.00     0.031 C 
ATOM     58  C   UNL A   1      43.070  27.918  32.390  1.00  0.00     0.029 A 
ATOM     59  C   UNL A   1      42.443  28.924  33.106  1.00  0.00     0.049 A 
ATOM     60  H   UNL A   1      40.708  30.021  32.611  1.00  0.00     0.167 HD
ATOM     61  C   UNL A   1      42.144  30.481  35.016  1.00  0.00     0.074 A 
ATOM     62  C   UNL A   1      42.537  31.043  36.293  1.00  0.00     0.031 C 
ATOM     63  C   UNL A   1      42.815  29.489  34.379  1.00  0.00     0.037 A 
BRANCH  50  64
ATOM     64  C   UNL A   1      40.314  27.820  28.973  1.00  0.00     0.064 A 
ATOM     65  C   UNL A   1      39.631  26.592  28.958  1.00  0.00     0.173 A 
ATOM     66  C   UNL A   1      41.016  28.189  27.815  1.00  0.00     0.173 A 
ATOM     67  F   UNL A   1      38.956  26.183  30.042  1.00  0.00    -0.203 F 
ATOM     68  C   UNL A   1      39.676  25.759  27.844  1.00  0.00     0.198 A 
ATOM     69  C   UNL A   1      41.027  27.369  26.689  1.00  0.00     0.198 A 
ATOM     70  F   UNL A   1      41.685  29.351  27.770  1.00  0.00    -0.203 F 
ATOM     71  F   UNL A   1      39.061  24.568  27.876  1.00  0.00    -0.200 F 
ATOM     72  C   UNL A   1      40.365  26.151  26.708  1.00  0.00     0.200 A 
ATOM     73  F   UNL A   1      41.684  27.757  25.587  1.00  0.00    -0.200 F 
ATOM     74  F   UNL A   1      40.399  25.352  25.632  1.00  0.00    -0.200 F 
ENDBRANCH  50  64
BRANCH  51  75
ATOM     75  C   UNL A   1      39.490  33.896  36.877  1.00  0.00     0.064 A 
ATOM     76  C   UNL A   1      38.781  33.495  38.019  1.00  0.00     0.173 A 
ATOM     77  C   UNL A   1      40.071  35.172  36.887  1.00  0.00     0.173 A 
ATOM     78  F   UNL A   1      38.192  32.291  38.054  1.00  0.00    -0.203 F 
ATOM     79  C   UNL A   1      38.632  34.348  39.111  1.00  0.00     0.198 A 
ATOM     80  C   UNL A   1      39.952  36.010  37.993  1.00  0.00     0.198 A 
ATOM     81  F   UNL A   1      40.769  35.601  35.824  1.00  0.00    -0.203 F 
ATOM     82  F   UNL A   1      37.902  33.960  40.166  1.00  0.00    -0.200 F 
ATOM     83  C   UNL A   1      39.223  35.602  39.100  1.00  0.00     0.200 A 
ATOM     84  F   UNL A   1      40.541  37.214  37.986  1.00  0.00    -0.200 F 
ATOM     85  F   UNL A   1      39.083  36.420  40.152  1.00  0.00    -0.200 F 
ENDBRANCH  51  75
BRANCH  63  86
ATOM     86  C   UNL A   1      44.062  28.977  35.045  1.00  0.00     0.064 A 
ATOM     87  C   UNL A   1      44.041  27.867  35.904  1.00  0.00     0.173 A 
ATOM     88  C   UNL A   1      45.294  29.613  34.830  1.00  0.00     0.173 A 
ATOM     89  F   UNL A   1      42.888  27.228  36.153  1.00  0.00    -0.203 F 
ATOM     90  C   UNL A   1      45.193  27.450  36.566  1.00  0.00     0.198 A 
ATOM     91  C   UNL A   1      46.452  29.168  35.460  1.00  0.00     0.198 A 
ATOM     92  F   UNL A   1      45.377  30.671  34.010  1.00  0.00    -0.203 F 
ATOM     93  F   UNL A   1      45.130  26.440  37.445  1.00  0.00    -0.200 F 
ATOM     94  C   UNL A   1      46.398  28.098  36.340  1.00  0.00     0.200 A 
ATOM     95  F   UNL A   1      47.620  29.784  35.227  1.00  0.00    -0.200 F 
ATOM     96  F   UNL A   1      47.504  27.700  36.983  1.00  0.00    -0.200 F 
ENDBRANCH  63  86
ENDBRANCH  37  38
ENDBRANCH  29  32
ENDBRANCH  27  28
ENDBRANCH  26  27
ENDBRANCH  25  26
ENDBRANCH   1  25
TORSDOF 16
ENDMDL
MODEL 2
REMARK VINA RESULT:     -12.2      1.056      7.435
REMARK SMILES CC[C@H](C(=O)NCc1ccc(C(=O)NCCCCNC(=O)c2ccc(-c3c4nc(c(-c5c(F)c(F)c(F)c(F)c5F)c5ccc([nH]5)c(-c5c(F)c(F)c(F)c(F)c5F)c5nc(c(-c6c(F)c(F)c(F)c(F)c6F)c6ccc3[nH]6)C=C5)C=C4)cc2)o1)c1ccccc1
REMARK SMILES IDX 15 1 14 2 12 3 13 4 11 6 8 7 9 8 85 9 10 10 7 11 6 12 4 13
REMARK SMILES IDX 5 14 3 16 2 17 1 18 86 19 87 20 91 21 88 22 90 23 89 24
REMARK SMILES IDX 16 25 17 26 18 27 19 28 20 29 21 31 22 32 23 33 84 34 24 35
REMARK SMILES IDX 83 36 25 37 26 38 27 39 77 40 28 41 82 42 76 43 78 44 29 45
REMARK SMILES IDX 81 46 75 47 74 48 30 50 62 51 42 52 61 53 43 54 46 55 60 56
REMARK SMILES IDX 79 57 44 58 45 59 59 61 80 62 47 63 31 64 32 65 40 66 33 67
REMARK SMILES IDX 34 68 38 69 41 70 35 71 36 72 39 73 37 74 63 75 64 76 72 77
REMARK SMILES IDX 65 78 66 79 70 80 73 81 67 82 68 83 71 84 69 85 48 86 49 87
REMARK SMILES IDX 57 88 50 89 51 90 55 91 58 92 52 93 53 94 56 95 54 96
REMARK H PARENT 14 5 6 15 19 30 78 49 46 60
REMARK Flexibility Score: inf
ROOT
ATOM      1  C   UNL A   1      32.377  29.891  25.599  1.00  0.00     0.116 C 
ENDROOT
BRANCH   1   2
ATOM      2  N   UNL A   1      31.440  30.050  24.519  1.00  0.00    -0.349 N 
ATOM      3  C   UNL A   1      30.638  29.102  23.937  1.00  0.00     0.286 C 
ATOM      4  O   UNL A   1      29.921  29.483  23.013  1.00  0.00    -0.266 OA
ATOM      5  H   UNL A   1      31.365  30.959  24.147  1.00  0.00     0.163 HD
BRANCH   3   6
ATOM      6  C   UNL A   1      30.638  27.741  24.438  1.00  0.00     0.191 A 
ATOM      7  C   UNL A   1      30.555  25.569  24.091  1.00  0.00     0.124 A 
ATOM      8  C   UNL A   1      30.705  25.718  25.449  1.00  0.00     0.048 A 
ATOM      9  O   UNL A   1      30.470  26.778  23.489  1.00  0.00    -0.454 OA
ATOM     10  C   UNL A   1      30.809  27.118  25.663  1.00  0.00     0.056 A 
BRANCH   7  11
ATOM     11  C   UNL A   1      30.736  24.464  23.148  1.00  0.00     0.191 C 
BRANCH  11  12
ATOM     12  N   UNL A   1      31.887  24.528  22.304  1.00  0.00    -0.348 N 
ATOM     13  C   UNL A   1      32.861  23.554  22.307  1.00  0.00     0.227 C 
ATOM     14  O   UNL A   1      33.413  23.334  21.228  1.00  0.00    -0.274 OA
ATOM     15  H   UNL A   1      31.988  25.297  21.697  1.00  0.00     0.163 HD
BRANCH  13  16
ATOM     16  C   UNL A   1      33.243  22.848  23.649  1.00  0.00     0.108 C 
BRANCH  16  17
ATOM     17  C   UNL A   1      33.044  21.295  23.674  1.00  0.00     0.015 C 
ATOM     18  C   UNL A   1      33.198  20.445  24.918  1.00  0.00     0.005 C 
ENDBRANCH  16  17
BRANCH  16  19
ATOM     19  C   UNL A   1      34.693  23.158  24.133  1.00  0.00    -0.036 A 
ATOM     20  C   UNL A   1      35.830  22.594  23.535  1.00  0.00     0.004 A 
ATOM     21  C   UNL A   1      34.915  24.000  25.246  1.00  0.00     0.004 A 
ATOM     22  C   UNL A   1      37.091  22.706  24.135  1.00  0.00     0.000 A 
ATOM     23  C   UNL A   1      36.166  24.098  25.856  1.00  0.00     0.000 A 
ATOM     24  C   UNL A   1      37.250  23.422  25.317  1.00  0.00     0.000 A 
ENDBRANCH  16  19
ENDBRANCH  13  16
ENDBRANCH  11  12
ENDBRANCH   7  11
ENDBRANCH   3   6
ENDBRANCH   1   2
BRANCH   1  25
ATOM     25  C   UNL A   1      31.782  30.463  26.884  1.00  0.00     0.023 C 
BRANCH  25  26
ATOM     26  C   UNL A   1      31.548  31.973  26.815  1.00  0.00     0.023 C 
BRANCH  26  27
ATOM     27  C   UNL A   1      32.760  32.807  27.213  1.00  0.00     0.116 C 
BRANCH  27  28
ATOM     28  N   UNL A   1      32.407  34.156  27.628  1.00  0.00    -0.352 N 
ATOM     29  C   UNL A   1      32.984  34.923  28.605  1.00  0.00     0.251 C 
ATOM     30  H   UNL A   1      31.657  34.571  27.143  1.00  0.00     0.163 HD
ATOM     31  O   UNL A   1      32.484  35.992  28.937  1.00  0.00    -0.269 OA
BRANCH  29  32
ATOM     32  C   UNL A   1      34.191  34.418  29.281  1.00  0.00     0.039 A 
ATOM     33  C   UNL A   1      34.036  33.654  30.436  1.00  0.00     0.014 A 
ATOM     34  C   UNL A   1      35.459  34.655  28.743  1.00  0.00     0.014 A 
ATOM     35  C   UNL A   1      35.159  33.081  31.026  1.00  0.00     0.010 A 
ATOM     36  C   UNL A   1      36.565  34.009  29.281  1.00  0.00     0.010 A 
ATOM     37  C   UNL A   1      36.427  33.223  30.433  1.00  0.00    -0.014 A 
BRANCH  37  38
ATOM     38  C   UNL A   1      37.602  32.536  31.016  1.00  0.00     0.031 A 
ATOM     39  C   UNL A   1      38.098  32.897  32.387  1.00  0.00     0.074 A 
ATOM     40  C   UNL A   1      38.230  31.589  30.292  1.00  0.00     0.049 A 
ATOM     41  N   UNL A   1      39.067  32.357  33.083  1.00  0.00    -0.248 NA
ATOM     42  C   UNL A   1      37.442  34.032  33.055  1.00  0.00     0.031 C 
ATOM     43  C   UNL A   1      37.885  31.209  28.920  1.00  0.00     0.029 A 
ATOM     44  N   UNL A   1      39.279  30.766  30.611  1.00  0.00    -0.354 N 
ATOM     45  C   UNL A   1      39.132  33.081  34.265  1.00  0.00     0.074 A 
ATOM     46  C   UNL A   1      38.157  34.145  34.164  1.00  0.00     0.031 C 
ATOM     47  C   UNL A   1      38.671  30.192  28.536  1.00  0.00     0.029 A 
ATOM     48  C   UNL A   1      39.596  29.872  29.617  1.00  0.00     0.049 A 
ATOM     49  H   UNL A   1      39.759  30.811  31.469  1.00  0.00     0.167 HD
ATOM     50  C   UNL A   1      39.911  32.858  35.350  1.00  0.00     0.037 A 
ATOM     51  C   UNL A   1      40.522  28.896  29.590  1.00  0.00     0.037 A 
ATOM     52  C   UNL A   1      40.874  31.791  35.443  1.00  0.00     0.049 A 
ATOM     53  C   UNL A   1      41.367  28.665  30.812  1.00  0.00     0.074 A 
ATOM     54  C   UNL A   1      41.679  31.445  36.514  1.00  0.00     0.029 A 
ATOM     55  N   UNL A   1      41.169  30.901  34.419  1.00  0.00    -0.354 N 
ATOM     56  N   UNL A   1      41.358  29.297  31.961  1.00  0.00    -0.248 NA
ATOM     57  C   UNL A   1      42.342  27.569  30.738  1.00  0.00     0.031 C 
ATOM     58  C   UNL A   1      42.500  30.384  36.119  1.00  0.00     0.029 A 
ATOM     59  C   UNL A   1      42.161  30.023  34.825  1.00  0.00     0.049 A 
ATOM     60  H   UNL A   1      40.736  30.895  33.535  1.00  0.00     0.167 HD
ATOM     61  C   UNL A   1      42.302  28.661  32.755  1.00  0.00     0.074 A 
ATOM     62  C   UNL A   1      42.842  27.573  31.964  1.00  0.00     0.031 C 
ATOM     63  C   UNL A   1      42.693  28.951  34.021  1.00  0.00     0.037 A 
BRANCH  50  64
ATOM     64  C   UNL A   1      39.753  33.786  36.521  1.00  0.00     0.064 A 
ATOM     65  C   UNL A   1      40.411  35.026  36.575  1.00  0.00     0.173 A 
ATOM     66  C   UNL A   1      38.910  33.448  37.591  1.00  0.00     0.173 A 
ATOM     67  F   UNL A   1      41.239  35.394  35.587  1.00  0.00    -0.203 F 
ATOM     68  C   UNL A   1      40.253  35.876  37.667  1.00  0.00     0.198 A 
ATOM     69  C   UNL A   1      38.727  34.317  38.664  1.00  0.00     0.198 A 
ATOM     70  F   UNL A   1      38.255  32.278  37.593  1.00  0.00    -0.203 F 
ATOM     71  F   UNL A   1      40.935  37.029  37.720  1.00  0.00    -0.200 F 
ATOM     72  C   UNL A   1      39.406  35.525  38.706  1.00  0.00     0.200 A 
ATOM     73  F   UNL A   1      37.896  33.982  39.661  1.00  0.00    -0.200 F 
ATOM     74  F   UNL A   1      39.248  36.349  39.752  1.00  0.00    -0.200 F 
ENDBRANCH  50  64
BRANCH  51  75
ATOM     75  C   UNL A   1      40.669  28.043  28.382  1.00  0.00     0.064 A 
ATOM     76  C   UNL A   1      40.037  26.793  28.298  1.00  0.00     0.173 A 
ATOM     77  C   UNL A   1      41.451  28.451  27.292  1.00  0.00     0.173 A 
ATOM     78  F   UNL A   1      39.291  26.349  29.320  1.00  0.00    -0.203 F 
ATOM     79  C   UNL A   1      40.206  25.974  27.183  1.00  0.00     0.198 A 
ATOM     80  C   UNL A   1      41.591  27.646  26.163  1.00  0.00     0.198 A 
ATOM     81  F   UNL A   1      42.069  29.641  27.317  1.00  0.00    -0.203 F 
ATOM     82  F   UNL A   1      39.636  24.761  27.154  1.00  0.00    -0.200 F 
ATOM     83  C   UNL A   1      40.978  26.403  26.115  1.00  0.00     0.200 A 
ATOM     84  F   UNL A   1      42.323  28.074  25.125  1.00  0.00    -0.200 F 
ATOM     85  F   UNL A   1      41.138  25.616  25.042  1.00  0.00    -0.200 F 
ENDBRANCH  51  75
BRANCH  63  86
ATOM     86  C   UNL A   1      43.732  28.053  34.633  1.00  0.00     0.064 A 
ATOM     87  C   UNL A   1      45.096  28.387  34.627  1.00  0.00     0.173 A 
ATOM     88  C   UNL A   1      43.360  26.836  35.224  1.00  0.00     0.173 A 
ATOM     89  F   UNL A   1      45.508  29.534  34.066  1.00  0.00    -0.203 F 
ATOM     90  C   UNL A   1      46.051  27.511  35.137  1.00  0.00     0.198 A 
ATOM     91  C   UNL A   1      44.313  25.981  35.771  1.00  0.00     0.198 A 
ATOM     92  F   UNL A   1      42.070  26.471  35.269  1.00  0.00    -0.203 F 
ATOM     93  F   UNL A   1      47.353  27.815  35.044  1.00  0.00    -0.200 F 
ATOM     94  C   UNL A   1      45.658  26.311  35.712  1.00  0.00     0.200 A 
ATOM     95  F   UNL A   1      43.931  24.831  36.342  1.00  0.00    -0.200 F 
ATOM     96  F   UNL A   1      46.579  25.466  36.196  1.00  0.00    -0.200 F 
ENDBRANCH  63  86
ENDBRANCH  37  38
ENDBRANCH  29  32
ENDBRANCH  27  28
ENDBRANCH  26  27
ENDBRANCH  25  26
ENDBRANCH   1  25
TORSDOF 16
ENDMDL
MODEL 3
REMARK VINA RESULT:     -12.1      1.706      7.553
REMARK SMILES CC[C@H](C(=O)NCc1ccc(C(=O)NCCCCNC(=O)c2ccc(-c3c4nc(c(-c5c(F)c(F)c(F)c(F)c5F)c5ccc([nH]5)c(-c5c(F)c(F)c(F)c(F)c5F)c5nc(c(-c6c(F)c(F)c(F)c(F)c6F)c6ccc3[nH]6)C=C5)C=C4)cc2)o1)c1ccccc1
REMARK SMILES IDX 15 1 14 2 12 3 13 4 11 6 8 7 9 8 85 9 10 10 7 11 6 12 4 13
REMARK SMILES IDX 5 14 3 16 2 17 1 18 86 19 87 20 91 21 88 22 90 23 89 24
REMARK SMILES IDX 16 25 17 26 18 27 19 28 20 29 21 31 22 32 23 33 84 34 24 35
REMARK SMILES IDX 83 36 25 37 26 38 27 39 77 40 28 41 82 42 76 43 78 44 29 45
REMARK SMILES IDX 81 46 75 47 74 48 30 50 62 51 42 52 61 53 43 54 46 55 60 56
REMARK SMILES IDX 79 57 44 58 45 59 59 61 80 62 47 63 31 64 32 65 40 66 33 67
REMARK SMILES IDX 34 68 38 69 41 70 35 71 36 72 39 73 37 74 63 75 64 76 72 77
REMARK SMILES IDX 65 78 66 79 70 80 73 81 67 82 68 83 71 84 69 85 48 86 49 87
REMARK SMILES IDX 57 88 50 89 51 90 55 91 58 92 52 93 53 94 56 95 54 96
REMARK H PARENT 14 5 6 15 19 30 78 49 46 60
REMARK Flexibility Score: inf
ROOT
ATOM      1  C   UNL A   1      31.433  29.633  25.438  1.00  0.00     0.116 C 
ENDROOT
BRANCH   1   2
ATOM      2  N   UNL A   1      32.452  29.684  24.423  1.00  0.00    -0.349 N 
ATOM      3  C   UNL A   1      33.269  28.675  23.982  1.00  0.00     0.286 C 
ATOM      4  O   UNL A   1      34.076  28.970  23.101  1.00  0.00    -0.266 OA
ATOM      5  H   UNL A   1      32.579  30.559  23.988  1.00  0.00     0.163 HD
BRANCH   3   6
ATOM      6  C   UNL A   1      33.134  27.338  24.525  1.00  0.00     0.191 A 
ATOM      7  C   UNL A   1      32.398  25.269  24.370  1.00  0.00     0.124 A 
ATOM      8  C   UNL A   1      33.096  25.322  25.552  1.00  0.00     0.048 A 
ATOM      9  O   UNL A   1      32.381  26.485  23.776  1.00  0.00    -0.454 OA
ATOM     10  C   UNL A   1      33.612  26.643  25.624  1.00  0.00     0.056 A 
BRANCH   7  11
ATOM     11  C   UNL A   1      31.922  24.192  23.499  1.00  0.00     0.191 C 
BRANCH  11  12
ATOM     12  N   UNL A   1      31.226  23.119  24.135  1.00  0.00    -0.348 N 
ATOM     13  C   UNL A   1      31.881  22.059  24.724  1.00  0.00     0.227 C 
ATOM     14  O   UNL A   1      31.340  21.571  25.718  1.00  0.00    -0.274 OA
ATOM     15  H   UNL A   1      30.242  23.137  24.154  1.00  0.00     0.163 HD
BRANCH  13  16
ATOM     16  C   UNL A   1      33.197  21.512  24.082  1.00  0.00     0.108 C 
BRANCH  16  17
ATOM     17  C   UNL A   1      34.523  21.938  24.798  1.00  0.00     0.015 C 
ATOM     18  C   UNL A   1      35.599  22.780  24.145  1.00  0.00     0.005 C 
ENDBRANCH  16  17
BRANCH  16  19
ATOM     19  C   UNL A   1      33.216  19.962  23.909  1.00  0.00    -0.036 A 
ATOM     20  C   UNL A   1      34.150  19.138  24.554  1.00  0.00     0.004 A 
ATOM     21  C   UNL A   1      32.303  19.324  23.040  1.00  0.00     0.004 A 
ATOM     22  C   UNL A   1      34.290  17.790  24.199  1.00  0.00     0.000 A 
ATOM     23  C   UNL A   1      32.450  17.986  22.670  1.00  0.00     0.000 A 
ATOM     24  C   UNL A   1      33.468  17.226  23.227  1.00  0.00     0.000 A 
ENDBRANCH  16  19
ENDBRANCH  13  16
ENDBRANCH  11  12
ENDBRANCH   7  11
ENDBRANCH   3   6
ENDBRANCH   1   2
BRANCH   1  25
ATOM     25  C   UNL A   1      31.945  30.296  26.715  1.00  0.00     0.023 C 
BRANCH  25  26
ATOM     26  C   UNL A   1      31.655  31.796  26.768  1.00  0.00     0.023 C 
BRANCH  26  27
ATOM     27  C   UNL A   1      32.845  32.643  27.204  1.00  0.00     0.116 C 
BRANCH  27  28
ATOM     28  N   UNL A   1      32.465  33.987  27.611  1.00  0.00    -0.352 N 
ATOM     29  C   UNL A   1      33.024  34.769  28.587  1.00  0.00     0.251 C 
ATOM     30  H   UNL A   1      31.709  34.386  27.122  1.00  0.00     0.163 HD
ATOM     31  O   UNL A   1      32.502  35.830  28.912  1.00  0.00    -0.269 OA
BRANCH  29  32
ATOM     32  C   UNL A   1      34.237  34.290  29.269  1.00  0.00     0.039 A 
ATOM     33  C   UNL A   1      34.093  33.557  30.446  1.00  0.00     0.014 A 
ATOM     34  C   UNL A   1      35.501  34.521  28.718  1.00  0.00     0.014 A 
ATOM     35  C   UNL A   1      35.223  33.008  31.045  1.00  0.00     0.010 A 
ATOM     36  C   UNL A   1      36.614  33.896  29.268  1.00  0.00     0.010 A 
ATOM     37  C   UNL A   1      36.487  33.141  30.442  1.00  0.00    -0.014 A 
BRANCH  37  38
ATOM     38  C   UNL A   1      37.669  32.478  31.037  1.00  0.00     0.031 A 
ATOM     39  C   UNL A   1      38.156  32.863  32.405  1.00  0.00     0.074 A 
ATOM     40  C   UNL A   1      38.313  31.531  30.327  1.00  0.00     0.049 A 
ATOM     41  N   UNL A   1      39.129  32.345  33.111  1.00  0.00    -0.248 NA
ATOM     42  C   UNL A   1      37.482  33.997  33.057  1.00  0.00     0.031 C 
ATOM     43  C   UNL A   1      37.977  31.129  28.958  1.00  0.00     0.029 A 
ATOM     44  N   UNL A   1      39.372  30.727  30.659  1.00  0.00    -0.354 N 
ATOM     45  C   UNL A   1      39.180  33.084  34.284  1.00  0.00     0.074 A 
ATOM     46  C   UNL A   1      38.192  34.133  34.167  1.00  0.00     0.031 C 
ATOM     47  C   UNL A   1      38.779  30.118  28.590  1.00  0.00     0.029 A 
ATOM     48  C   UNL A   1      39.704  29.825  29.678  1.00  0.00     0.049 A 
ATOM     49  H   UNL A   1      39.848  30.788  31.519  1.00  0.00     0.167 HD
ATOM     50  C   UNL A   1      39.959  32.885  35.374  1.00  0.00     0.037 A 
ATOM     51  C   UNL A   1      40.644  28.861  29.666  1.00  0.00     0.037 A 
ATOM     52  C   UNL A   1      40.936  31.833  35.483  1.00  0.00     0.049 A 
ATOM     53  C   UNL A   1      41.488  28.657  30.893  1.00  0.00     0.074 A 
ATOM     54  C   UNL A   1      41.742  31.511  36.561  1.00  0.00     0.029 A 
ATOM     55  N   UNL A   1      41.246  30.935  34.471  1.00  0.00    -0.354 N 
ATOM     56  N   UNL A   1      41.466  29.303  32.034  1.00  0.00    -0.248 NA
ATOM     57  C   UNL A   1      42.478  27.574  30.836  1.00  0.00     0.031 C 
ATOM     58  C   UNL A   1      42.580  30.457  36.181  1.00  0.00     0.029 A 
ATOM     59  C   UNL A   1      42.249  30.075  34.891  1.00  0.00     0.049 A 
ATOM     60  H   UNL A   1      40.817  30.912  33.586  1.00  0.00     0.167 HD
ATOM     61  C   UNL A   1      42.416  28.690  32.838  1.00  0.00     0.074 A 
ATOM     62  C   UNL A   1      42.974  27.600  32.063  1.00  0.00     0.031 C 
ATOM     63  C   UNL A   1      42.799  29.000  34.103  1.00  0.00     0.037 A 
BRANCH  50  64
ATOM     64  C   UNL A   1      39.784  33.825  36.533  1.00  0.00     0.064 A 
ATOM     65  C   UNL A   1      38.938  33.518  37.612  1.00  0.00     0.173 A 
ATOM     66  C   UNL A   1      40.493  35.034  36.586  1.00  0.00     0.173 A 
ATOM     67  F   UNL A   1      38.225  32.381  37.608  1.00  0.00    -0.203 F 
ATOM     68  C   UNL A   1      38.788  34.398  38.681  1.00  0.00     0.198 A 
ATOM     69  C   UNL A   1      40.368  35.895  37.674  1.00  0.00     0.198 A 
ATOM     70  F   UNL A   1      41.317  35.380  35.585  1.00  0.00    -0.203 F 
ATOM     71  F   UNL A   1      37.932  34.106  39.671  1.00  0.00    -0.200 F 
ATOM     72  C   UNL A   1      39.508  35.581  38.715  1.00  0.00     0.200 A 
ATOM     73  F   UNL A   1      41.076  37.032  37.711  1.00  0.00    -0.200 F 
ATOM     74  F   UNL A   1      39.370  36.422  39.749  1.00  0.00    -0.200 F 
ENDBRANCH  50  64
BRANCH  51  75
ATOM     75  C   UNL A   1      40.807  27.995  28.469  1.00  0.00     0.064 A 
ATOM     76  C   UNL A   1      41.621  28.389  27.397  1.00  0.00     0.173 A 
ATOM     77  C   UNL A   1      40.146  26.763  28.365  1.00  0.00     0.173 A 
ATOM     78  F   UNL A   1      42.263  29.565  27.439  1.00  0.00    -0.203 F 
ATOM     79  C   UNL A   1      41.744  27.597  26.256  1.00  0.00     0.198 A 
ATOM     80  C   UNL A   1      40.296  25.956  27.239  1.00  0.00     0.198 A 
ATOM     81  F   UNL A   1      39.362  26.334  29.367  1.00  0.00    -0.203 F 
ATOM     82  F   UNL A   1      42.484  28.024  25.223  1.00  0.00    -0.200 F 
ATOM     83  C   UNL A   1      41.086  26.380  26.181  1.00  0.00     0.200 A 
ATOM     84  F   UNL A   1      39.673  24.771  27.179  1.00  0.00    -0.200 F 
ATOM     85  F   UNL A   1      41.205  25.617  25.085  1.00  0.00    -0.200 F 
ENDBRANCH  51  75
BRANCH  63  86
ATOM     86  C   UNL A   1      43.848  28.125  34.729  1.00  0.00     0.064 A 
ATOM     87  C   UNL A   1      43.514  26.964  35.444  1.00  0.00     0.173 A 
ATOM     88  C   UNL A   1      45.207  28.459  34.624  1.00  0.00     0.173 A 
ATOM     89  F   UNL A   1      42.229  26.604  35.585  1.00  0.00    -0.203 F 
ATOM     90  C   UNL A   1      44.494  26.204  36.077  1.00  0.00     0.198 A 
ATOM     91  C   UNL A   1      46.188  27.673  35.222  1.00  0.00     0.198 A 
ATOM     92  F   UNL A   1      45.586  29.550  33.942  1.00  0.00    -0.203 F 
ATOM     93  F   UNL A   1      44.143  25.147  36.822  1.00  0.00    -0.200 F 
ATOM     94  C   UNL A   1      45.831  26.557  35.961  1.00  0.00     0.200 A 
ATOM     95  F   UNL A   1      47.481  28.005  35.094  1.00  0.00    -0.200 F 
ATOM     96  F   UNL A   1      46.772  25.828  36.576  1.00  0.00    -0.200 F 
ENDBRANCH  63  86
ENDBRANCH  37  38
ENDBRANCH  29  32
ENDBRANCH  27  28
ENDBRANCH  26  27
ENDBRANCH  25  26
ENDBRANCH   1  25
TORSDOF 16
ENDMDL
