MODEL 1
REMARK VINA RESULT:     -13.4      0.000      0.000
REMARK SMILES CC(C)[C@H](NC(=O)[C@H]1CC(=O)N(c2ccc(F)cc2)C1)C(=O)N1CCC[C@@H]1C(=O)NCCCCNC(=O)c1ccc(-c2c3nc(c(-c4c(F)c(F)c(F)c(F)c4F)c4ccc([nH]4)c(-c4c(F)c(F)c(F)c(F)c4F)c4nc(c(-c5c(F)c(F)c(F)c(F)c5F)c5ccc2[nH]5)C=C4)C=C3)cc1
REMARK SMILES IDX 31 1 30 2 28 3 29 4 27 6 23 7 24 8 25 9 26 10 21 11 22 12
REMARK SMILES IDX 4 13 2 14 1 15 3 16 5 17 6 18 7 20 8 21 9 22 20 23 10 24
REMARK SMILES IDX 12 25 11 26 13 27 14 28 19 29 15 30 18 31 16 32 17 33 32 34
REMARK SMILES IDX 33 35 34 36 35 37 36 38 37 40 38 41 39 42 100 43 40 44 99 45
REMARK SMILES IDX 41 46 42 47 43 48 93 49 44 50 98 51 92 52 94 53 45 54 97 55
REMARK SMILES IDX 91 56 90 57 46 59 78 60 58 61 77 62 59 63 62 64 76 65 95 66
REMARK SMILES IDX 60 67 61 68 75 70 96 71 63 72 47 73 48 74 56 75 49 76 50 77
REMARK SMILES IDX 54 78 57 79 51 80 52 81 55 82 53 83 79 84 80 85 88 86 81 87
REMARK SMILES IDX 82 88 86 89 89 90 83 91 84 92 87 93 85 94 64 95 65 96 73 97
REMARK SMILES IDX 66 98 67 99 71 100 74 101 68 102 69 103 72 104 70 105
REMARK H PARENT 30 5 5 19 35 39 94 58 62 69
REMARK Flexibility Score: inf
ROOT
ATOM      1  C   UNL A   1      33.687  20.125  25.505  1.00  0.00     0.116 C 
ENDROOT
BRANCH   1   2
ATOM      2  N   UNL A   1      33.614  20.733  26.814  1.00  0.00    -0.354 N 
ATOM      3  C   UNL A   1      32.901  21.823  27.224  1.00  0.00     0.242 C 
ATOM      4  O   UNL A   1      33.082  22.200  28.385  1.00  0.00    -0.273 OA
ATOM      5  H   UNL A   1      34.157  20.297  27.510  1.00  0.00     0.163 HD
BRANCH   3   6
ATOM      6  C   UNL A   1      32.026  22.642  26.250  1.00  0.00     0.174 C 
ATOM      7  N   UNL A   1      32.246  24.099  26.273  1.00  0.00    -0.329 N 
ATOM      8  C   UNL A   1      30.976  24.764  26.063  1.00  0.00     0.120 C 
ATOM      9  C   UNL A   1      29.930  23.828  26.648  1.00  0.00     0.024 C 
ATOM     10  C   UNL A   1      30.528  22.430  26.504  1.00  0.00     0.037 C 
BRANCH   7  11
ATOM     11  C   UNL A   1      33.386  24.581  25.637  1.00  0.00     0.246 C 
ATOM     12  O   UNL A   1      34.499  24.452  26.156  1.00  0.00    -0.272 OA
BRANCH  11  13
ATOM     13  C   UNL A   1      33.237  25.521  24.402  1.00  0.00     0.174 C 
BRANCH  13  14
ATOM     14  C   UNL A   1      33.845  24.884  23.125  1.00  0.00     0.015 C 
ATOM     15  C   UNL A   1      33.676  23.359  23.054  1.00  0.00     0.010 C 
ATOM     16  C   UNL A   1      33.273  25.478  21.836  1.00  0.00     0.010 C 
ENDBRANCH  13  14
BRANCH  13  17
ATOM     17  N   UNL A   1      33.508  26.954  24.660  1.00  0.00    -0.344 N 
ATOM     18  C   UNL A   1      32.895  28.146  24.448  1.00  0.00     0.226 C 
ATOM     19  H   UNL A   1      34.375  27.077  25.110  1.00  0.00     0.164 HD
ATOM     20  O   UNL A   1      33.402  29.142  24.969  1.00  0.00    -0.275 OA
BRANCH  18  21
ATOM     21  C   UNL A   1      31.690  28.280  23.564  1.00  0.00     0.107 C 
ATOM     22  C   UNL A   1      30.477  27.440  23.944  1.00  0.00     0.116 C 
ATOM     23  C   UNL A   1      31.129  29.675  23.697  1.00  0.00     0.139 C 
ATOM     24  C   UNL A   1      29.333  28.246  23.349  1.00  0.00     0.227 C 
ATOM     25  N   UNL A   1      29.826  29.543  23.103  1.00  0.00    -0.312 N 
ATOM     26  O   UNL A   1      28.237  27.771  23.123  1.00  0.00    -0.274 OA
BRANCH  25  27
ATOM     27  C   UNL A   1      29.158  30.618  22.473  1.00  0.00     0.044 A 
ATOM     28  C   UNL A   1      29.035  31.870  23.082  1.00  0.00     0.029 A 
ATOM     29  C   UNL A   1      28.585  30.443  21.199  1.00  0.00     0.029 A 
ATOM     30  C   UNL A   1      28.407  32.931  22.415  1.00  0.00     0.041 A 
ATOM     31  C   UNL A   1      27.940  31.492  20.542  1.00  0.00     0.041 A 
ATOM     32  C   UNL A   1      27.872  32.733  21.151  1.00  0.00     0.123 A 
ATOM     33  F   UNL A   1      27.278  33.747  20.509  1.00  0.00    -0.207 F 
ENDBRANCH  25  27
ENDBRANCH  18  21
ENDBRANCH  13  17
ENDBRANCH  11  13
ENDBRANCH   7  11
ENDBRANCH   3   6
ENDBRANCH   1   2
BRANCH   1  34
ATOM     34  C   UNL A   1      35.012  20.387  24.804  1.00  0.00     0.023 C 
BRANCH  34  35
ATOM     35  C   UNL A   1      35.966  21.293  25.582  1.00  0.00     0.023 C 
BRANCH  35  36
ATOM     36  C   UNL A   1      37.351  21.458  24.960  1.00  0.00     0.116 C 
BRANCH  36  37
ATOM     37  N   UNL A   1      38.321  20.514  25.494  1.00  0.00    -0.352 N 
ATOM     38  C   UNL A   1      39.518  20.757  26.126  1.00  0.00     0.251 C 
ATOM     39  H   UNL A   1      38.086  19.565  25.387  1.00  0.00     0.163 HD
ATOM     40  O   UNL A   1      40.362  19.869  26.194  1.00  0.00    -0.269 OA
BRANCH  38  41
ATOM     41  C   UNL A   1      39.836  22.104  26.648  1.00  0.00     0.039 A 
ATOM     42  C   UNL A   1      40.807  22.202  27.647  1.00  0.00     0.014 A 
ATOM     43  C   UNL A   1      39.229  23.259  26.147  1.00  0.00     0.014 A 
ATOM     44  C   UNL A   1      41.257  23.456  28.053  1.00  0.00     0.010 A 
ATOM     45  C   UNL A   1      39.745  24.508  26.481  1.00  0.00     0.010 A 
ATOM     46  C   UNL A   1      40.784  24.614  27.416  1.00  0.00    -0.014 A 
BRANCH  46  47
ATOM     47  C   UNL A   1      41.426  25.925  27.681  1.00  0.00     0.031 A 
ATOM     48  C   UNL A   1      42.813  26.211  27.190  1.00  0.00     0.074 A 
ATOM     49  C   UNL A   1      40.749  26.847  28.397  1.00  0.00     0.049 A 
ATOM     50  N   UNL A   1      43.530  27.296  27.339  1.00  0.00    -0.248 NA
ATOM     51  C   UNL A   1      43.497  25.138  26.449  1.00  0.00     0.031 C 
ATOM     52  C   UNL A   1      39.409  26.658  28.961  1.00  0.00     0.029 A 
ATOM     53  N   UNL A   1      41.082  28.126  28.768  1.00  0.00    -0.354 N 
ATOM     54  C   UNL A   1      44.738  27.039  26.707  1.00  0.00     0.074 A 
ATOM     55  C   UNL A   1      44.687  25.678  26.223  1.00  0.00     0.031 C 
ATOM     56  C   UNL A   1      39.018  27.792  29.562  1.00  0.00     0.029 A 
ATOM     57  C   UNL A   1      40.094  28.772  29.472  1.00  0.00     0.049 A 
ATOM     58  H   UNL A   1      41.948  28.541  28.550  1.00  0.00     0.167 HD
ATOM     59  C   UNL A   1      45.781  27.881  26.524  1.00  0.00     0.037 A 
ATOM     60  C   UNL A   1      40.061  30.016  29.990  1.00  0.00     0.037 A 
ATOM     61  C   UNL A   1      45.814  29.241  26.992  1.00  0.00     0.049 A 
ATOM     62  C   UNL A   1      41.254  30.913  29.797  1.00  0.00     0.074 A 
ATOM     63  C   UNL A   1      46.815  30.182  26.825  1.00  0.00     0.029 A 
ATOM     64  N   UNL A   1      44.801  29.855  27.714  1.00  0.00    -0.354 N 
ATOM     65  N   UNL A   1      42.368  30.676  29.148  1.00  0.00    -0.248 NA
ATOM     66  C   UNL A   1      41.187  32.249  30.404  1.00  0.00     0.031 C 
ATOM     67  C   UNL A   1      46.432  31.348  27.490  1.00  0.00     0.029 A 
ATOM     68  C   UNL A   1      45.166  31.156  28.017  1.00  0.00     0.049 A 
ATOM     69  H   UNL A   1      43.952  29.430  27.971  1.00  0.00     0.167 HD
ATOM     70  C   UNL A   1      43.119  31.839  29.242  1.00  0.00     0.074 A 
ATOM     71  C   UNL A   1      42.327  32.788  29.996  1.00  0.00     0.031 C 
ATOM     72  C   UNL A   1      44.354  32.096  28.749  1.00  0.00     0.037 A 
BRANCH  59  73
ATOM     73  C   UNL A   1      46.973  27.379  25.764  1.00  0.00     0.064 A 
ATOM     74  C   UNL A   1      48.038  26.761  26.436  1.00  0.00     0.173 A 
ATOM     75  C   UNL A   1      47.115  27.623  24.390  1.00  0.00     0.173 A 
ATOM     76  F   UNL A   1      47.955  26.510  27.751  1.00  0.00    -0.203 F 
ATOM     77  C   UNL A   1      49.213  26.432  25.766  1.00  0.00     0.198 A 
ATOM     78  C   UNL A   1      48.280  27.267  23.717  1.00  0.00     0.198 A 
ATOM     79  F   UNL A   1      46.120  28.201  23.701  1.00  0.00    -0.203 F 
ATOM     80  F   UNL A   1      50.236  25.887  26.437  1.00  0.00    -0.200 F 
ATOM     81  C   UNL A   1      49.334  26.687  24.408  1.00  0.00     0.200 A 
ATOM     82  F   UNL A   1      48.388  27.497  22.401  1.00  0.00    -0.200 F 
ATOM     83  F   UNL A   1      50.469  26.378  23.765  1.00  0.00    -0.200 F 
ENDBRANCH  59  73
BRANCH  60  84
ATOM     84  C   UNL A   1      38.854  30.493  30.718  1.00  0.00     0.064 A 
ATOM     85  C   UNL A   1      38.716  30.320  32.103  1.00  0.00     0.173 A 
ATOM     86  C   UNL A   1      37.813  31.144  30.040  1.00  0.00     0.173 A 
ATOM     87  F   UNL A   1      39.678  29.699  32.802  1.00  0.00    -0.203 F 
ATOM     88  C   UNL A   1      37.583  30.769  32.779  1.00  0.00     0.198 A 
ATOM     89  C   UNL A   1      36.695  31.625  30.722  1.00  0.00     0.198 A 
ATOM     90  F   UNL A   1      37.901  31.352  28.718  1.00  0.00    -0.203 F 
ATOM     91  F   UNL A   1      37.467  30.562  34.097  1.00  0.00    -0.200 F 
ATOM     92  C   UNL A   1      36.579  31.431  32.090  1.00  0.00     0.200 A 
ATOM     93  F   UNL A   1      35.743  32.290  30.056  1.00  0.00    -0.200 F 
ATOM     94  F   UNL A   1      35.503  31.888  32.744  1.00  0.00    -0.200 F 
ENDBRANCH  60  84
BRANCH  72  95
ATOM     95  C   UNL A   1      44.925  33.466  28.971  1.00  0.00     0.064 A 
ATOM     96  C   UNL A   1      44.643  34.504  28.069  1.00  0.00     0.173 A 
ATOM     97  C   UNL A   1      45.821  33.727  30.017  1.00  0.00     0.173 A 
ATOM     98  F   UNL A   1      43.800  34.301  27.046  1.00  0.00    -0.203 F 
ATOM     99  C   UNL A   1      45.257  35.747  28.194  1.00  0.00     0.198 A 
ATOM    100  C   UNL A   1      46.406  34.982  30.159  1.00  0.00     0.198 A 
ATOM    101  F   UNL A   1      46.113  32.771  30.912  1.00  0.00    -0.203 F 
ATOM    102  F   UNL A   1      45.009  36.708  27.294  1.00  0.00    -0.200 F 
ATOM    103  C   UNL A   1      46.134  35.986  29.241  1.00  0.00     0.200 A 
ATOM    104  F   UNL A   1      47.235  35.221  31.185  1.00  0.00    -0.200 F 
ATOM    105  F   UNL A   1      46.718  37.185  29.365  1.00  0.00    -0.200 F 
ENDBRANCH  72  95
ENDBRANCH  46  47
ENDBRANCH  38  41
ENDBRANCH  36  37
ENDBRANCH  35  36
ENDBRANCH  34  35
ENDBRANCH   1  34
TORSDOF 17
ENDMDL
MODEL 2
REMARK VINA RESULT:     -13.3      4.381      8.128
REMARK SMILES CC(C)[C@H](NC(=O)[C@H]1CC(=O)N(c2ccc(F)cc2)C1)C(=O)N1CCC[C@@H]1C(=O)NCCCCNC(=O)c1ccc(-c2c3nc(c(-c4c(F)c(F)c(F)c(F)c4F)c4ccc([nH]4)c(-c4c(F)c(F)c(F)c(F)c4F)c4nc(c(-c5c(F)c(F)c(F)c(F)c5F)c5ccc2[nH]5)C=C4)C=C3)cc1
REMARK SMILES IDX 31 1 30 2 28 3 29 4 27 6 23 7 24 8 25 9 26 10 21 11 22 12
REMARK SMILES IDX 4 13 2 14 1 15 3 16 5 17 6 18 7 20 8 21 9 22 20 23 10 24
REMARK SMILES IDX 12 25 11 26 13 27 14 28 19 29 15 30 18 31 16 32 17 33 32 34
REMARK SMILES IDX 33 35 34 36 35 37 36 38 37 40 38 41 39 42 100 43 40 44 99 45
REMARK SMILES IDX 41 46 42 47 43 48 93 49 44 50 98 51 92 52 94 53 45 54 97 55
REMARK SMILES IDX 91 56 90 57 46 59 78 60 58 61 77 62 59 63 62 64 76 65 95 66
REMARK SMILES IDX 60 67 61 68 75 70 96 71 63 72 47 73 48 74 56 75 49 76 50 77
REMARK SMILES IDX 54 78 57 79 51 80 52 81 55 82 53 83 79 84 80 85 88 86 81 87
REMARK SMILES IDX 82 88 86 89 89 90 83 91 84 92 87 93 85 94 64 95 65 96 73 97
REMARK SMILES IDX 66 98 67 99 71 100 74 101 68 102 69 103 72 104 70 105
REMARK H PARENT 30 5 5 19 35 39 94 58 62 69
REMARK Flexibility Score: inf
ROOT
ATOM      1  C   UNL A   1      37.055  21.495  25.325  1.00  0.00     0.116 C 
ENDROOT
BRANCH   1   2
ATOM      2  N   UNL A   1      35.884  21.680  26.150  1.00  0.00    -0.354 N 
ATOM      3  C   UNL A   1      34.572  21.428  25.862  1.00  0.00     0.242 C 
ATOM      4  O   UNL A   1      33.743  21.759  26.714  1.00  0.00    -0.273 OA
ATOM      5  H   UNL A   1      36.056  22.038  27.051  1.00  0.00     0.163 HD
BRANCH   3   6
ATOM      6  C   UNL A   1      34.126  20.896  24.483  1.00  0.00     0.174 C 
ATOM      7  N   UNL A   1      32.892  21.495  23.942  1.00  0.00    -0.329 N 
ATOM      8  C   UNL A   1      32.154  20.474  23.226  1.00  0.00     0.120 C 
ATOM      9  C   UNL A   1      32.496  19.167  23.925  1.00  0.00     0.024 C 
ATOM     10  C   UNL A   1      33.896  19.380  24.496  1.00  0.00     0.037 C 
BRANCH   7  11
ATOM     11  C   UNL A   1      32.988  22.775  23.406  1.00  0.00     0.246 C 
ATOM     12  O   UNL A   1      33.429  22.949  22.265  1.00  0.00    -0.272 OA
BRANCH  11  13
ATOM     13  C   UNL A   1      32.800  24.014  24.334  1.00  0.00     0.174 C 
BRANCH  13  14
ATOM     14  C   UNL A   1      34.101  24.851  24.438  1.00  0.00     0.015 C 
ATOM     15  C   UNL A   1      34.019  26.212  23.731  1.00  0.00     0.010 C 
ATOM     16  C   UNL A   1      34.531  25.101  25.885  1.00  0.00     0.010 C 
ENDBRANCH  13  14
BRANCH  13  17
ATOM     17  N   UNL A   1      32.033  23.764  25.577  1.00  0.00    -0.344 N 
ATOM     18  C   UNL A   1      31.112  24.410  26.336  1.00  0.00     0.226 C 
ATOM     19  H   UNL A   1      32.252  22.884  25.959  1.00  0.00     0.164 HD
ATOM     20  O   UNL A   1      30.586  23.772  27.250  1.00  0.00    -0.275 OA
BRANCH  18  21
ATOM     21  C   UNL A   1      30.782  25.859  26.131  1.00  0.00     0.107 C 
ATOM     22  C   UNL A   1      31.898  26.854  26.419  1.00  0.00     0.116 C 
ATOM     23  C   UNL A   1      30.541  26.111  24.662  1.00  0.00     0.139 C 
ATOM     24  C   UNL A   1      31.513  28.030  25.535  1.00  0.00     0.227 C 
ATOM     25  N   UNL A   1      30.597  27.546  24.581  1.00  0.00    -0.312 N 
ATOM     26  O   UNL A   1      31.934  29.156  25.712  1.00  0.00    -0.274 OA
BRANCH  25  27
ATOM     27  C   UNL A   1      29.892  28.286  23.604  1.00  0.00     0.044 A 
ATOM     28  C   UNL A   1      28.513  28.143  23.421  1.00  0.00     0.029 A 
ATOM     29  C   UNL A   1      30.577  29.192  22.773  1.00  0.00     0.029 A 
ATOM     30  C   UNL A   1      27.832  28.922  22.476  1.00  0.00     0.041 A 
ATOM     31  C   UNL A   1      29.905  29.953  21.816  1.00  0.00     0.041 A 
ATOM     32  C   UNL A   1      28.533  29.822  21.688  1.00  0.00     0.123 A 
ATOM     33  F   UNL A   1      27.884  30.573  20.790  1.00  0.00    -0.207 F 
ENDBRANCH  25  27
ENDBRANCH  18  21
ENDBRANCH  13  17
ENDBRANCH  11  13
ENDBRANCH   7  11
ENDBRANCH   3   6
ENDBRANCH   1   2
BRANCH   1  34
ATOM     34  C   UNL A   1      38.247  22.316  25.798  1.00  0.00     0.023 C 
BRANCH  34  35
ATOM     35  C   UNL A   1      39.551  21.526  25.902  1.00  0.00     0.023 C 
BRANCH  35  36
ATOM     36  C   UNL A   1      40.632  22.174  26.765  1.00  0.00     0.116 C 
BRANCH  36  37
ATOM     37  N   UNL A   1      41.793  22.586  25.992  1.00  0.00    -0.352 N 
ATOM     38  C   UNL A   1      42.265  23.852  25.732  1.00  0.00     0.251 C 
ATOM     39  H   UNL A   1      42.318  21.853  25.598  1.00  0.00     0.163 HD
ATOM     40  O   UNL A   1      43.031  24.036  24.793  1.00  0.00    -0.269 OA
BRANCH  38  41
ATOM     41  C   UNL A   1      41.789  25.010  26.520  1.00  0.00     0.039 A 
ATOM     42  C   UNL A   1      40.700  24.814  27.372  1.00  0.00     0.014 A 
ATOM     43  C   UNL A   1      42.417  26.257  26.464  1.00  0.00     0.014 A 
ATOM     44  C   UNL A   1      40.320  25.824  28.253  1.00  0.00     0.010 A 
ATOM     45  C   UNL A   1      42.101  27.231  27.408  1.00  0.00     0.010 A 
ATOM     46  C   UNL A   1      41.069  27.010  28.329  1.00  0.00    -0.014 A 
BRANCH  46  47
ATOM     47  C   UNL A   1      40.812  27.983  29.419  1.00  0.00     0.031 A 
ATOM     48  C   UNL A   1      39.700  28.982  29.308  1.00  0.00     0.074 A 
ATOM     49  C   UNL A   1      41.617  27.971  30.502  1.00  0.00     0.049 A 
ATOM     50  N   UNL A   1      39.341  29.910  30.158  1.00  0.00    -0.248 NA
ATOM     51  C   UNL A   1      38.893  28.953  28.077  1.00  0.00     0.031 C 
ATOM     52  C   UNL A   1      42.757  27.070  30.696  1.00  0.00     0.029 A 
ATOM     53  N   UNL A   1      41.601  28.728  31.648  1.00  0.00    -0.354 N 
ATOM     54  C   UNL A   1      38.268  30.564  29.571  1.00  0.00     0.074 A 
ATOM     55  C   UNL A   1      38.067  29.972  28.268  1.00  0.00     0.031 C 
ATOM     56  C   UNL A   1      43.297  27.293  31.904  1.00  0.00     0.029 A 
ATOM     57  C   UNL A   1      42.579  28.384  32.551  1.00  0.00     0.049 A 
ATOM     58  H   UNL A   1      40.950  29.449  31.807  1.00  0.00     0.167 HD
ATOM     59  C   UNL A   1      37.503  31.551  30.092  1.00  0.00     0.037 A 
ATOM     60  C   UNL A   1      42.866  28.894  33.765  1.00  0.00     0.037 A 
ATOM     61  C   UNL A   1      37.698  32.120  31.400  1.00  0.00     0.049 A 
ATOM     62  C   UNL A   1      42.015  30.015  34.298  1.00  0.00     0.074 A 
ATOM     63  C   UNL A   1      36.953  33.101  32.029  1.00  0.00     0.029 A 
ATOM     64  N   UNL A   1      38.708  31.756  32.279  1.00  0.00    -0.354 N 
ATOM     65  N   UNL A   1      40.967  30.587  33.756  1.00  0.00    -0.248 NA
ATOM     66  C   UNL A   1      42.382  30.561  35.612  1.00  0.00     0.031 C 
ATOM     67  C   UNL A   1      37.541  33.369  33.266  1.00  0.00     0.029 A 
ATOM     68  C   UNL A   1      38.615  32.511  33.436  1.00  0.00     0.049 A 
ATOM     69  H   UNL A   1      39.388  31.065  32.107  1.00  0.00     0.167 HD
ATOM     70  C   UNL A   1      40.532  31.534  34.671  1.00  0.00     0.074 A 
ATOM     71  C   UNL A   1      41.419  31.451  35.813  1.00  0.00     0.031 C 
ATOM     72  C   UNL A   1      39.493  32.398  34.573  1.00  0.00     0.037 A 
BRANCH  59  73
ATOM     73  C   UNL A   1      36.361  32.073  29.272  1.00  0.00     0.064 A 
ATOM     74  C   UNL A   1      36.305  33.427  28.908  1.00  0.00     0.173 A 
ATOM     75  C   UNL A   1      35.263  31.260  28.954  1.00  0.00     0.173 A 
ATOM     76  F   UNL A   1      37.327  34.247  29.194  1.00  0.00    -0.203 F 
ATOM     77  C   UNL A   1      35.179  33.953  28.283  1.00  0.00     0.198 A 
ATOM     78  C   UNL A   1      34.150  31.784  28.303  1.00  0.00     0.198 A 
ATOM     79  F   UNL A   1      35.274  29.956  29.270  1.00  0.00    -0.203 F 
ATOM     80  F   UNL A   1      35.127  35.260  27.988  1.00  0.00    -0.200 F 
ATOM     81  C   UNL A   1      34.102  33.133  27.982  1.00  0.00     0.200 A 
ATOM     82  F   UNL A   1      33.118  30.986  27.996  1.00  0.00    -0.200 F 
ATOM     83  F   UNL A   1      33.014  33.643  27.388  1.00  0.00    -0.200 F 
ENDBRANCH  59  73
BRANCH  60  84
ATOM     84  C   UNL A   1      43.990  28.339  34.565  1.00  0.00     0.064 A 
ATOM     85  C   UNL A   1      45.265  28.923  34.544  1.00  0.00     0.173 A 
ATOM     86  C   UNL A   1      43.807  27.211  35.380  1.00  0.00     0.173 A 
ATOM     87  F   UNL A   1      45.498  30.000  33.779  1.00  0.00    -0.203 F 
ATOM     88  C   UNL A   1      46.314  28.397  35.295  1.00  0.00     0.198 A 
ATOM     89  C   UNL A   1      44.848  26.707  36.159  1.00  0.00     0.198 A 
ATOM     90  F   UNL A   1      42.604  26.624  35.452  1.00  0.00    -0.203 F 
ATOM     91  F   UNL A   1      47.528  28.960  35.231  1.00  0.00    -0.200 F 
ATOM     92  C   UNL A   1      46.102  27.297  36.111  1.00  0.00     0.200 A 
ATOM     93  F   UNL A   1      44.630  25.662  36.968  1.00  0.00    -0.200 F 
ATOM     94  F   UNL A   1      47.103  26.809  36.856  1.00  0.00    -0.200 F 
ENDBRANCH  60  84
BRANCH  72  95
ATOM     95  C   UNL A   1      39.224  33.304  35.739  1.00  0.00     0.064 A 
ATOM     96  C   UNL A   1      39.830  34.568  35.807  1.00  0.00     0.173 A 
ATOM     97  C   UNL A   1      38.446  32.887  36.828  1.00  0.00     0.173 A 
ATOM     98  F   UNL A   1      40.593  35.008  34.795  1.00  0.00    -0.203 F 
ATOM     99  C   UNL A   1      39.685  35.372  36.933  1.00  0.00     0.198 A 
ATOM    100  C   UNL A   1      38.274  33.709  37.938  1.00  0.00     0.198 A 
ATOM    101  F   UNL A   1      37.836  31.693  36.805  1.00  0.00    -0.203 F 
ATOM    102  F   UNL A   1      40.312  36.555  36.996  1.00  0.00    -0.200 F 
ATOM    103  C   UNL A   1      38.905  34.944  37.996  1.00  0.00     0.200 A 
ATOM    104  F   UNL A   1      37.499  33.306  38.955  1.00  0.00    -0.200 F 
ATOM    105  F   UNL A   1      38.759  35.721  39.077  1.00  0.00    -0.200 F 
ENDBRANCH  72  95
ENDBRANCH  46  47
ENDBRANCH  38  41
ENDBRANCH  36  37
ENDBRANCH  35  36
ENDBRANCH  34  35
ENDBRANCH   1  34
TORSDOF 17
ENDMDL
MODEL 3
REMARK VINA RESULT:     -12.9      4.856     10.809
REMARK SMILES CC(C)[C@H](NC(=O)[C@H]1CC(=O)N(c2ccc(F)cc2)C1)C(=O)N1CCC[C@@H]1C(=O)NCCCCNC(=O)c1ccc(-c2c3nc(c(-c4c(F)c(F)c(F)c(F)c4F)c4ccc([nH]4)c(-c4c(F)c(F)c(F)c(F)c4F)c4nc(c(-c5c(F)c(F)c(F)c(F)c5F)c5ccc2[nH]5)C=C4)C=C3)cc1
REMARK SMILES IDX 31 1 30 2 28 3 29 4 27 6 23 7 24 8 25 9 26 10 21 11 22 12
REMARK SMILES IDX 4 13 2 14 1 15 3 16 5 17 6 18 7 20 8 21 9 22 20 23 10 24
REMARK SMILES IDX 12 25 11 26 13 27 14 28 19 29 15 30 18 31 16 32 17 33 32 34
REMARK SMILES IDX 33 35 34 36 35 37 36 38 37 40 38 41 39 42 100 43 40 44 99 45
REMARK SMILES IDX 41 46 42 47 43 48 93 49 44 50 98 51 92 52 94 53 45 54 97 55
REMARK SMILES IDX 91 56 90 57 46 59 78 60 58 61 77 62 59 63 62 64 76 65 95 66
REMARK SMILES IDX 60 67 61 68 75 70 96 71 63 72 47 73 48 74 56 75 49 76 50 77
REMARK SMILES IDX 54 78 57 79 51 80 52 81 55 82 53 83 79 84 80 85 88 86 81 87
REMARK SMILES IDX 82 88 86 89 89 90 83 91 84 92 87 93 85 94 64 95 65 96 73 97
REMARK SMILES IDX 66 98 67 99 71 100 74 101 68 102 69 103 72 104 70 105
REMARK H PARENT 30 5 5 19 35 39 94 58 62 69
REMARK Flexibility Score: inf
ROOT
ATOM      1  C   UNL A   1      33.944  29.240  27.301  1.00  0.00     0.116 C 
ENDROOT
BRANCH   1   2
ATOM      2  N   UNL A   1      34.275  28.900  25.937  1.00  0.00    -0.354 N 
ATOM      3  C   UNL A   1      33.449  28.550  24.907  1.00  0.00     0.242 C 
ATOM      4  O   UNL A   1      33.990  28.215  23.849  1.00  0.00    -0.273 OA
ATOM      5  H   UNL A   1      35.234  28.924  25.718  1.00  0.00     0.163 HD
BRANCH   3   6
ATOM      6  C   UNL A   1      31.920  28.431  25.089  1.00  0.00     0.174 C 
ATOM      7  N   UNL A   1      31.369  27.070  24.948  1.00  0.00    -0.329 N 
ATOM      8  C   UNL A   1      30.070  27.159  24.312  1.00  0.00     0.120 C 
ATOM      9  C   UNL A   1      30.143  28.384  23.416  1.00  0.00     0.024 C 
ATOM     10  C   UNL A   1      31.150  29.310  24.095  1.00  0.00     0.037 C 
BRANCH   7  11
ATOM     11  C   UNL A   1      31.554  26.196  26.014  1.00  0.00     0.246 C 
ATOM     12  O   UNL A   1      31.745  26.626  27.156  1.00  0.00    -0.272 OA
BRANCH  11  13
ATOM     13  C   UNL A   1      31.794  24.681  25.733  1.00  0.00     0.174 C 
BRANCH  13  14
ATOM     14  C   UNL A   1      31.362  23.803  26.936  1.00  0.00     0.015 C 
ATOM     15  C   UNL A   1      30.226  22.823  26.610  1.00  0.00     0.010 C 
ATOM     16  C   UNL A   1      32.521  22.997  27.528  1.00  0.00     0.010 C 
ENDBRANCH  13  14
BRANCH  13  17
ATOM     17  N   UNL A   1      33.072  24.355  25.058  1.00  0.00    -0.344 N 
ATOM     18  C   UNL A   1      33.569  23.367  24.272  1.00  0.00     0.226 C 
ATOM     19  H   UNL A   1      33.749  25.049  25.226  1.00  0.00     0.164 HD
ATOM     20  O   UNL A   1      34.680  23.550  23.771  1.00  0.00    -0.275 OA
BRANCH  18  21
ATOM     21  C   UNL A   1      32.844  22.070  24.063  1.00  0.00     0.107 C 
ATOM     22  C   UNL A   1      32.447  21.742  22.630  1.00  0.00     0.116 C 
ATOM     23  C   UNL A   1      33.776  20.924  24.375  1.00  0.00     0.139 C 
ATOM     24  C   UNL A   1      32.380  20.223  22.658  1.00  0.00     0.227 C 
ATOM     25  N   UNL A   1      33.087  19.800  23.800  1.00  0.00    -0.312 N 
ATOM     26  O   UNL A   1      31.774  19.572  21.830  1.00  0.00    -0.274 OA
BRANCH  25  27
ATOM     27  C   UNL A   1      33.223  18.483  24.297  1.00  0.00     0.044 A 
ATOM     28  C   UNL A   1      32.385  17.979  25.295  1.00  0.00     0.029 A 
ATOM     29  C   UNL A   1      34.231  17.639  23.793  1.00  0.00     0.029 A 
ATOM     30  C   UNL A   1      32.513  16.656  25.736  1.00  0.00     0.041 A 
ATOM     31  C   UNL A   1      34.375  16.328  24.247  1.00  0.00     0.041 A 
ATOM     32  C   UNL A   1      33.502  15.842  25.204  1.00  0.00     0.123 A 
ATOM     33  F   UNL A   1      33.622  14.575  25.619  1.00  0.00    -0.207 F 
ENDBRANCH  25  27
ENDBRANCH  18  21
ENDBRANCH  13  17
ENDBRANCH  11  13
ENDBRANCH   7  11
ENDBRANCH   3   6
ENDBRANCH   1   2
BRANCH   1  34
ATOM     34  C   UNL A   1      34.493  30.597  27.721  1.00  0.00     0.023 C 
BRANCH  34  35
ATOM     35  C   UNL A   1      33.419  31.645  28.011  1.00  0.00     0.023 C 
BRANCH  35  36
ATOM     36  C   UNL A   1      33.426  32.852  27.074  1.00  0.00     0.116 C 
BRANCH  36  37
ATOM     37  N   UNL A   1      32.876  34.047  27.697  1.00  0.00    -0.352 N 
ATOM     38  C   UNL A   1      33.192  34.627  28.903  1.00  0.00     0.251 C 
ATOM     39  H   UNL A   1      32.176  34.506  27.179  1.00  0.00     0.163 HD
ATOM     40  O   UNL A   1      32.406  35.409  29.427  1.00  0.00    -0.269 OA
BRANCH  38  41
ATOM     41  C   UNL A   1      34.431  34.253  29.618  1.00  0.00     0.039 A 
ATOM     42  C   UNL A   1      34.303  33.605  30.848  1.00  0.00     0.014 A 
ATOM     43  C   UNL A   1      35.700  34.490  29.082  1.00  0.00     0.014 A 
ATOM     44  C   UNL A   1      35.431  33.088  31.479  1.00  0.00     0.010 A 
ATOM     45  C   UNL A   1      36.816  33.891  29.662  1.00  0.00     0.010 A 
ATOM     46  C   UNL A   1      36.685  33.160  30.850  1.00  0.00    -0.014 A 
BRANCH  46  47
ATOM     47  C   UNL A   1      37.840  32.412  31.404  1.00  0.00     0.031 A 
ATOM     48  C   UNL A   1      38.383  32.735  32.763  1.00  0.00     0.074 A 
ATOM     49  C   UNL A   1      38.412  31.450  30.648  1.00  0.00     0.049 A 
ATOM     50  N   UNL A   1      39.389  32.191  33.397  1.00  0.00    -0.248 NA
ATOM     51  C   UNL A   1      37.724  33.823  33.506  1.00  0.00     0.031 C 
ATOM     52  C   UNL A   1      37.992  31.081  29.293  1.00  0.00     0.029 A 
ATOM     53  N   UNL A   1      39.459  30.601  30.909  1.00  0.00    -0.354 N 
ATOM     54  C   UNL A   1      39.479  32.860  34.608  1.00  0.00     0.074 A 
ATOM     55  C   UNL A   1      38.466  33.892  34.603  1.00  0.00     0.031 C 
ATOM     56  C   UNL A   1      38.739  30.053  28.863  1.00  0.00     0.029 A 
ATOM     57  C   UNL A   1      39.724  29.722  29.886  1.00  0.00     0.049 A 
ATOM     58  H   UNL A   1      39.972  30.621  31.749  1.00  0.00     0.167 HD
ATOM     59  C   UNL A   1      40.315  32.611  35.642  1.00  0.00     0.037 A 
ATOM     60  C   UNL A   1      40.659  28.756  29.784  1.00  0.00     0.037 A 
ATOM     61  C   UNL A   1      41.306  31.568  35.646  1.00  0.00     0.049 A 
ATOM     62  C   UNL A   1      41.595  28.530  30.940  1.00  0.00     0.074 A 
ATOM     63  C   UNL A   1      42.178  31.217  36.662  1.00  0.00     0.029 A 
ATOM     64  N   UNL A   1      41.555  30.707  34.587  1.00  0.00    -0.354 N 
ATOM     65  N   UNL A   1      41.632  29.134  32.103  1.00  0.00    -0.248 NA
ATOM     66  C   UNL A   1      42.618  27.488  30.774  1.00  0.00     0.031 C 
ATOM     67  C   UNL A   1      42.990  30.179  36.200  1.00  0.00     0.029 A 
ATOM     68  C   UNL A   1      42.583  29.841  34.920  1.00  0.00     0.049 A 
ATOM     69  H   UNL A   1      41.073  30.712  33.729  1.00  0.00     0.167 HD
ATOM     70  C   UNL A   1      42.656  28.527  32.816  1.00  0.00     0.074 A 
ATOM     71  C   UNL A   1      43.205  27.495  31.963  1.00  0.00     0.031 C 
ATOM     72  C   UNL A   1      43.102  28.803  34.065  1.00  0.00     0.037 A 
BRANCH  59  73
ATOM     73  C   UNL A   1      40.190  33.455  36.876  1.00  0.00     0.064 A 
ATOM     74  C   UNL A   1      39.202  33.178  37.832  1.00  0.00     0.173 A 
ATOM     75  C   UNL A   1      40.967  34.609  37.049  1.00  0.00     0.173 A 
ATOM     76  F   UNL A   1      38.428  32.089  37.710  1.00  0.00    -0.203 F 
ATOM     77  C   UNL A   1      38.976  34.042  38.899  1.00  0.00     0.198 A 
ATOM     78  C   UNL A   1      40.758  35.457  38.133  1.00  0.00     0.198 A 
ATOM     79  F   UNL A   1      41.933  34.911  36.168  1.00  0.00    -0.203 F 
ATOM     80  F   UNL A   1      37.994  33.784  39.774  1.00  0.00    -0.200 F 
ATOM     81  C   UNL A   1      39.753  35.182  39.048  1.00  0.00     0.200 A 
ATOM     82  F   UNL A   1      41.522  36.547  38.286  1.00  0.00    -0.200 F 
ATOM     83  F   UNL A   1      39.529  36.018  40.072  1.00  0.00    -0.200 F 
ENDBRANCH  59  73
BRANCH  60  84
ATOM     84  C   UNL A   1      40.742  27.920  28.556  1.00  0.00     0.064 A 
ATOM     85  C   UNL A   1      40.067  26.694  28.456  1.00  0.00     0.173 A 
ATOM     86  C   UNL A   1      41.495  28.337  27.449  1.00  0.00     0.173 A 
ATOM     87  F   UNL A   1      39.337  26.243  29.487  1.00  0.00    -0.203 F 
ATOM     88  C   UNL A   1      40.150  25.915  27.304  1.00  0.00     0.198 A 
ATOM     89  C   UNL A   1      41.549  27.574  26.283  1.00  0.00     0.198 A 
ATOM     90  F   UNL A   1      42.145  29.509  27.483  1.00  0.00    -0.203 F 
ATOM     91  F   UNL A   1      39.518  24.735  27.250  1.00  0.00    -0.200 F 
ATOM     92  C   UNL A   1      40.881  26.360  26.214  1.00  0.00     0.200 A 
ATOM     93  F   UNL A   1      42.232  28.023  25.222  1.00  0.00    -0.200 F 
ATOM     94  F   UNL A   1      40.937  25.625  25.096  1.00  0.00    -0.200 F 
ENDBRANCH  60  84
BRANCH  72  95
ATOM     95  C   UNL A   1      44.217  27.960  34.612  1.00  0.00     0.064 A 
ATOM     96  C   UNL A   1      43.932  26.769  35.298  1.00  0.00     0.173 A 
ATOM     97  C   UNL A   1      45.554  28.375  34.540  1.00  0.00     0.173 A 
ATOM     98  F   UNL A   1      42.667  26.335  35.404  1.00  0.00    -0.203 F 
ATOM     99  C   UNL A   1      44.944  26.038  35.912  1.00  0.00     0.198 A 
ATOM    100  C   UNL A   1      46.567  27.622  35.125  1.00  0.00     0.198 A 
ATOM    101  F   UNL A   1      45.878  29.499  33.884  1.00  0.00    -0.203 F 
ATOM    102  F   UNL A   1      44.643  24.929  36.602  1.00  0.00    -0.200 F 
ATOM    103  C   UNL A   1      46.261  26.462  35.822  1.00  0.00     0.200 A 
ATOM    104  F   UNL A   1      47.843  28.019  35.017  1.00  0.00    -0.200 F 
ATOM    105  F   UNL A   1      47.235  25.753  36.407  1.00  0.00    -0.200 F 
ENDBRANCH  72  95
ENDBRANCH  46  47
ENDBRANCH  38  41
ENDBRANCH  36  37
ENDBRANCH  35  36
ENDBRANCH  34  35
ENDBRANCH   1  34
TORSDOF 17
ENDMDL
