MODEL 1
REMARK VINA RESULT:     -14.0      0.000      0.000
REMARK SMILES O=C(NCCCCNC(=O)c1cc([C@@H]2C=NN=C2c2ccc(F)cc2)c2c(ccc3ccccc32)n1)c1ccc(-c2c3nc(c(-c4c(F)c(F)c(F)c(F)c4F)c4ccc([nH]4)c(-c4c(F)c(F)c(F)c(F)c4F)c4nc(c(-c5c(F)c(F)c(F)c(F)c5F)c5ccc2[nH]5)C=C4)C=C3)cc1
REMARK SMILES IDX 5 1 4 2 3 3 1 4 2 5 37 7 38 8 99 9 39 10 98 11 40 12 41 13
REMARK SMILES IDX 42 14 92 15 43 16 97 17 91 18 93 19 44 20 96 21 90 22 89 23
REMARK SMILES IDX 45 25 77 26 57 27 76 28 58 29 61 30 75 31 94 32 59 33 60 34
REMARK SMILES IDX 74 36 95 37 62 38 46 39 47 40 55 41 48 42 49 43 53 44 56 45
REMARK SMILES IDX 50 46 51 47 54 48 52 49 78 50 79 51 87 52 80 53 81 54 85 55
REMARK SMILES IDX 88 56 82 57 83 58 86 59 84 60 63 61 64 62 72 63 65 64 66 65
REMARK SMILES IDX 70 66 73 67 67 68 68 69 71 70 69 71 6 72 7 73 8 74 9 75
REMARK SMILES IDX 10 77 11 78 12 79 36 80 13 81 27 82 26 83 28 84 35 85 29 86
REMARK SMILES IDX 30 87 34 88 31 89 33 90 32 91 14 92 15 93 18 94 16 95 17 96
REMARK SMILES IDX 19 97 20 98 25 99 21 100 24 101 22 102 23 103
REMARK H PARENT 3 6 93 24 61 35 8 76
REMARK Flexibility Score: inf
ROOT
ATOM      1  C   UNL A   1      42.459  20.090  27.191  1.00  0.00     0.023 C 
ENDROOT
BRANCH   1   2
ATOM      2  C   UNL A   1      42.381  19.665  25.723  1.00  0.00     0.116 C 
BRANCH   2   3
ATOM      3  N   UNL A   1      43.575  19.938  24.951  1.00  0.00    -0.352 N 
ATOM      4  O   UNL A   1      45.544  20.695  24.306  1.00  0.00    -0.269 OA
ATOM      5  C   UNL A   1      44.528  20.919  24.970  1.00  0.00     0.251 C 
ATOM      6  H   UNL A   1      43.739  19.263  24.252  1.00  0.00     0.163 HD
BRANCH   5   7
ATOM      7  C   UNL A   1      44.400  22.237  25.653  1.00  0.00     0.039 A 
ATOM      8  C   UNL A   1      45.057  22.621  26.821  1.00  0.00     0.014 A 
ATOM      9  C   UNL A   1      43.473  23.132  25.081  1.00  0.00     0.014 A 
ATOM     10  C   UNL A   1      44.723  23.814  27.459  1.00  0.00     0.010 A 
ATOM     11  C   UNL A   1      43.146  24.330  25.705  1.00  0.00     0.010 A 
ATOM     12  C   UNL A   1      43.741  24.649  26.919  1.00  0.00    -0.014 A 
BRANCH  12  13
ATOM     13  C   UNL A   1      43.486  25.931  27.575  1.00  0.00     0.031 A 
ATOM     14  C   UNL A   1      44.442  27.015  27.200  1.00  0.00     0.074 A 
ATOM     15  C   UNL A   1      42.398  26.173  28.335  1.00  0.00     0.049 A 
ATOM     16  N   UNL A   1      45.178  27.747  27.973  1.00  0.00    -0.248 NA
ATOM     17  C   UNL A   1      44.673  27.249  25.762  1.00  0.00     0.031 C 
ATOM     18  C   UNL A   1      41.239  25.304  28.551  1.00  0.00     0.029 A 
ATOM     19  N   UNL A   1      42.053  27.309  29.008  1.00  0.00    -0.354 N 
ATOM     20  C   UNL A   1      45.846  28.643  27.136  1.00  0.00     0.074 A 
ATOM     21  C   UNL A   1      45.597  28.209  25.788  1.00  0.00     0.031 C 
ATOM     22  C   UNL A   1      40.236  26.022  29.109  1.00  0.00     0.029 A 
ATOM     23  C   UNL A   1      40.723  27.358  29.409  1.00  0.00     0.049 A 
ATOM     24  H   UNL A   1      42.693  28.034  29.194  1.00  0.00     0.167 HD
ATOM     25  C   UNL A   1      46.384  29.800  27.612  1.00  0.00     0.037 A 
ATOM     26  C   UNL A   1      40.059  28.440  29.890  1.00  0.00     0.037 A 
ATOM     27  C   UNL A   1      46.647  29.712  29.024  1.00  0.00     0.049 A 
ATOM     28  C   UNL A   1      41.073  29.412  30.361  1.00  0.00     0.074 A 
ATOM     29  C   UNL A   1      47.453  28.914  29.812  1.00  0.00     0.029 A 
ATOM     30  N   UNL A   1      45.776  30.320  29.890  1.00  0.00    -0.354 N 
ATOM     31  N   UNL A   1      41.847  29.225  31.393  1.00  0.00    -0.248 NA
ATOM     32  C   UNL A   1      41.516  30.428  29.418  1.00  0.00     0.031 C 
ATOM     33  C   UNL A   1      46.706  28.702  31.008  1.00  0.00     0.029 A 
ATOM     34  C   UNL A   1      45.520  29.427  30.896  1.00  0.00     0.049 A 
ATOM     35  H   UNL A   1      45.406  31.228  29.806  1.00  0.00     0.167 HD
ATOM     36  C   UNL A   1      43.065  29.768  31.016  1.00  0.00     0.074 A 
ATOM     37  C   UNL A   1      42.777  30.569  29.831  1.00  0.00     0.031 C 
ATOM     38  C   UNL A   1      44.234  29.294  31.535  1.00  0.00     0.037 A 
BRANCH  25  39
ATOM     39  C   UNL A   1      46.328  31.122  26.878  1.00  0.00     0.064 A 
ATOM     40  C   UNL A   1      45.127  31.772  26.516  1.00  0.00     0.173 A 
ATOM     41  C   UNL A   1      47.488  31.923  26.812  1.00  0.00     0.173 A 
ATOM     42  F   UNL A   1      43.935  31.171  26.598  1.00  0.00    -0.203 F 
ATOM     43  C   UNL A   1      45.083  33.118  26.156  1.00  0.00     0.198 A 
ATOM     44  C   UNL A   1      47.432  33.286  26.502  1.00  0.00     0.198 A 
ATOM     45  F   UNL A   1      48.687  31.421  27.144  1.00  0.00    -0.203 F 
ATOM     46  F   UNL A   1      43.902  33.683  25.868  1.00  0.00    -0.200 F 
ATOM     47  C   UNL A   1      46.228  33.884  26.184  1.00  0.00     0.200 A 
ATOM     48  F   UNL A   1      48.541  34.032  26.586  1.00  0.00    -0.200 F 
ATOM     49  F   UNL A   1      46.160  35.202  25.954  1.00  0.00    -0.200 F 
ENDBRANCH  25  39
BRANCH  26  50
ATOM     50  C   UNL A   1      38.651  28.849  29.647  1.00  0.00     0.064 A 
ATOM     51  C   UNL A   1      38.205  29.204  28.359  1.00  0.00     0.173 A 
ATOM     52  C   UNL A   1      37.805  29.201  30.715  1.00  0.00     0.173 A 
ATOM     53  F   UNL A   1      38.971  28.982  27.282  1.00  0.00    -0.203 F 
ATOM     54  C   UNL A   1      37.008  29.894  28.154  1.00  0.00     0.198 A 
ATOM     55  C   UNL A   1      36.609  29.899  30.509  1.00  0.00     0.198 A 
ATOM     56  F   UNL A   1      38.173  28.942  31.979  1.00  0.00    -0.203 F 
ATOM     57  F   UNL A   1      36.661  30.267  26.915  1.00  0.00    -0.200 F 
ATOM     58  C   UNL A   1      36.220  30.256  29.230  1.00  0.00     0.200 A 
ATOM     59  F   UNL A   1      35.869  30.282  31.559  1.00  0.00    -0.200 F 
ATOM     60  F   UNL A   1      35.112  30.986  29.036  1.00  0.00    -0.200 F 
ENDBRANCH  26  50
BRANCH  38  61
ATOM     61  C   UNL A   1      44.159  28.362  32.710  1.00  0.00     0.064 A 
ATOM     62  C   UNL A   1      44.435  28.882  33.981  1.00  0.00     0.173 A 
ATOM     63  C   UNL A   1      43.996  26.969  32.600  1.00  0.00     0.173 A 
ATOM     64  F   UNL A   1      44.651  30.197  34.138  1.00  0.00    -0.203 F 
ATOM     65  C   UNL A   1      44.554  28.049  35.091  1.00  0.00     0.198 A 
ATOM     66  C   UNL A   1      44.078  26.143  33.720  1.00  0.00     0.198 A 
ATOM     67  F   UNL A   1      43.822  26.386  31.409  1.00  0.00    -0.203 F 
ATOM     68  F   UNL A   1      44.886  28.572  36.281  1.00  0.00    -0.200 F 
ATOM     69  C   UNL A   1      44.370  26.684  34.962  1.00  0.00     0.200 A 
ATOM     70  F   UNL A   1      43.920  24.818  33.591  1.00  0.00    -0.200 F 
ATOM     71  F   UNL A   1      44.503  25.883  36.029  1.00  0.00    -0.200 F 
ENDBRANCH  38  61
ENDBRANCH  12  13
ENDBRANCH   5   7
ENDBRANCH   2   3
ENDBRANCH   1   2
BRANCH   1  72
ATOM     72  C   UNL A   1      41.530  21.235  27.598  1.00  0.00     0.023 C 
BRANCH  72  73
ATOM     73  C   UNL A   1      40.433  21.585  26.602  1.00  0.00     0.116 C 
BRANCH  73  74
ATOM     74  N   UNL A   1      40.111  23.003  26.576  1.00  0.00    -0.351 N 
ATOM     75  C   UNL A   1      38.923  23.630  26.236  1.00  0.00     0.269 C 
ATOM     76  H   UNL A   1      40.844  23.605  26.839  1.00  0.00     0.163 HD
ATOM     77  O   UNL A   1      38.883  24.850  26.194  1.00  0.00    -0.268 OA
BRANCH  75  78
ATOM     78  C   UNL A   1      37.701  22.810  25.969  1.00  0.00     0.129 A 
ATOM     79  C   UNL A   1      36.455  23.340  26.187  1.00  0.00     0.039 A 
ATOM     80  N   UNL A   1      37.873  21.563  25.520  1.00  0.00    -0.243 NA
ATOM     81  C   UNL A   1      35.297  22.538  26.056  1.00  0.00    -0.021 A 
ATOM     82  C   UNL A   1      36.791  20.808  25.291  1.00  0.00     0.072 A 
ATOM     83  C   UNL A   1      35.431  21.191  25.530  1.00  0.00     0.012 A 
ATOM     84  C   UNL A   1      37.104  19.567  24.782  1.00  0.00     0.029 A 
ATOM     85  C   UNL A   1      34.403  20.183  25.189  1.00  0.00    -0.009 A 
ATOM     86  C   UNL A   1      36.135  18.628  24.472  1.00  0.00     0.011 A 
ATOM     87  C   UNL A   1      34.793  18.918  24.667  1.00  0.00    -0.018 A 
ATOM     88  C   UNL A   1      33.002  20.338  25.299  1.00  0.00     0.009 A 
ATOM     89  C   UNL A   1      33.856  17.925  24.320  1.00  0.00     0.009 A 
ATOM     90  C   UNL A   1      32.065  19.352  24.961  1.00  0.00     0.001 A 
ATOM     91  C   UNL A   1      32.495  18.139  24.470  1.00  0.00     0.001 A 
BRANCH  81  92
ATOM     92  C   UNL A   1      34.068  23.281  26.531  1.00  0.00     0.115 C 
ATOM     93  C   UNL A   1      33.342  22.725  27.701  1.00  0.00     0.123 C 
ATOM     94  C   UNL A   1      32.898  23.562  25.648  1.00  0.00     0.083 C 
ATOM     95  N   UNL A   1      32.058  22.832  27.583  1.00  0.00    -0.162 NA
ATOM     96  N   UNL A   1      31.773  23.373  26.282  1.00  0.00    -0.154 NA
BRANCH  94  97
ATOM     97  C   UNL A   1      32.980  24.145  24.290  1.00  0.00    -0.001 A 
ATOM     98  C   UNL A   1      32.968  23.261  23.200  1.00  0.00     0.013 A 
ATOM     99  C   UNL A   1      33.049  25.523  24.050  1.00  0.00     0.013 A 
ATOM    100  C   UNL A   1      32.986  23.752  21.893  1.00  0.00     0.040 A 
ATOM    101  C   UNL A   1      33.064  26.012  22.741  1.00  0.00     0.040 A 
ATOM    102  C   UNL A   1      33.024  25.124  21.676  1.00  0.00     0.123 A 
ATOM    103  F   UNL A   1      33.025  25.597  20.424  1.00  0.00    -0.207 F 
ENDBRANCH  94  97
ENDBRANCH  81  92
ENDBRANCH  75  78
ENDBRANCH  73  74
ENDBRANCH  72  73
ENDBRANCH   1  72
TORSDOF 13
ENDMDL
MODEL 2
REMARK VINA RESULT:     -13.7      9.280     14.096
REMARK SMILES O=C(NCCCCNC(=O)c1cc([C@@H]2C=NN=C2c2ccc(F)cc2)c2c(ccc3ccccc32)n1)c1ccc(-c2c3nc(c(-c4c(F)c(F)c(F)c(F)c4F)c4ccc([nH]4)c(-c4c(F)c(F)c(F)c(F)c4F)c4nc(c(-c5c(F)c(F)c(F)c(F)c5F)c5ccc2[nH]5)C=C4)C=C3)cc1
REMARK SMILES IDX 5 1 4 2 3 3 1 4 2 5 37 7 38 8 99 9 39 10 98 11 40 12 41 13
REMARK SMILES IDX 42 14 92 15 43 16 97 17 91 18 93 19 44 20 96 21 90 22 89 23
REMARK SMILES IDX 45 25 77 26 57 27 76 28 58 29 61 30 75 31 94 32 59 33 60 34
REMARK SMILES IDX 74 36 95 37 62 38 46 39 47 40 55 41 48 42 49 43 53 44 56 45
REMARK SMILES IDX 50 46 51 47 54 48 52 49 78 50 79 51 87 52 80 53 81 54 85 55
REMARK SMILES IDX 88 56 82 57 83 58 86 59 84 60 63 61 64 62 72 63 65 64 66 65
REMARK SMILES IDX 70 66 73 67 67 68 68 69 71 70 69 71 6 72 7 73 8 74 9 75
REMARK SMILES IDX 10 77 11 78 12 79 36 80 13 81 27 82 26 83 28 84 35 85 29 86
REMARK SMILES IDX 30 87 34 88 31 89 33 90 32 91 14 92 15 93 18 94 16 95 17 96
REMARK SMILES IDX 19 97 20 98 25 99 21 100 24 101 22 102 23 103
REMARK H PARENT 3 6 93 24 61 35 8 76
REMARK Flexibility Score: inf
ROOT
ATOM      1  C   UNL A   1      46.698  20.304  38.110  1.00  0.00     0.023 C 
ENDROOT
BRANCH   1   2
ATOM      2  C   UNL A   1      46.021  21.171  37.046  1.00  0.00     0.116 C 
BRANCH   2   3
ATOM      3  N   UNL A   1      45.589  22.472  37.511  1.00  0.00    -0.352 N 
ATOM      4  O   UNL A   1      44.568  24.419  37.683  1.00  0.00    -0.269 OA
ATOM      5  C   UNL A   1      45.021  23.565  36.916  1.00  0.00     0.251 C 
ATOM      6  H   UNL A   1      45.738  22.600  38.476  1.00  0.00     0.163 HD
BRANCH   5   7
ATOM      7  C   UNL A   1      44.980  23.829  35.451  1.00  0.00     0.039 A 
ATOM      8  C   UNL A   1      45.512  23.011  34.455  1.00  0.00     0.014 A 
ATOM      9  C   UNL A   1      44.405  25.059  35.069  1.00  0.00     0.014 A 
ATOM     10  C   UNL A   1      45.565  23.450  33.134  1.00  0.00     0.010 A 
ATOM     11  C   UNL A   1      44.442  25.497  33.751  1.00  0.00     0.010 A 
ATOM     12  C   UNL A   1      45.063  24.708  32.790  1.00  0.00    -0.014 A 
BRANCH  12  13
ATOM     13  C   UNL A   1      45.061  25.090  31.379  1.00  0.00     0.031 A 
ATOM     14  C   UNL A   1      46.026  26.177  31.034  1.00  0.00     0.074 A 
ATOM     15  C   UNL A   1      44.369  24.425  30.430  1.00  0.00     0.049 A 
ATOM     16  N   UNL A   1      45.794  27.308  30.449  1.00  0.00    -0.248 NA
ATOM     17  C   UNL A   1      47.420  26.016  31.485  1.00  0.00     0.031 C 
ATOM     18  C   UNL A   1      43.619  23.176  30.573  1.00  0.00     0.029 A 
ATOM     19  N   UNL A   1      44.271  24.685  29.094  1.00  0.00    -0.354 N 
ATOM     20  C   UNL A   1      47.034  27.934  30.312  1.00  0.00     0.074 A 
ATOM     21  C   UNL A   1      47.972  27.158  31.077  1.00  0.00     0.031 C 
ATOM     22  C   UNL A   1      43.337  22.678  29.346  1.00  0.00     0.029 A 
ATOM     23  C   UNL A   1      43.769  23.632  28.338  1.00  0.00     0.049 A 
ATOM     24  H   UNL A   1      44.536  25.547  28.698  1.00  0.00     0.167 HD
ATOM     25  C   UNL A   1      47.235  28.932  29.408  1.00  0.00     0.037 A 
ATOM     26  C   UNL A   1      43.772  23.529  26.985  1.00  0.00     0.037 A 
ATOM     27  C   UNL A   1      45.997  29.574  29.055  1.00  0.00     0.049 A 
ATOM     28  C   UNL A   1      43.953  24.894  26.435  1.00  0.00     0.074 A 
ATOM     29  C   UNL A   1      45.040  30.285  29.752  1.00  0.00     0.029 A 
ATOM     30  N   UNL A   1      45.413  29.254  27.857  1.00  0.00    -0.354 N 
ATOM     31  N   UNL A   1      43.067  25.845  26.525  1.00  0.00    -0.248 NA
ATOM     32  C   UNL A   1      45.312  25.324  26.145  1.00  0.00     0.031 C 
ATOM     33  C   UNL A   1      43.799  29.916  29.156  1.00  0.00     0.029 A 
ATOM     34  C   UNL A   1      44.081  29.049  28.101  1.00  0.00     0.049 A 
ATOM     35  H   UNL A   1      45.865  29.186  26.986  1.00  0.00     0.167 HD
ATOM     36  C   UNL A   1      43.812  26.995  26.736  1.00  0.00     0.074 A 
ATOM     37  C   UNL A   1      45.185  26.627  26.406  1.00  0.00     0.031 C 
ATOM     38  C   UNL A   1      43.291  28.051  27.423  1.00  0.00     0.037 A 
BRANCH  25  39
ATOM     39  C   UNL A   1      48.490  29.077  28.575  1.00  0.00     0.064 A 
ATOM     40  C   UNL A   1      48.898  28.144  27.596  1.00  0.00     0.173 A 
ATOM     41  C   UNL A   1      49.140  30.328  28.521  1.00  0.00     0.173 A 
ATOM     42  F   UNL A   1      48.324  26.943  27.468  1.00  0.00    -0.203 F 
ATOM     43  C   UNL A   1      49.846  28.450  26.619  1.00  0.00     0.198 A 
ATOM     44  C   UNL A   1      50.051  30.648  27.509  1.00  0.00     0.198 A 
ATOM     45  F   UNL A   1      48.828  31.300  29.392  1.00  0.00    -0.203 F 
ATOM     46  F   UNL A   1      50.153  27.532  25.692  1.00  0.00    -0.200 F 
ATOM     47  C   UNL A   1      50.395  29.712  26.553  1.00  0.00     0.200 A 
ATOM     48  F   UNL A   1      50.536  31.894  27.422  1.00  0.00    -0.200 F 
ATOM     49  F   UNL A   1      51.214  30.035  25.544  1.00  0.00    -0.200 F 
ENDBRANCH  25  39
BRANCH  26  50
ATOM     50  C   UNL A   1      43.990  22.323  26.145  1.00  0.00     0.064 A 
ATOM     51  C   UNL A   1      42.972  21.369  25.958  1.00  0.00     0.173 A 
ATOM     52  C   UNL A   1      45.287  21.928  25.771  1.00  0.00     0.173 A 
ATOM     53  F   UNL A   1      41.715  21.618  26.353  1.00  0.00    -0.203 F 
ATOM     54  C   UNL A   1      43.237  20.091  25.461  1.00  0.00     0.198 A 
ATOM     55  C   UNL A   1      45.553  20.645  25.278  1.00  0.00     0.198 A 
ATOM     56  F   UNL A   1      46.325  22.758  25.956  1.00  0.00    -0.203 F 
ATOM     57  F   UNL A   1      42.244  19.197  25.364  1.00  0.00    -0.200 F 
ATOM     58  C   UNL A   1      44.530  19.724  25.138  1.00  0.00     0.200 A 
ATOM     59  F   UNL A   1      46.815  20.281  25.005  1.00  0.00    -0.200 F 
ATOM     60  F   UNL A   1      44.792  18.472  24.734  1.00  0.00    -0.200 F 
ENDBRANCH  26  50
BRANCH  38  61
ATOM     61  C   UNL A   1      41.817  28.049  27.711  1.00  0.00     0.064 A 
ATOM     62  C   UNL A   1      40.979  28.786  26.864  1.00  0.00     0.173 A 
ATOM     63  C   UNL A   1      41.243  27.496  28.870  1.00  0.00     0.173 A 
ATOM     64  F   UNL A   1      41.483  29.379  25.771  1.00  0.00    -0.203 F 
ATOM     65  C   UNL A   1      39.632  28.972  27.165  1.00  0.00     0.198 A 
ATOM     66  C   UNL A   1      39.886  27.652  29.148  1.00  0.00     0.198 A 
ATOM     67  F   UNL A   1      41.993  26.858  29.776  1.00  0.00    -0.203 F 
ATOM     68  F   UNL A   1      38.874  29.739  26.368  1.00  0.00    -0.200 F 
ATOM     69  C   UNL A   1      39.085  28.401  28.301  1.00  0.00     0.200 A 
ATOM     70  F   UNL A   1      39.361  27.116  30.259  1.00  0.00    -0.200 F 
ATOM     71  F   UNL A   1      37.793  28.598  28.596  1.00  0.00    -0.200 F 
ENDBRANCH  38  61
ENDBRANCH  12  13
ENDBRANCH   5   7
ENDBRANCH   2   3
ENDBRANCH   1   2
BRANCH   1  72
ATOM     72  C   UNL A   1      46.282  18.833  38.128  1.00  0.00     0.023 C 
BRANCH  72  73
ATOM     73  C   UNL A   1      46.440  18.116  39.461  1.00  0.00     0.116 C 
BRANCH  73  74
ATOM     74  N   UNL A   1      46.497  19.022  40.597  1.00  0.00    -0.351 N 
ATOM     75  C   UNL A   1      45.807  18.973  41.799  1.00  0.00     0.269 C 
ATOM     76  H   UNL A   1      47.118  19.780  40.500  1.00  0.00     0.163 HD
ATOM     77  O   UNL A   1      45.933  19.889  42.597  1.00  0.00    -0.268 OA
BRANCH  75  78
ATOM     78  C   UNL A   1      44.953  17.787  42.117  1.00  0.00     0.129 A 
ATOM     79  C   UNL A   1      44.765  17.404  43.420  1.00  0.00     0.039 A 
ATOM     80  N   UNL A   1      44.397  17.127  41.096  1.00  0.00    -0.243 NA
ATOM     81  C   UNL A   1      44.064  16.214  43.729  1.00  0.00    -0.021 A 
ATOM     82  C   UNL A   1      43.644  16.052  41.360  1.00  0.00     0.072 A 
ATOM     83  C   UNL A   1      43.405  15.489  42.656  1.00  0.00     0.012 A 
ATOM     84  C   UNL A   1      43.088  15.499  40.228  1.00  0.00     0.029 A 
ATOM     85  C   UNL A   1      42.528  14.299  42.695  1.00  0.00    -0.009 A 
ATOM     86  C   UNL A   1      42.273  14.381  40.275  1.00  0.00     0.011 A 
ATOM     87  C   UNL A   1      41.985  13.775  41.488  1.00  0.00    -0.018 A 
ATOM     88  C   UNL A   1      42.116  13.593  43.849  1.00  0.00     0.009 A 
ATOM     89  C   UNL A   1      41.139  12.649  41.469  1.00  0.00     0.009 A 
ATOM     90  C   UNL A   1      41.280  12.468  43.836  1.00  0.00     0.001 A 
ATOM     91  C   UNL A   1      40.789  11.993  42.639  1.00  0.00     0.001 A 
BRANCH  81  92
ATOM     92  C   UNL A   1      44.151  15.903  45.205  1.00  0.00     0.115 C 
ATOM     93  C   UNL A   1      44.372  17.041  46.133  1.00  0.00     0.123 C 
ATOM     94  C   UNL A   1      45.147  14.948  45.776  1.00  0.00     0.083 C 
ATOM     95  N   UNL A   1      45.170  16.740  47.105  1.00  0.00    -0.162 NA
ATOM     96  N   UNL A   1      45.658  15.405  46.886  1.00  0.00    -0.154 NA
BRANCH  94  97
ATOM     97  C   UNL A   1      45.406  13.584  45.261  1.00  0.00    -0.001 A 
ATOM     98  C   UNL A   1      46.544  13.394  44.463  1.00  0.00     0.013 A 
ATOM     99  C   UNL A   1      44.584  12.487  45.549  1.00  0.00     0.013 A 
ATOM    100  C   UNL A   1      46.874  12.121  43.994  1.00  0.00     0.040 A 
ATOM    101  C   UNL A   1      44.918  11.213  45.082  1.00  0.00     0.040 A 
ATOM    102  C   UNL A   1      46.062  11.040  44.316  1.00  0.00     0.123 A 
ATOM    103  F   UNL A   1      46.384   9.816  43.881  1.00  0.00    -0.207 F 
ENDBRANCH  94  97
ENDBRANCH  81  92
ENDBRANCH  75  78
ENDBRANCH  73  74
ENDBRANCH  72  73
ENDBRANCH   1  72
TORSDOF 13
ENDMDL
MODEL 3
REMARK VINA RESULT:     -13.7      3.538      8.544
REMARK SMILES O=C(NCCCCNC(=O)c1cc([C@@H]2C=NN=C2c2ccc(F)cc2)c2c(ccc3ccccc32)n1)c1ccc(-c2c3nc(c(-c4c(F)c(F)c(F)c(F)c4F)c4ccc([nH]4)c(-c4c(F)c(F)c(F)c(F)c4F)c4nc(c(-c5c(F)c(F)c(F)c(F)c5F)c5ccc2[nH]5)C=C4)C=C3)cc1
REMARK SMILES IDX 5 1 4 2 3 3 1 4 2 5 37 7 38 8 99 9 39 10 98 11 40 12 41 13
REMARK SMILES IDX 42 14 92 15 43 16 97 17 91 18 93 19 44 20 96 21 90 22 89 23
REMARK SMILES IDX 45 25 77 26 57 27 76 28 58 29 61 30 75 31 94 32 59 33 60 34
REMARK SMILES IDX 74 36 95 37 62 38 46 39 47 40 55 41 48 42 49 43 53 44 56 45
REMARK SMILES IDX 50 46 51 47 54 48 52 49 78 50 79 51 87 52 80 53 81 54 85 55
REMARK SMILES IDX 88 56 82 57 83 58 86 59 84 60 63 61 64 62 72 63 65 64 66 65
REMARK SMILES IDX 70 66 73 67 67 68 68 69 71 70 69 71 6 72 7 73 8 74 9 75
REMARK SMILES IDX 10 77 11 78 12 79 36 80 13 81 27 82 26 83 28 84 35 85 29 86
REMARK SMILES IDX 30 87 34 88 31 89 33 90 32 91 14 92 15 93 18 94 16 95 17 96
REMARK SMILES IDX 19 97 20 98 25 99 21 100 24 101 22 102 23 103
REMARK H PARENT 3 6 93 24 61 35 8 76
REMARK Flexibility Score: inf
ROOT
ATOM      1  C   UNL A   1      34.372  31.191  27.600  1.00  0.00     0.023 C 
ENDROOT
BRANCH   1   2
ATOM      2  C   UNL A   1      35.095  32.252  28.431  1.00  0.00     0.116 C 
BRANCH   2   3
ATOM      3  N   UNL A   1      34.805  32.211  29.849  1.00  0.00    -0.352 N 
ATOM      4  O   UNL A   1      35.008  32.196  32.045  1.00  0.00    -0.269 OA
ATOM      5  C   UNL A   1      35.520  31.881  30.967  1.00  0.00     0.251 C 
ATOM      6  H   UNL A   1      33.881  32.484  30.057  1.00  0.00     0.163 HD
BRANCH   5   7
ATOM      7  C   UNL A   1      36.801  31.120  30.982  1.00  0.00     0.039 A 
ATOM      8  C   UNL A   1      38.079  31.670  31.067  1.00  0.00     0.014 A 
ATOM      9  C   UNL A   1      36.683  29.724  30.826  1.00  0.00     0.014 A 
ATOM     10  C   UNL A   1      39.205  30.868  30.897  1.00  0.00     0.010 A 
ATOM     11  C   UNL A   1      37.802  28.916  30.669  1.00  0.00     0.010 A 
ATOM     12  C   UNL A   1      39.064  29.498  30.660  1.00  0.00    -0.014 A 
BRANCH  12  13
ATOM     13  C   UNL A   1      40.275  28.682  30.574  1.00  0.00     0.031 A 
ATOM     14  C   UNL A   1      40.917  28.393  31.892  1.00  0.00     0.074 A 
ATOM     15  C   UNL A   1      40.701  28.105  29.432  1.00  0.00     0.049 A 
ATOM     16  N   UNL A   1      42.136  28.620  32.263  1.00  0.00    -0.248 NA
ATOM     17  C   UNL A   1      40.057  27.863  32.965  1.00  0.00     0.031 C 
ATOM     18  C   UNL A   1      40.020  28.060  28.136  1.00  0.00     0.029 A 
ATOM     19  N   UNL A   1      41.811  27.340  29.216  1.00  0.00    -0.354 N 
ATOM     20  C   UNL A   1      42.244  28.118  33.561  1.00  0.00     0.074 A 
ATOM     21  C   UNL A   1      40.911  27.784  33.984  1.00  0.00     0.031 C 
ATOM     22  C   UNL A   1      40.614  27.133  27.348  1.00  0.00     0.029 A 
ATOM     23  C   UNL A   1      41.789  26.617  28.029  1.00  0.00     0.049 A 
ATOM     24  H   UNL A   1      42.564  27.303  29.849  1.00  0.00     0.167 HD
ATOM     25  C   UNL A   1      43.452  27.820  34.114  1.00  0.00     0.037 A 
ATOM     26  C   UNL A   1      42.638  25.622  27.668  1.00  0.00     0.037 A 
ATOM     27  C   UNL A   1      44.514  28.549  33.471  1.00  0.00     0.049 A 
ATOM     28  C   UNL A   1      43.855  25.749  28.505  1.00  0.00     0.074 A 
ATOM     29  C   UNL A   1      44.818  29.888  33.321  1.00  0.00     0.029 A 
ATOM     30  N   UNL A   1      45.303  27.891  32.564  1.00  0.00    -0.354 N 
ATOM     31  N   UNL A   1      44.707  26.730  28.417  1.00  0.00    -0.248 NA
ATOM     32  C   UNL A   1      43.899  24.984  29.742  1.00  0.00     0.031 C 
ATOM     33  C   UNL A   1      45.377  29.994  32.013  1.00  0.00     0.029 A 
ATOM     34  C   UNL A   1      45.430  28.709  31.473  1.00  0.00     0.049 A 
ATOM     35  H   UNL A   1      45.703  26.999  32.676  1.00  0.00     0.167 HD
ATOM     36  C   UNL A   1      45.084  26.980  29.728  1.00  0.00     0.074 A 
ATOM     37  C   UNL A   1      44.624  25.821  30.486  1.00  0.00     0.031 C 
ATOM     38  C   UNL A   1      45.483  28.225  30.116  1.00  0.00     0.037 A 
BRANCH  25  39
ATOM     39  C   UNL A   1      43.710  26.606  34.979  1.00  0.00     0.064 A 
ATOM     40  C   UNL A   1      43.775  25.285  34.482  1.00  0.00     0.173 A 
ATOM     41  C   UNL A   1      44.220  26.783  36.283  1.00  0.00     0.173 A 
ATOM     42  F   UNL A   1      43.402  24.969  33.238  1.00  0.00    -0.203 F 
ATOM     43  C   UNL A   1      44.340  24.238  35.211  1.00  0.00     0.198 A 
ATOM     44  C   UNL A   1      44.832  25.743  36.988  1.00  0.00     0.198 A 
ATOM     45  F   UNL A   1      44.223  27.996  36.857  1.00  0.00    -0.203 F 
ATOM     46  F   UNL A   1      44.411  23.018  34.661  1.00  0.00    -0.200 F 
ATOM     47  C   UNL A   1      44.900  24.474  36.447  1.00  0.00     0.200 A 
ATOM     48  F   UNL A   1      45.421  25.995  38.164  1.00  0.00    -0.200 F 
ATOM     49  F   UNL A   1      45.545  23.491  37.090  1.00  0.00    -0.200 F 
ENDBRANCH  25  39
BRANCH  26  50
ATOM     50  C   UNL A   1      42.341  24.371  26.923  1.00  0.00     0.064 A 
ATOM     51  C   UNL A   1      41.591  23.333  27.508  1.00  0.00     0.173 A 
ATOM     52  C   UNL A   1      43.045  24.042  25.750  1.00  0.00     0.173 A 
ATOM     53  F   UNL A   1      40.945  23.521  28.668  1.00  0.00    -0.203 F 
ATOM     54  C   UNL A   1      41.572  22.042  26.976  1.00  0.00     0.198 A 
ATOM     55  C   UNL A   1      43.031  22.746  25.221  1.00  0.00     0.198 A 
ATOM     56  F   UNL A   1      43.821  24.958  25.151  1.00  0.00    -0.203 F 
ATOM     57  F   UNL A   1      40.897  21.072  27.609  1.00  0.00    -0.200 F 
ATOM     58  C   UNL A   1      42.306  21.745  25.843  1.00  0.00     0.200 A 
ATOM     59  F   UNL A   1      43.777  22.454  24.145  1.00  0.00    -0.200 F 
ATOM     60  F   UNL A   1      42.349  20.487  25.380  1.00  0.00    -0.200 F 
ENDBRANCH  26  50
BRANCH  38  61
ATOM     61  C   UNL A   1      45.760  29.244  29.048  1.00  0.00     0.064 A 
ATOM     62  C   UNL A   1      44.682  29.988  28.552  1.00  0.00     0.173 A 
ATOM     63  C   UNL A   1      46.999  29.383  28.396  1.00  0.00     0.173 A 
ATOM     64  F   UNL A   1      43.465  29.857  29.103  1.00  0.00    -0.203 F 
ATOM     65  C   UNL A   1      44.829  30.824  27.449  1.00  0.00     0.198 A 
ATOM     66  C   UNL A   1      47.151  30.250  27.315  1.00  0.00     0.198 A 
ATOM     67  F   UNL A   1      48.053  28.639  28.749  1.00  0.00    -0.203 F 
ATOM     68  F   UNL A   1      43.762  31.470  26.958  1.00  0.00    -0.200 F 
ATOM     69  C   UNL A   1      46.063  30.960  26.835  1.00  0.00     0.200 A 
ATOM     70  F   UNL A   1      48.341  30.365  26.708  1.00  0.00    -0.200 F 
ATOM     71  F   UNL A   1      46.196  31.751  25.762  1.00  0.00    -0.200 F 
ENDBRANCH  38  61
ENDBRANCH  12  13
ENDBRANCH   5   7
ENDBRANCH   2   3
ENDBRANCH   1   2
BRANCH   1  72
ATOM     72  C   UNL A   1      35.126  29.876  27.403  1.00  0.00     0.023 C 
BRANCH  72  73
ATOM     73  C   UNL A   1      34.265  28.656  27.105  1.00  0.00     0.116 C 
BRANCH  73  74
ATOM     74  N   UNL A   1      32.945  28.723  27.710  1.00  0.00    -0.351 N 
ATOM     75  C   UNL A   1      31.839  27.912  27.506  1.00  0.00     0.269 C 
ATOM     76  H   UNL A   1      32.817  29.451  28.362  1.00  0.00     0.163 HD
ATOM     77  O   UNL A   1      30.784  28.192  28.053  1.00  0.00    -0.268 OA
BRANCH  75  78
ATOM     78  C   UNL A   1      31.964  26.688  26.655  1.00  0.00     0.129 A 
ATOM     79  C   UNL A   1      32.200  26.806  25.309  1.00  0.00     0.039 A 
ATOM     80  N   UNL A   1      31.835  25.498  27.251  1.00  0.00    -0.243 NA
ATOM     81  C   UNL A   1      32.198  25.665  24.473  1.00  0.00    -0.021 A 
ATOM     82  C   UNL A   1      31.927  24.392  26.503  1.00  0.00     0.072 A 
ATOM     83  C   UNL A   1      32.105  24.349  25.082  1.00  0.00     0.012 A 
ATOM     84  C   UNL A   1      31.829  23.237  27.245  1.00  0.00     0.029 A 
ATOM     85  C   UNL A   1      32.186  23.001  24.478  1.00  0.00    -0.009 A 
ATOM     86  C   UNL A   1      31.900  21.979  26.670  1.00  0.00     0.011 A 
ATOM     87  C   UNL A   1      32.077  21.845  25.301  1.00  0.00    -0.018 A 
ATOM     88  C   UNL A   1      32.397  22.700  23.112  1.00  0.00     0.009 A 
ATOM     89  C   UNL A   1      32.154  20.540  24.780  1.00  0.00     0.009 A 
ATOM     90  C   UNL A   1      32.468  21.403  22.587  1.00  0.00     0.001 A 
ATOM     91  C   UNL A   1      32.345  20.317  23.425  1.00  0.00     0.001 A 
BRANCH  81  92
ATOM     92  C   UNL A   1      32.287  26.061  23.017  1.00  0.00     0.115 C 
ATOM     93  C   UNL A   1      33.641  26.148  22.413  1.00  0.00     0.123 C 
ATOM     94  C   UNL A   1      31.718  27.336  22.487  1.00  0.00     0.083 C 
ATOM     95  N   UNL A   1      33.753  27.141  21.591  1.00  0.00    -0.162 NA
ATOM     96  N   UNL A   1      32.528  27.893  21.629  1.00  0.00    -0.154 NA
BRANCH  94  97
ATOM     97  C   UNL A   1      30.347  27.828  22.752  1.00  0.00    -0.001 A 
ATOM     98  C   UNL A   1      30.046  29.147  22.380  1.00  0.00     0.013 A 
ATOM     99  C   UNL A   1      29.348  27.038  23.333  1.00  0.00     0.013 A 
ATOM    100  C   UNL A   1      28.755  29.651  22.552  1.00  0.00     0.040 A 
ATOM    101  C   UNL A   1      28.057  27.544  23.501  1.00  0.00     0.040 A 
ATOM    102  C   UNL A   1      27.770  28.842  23.103  1.00  0.00     0.123 A 
ATOM    103  F   UNL A   1      26.528  29.318  23.254  1.00  0.00    -0.207 F 
ENDBRANCH  94  97
ENDBRANCH  81  92
ENDBRANCH  75  78
ENDBRANCH  73  74
ENDBRANCH  72  73
ENDBRANCH   1  72
TORSDOF 13
ENDMDL
