MODEL 1
REMARK VINA RESULT:     -14.5      0.000      0.000
REMARK SMILES C[C@]1(C(=O)NCCCCNC(=O)c2ccc(-c3c4nc(c(-c5c(F)c(F)c(F)c(F)c5F)c5ccc([nH]5)c(-c5c(F)c(F)c(F)c(F)c5F)c5nc(c(-c6c(F)c(F)c(F)c(F)c6F)c6ccc3[nH]6)C=C5)C=C4)cc2)[NH2+]C2(C(=O)c3ccccc3C2=O)[C@@H]2C(=O)N(c3ccccc3)C(=O)[C@H]21
REMARK SMILES IDX 8 1 7 2 6 3 5 4 3 5 4 6 2 8 1 9 76 10 100 11 77 12 88 15
REMARK SMILES IDX 98 16 78 17 86 18 89 19 91 20 99 21 79 22 80 23 85 24 87 25
REMARK SMILES IDX 90 26 81 27 84 28 82 29 83 30 92 31 93 32 97 33 94 34 96 35
REMARK SMILES IDX 95 36 9 37 10 38 11 39 12 41 13 42 14 43 75 44 15 45 74 46
REMARK SMILES IDX 16 47 17 48 18 49 68 50 19 51 73 52 67 53 69 54 20 55 72 56
REMARK SMILES IDX 66 57 65 58 21 60 53 61 33 62 52 63 34 64 37 65 51 66 70 67
REMARK SMILES IDX 35 68 36 69 50 71 71 72 38 73 22 74 23 75 31 76 24 77 25 78
REMARK SMILES IDX 29 79 32 80 26 81 27 82 30 83 28 84 54 85 55 86 63 87 56 88
REMARK SMILES IDX 57 89 61 90 64 91 58 92 59 93 62 94 60 95 39 96 40 97 48 98
REMARK SMILES IDX 41 99 42 100 46 101 49 102 43 103 44 104 47 105 45 106
REMARK H PARENT 5 7 76 13 76 14 10 40 69 59 37 70
REMARK Flexibility Score: inf
ROOT
ATOM      1  C   UNL A   1      33.495  33.271  28.181  1.00  0.00     0.023 C 
ENDROOT
BRANCH   1   2
ATOM      2  C   UNL A   1      34.110  31.890  28.180  1.00  0.00     0.023 C 
BRANCH   2   3
ATOM      3  C   UNL A   1      33.447  30.864  27.275  1.00  0.00     0.116 C 
BRANCH   3   4
ATOM      4  N   UNL A   1      32.679  29.807  27.846  1.00  0.00    -0.351 N 
ATOM      5  C   UNL A   1      32.544  28.510  27.434  1.00  0.00     0.281 C 
ATOM      6  O   UNL A   1      31.833  27.828  28.189  1.00  0.00    -0.268 OA
ATOM      7  H   UNL A   1      32.172  30.045  28.656  1.00  0.00     0.163 HD
BRANCH   5   8
ATOM      8  C   UNL A   1      33.207  27.837  26.137  1.00  0.00     0.186 C 
ATOM      9  C   UNL A   1      34.581  28.543  25.978  1.00  0.00     0.091 C 
ATOM     10  N   UNL A   1      33.466  26.345  26.260  1.00  0.00    -0.314 N 
ATOM     11  C   UNL A   1      32.498  27.894  24.812  1.00  0.00     0.170 C 
ATOM     12  C   UNL A   1      32.575  25.587  25.278  1.00  0.00     0.236 C 
ATOM     13  H   UNL A   1      33.259  26.041  27.211  1.00  0.00     0.348 HD
ATOM     14  H   UNL A   1      34.446  26.152  26.046  1.00  0.00     0.348 HD
ATOM     15  C   UNL A   1      31.640  26.646  24.754  1.00  0.00     0.177 C 
ATOM     16  C   UNL A   1      31.531  28.931  24.370  1.00  0.00     0.244 C 
ATOM     17  C   UNL A   1      33.333  24.814  24.193  1.00  0.00     0.232 C 
ATOM     18  C   UNL A   1      31.933  24.423  26.072  1.00  0.00     0.232 C 
ATOM     19  C   UNL A   1      30.955  26.883  23.446  1.00  0.00     0.245 C 
ATOM     20  N   UNL A   1      30.747  28.269  23.422  1.00  0.00    -0.250 N 
ATOM     21  O   UNL A   1      31.489  30.078  24.761  1.00  0.00    -0.273 OA
ATOM     22  O   UNL A   1      34.123  25.282  23.394  1.00  0.00    -0.286 OA
ATOM     23  C   UNL A   1      32.969  23.384  24.284  1.00  0.00     0.036 A 
ATOM     24  C   UNL A   1      32.139  23.182  25.371  1.00  0.00     0.036 A 
ATOM     25  O   UNL A   1      31.404  24.398  27.167  1.00  0.00    -0.286 OA
ATOM     26  O   UNL A   1      30.524  26.005  22.721  1.00  0.00    -0.273 OA
ATOM     27  C   UNL A   1      33.348  22.302  23.515  1.00  0.00     0.013 A 
ATOM     28  C   UNL A   1      31.653  21.945  25.759  1.00  0.00     0.013 A 
ATOM     29  C   UNL A   1      32.864  21.030  23.876  1.00  0.00     0.001 A 
ATOM     30  C   UNL A   1      32.023  20.852  24.991  1.00  0.00     0.001 A 
BRANCH  20  31
ATOM     31  C   UNL A   1      29.704  28.935  22.750  1.00  0.00     0.052 A 
ATOM     32  C   UNL A   1      29.995  29.936  21.813  1.00  0.00     0.027 A 
ATOM     33  C   UNL A   1      28.374  28.715  23.126  1.00  0.00     0.027 A 
ATOM     34  C   UNL A   1      28.970  30.699  21.251  1.00  0.00     0.002 A 
ATOM     35  C   UNL A   1      27.357  29.521  22.604  1.00  0.00     0.002 A 
ATOM     36  C   UNL A   1      27.653  30.505  21.662  1.00  0.00     0.000 A 
ENDBRANCH  20  31
ENDBRANCH   5   8
ENDBRANCH   3   4
ENDBRANCH   2   3
ENDBRANCH   1   2
BRANCH   1  37
ATOM     37  C   UNL A   1      33.993  34.192  29.287  1.00  0.00     0.116 C 
BRANCH  37  38
ATOM     38  N   UNL A   1      32.961  34.970  29.977  1.00  0.00    -0.352 N 
ATOM     39  C   UNL A   1      32.883  35.364  31.300  1.00  0.00     0.251 C 
ATOM     40  H   UNL A   1      32.206  35.257  29.412  1.00  0.00     0.163 HD
ATOM     41  O   UNL A   1      31.929  36.010  31.716  1.00  0.00    -0.269 OA
BRANCH  39  42
ATOM     42  C   UNL A   1      33.942  34.919  32.230  1.00  0.00     0.039 A 
ATOM     43  C   UNL A   1      35.133  35.630  32.292  1.00  0.00     0.014 A 
ATOM     44  C   UNL A   1      33.817  33.683  32.866  1.00  0.00     0.014 A 
ATOM     45  C   UNL A   1      36.282  34.953  32.667  1.00  0.00     0.010 A 
ATOM     46  C   UNL A   1      34.954  33.078  33.411  1.00  0.00     0.010 A 
ATOM     47  C   UNL A   1      36.215  33.663  33.221  1.00  0.00    -0.014 A 
BRANCH  47  48
ATOM     48  C   UNL A   1      37.479  32.948  33.553  1.00  0.00     0.031 A 
ATOM     49  C   UNL A   1      38.178  33.156  34.875  1.00  0.00     0.074 A 
ATOM     50  C   UNL A   1      37.962  32.043  32.680  1.00  0.00     0.049 A 
ATOM     51  N   UNL A   1      39.297  32.627  35.308  1.00  0.00    -0.248 NA
ATOM     52  C   UNL A   1      37.553  34.082  35.833  1.00  0.00     0.031 C 
ATOM     53  C   UNL A   1      37.368  31.734  31.378  1.00  0.00     0.029 A 
ATOM     54  N   UNL A   1      39.033  31.191  32.765  1.00  0.00    -0.354 N 
ATOM     55  C   UNL A   1      39.533  33.191  36.556  1.00  0.00     0.074 A 
ATOM     56  C   UNL A   1      38.449  34.115  36.809  1.00  0.00     0.031 C 
ATOM     57  C   UNL A   1      38.029  30.711  30.824  1.00  0.00     0.029 A 
ATOM     58  C   UNL A   1      39.160  30.366  31.675  1.00  0.00     0.049 A 
ATOM     59  H   UNL A   1      39.651  31.172  33.531  1.00  0.00     0.167 HD
ATOM     60  C   UNL A   1      40.556  32.954  37.413  1.00  0.00     0.037 A 
ATOM     61  C   UNL A   1      40.099  29.454  31.367  1.00  0.00     0.037 A 
ATOM     62  C   UNL A   1      41.603  31.991  37.177  1.00  0.00     0.049 A 
ATOM     63  C   UNL A   1      41.235  29.228  32.317  1.00  0.00     0.074 A 
ATOM     64  C   UNL A   1      42.653  31.640  38.009  1.00  0.00     0.029 A 
ATOM     65  N   UNL A   1      41.731  31.224  36.028  1.00  0.00    -0.354 N 
ATOM     66  N   UNL A   1      41.450  29.776  33.487  1.00  0.00    -0.248 NA
ATOM     67  C   UNL A   1      42.267  28.273  31.897  1.00  0.00     0.031 C 
ATOM     68  C   UNL A   1      43.448  30.704  37.338  1.00  0.00     0.029 A 
ATOM     69  C   UNL A   1      42.862  30.427  36.114  1.00  0.00     0.049 A 
ATOM     70  H   UNL A   1      41.110  31.243  35.264  1.00  0.00     0.167 HD
ATOM     71  C   UNL A   1      42.642  29.238  33.946  1.00  0.00     0.074 A 
ATOM     72  C   UNL A   1      43.089  28.296  32.937  1.00  0.00     0.031 C 
ATOM     73  C   UNL A   1      43.307  29.508  35.095  1.00  0.00     0.037 A 
BRANCH  60  74
ATOM     74  C   UNL A   1      40.620  33.764  38.679  1.00  0.00     0.064 A 
ATOM     75  C   UNL A   1      39.918  33.398  39.837  1.00  0.00     0.173 A 
ATOM     76  C   UNL A   1      41.445  34.899  38.748  1.00  0.00     0.173 A 
ATOM     77  F   UNL A   1      39.110  32.328  39.827  1.00  0.00    -0.203 F 
ATOM     78  C   UNL A   1      40.018  34.152  41.006  1.00  0.00     0.198 A 
ATOM     79  C   UNL A   1      41.566  35.632  39.926  1.00  0.00     0.198 A 
ATOM     80  F   UNL A   1      42.148  35.290  37.673  1.00  0.00    -0.203 F 
ATOM     81  F   UNL A   1      39.302  33.808  42.086  1.00  0.00    -0.200 F 
ATOM     82  C   UNL A   1      40.847  35.262  41.051  1.00  0.00     0.200 A 
ATOM     83  F   UNL A   1      42.381  36.695  39.972  1.00  0.00    -0.200 F 
ATOM     84  F   UNL A   1      40.949  35.980  42.179  1.00  0.00    -0.200 F 
ENDBRANCH  60  74
BRANCH  61  85
ATOM     85  C   UNL A   1      39.986  28.719  30.082  1.00  0.00     0.064 A 
ATOM     86  C   UNL A   1      40.564  29.226  28.912  1.00  0.00     0.173 A 
ATOM     87  C   UNL A   1      39.390  27.450  30.023  1.00  0.00     0.173 A 
ATOM     88  F   UNL A   1      41.131  30.441  28.917  1.00  0.00    -0.203 F 
ATOM     89  C   UNL A   1      40.562  28.484  27.733  1.00  0.00     0.198 A 
ATOM     90  C   UNL A   1      39.418  26.695  28.853  1.00  0.00     0.198 A 
ATOM     91  F   UNL A   1      38.837  26.917  31.122  1.00  0.00    -0.203 F 
ATOM     92  F   UNL A   1      41.114  28.993  26.623  1.00  0.00    -0.200 F 
ATOM     93  C   UNL A   1      40.004  27.214  27.709  1.00  0.00     0.200 A 
ATOM     94  F   UNL A   1      38.903  25.459  28.844  1.00  0.00    -0.200 F 
ATOM     95  F   UNL A   1      40.037  26.486  26.585  1.00  0.00    -0.200 F 
ENDBRANCH  61  85
BRANCH  73  96
ATOM     96  C   UNL A   1      44.598  28.780  35.328  1.00  0.00     0.064 A 
ATOM     97  C   UNL A   1      45.827  29.335  34.943  1.00  0.00     0.173 A 
ATOM     98  C   UNL A   1      44.613  27.547  35.996  1.00  0.00     0.173 A 
ATOM     99  F   UNL A   1      45.863  30.505  34.286  1.00  0.00    -0.203 F 
ATOM    100  C   UNL A   1      47.024  28.674  35.204  1.00  0.00     0.198 A 
ATOM    101  C   UNL A   1      45.814  26.903  36.283  1.00  0.00     0.198 A 
ATOM    102  F   UNL A   1      43.465  26.977  36.390  1.00  0.00    -0.203 F 
ATOM    103  F   UNL A   1      48.184  29.204  34.794  1.00  0.00    -0.200 F 
ATOM    104  C   UNL A   1      47.017  27.464  35.883  1.00  0.00     0.200 A 
ATOM    105  F   UNL A   1      45.806  25.741  36.951  1.00  0.00    -0.200 F 
ATOM    106  F   UNL A   1      48.171  26.837  36.148  1.00  0.00    -0.200 F 
ENDBRANCH  73  96
ENDBRANCH  47  48
ENDBRANCH  39  42
ENDBRANCH  37  38
ENDBRANCH   1  37
TORSDOF 12
ENDMDL
MODEL 2
REMARK VINA RESULT:     -14.4      0.384      6.984
REMARK SMILES C[C@]1(C(=O)NCCCCNC(=O)c2ccc(-c3c4nc(c(-c5c(F)c(F)c(F)c(F)c5F)c5ccc([nH]5)c(-c5c(F)c(F)c(F)c(F)c5F)c5nc(c(-c6c(F)c(F)c(F)c(F)c6F)c6ccc3[nH]6)C=C5)C=C4)cc2)[NH2+]C2(C(=O)c3ccccc3C2=O)[C@@H]2C(=O)N(c3ccccc3)C(=O)[C@H]21
REMARK SMILES IDX 8 1 7 2 6 3 5 4 3 5 4 6 2 8 1 9 76 10 100 11 77 12 88 15
REMARK SMILES IDX 98 16 78 17 86 18 89 19 91 20 99 21 79 22 80 23 85 24 87 25
REMARK SMILES IDX 90 26 81 27 84 28 82 29 83 30 92 31 93 32 97 33 94 34 96 35
REMARK SMILES IDX 95 36 9 37 10 38 11 39 12 41 13 42 14 43 75 44 15 45 74 46
REMARK SMILES IDX 16 47 17 48 18 49 68 50 19 51 73 52 67 53 69 54 20 55 72 56
REMARK SMILES IDX 66 57 65 58 21 60 53 61 33 62 52 63 34 64 37 65 51 66 70 67
REMARK SMILES IDX 35 68 36 69 50 71 71 72 38 73 22 74 23 75 31 76 24 77 25 78
REMARK SMILES IDX 29 79 32 80 26 81 27 82 30 83 28 84 54 85 55 86 63 87 56 88
REMARK SMILES IDX 57 89 61 90 64 91 58 92 59 93 62 94 60 95 39 96 40 97 48 98
REMARK SMILES IDX 41 99 42 100 46 101 49 102 43 103 44 104 47 105 45 106
REMARK H PARENT 5 7 76 13 76 14 10 40 69 59 37 70
REMARK Flexibility Score: inf
ROOT
ATOM      1  C   UNL A   1      33.618  33.297  28.165  1.00  0.00     0.023 C 
ENDROOT
BRANCH   1   2
ATOM      2  C   UNL A   1      34.113  31.869  28.152  1.00  0.00     0.023 C 
BRANCH   2   3
ATOM      3  C   UNL A   1      33.344  30.904  27.265  1.00  0.00     0.116 C 
BRANCH   3   4
ATOM      4  N   UNL A   1      32.614  29.829  27.852  1.00  0.00    -0.351 N 
ATOM      5  C   UNL A   1      32.518  28.524  27.455  1.00  0.00     0.281 C 
ATOM      6  O   UNL A   1      31.834  27.828  28.221  1.00  0.00    -0.268 OA
ATOM      7  H   UNL A   1      32.106  30.060  28.663  1.00  0.00     0.163 HD
BRANCH   5   8
ATOM      8  C   UNL A   1      33.193  27.859  26.160  1.00  0.00     0.186 C 
ATOM      9  C   UNL A   1      34.563  28.573  26.011  1.00  0.00     0.091 C 
ATOM     10  N   UNL A   1      33.460  26.368  26.280  1.00  0.00    -0.314 N 
ATOM     11  C   UNL A   1      32.491  27.916  24.831  1.00  0.00     0.170 C 
ATOM     12  C   UNL A   1      32.578  25.607  25.290  1.00  0.00     0.236 C 
ATOM     13  H   UNL A   1      33.248  26.060  27.229  1.00  0.00     0.348 HD
ATOM     14  H   UNL A   1      34.441  26.181  26.072  1.00  0.00     0.348 HD
ATOM     15  C   UNL A   1      31.641  26.663  24.764  1.00  0.00     0.177 C 
ATOM     16  C   UNL A   1      31.521  28.949  24.385  1.00  0.00     0.244 C 
ATOM     17  C   UNL A   1      33.348  24.843  24.208  1.00  0.00     0.232 C 
ATOM     18  C   UNL A   1      31.938  24.438  26.076  1.00  0.00     0.232 C 
ATOM     19  C   UNL A   1      30.963  26.900  23.451  1.00  0.00     0.245 C 
ATOM     20  N   UNL A   1      30.748  28.285  23.431  1.00  0.00    -0.250 N 
ATOM     21  O   UNL A   1      31.470  30.094  24.780  1.00  0.00    -0.273 OA
ATOM     22  O   UNL A   1      34.140  25.318  23.415  1.00  0.00    -0.286 OA
ATOM     23  C   UNL A   1      32.991  23.410  24.292  1.00  0.00     0.036 A 
ATOM     24  C   UNL A   1      32.156  23.200  25.373  1.00  0.00     0.036 A 
ATOM     25  O   UNL A   1      31.402  24.407  27.168  1.00  0.00    -0.286 OA
ATOM     26  O   UNL A   1      30.541  26.022  22.722  1.00  0.00    -0.273 OA
ATOM     27  C   UNL A   1      33.382  22.332  23.522  1.00  0.00     0.013 A 
ATOM     28  C   UNL A   1      31.674  21.959  25.755  1.00  0.00     0.013 A 
ATOM     29  C   UNL A   1      32.903  21.057  23.876  1.00  0.00     0.001 A 
ATOM     30  C   UNL A   1      32.056  20.871  24.985  1.00  0.00     0.001 A 
BRANCH  20  31
ATOM     31  C   UNL A   1      29.705  28.947  22.754  1.00  0.00     0.052 A 
ATOM     32  C   UNL A   1      29.996  29.948  21.817  1.00  0.00     0.027 A 
ATOM     33  C   UNL A   1      28.374  28.724  23.126  1.00  0.00     0.027 A 
ATOM     34  C   UNL A   1      28.971  30.707  21.250  1.00  0.00     0.002 A 
ATOM     35  C   UNL A   1      27.357  29.526  22.599  1.00  0.00     0.002 A 
ATOM     36  C   UNL A   1      27.653  30.509  21.656  1.00  0.00     0.000 A 
ENDBRANCH  20  31
ENDBRANCH   5   8
ENDBRANCH   3   4
ENDBRANCH   2   3
ENDBRANCH   1   2
BRANCH   1  37
ATOM     37  C   UNL A   1      34.097  34.129  29.348  1.00  0.00     0.116 C 
BRANCH  37  38
ATOM     38  N   UNL A   1      33.079  34.972  29.982  1.00  0.00    -0.352 N 
ATOM     39  C   UNL A   1      32.974  35.399  31.293  1.00  0.00     0.251 C 
ATOM     40  H   UNL A   1      32.361  35.282  29.384  1.00  0.00     0.163 HD
ATOM     41  O   UNL A   1      32.037  36.099  31.660  1.00  0.00    -0.269 OA
BRANCH  39  42
ATOM     42  C   UNL A   1      33.974  34.925  32.271  1.00  0.00     0.039 A 
ATOM     43  C   UNL A   1      35.154  35.638  32.435  1.00  0.00     0.014 A 
ATOM     44  C   UNL A   1      33.819  33.664  32.851  1.00  0.00     0.014 A 
ATOM     45  C   UNL A   1      36.282  34.954  32.857  1.00  0.00     0.010 A 
ATOM     46  C   UNL A   1      34.924  33.045  33.444  1.00  0.00     0.010 A 
ATOM     47  C   UNL A   1      36.190  33.643  33.357  1.00  0.00    -0.014 A 
BRANCH  47  48
ATOM     48  C   UNL A   1      37.436  32.923  33.741  1.00  0.00     0.031 A 
ATOM     49  C   UNL A   1      38.111  31.957  32.798  1.00  0.00     0.074 A 
ATOM     50  C   UNL A   1      38.008  33.202  34.929  1.00  0.00     0.049 A 
ATOM     51  N   UNL A   1      39.187  31.233  32.990  1.00  0.00    -0.248 NA
ATOM     52  C   UNL A   1      37.498  31.764  31.474  1.00  0.00     0.031 C 
ATOM     53  C   UNL A   1      37.467  34.133  35.921  1.00  0.00     0.029 A 
ATOM     54  N   UNL A   1      39.180  32.767  35.490  1.00  0.00    -0.354 N 
ATOM     55  C   UNL A   1      39.349  30.469  31.841  1.00  0.00     0.074 A 
ATOM     56  C   UNL A   1      38.253  30.803  30.959  1.00  0.00     0.031 C 
ATOM     57  C   UNL A   1      38.340  34.262  36.926  1.00  0.00     0.029 A 
ATOM     58  C   UNL A   1      39.448  33.340  36.708  1.00  0.00     0.049 A 
ATOM     59  H   UNL A   1      39.773  32.107  35.062  1.00  0.00     0.167 HD
ATOM     60  C   UNL A   1      40.327  29.577  31.547  1.00  0.00     0.037 A 
ATOM     61  C   UNL A   1      40.450  33.129  37.578  1.00  0.00     0.037 A 
ATOM     62  C   UNL A   1      41.445  29.289  32.409  1.00  0.00     0.049 A 
ATOM     63  C   UNL A   1      41.504  32.119  37.245  1.00  0.00     0.074 A 
ATOM     64  C   UNL A   1      42.515  28.441  32.178  1.00  0.00     0.029 A 
ATOM     65  N   UNL A   1      41.642  29.844  33.666  1.00  0.00    -0.354 N 
ATOM     66  N   UNL A   1      41.638  31.397  36.159  1.00  0.00    -0.248 NA
ATOM     67  C   UNL A   1      42.535  31.879  38.262  1.00  0.00     0.031 C 
ATOM     68  C   UNL A   1      43.327  28.439  33.318  1.00  0.00     0.029 A 
ATOM     69  C   UNL A   1      42.796  29.329  34.236  1.00  0.00     0.049 A 
ATOM     70  H   UNL A   1      41.048  30.505  34.090  1.00  0.00     0.167 HD
ATOM     71  C   UNL A   1      42.763  30.614  36.360  1.00  0.00     0.074 A 
ATOM     72  C   UNL A   1      43.293  30.972  37.662  1.00  0.00     0.031 C 
ATOM     73  C   UNL A   1      43.302  29.679  35.541  1.00  0.00     0.037 A 
BRANCH  60  74
ATOM     74  C   UNL A   1      40.225  28.817  30.253  1.00  0.00     0.064 A 
ATOM     75  C   UNL A   1      40.821  29.275  29.068  1.00  0.00     0.173 A 
ATOM     76  C   UNL A   1      39.563  27.579  30.213  1.00  0.00     0.173 A 
ATOM     77  F   UNL A   1      41.459  30.454  29.046  1.00  0.00    -0.203 F 
ATOM     78  C   UNL A   1      40.735  28.536  27.889  1.00  0.00     0.198 A 
ATOM     79  C   UNL A   1      39.506  26.829  29.040  1.00  0.00     0.198 A 
ATOM     80  F   UNL A   1      38.983  27.086  31.319  1.00  0.00    -0.203 F 
ATOM     81  F   UNL A   1      41.274  29.017  26.759  1.00  0.00    -0.200 F 
ATOM     82  C   UNL A   1      40.085  27.312  27.878  1.00  0.00     0.200 A 
ATOM     83  F   UNL A   1      38.891  25.638  29.037  1.00  0.00    -0.200 F 
ATOM     84  F   UNL A   1      40.012  26.599  26.745  1.00  0.00    -0.200 F 
ENDBRANCH  60  74
BRANCH  61  85
ATOM     85  C   UNL A   1      40.463  33.892  38.852  1.00  0.00     0.064 A 
ATOM     86  C   UNL A   1      41.155  35.105  38.956  1.00  0.00     0.173 A 
ATOM     87  C   UNL A   1      39.698  33.476  39.953  1.00  0.00     0.173 A 
ATOM     88  F   UNL A   1      41.911  35.534  37.936  1.00  0.00    -0.203 F 
ATOM     89  C   UNL A   1      41.071  35.879  40.111  1.00  0.00     0.198 A 
ATOM     90  C   UNL A   1      39.588  34.267  41.093  1.00  0.00     0.198 A 
ATOM     91  F   UNL A   1      39.006  32.329  39.894  1.00  0.00    -0.203 F 
ATOM     92  F   UNL A   1      41.749  37.033  40.192  1.00  0.00    -0.200 F 
ATOM     93  C   UNL A   1      40.275  35.469  41.171  1.00  0.00     0.200 A 
ATOM     94  F   UNL A   1      38.796  33.879  42.101  1.00  0.00    -0.200 F 
ATOM     95  F   UNL A   1      40.164  36.234  42.265  1.00  0.00    -0.200 F 
ENDBRANCH  61  85
BRANCH  73  96
ATOM     96  C   UNL A   1      44.529  28.965  36.027  1.00  0.00     0.064 A 
ATOM     97  C   UNL A   1      44.439  27.740  36.705  1.00  0.00     0.173 A 
ATOM     98  C   UNL A   1      45.807  29.477  35.761  1.00  0.00     0.173 A 
ATOM     99  F   UNL A   1      43.238  27.218  36.998  1.00  0.00    -0.203 F 
ATOM    100  C   UNL A   1      45.584  27.062  37.112  1.00  0.00     0.198 A 
ATOM    101  C   UNL A   1      46.951  28.782  36.142  1.00  0.00     0.198 A 
ATOM    102  F   UNL A   1      45.947  30.643  35.111  1.00  0.00    -0.203 F 
ATOM    103  F   UNL A   1      45.475  25.912  37.791  1.00  0.00    -0.200 F 
ATOM    104  C   UNL A   1      46.839  27.578  36.821  1.00  0.00     0.200 A 
ATOM    105  F   UNL A   1      48.162  29.275  35.849  1.00  0.00    -0.200 F 
ATOM    106  F   UNL A   1      47.941  26.916  37.200  1.00  0.00    -0.200 F 
ENDBRANCH  73  96
ENDBRANCH  47  48
ENDBRANCH  39  42
ENDBRANCH  37  38
ENDBRANCH   1  37
TORSDOF 12
ENDMDL
MODEL 3
REMARK VINA RESULT:     -14.2      3.294      9.068
REMARK SMILES C[C@]1(C(=O)NCCCCNC(=O)c2ccc(-c3c4nc(c(-c5c(F)c(F)c(F)c(F)c5F)c5ccc([nH]5)c(-c5c(F)c(F)c(F)c(F)c5F)c5nc(c(-c6c(F)c(F)c(F)c(F)c6F)c6ccc3[nH]6)C=C5)C=C4)cc2)[NH2+]C2(C(=O)c3ccccc3C2=O)[C@@H]2C(=O)N(c3ccccc3)C(=O)[C@H]21
REMARK SMILES IDX 8 1 7 2 6 3 5 4 3 5 4 6 2 8 1 9 76 10 100 11 77 12 88 15
REMARK SMILES IDX 98 16 78 17 86 18 89 19 91 20 99 21 79 22 80 23 85 24 87 25
REMARK SMILES IDX 90 26 81 27 84 28 82 29 83 30 92 31 93 32 97 33 94 34 96 35
REMARK SMILES IDX 95 36 9 37 10 38 11 39 12 41 13 42 14 43 75 44 15 45 74 46
REMARK SMILES IDX 16 47 17 48 18 49 68 50 19 51 73 52 67 53 69 54 20 55 72 56
REMARK SMILES IDX 66 57 65 58 21 60 53 61 33 62 52 63 34 64 37 65 51 66 70 67
REMARK SMILES IDX 35 68 36 69 50 71 71 72 38 73 22 74 23 75 31 76 24 77 25 78
REMARK SMILES IDX 29 79 32 80 26 81 27 82 30 83 28 84 54 85 55 86 63 87 56 88
REMARK SMILES IDX 57 89 61 90 64 91 58 92 59 93 62 94 60 95 39 96 40 97 48 98
REMARK SMILES IDX 41 99 42 100 46 101 49 102 43 103 44 104 47 105 45 106
REMARK H PARENT 5 7 76 13 76 14 10 40 69 59 37 70
REMARK Flexibility Score: inf
ROOT
ATOM      1  C   UNL A   1      41.013  21.547  26.123  1.00  0.00     0.023 C 
ENDROOT
BRANCH   1   2
ATOM      2  C   UNL A   1      39.657  22.093  26.509  1.00  0.00     0.023 C 
BRANCH   2   3
ATOM      3  C   UNL A   1      38.476  21.572  25.705  1.00  0.00     0.116 C 
BRANCH   3   4
ATOM      4  N   UNL A   1      38.093  22.230  24.500  1.00  0.00    -0.351 N 
ATOM      5  C   UNL A   1      36.986  22.988  24.237  1.00  0.00     0.281 C 
ATOM      6  O   UNL A   1      36.978  23.462  23.091  1.00  0.00    -0.268 OA
ATOM      7  H   UNL A   1      38.718  22.124  23.746  1.00  0.00     0.163 HD
BRANCH   5   8
ATOM      8  C   UNL A   1      35.776  23.306  25.241  1.00  0.00     0.186 C 
ATOM      9  C   UNL A   1      36.451  23.557  26.616  1.00  0.00     0.091 C 
ATOM     10  N   UNL A   1      34.970  24.546  24.890  1.00  0.00    -0.314 N 
ATOM     11  C   UNL A   1      34.676  22.300  25.440  1.00  0.00     0.170 C 
ATOM     12  C   UNL A   1      33.551  24.141  24.495  1.00  0.00     0.236 C 
ATOM     13  H   UNL A   1      35.414  25.030  24.110  1.00  0.00     0.348 HD
ATOM     14  H   UNL A   1      34.932  25.167  25.700  1.00  0.00     0.348 HD
ATOM     15  C   UNL A   1      33.620  22.639  24.405  1.00  0.00     0.177 C 
ATOM     16  C   UNL A   1      34.782  20.827  25.273  1.00  0.00     0.244 C 
ATOM     17  C   UNL A   1      32.454  24.673  25.425  1.00  0.00     0.232 C 
ATOM     18  C   UNL A   1      33.221  24.902  23.188  1.00  0.00     0.232 C 
ATOM     19  C   UNL A   1      32.654  21.528  24.672  1.00  0.00     0.245 C 
ATOM     20  N   UNL A   1      33.476  20.434  24.974  1.00  0.00    -0.250 N 
ATOM     21  O   UNL A   1      35.793  20.169  25.397  1.00  0.00    -0.273 OA
ATOM     22  O   UNL A   1      32.369  24.480  26.624  1.00  0.00    -0.286 OA
ATOM     23  C   UNL A   1      31.511  25.490  24.630  1.00  0.00     0.036 A 
ATOM     24  C   UNL A   1      31.967  25.594  23.329  1.00  0.00     0.036 A 
ATOM     25  O   UNL A   1      33.870  25.063  22.172  1.00  0.00    -0.286 OA
ATOM     26  O   UNL A   1      31.458  21.584  24.452  1.00  0.00    -0.273 OA
ATOM     27  C   UNL A   1      30.351  26.145  24.994  1.00  0.00     0.013 A 
ATOM     28  C   UNL A   1      31.334  26.329  22.341  1.00  0.00     0.013 A 
ATOM     29  C   UNL A   1      29.678  26.894  24.011  1.00  0.00     0.001 A 
ATOM     30  C   UNL A   1      30.165  26.986  22.694  1.00  0.00     0.001 A 
BRANCH  20  31
ATOM     31  C   UNL A   1      33.159  19.079  24.754  1.00  0.00     0.052 A 
ATOM     32  C   UNL A   1      32.780  18.261  25.827  1.00  0.00     0.027 A 
ATOM     33  C   UNL A   1      33.372  18.504  23.496  1.00  0.00     0.027 A 
ATOM     34  C   UNL A   1      32.605  16.888  25.643  1.00  0.00     0.002 A 
ATOM     35  C   UNL A   1      33.253  17.120  23.331  1.00  0.00     0.002 A 
ATOM     36  C   UNL A   1      32.861  16.315  24.400  1.00  0.00     0.000 A 
ENDBRANCH  20  31
ENDBRANCH   5   8
ENDBRANCH   3   4
ENDBRANCH   2   3
ENDBRANCH   1   2
BRANCH   1  37
ATOM     37  C   UNL A   1      42.197  22.371  26.615  1.00  0.00     0.116 C 
BRANCH  37  38
ATOM     38  N   UNL A   1      43.116  22.841  25.576  1.00  0.00    -0.352 N 
ATOM     39  C   UNL A   1      43.459  24.131  25.213  1.00  0.00     0.251 C 
ATOM     40  H   UNL A   1      43.557  22.131  25.055  1.00  0.00     0.163 HD
ATOM     41  O   UNL A   1      44.247  24.346  24.300  1.00  0.00    -0.269 OA
BRANCH  39  42
ATOM     42  C   UNL A   1      42.793  25.256  25.900  1.00  0.00     0.039 A 
ATOM     43  C   UNL A   1      43.548  26.349  26.304  1.00  0.00     0.014 A 
ATOM     44  C   UNL A   1      41.469  25.112  26.321  1.00  0.00     0.014 A 
ATOM     45  C   UNL A   1      43.110  27.082  27.395  1.00  0.00     0.010 A 
ATOM     46  C   UNL A   1      40.966  25.975  27.299  1.00  0.00     0.010 A 
ATOM     47  C   UNL A   1      41.818  26.901  27.919  1.00  0.00    -0.014 A 
BRANCH  47  48
ATOM     48  C   UNL A   1      41.412  27.667  29.131  1.00  0.00     0.031 A 
ATOM     49  C   UNL A   1      42.214  27.605  30.407  1.00  0.00     0.074 A 
ATOM     50  C   UNL A   1      40.346  28.487  29.053  1.00  0.00     0.049 A 
ATOM     51  N   UNL A   1      41.982  28.194  31.556  1.00  0.00    -0.248 NA
ATOM     52  C   UNL A   1      43.426  26.770  30.406  1.00  0.00     0.031 C 
ATOM     53  C   UNL A   1      39.500  28.653  27.870  1.00  0.00     0.029 A 
ATOM     54  N   UNL A   1      39.813  29.361  29.965  1.00  0.00    -0.354 N 
ATOM     55  C   UNL A   1      42.982  27.762  32.420  1.00  0.00     0.074 A 
ATOM     56  C   UNL A   1      43.817  26.850  31.670  1.00  0.00     0.031 C 
ATOM     57  C   UNL A   1      38.610  29.625  28.097  1.00  0.00     0.029 A 
ATOM     58  C   UNL A   1      38.747  30.074  29.477  1.00  0.00     0.049 A 
ATOM     59  H   UNL A   1      40.161  29.467  30.881  1.00  0.00     0.167 HD
ATOM     60  C   UNL A   1      43.186  28.102  33.716  1.00  0.00     0.037 A 
ATOM     61  C   UNL A   1      37.937  30.966  30.075  1.00  0.00     0.037 A 
ATOM     62  C   UNL A   1      42.381  29.053  34.441  1.00  0.00     0.049 A 
ATOM     63  C   UNL A   1      38.165  31.306  31.516  1.00  0.00     0.074 A 
ATOM     64  C   UNL A   1      42.540  29.504  35.740  1.00  0.00     0.029 A 
ATOM     65  N   UNL A   1      41.266  29.703  33.927  1.00  0.00    -0.354 N 
ATOM     66  N   UNL A   1      39.108  30.882  32.321  1.00  0.00    -0.248 NA
ATOM     67  C   UNL A   1      37.210  32.231  32.135  1.00  0.00     0.031 C 
ATOM     68  C   UNL A   1      41.489  30.381  36.031  1.00  0.00     0.029 A 
ATOM     69  C   UNL A   1      40.708  30.523  34.896  1.00  0.00     0.049 A 
ATOM     70  H   UNL A   1      40.923  29.596  33.010  1.00  0.00     0.167 HD
ATOM     71  C   UNL A   1      38.860  31.484  33.545  1.00  0.00     0.074 A 
ATOM     72  C   UNL A   1      37.693  32.326  33.366  1.00  0.00     0.031 C 
ATOM     73  C   UNL A   1      39.536  31.342  34.711  1.00  0.00     0.037 A 
BRANCH  60  74
ATOM     74  C   UNL A   1      44.307  27.425  34.457  1.00  0.00     0.064 A 
ATOM     75  C   UNL A   1      45.587  27.990  34.554  1.00  0.00     0.173 A 
ATOM     76  C   UNL A   1      44.077  26.212  35.126  1.00  0.00     0.173 A 
ATOM     77  F   UNL A   1      45.865  29.143  33.929  1.00  0.00    -0.203 F 
ATOM     78  C   UNL A   1      46.600  27.354  35.271  1.00  0.00     0.198 A 
ATOM     79  C   UNL A   1      45.083  25.595  35.867  1.00  0.00     0.198 A 
ATOM     80  F   UNL A   1      42.869  25.630  35.076  1.00  0.00    -0.203 F 
ATOM     81  F   UNL A   1      47.828  27.891  35.312  1.00  0.00    -0.200 F 
ATOM     82  C   UNL A   1      46.345  26.163  35.932  1.00  0.00     0.200 A 
ATOM     83  F   UNL A   1      44.829  24.452  36.519  1.00  0.00    -0.200 F 
ATOM     84  F   UNL A   1      47.318  25.558  36.629  1.00  0.00    -0.200 F 
ENDBRANCH  60  74
BRANCH  61  85
ATOM     85  C   UNL A   1      36.830  31.565  29.288  1.00  0.00     0.064 A 
ATOM     86  C   UNL A   1      35.709  30.806  28.933  1.00  0.00     0.173 A 
ATOM     87  C   UNL A   1      36.826  32.932  28.968  1.00  0.00     0.173 A 
ATOM     88  F   UNL A   1      35.676  29.494  29.203  1.00  0.00    -0.203 F 
ATOM     89  C   UNL A   1      34.618  31.395  28.298  1.00  0.00     0.198 A 
ATOM     90  C   UNL A   1      35.721  33.526  28.364  1.00  0.00     0.198 A 
ATOM     91  F   UNL A   1      37.872  33.702  29.302  1.00  0.00    -0.203 F 
ATOM     92  F   UNL A   1      33.558  30.647  27.959  1.00  0.00    -0.200 F 
ATOM     93  C   UNL A   1      34.618  32.756  28.029  1.00  0.00     0.200 A 
ATOM     94  F   UNL A   1      35.715  34.845  28.133  1.00  0.00    -0.200 F 
ATOM     95  F   UNL A   1      33.552  33.329  27.454  1.00  0.00    -0.200 F 
ENDBRANCH  61  85
BRANCH  73  96
ATOM     96  C   UNL A   1      39.029  32.112  35.896  1.00  0.00     0.064 A 
ATOM     97  C   UNL A   1      38.182  31.517  36.842  1.00  0.00     0.173 A 
ATOM     98  C   UNL A   1      39.442  33.433  36.119  1.00  0.00     0.173 A 
ATOM     99  F   UNL A   1      37.746  30.261  36.664  1.00  0.00    -0.203 F 
ATOM    100  C   UNL A   1      37.754  32.224  37.963  1.00  0.00     0.198 A 
ATOM    101  C   UNL A   1      39.036  34.127  37.256  1.00  0.00     0.198 A 
ATOM    102  F   UNL A   1      40.256  34.045  35.246  1.00  0.00    -0.203 F 
ATOM    103  F   UNL A   1      36.915  31.650  38.835  1.00  0.00    -0.200 F 
ATOM    104  C   UNL A   1      38.189  33.525  38.174  1.00  0.00     0.200 A 
ATOM    105  F   UNL A   1      39.469  35.378  37.466  1.00  0.00    -0.200 F 
ATOM    106  F   UNL A   1      37.789  34.198  39.261  1.00  0.00    -0.200 F 
ENDBRANCH  73  96
ENDBRANCH  47  48
ENDBRANCH  39  42
ENDBRANCH  37  38
ENDBRANCH   1  37
TORSDOF 12
ENDMDL
