MODEL 1
REMARK VINA RESULT:     -12.4      0.000      0.000
REMARK SMILES CCCCCCNC(=O)Oc1cccc(-c2ccc([C@@H](C)C(=O)NCCCCNC(=O)c3ccc(-c4c5nc(c(-c6c(F)c(F)c(F)c(F)c6F)c6ccc([nH]6)c(-c6c(F)c(F)c(F)c(F)c6F)c6nc(c(-c7c(F)c(F)c(F)c(F)c7F)c7ccc4[nH]7)C=C6)C=C5)cc3)cc2C(F)(F)F)c1
REMARK SMILES IDX 20 1 21 2 19 3 16 4 17 5 96 6 18 7 95 8 15 9 11 10 12 11
REMARK SMILES IDX 101 12 13 13 14 14 10 15 8 16 7 17 9 19 6 20 5 21 4 22 3 23
REMARK SMILES IDX 2 24 1 25 97 26 98 27 99 28 100 29 22 30 23 31 24 32 25 34
REMARK SMILES IDX 26 35 27 36 28 37 29 38 30 39 31 41 32 42 33 43 94 44 34 45
REMARK SMILES IDX 93 46 35 47 36 48 37 49 87 50 38 51 92 52 86 53 88 54 39 55
REMARK SMILES IDX 91 56 85 57 84 58 40 60 72 61 52 62 71 63 53 64 56 65 70 66
REMARK SMILES IDX 89 67 54 68 55 69 69 71 90 72 57 73 41 74 42 75 50 76 43 77
REMARK SMILES IDX 44 78 48 79 51 80 45 81 46 82 49 83 47 84 73 85 74 86 82 87
REMARK SMILES IDX 75 88 76 89 80 90 83 91 77 92 78 93 81 94 79 95 58 96 59 97
REMARK SMILES IDX 67 98 60 99 61 100 65 101 68 102 62 103 63 104 66 105 64 106
REMARK H PARENT 7 18 24 33 29 40 88 59 56 70
REMARK Flexibility Score: inf
ROOT
ATOM      1  C   UNL A   1      32.156  19.061  23.791  1.00  0.00     0.105 C 
ATOM      2  C   UNL A   1      32.477  18.514  22.401  1.00  0.00     0.023 C 
ENDROOT
BRANCH   1   3
ATOM      3  C   UNL A   1      32.214  20.576  23.924  1.00  0.00    -0.035 A 
ATOM      4  C   UNL A   1      32.504  23.403  24.313  1.00  0.00    -0.006 A 
ATOM      5  C   UNL A   1      32.727  22.786  23.067  1.00  0.00     0.009 A 
ATOM      6  C   UNL A   1      32.019  22.584  25.355  1.00  0.00     0.064 A 
ATOM      7  C   UNL A   1      32.525  21.419  22.863  1.00  0.00     0.005 A 
ATOM      8  C   UNL A   1      31.947  21.180  25.161  1.00  0.00     0.018 A 
BRANCH   4   9
ATOM      9  C   UNL A   1      32.784  24.853  24.434  1.00  0.00    -0.014 A 
ATOM     10  C   UNL A   1      32.187  27.184  24.093  1.00  0.00     0.133 A 
ATOM     11  C   UNL A   1      33.376  27.612  24.677  1.00  0.00     0.047 A 
ATOM     12  C   UNL A   1      31.872  25.827  23.992  1.00  0.00     0.056 A 
ATOM     13  C   UNL A   1      34.268  26.667  25.165  1.00  0.00     0.004 A 
ATOM     14  C   UNL A   1      33.981  25.304  25.028  1.00  0.00     0.009 A 
BRANCH  10  15
ATOM     15  O   UNL A   1      31.421  28.172  23.448  1.00  0.00    -0.410 OA
BRANCH  15  16
ATOM     16  C   UNL A   1      31.080  29.339  24.112  1.00  0.00     0.412 C 
ATOM     17  N   UNL A   1      30.336  30.188  23.338  1.00  0.00    -0.321 N 
ATOM     18  H   UNL A   1      30.109  31.061  23.732  1.00  0.00     0.167 HD
ATOM     19  O   UNL A   1      31.394  29.630  25.258  1.00  0.00    -0.224 OA
BRANCH  17  20
ATOM     20  C   UNL A   1      29.851  29.933  21.995  1.00  0.00     0.119 C 
BRANCH  20  21
ATOM     21  C   UNL A   1      28.364  30.263  21.850  1.00  0.00     0.021 C 
BRANCH  21  22
ATOM     22  C   UNL A   1      27.535  30.080  23.127  1.00  0.00     0.002 C 
BRANCH  22  23
ATOM     23  C   UNL A   1      27.096  28.644  23.429  1.00  0.00    -0.000 C 
BRANCH  23  24
ATOM     24  C   UNL A   1      28.172  27.573  23.234  1.00  0.00    -0.003 C 
ATOM     25  C   UNL A   1      27.999  26.372  24.150  1.00  0.00     0.004 C 
ENDBRANCH  23  24
ENDBRANCH  22  23
ENDBRANCH  21  22
ENDBRANCH  20  21
ENDBRANCH  17  20
ENDBRANCH  15  16
ENDBRANCH  10  15
ENDBRANCH   4   9
BRANCH   6  26
ATOM     26  C   UNL A   1      31.519  23.095  26.691  1.00  0.00     0.417 C 
ATOM     27  F   UNL A   1      30.160  22.984  26.795  1.00  0.00    -0.166 F 
ATOM     28  F   UNL A   1      32.022  22.385  27.740  1.00  0.00    -0.166 F 
ATOM     29  F   UNL A   1      31.775  24.402  26.964  1.00  0.00    -0.166 F 
ENDBRANCH   6  26
ENDBRANCH   1   3
BRANCH   1  30
ATOM     30  C   UNL A   1      32.838  18.301  24.942  1.00  0.00     0.227 C 
ATOM     31  O   UNL A   1      32.163  17.574  25.681  1.00  0.00    -0.274 OA
ATOM     32  N   UNL A   1      34.171  18.351  25.209  1.00  0.00    -0.356 N 
ATOM     33  H   UNL A   1      34.463  17.735  25.919  1.00  0.00     0.163 HD
BRANCH  32  34
ATOM     34  C   UNL A   1      35.237  19.145  24.639  1.00  0.00     0.116 C 
BRANCH  34  35
ATOM     35  C   UNL A   1      35.437  20.459  25.397  1.00  0.00     0.023 C 
BRANCH  35  36
ATOM     36  C   UNL A   1      35.962  21.617  24.554  1.00  0.00     0.023 C 
BRANCH  36  37
ATOM     37  C   UNL A   1      37.373  22.076  24.894  1.00  0.00     0.116 C 
BRANCH  37  38
ATOM     38  N   UNL A   1      38.256  21.011  25.348  1.00  0.00    -0.352 N 
ATOM     39  C   UNL A   1      39.368  21.116  26.152  1.00  0.00     0.251 C 
ATOM     40  H   UNL A   1      38.030  20.103  25.041  1.00  0.00     0.163 HD
ATOM     41  O   UNL A   1      40.062  20.137  26.400  1.00  0.00    -0.269 OA
BRANCH  39  42
ATOM     42  C   UNL A   1      39.743  22.447  26.669  1.00  0.00     0.039 A 
ATOM     43  C   UNL A   1      40.785  22.544  27.594  1.00  0.00     0.014 A 
ATOM     44  C   UNL A   1      39.130  23.597  26.166  1.00  0.00     0.014 A 
ATOM     45  C   UNL A   1      41.274  23.801  27.947  1.00  0.00     0.010 A 
ATOM     46  C   UNL A   1      39.672  24.843  26.455  1.00  0.00     0.010 A 
ATOM     47  C   UNL A   1      40.755  24.957  27.341  1.00  0.00    -0.014 A 
BRANCH  47  48
ATOM     48  C   UNL A   1      41.339  26.296  27.602  1.00  0.00     0.031 A 
ATOM     49  C   UNL A   1      42.743  26.601  27.164  1.00  0.00     0.074 A 
ATOM     50  C   UNL A   1      40.637  27.202  28.311  1.00  0.00     0.049 A 
ATOM     51  N   UNL A   1      43.462  27.673  27.376  1.00  0.00    -0.248 NA
ATOM     52  C   UNL A   1      43.445  25.546  26.415  1.00  0.00     0.031 C 
ATOM     53  C   UNL A   1      39.290  26.998  28.847  1.00  0.00     0.029 A 
ATOM     54  N   UNL A   1      40.968  28.471  28.717  1.00  0.00    -0.354 N 
ATOM     55  C   UNL A   1      44.702  27.413  26.809  1.00  0.00     0.074 A 
ATOM     56  C   UNL A   1      44.657  26.065  26.289  1.00  0.00     0.031 C 
ATOM     57  C   UNL A   1      38.901  28.110  29.494  1.00  0.00     0.029 A 
ATOM     58  C   UNL A   1      39.982  29.089  29.449  1.00  0.00     0.049 A 
ATOM     59  H   UNL A   1      41.828  28.898  28.504  1.00  0.00     0.167 HD
ATOM     60  C   UNL A   1      45.772  28.236  26.708  1.00  0.00     0.037 A 
ATOM     61  C   UNL A   1      39.959  30.306  30.025  1.00  0.00     0.037 A 
ATOM     62  C   UNL A   1      45.799  29.589  27.195  1.00  0.00     0.049 A 
ATOM     63  C   UNL A   1      41.156  31.206  29.884  1.00  0.00     0.074 A 
ATOM     64  C   UNL A   1      46.804  30.532  27.069  1.00  0.00     0.029 A 
ATOM     65  N   UNL A   1      44.769  30.194  27.902  1.00  0.00    -0.354 N 
ATOM     66  N   UNL A   1      42.294  30.981  29.273  1.00  0.00    -0.248 NA
ATOM     67  C   UNL A   1      41.065  32.533  30.510  1.00  0.00     0.031 C 
ATOM     68  C   UNL A   1      46.401  31.692  27.737  1.00  0.00     0.029 A 
ATOM     69  C   UNL A   1      45.126  31.490  28.239  1.00  0.00     0.049 A 
ATOM     70  H   UNL A   1      43.913  29.765  28.129  1.00  0.00     0.167 HD
ATOM     71  C   UNL A   1      43.042  32.140  29.417  1.00  0.00     0.074 A 
ATOM     72  C   UNL A   1      42.223  33.075  30.161  1.00  0.00     0.031 C 
ATOM     73  C   UNL A   1      44.296  32.407  28.976  1.00  0.00     0.037 A 
BRANCH  60  74
ATOM     74  C   UNL A   1      47.002  27.695  26.040  1.00  0.00     0.064 A 
ATOM     75  C   UNL A   1      48.052  27.130  26.780  1.00  0.00     0.173 A 
ATOM     76  C   UNL A   1      47.118  27.710  24.642  1.00  0.00     0.173 A 
ATOM     77  F   UNL A   1      47.996  27.103  28.120  1.00  0.00    -0.203 F 
ATOM     78  C   UNL A   1      49.185  26.627  26.146  1.00  0.00     0.198 A 
ATOM     79  C   UNL A   1      48.239  27.178  24.010  1.00  0.00     0.198 A 
ATOM     80  F   UNL A   1      46.141  28.235  23.887  1.00  0.00    -0.203 F 
ATOM     81  F   UNL A   1      50.197  26.138  26.876  1.00  0.00    -0.200 F 
ATOM     82  C   UNL A   1      49.275  26.645  24.763  1.00  0.00     0.200 A 
ATOM     83  F   UNL A   1      48.319  27.185  22.672  1.00  0.00    -0.200 F 
ATOM     84  F   UNL A   1      50.363  26.153  24.154  1.00  0.00    -0.200 F 
ENDBRANCH  60  74
BRANCH  61  85
ATOM     85  C   UNL A   1      38.751  30.755  30.766  1.00  0.00     0.064 A 
ATOM     86  C   UNL A   1      37.668  31.333  30.091  1.00  0.00     0.173 A 
ATOM     87  C   UNL A   1      38.657  30.622  32.159  1.00  0.00     0.173 A 
ATOM     88  F   UNL A   1      37.721  31.501  28.762  1.00  0.00    -0.203 F 
ATOM     89  C   UNL A   1      36.544  31.782  30.783  1.00  0.00     0.198 A 
ATOM     90  C   UNL A   1      37.521  31.046  32.847  1.00  0.00     0.198 A 
ATOM     91  F   UNL A   1      39.664  30.070  32.852  1.00  0.00    -0.203 F 
ATOM     92  F   UNL A   1      35.542  32.373  30.117  1.00  0.00    -0.200 F 
ATOM     93  C   UNL A   1      36.470  31.632  32.159  1.00  0.00     0.200 A 
ATOM     94  F   UNL A   1      37.447  30.887  34.175  1.00  0.00    -0.200 F 
ATOM     95  F   UNL A   1      35.387  32.061  32.823  1.00  0.00    -0.200 F 
ENDBRANCH  61  85
BRANCH  73  96
ATOM     96  C   UNL A   1      44.849  33.772  29.261  1.00  0.00     0.064 A 
ATOM     97  C   UNL A   1      45.509  34.059  30.464  1.00  0.00     0.173 A 
ATOM     98  C   UNL A   1      44.756  34.791  28.300  1.00  0.00     0.173 A 
ATOM     99  F   UNL A   1      45.609  33.123  31.420  1.00  0.00    -0.203 F 
ATOM    100  C   UNL A   1      46.039  35.324  30.703  1.00  0.00     0.198 A 
ATOM    101  C   UNL A   1      45.313  36.044  28.531  1.00  0.00     0.198 A 
ATOM    102  F   UNL A   1      44.140  34.563  27.131  1.00  0.00    -0.203 F 
ATOM    103  F   UNL A   1      46.628  35.590  31.877  1.00  0.00    -0.200 F 
ATOM    104  C   UNL A   1      45.948  36.312  29.735  1.00  0.00     0.200 A 
ATOM    105  F   UNL A   1      45.236  36.994  27.588  1.00  0.00    -0.200 F 
ATOM    106  F   UNL A   1      46.467  37.527  29.964  1.00  0.00    -0.200 F 
ENDBRANCH  73  96
ENDBRANCH  47  48
ENDBRANCH  39  42
ENDBRANCH  37  38
ENDBRANCH  36  37
ENDBRANCH  35  36
ENDBRANCH  34  35
ENDBRANCH  32  34
ENDBRANCH   1  30
TORSDOF 21
ENDMDL
MODEL 2
REMARK VINA RESULT:     -12.4      1.682      3.189
REMARK SMILES CCCCCCNC(=O)Oc1cccc(-c2ccc([C@@H](C)C(=O)NCCCCNC(=O)c3ccc(-c4c5nc(c(-c6c(F)c(F)c(F)c(F)c6F)c6ccc([nH]6)c(-c6c(F)c(F)c(F)c(F)c6F)c6nc(c(-c7c(F)c(F)c(F)c(F)c7F)c7ccc4[nH]7)C=C6)C=C5)cc3)cc2C(F)(F)F)c1
REMARK SMILES IDX 20 1 21 2 19 3 16 4 17 5 96 6 18 7 95 8 15 9 11 10 12 11
REMARK SMILES IDX 101 12 13 13 14 14 10 15 8 16 7 17 9 19 6 20 5 21 4 22 3 23
REMARK SMILES IDX 2 24 1 25 97 26 98 27 99 28 100 29 22 30 23 31 24 32 25 34
REMARK SMILES IDX 26 35 27 36 28 37 29 38 30 39 31 41 32 42 33 43 94 44 34 45
REMARK SMILES IDX 93 46 35 47 36 48 37 49 87 50 38 51 92 52 86 53 88 54 39 55
REMARK SMILES IDX 91 56 85 57 84 58 40 60 72 61 52 62 71 63 53 64 56 65 70 66
REMARK SMILES IDX 89 67 54 68 55 69 69 71 90 72 57 73 41 74 42 75 50 76 43 77
REMARK SMILES IDX 44 78 48 79 51 80 45 81 46 82 49 83 47 84 73 85 74 86 82 87
REMARK SMILES IDX 75 88 76 89 80 90 83 91 77 92 78 93 81 94 79 95 58 96 59 97
REMARK SMILES IDX 67 98 60 99 61 100 65 101 68 102 62 103 63 104 66 105 64 106
REMARK H PARENT 7 18 24 33 29 40 88 59 56 70
REMARK Flexibility Score: inf
ROOT
ATOM      1  C   UNL A   1      32.156  19.595  24.165  1.00  0.00     0.105 C 
ATOM      2  C   UNL A   1      32.471  19.054  22.771  1.00  0.00     0.023 C 
ENDROOT
BRANCH   1   3
ATOM      3  C   UNL A   1      31.973  21.103  24.254  1.00  0.00    -0.035 A 
ATOM      4  C   UNL A   1      31.482  23.929  24.245  1.00  0.00    -0.006 A 
ATOM      5  C   UNL A   1      31.083  23.096  25.309  1.00  0.00     0.009 A 
ATOM      6  C   UNL A   1      32.240  23.332  23.216  1.00  0.00     0.064 A 
ATOM      7  C   UNL A   1      31.378  21.731  25.342  1.00  0.00     0.005 A 
ATOM      8  C   UNL A   1      32.414  21.923  23.206  1.00  0.00     0.018 A 
BRANCH   4   9
ATOM      9  C   UNL A   1      31.086  25.356  24.290  1.00  0.00    -0.014 A 
ATOM     10  C   UNL A   1      31.423  27.648  25.023  1.00  0.00     0.133 A 
ATOM     11  C   UNL A   1      30.277  28.069  24.354  1.00  0.00     0.047 A 
ATOM     12  C   UNL A   1      31.846  26.318  24.976  1.00  0.00     0.056 A 
ATOM     13  C   UNL A   1      29.538  27.143  23.629  1.00  0.00     0.004 A 
ATOM     14  C   UNL A   1      29.930  25.800  23.613  1.00  0.00     0.009 A 
BRANCH  10  15
ATOM     15  O   UNL A   1      32.014  28.584  25.891  1.00  0.00    -0.410 OA
BRANCH  15  16
ATOM     16  C   UNL A   1      32.144  28.303  27.241  1.00  0.00     0.412 C 
ATOM     17  N   UNL A   1      33.308  28.790  27.771  1.00  0.00    -0.321 N 
ATOM     18  H   UNL A   1      33.487  28.576  28.715  1.00  0.00     0.167 HD
ATOM     19  O   UNL A   1      31.340  27.683  27.925  1.00  0.00    -0.224 OA
BRANCH  17  20
ATOM     20  C   UNL A   1      34.304  29.589  27.084  1.00  0.00     0.119 C 
BRANCH  20  21
ATOM     21  C   UNL A   1      35.670  29.517  27.769  1.00  0.00     0.021 C 
BRANCH  21  22
ATOM     22  C   UNL A   1      35.976  30.678  28.722  1.00  0.00     0.002 C 
BRANCH  22  23
ATOM     23  C   UNL A   1      35.949  32.074  28.091  1.00  0.00    -0.000 C 
BRANCH  23  24
ATOM     24  C   UNL A   1      34.725  32.926  28.436  1.00  0.00    -0.003 C 
ATOM     25  C   UNL A   1      34.920  34.406  28.143  1.00  0.00     0.004 C 
ENDBRANCH  23  24
ENDBRANCH  22  23
ENDBRANCH  21  22
ENDBRANCH  20  21
ENDBRANCH  17  20
ENDBRANCH  15  16
ENDBRANCH  10  15
ENDBRANCH   4   9
BRANCH   6  26
ATOM     26  C   UNL A   1      32.937  24.094  22.106  1.00  0.00     0.417 C 
ATOM     27  F   UNL A   1      33.386  23.253  21.126  1.00  0.00    -0.166 F 
ATOM     28  F   UNL A   1      32.105  24.971  21.478  1.00  0.00    -0.166 F 
ATOM     29  F   UNL A   1      34.033  24.809  22.471  1.00  0.00    -0.166 F 
ENDBRANCH   6  26
ENDBRANCH   1   3
BRANCH   1  30
ATOM     30  C   UNL A   1      33.027  18.999  25.285  1.00  0.00     0.227 C 
ATOM     31  O   UNL A   1      32.526  18.213  26.099  1.00  0.00    -0.274 OA
ATOM     32  N   UNL A   1      34.352  19.261  25.445  1.00  0.00    -0.356 N 
ATOM     33  H   UNL A   1      34.786  18.729  26.151  1.00  0.00     0.163 HD
BRANCH  32  34
ATOM     34  C   UNL A   1      35.241  20.179  24.767  1.00  0.00     0.116 C 
BRANCH  34  35
ATOM     35  C   UNL A   1      35.530  21.421  25.613  1.00  0.00     0.023 C 
BRANCH  35  36
ATOM     36  C   UNL A   1      36.020  22.635  24.829  1.00  0.00     0.023 C 
BRANCH  36  37
ATOM     37  C   UNL A   1      37.506  22.936  24.969  1.00  0.00     0.116 C 
BRANCH  37  38
ATOM     38  N   UNL A   1      38.305  21.811  25.434  1.00  0.00    -0.352 N 
ATOM     39  C   UNL A   1      39.393  21.834  26.276  1.00  0.00     0.251 C 
ATOM     40  H   UNL A   1      38.032  20.924  25.105  1.00  0.00     0.163 HD
ATOM     41  O   UNL A   1      40.015  20.809  26.531  1.00  0.00    -0.269 OA
BRANCH  39  42
ATOM     42  C   UNL A   1      39.833  23.131  26.827  1.00  0.00     0.039 A 
ATOM     43  C   UNL A   1      40.795  23.143  27.839  1.00  0.00     0.014 A 
ATOM     44  C   UNL A   1      39.366  24.326  26.276  1.00  0.00     0.014 A 
ATOM     45  C   UNL A   1      41.356  24.356  28.237  1.00  0.00     0.010 A 
ATOM     46  C   UNL A   1      39.983  25.523  26.614  1.00  0.00     0.010 A 
ATOM     47  C   UNL A   1      40.992  25.549  27.591  1.00  0.00    -0.014 A 
BRANCH  47  48
ATOM     48  C   UNL A   1      41.663  26.835  27.906  1.00  0.00     0.031 A 
ATOM     49  C   UNL A   1      43.074  27.076  27.453  1.00  0.00     0.074 A 
ATOM     50  C   UNL A   1      41.031  27.745  28.674  1.00  0.00     0.049 A 
ATOM     51  N   UNL A   1      43.862  28.090  27.703  1.00  0.00    -0.248 NA
ATOM     52  C   UNL A   1      43.695  26.020  26.639  1.00  0.00     0.031 C 
ATOM     53  C   UNL A   1      39.684  27.596  29.228  1.00  0.00     0.029 A 
ATOM     54  N   UNL A   1      41.447  28.969  29.136  1.00  0.00    -0.354 N 
ATOM     55  C   UNL A   1      45.073  27.784  27.098  1.00  0.00     0.074 A 
ATOM     56  C   UNL A   1      44.935  26.469  26.512  1.00  0.00     0.031 C 
ATOM     57  C   UNL A   1      39.376  28.695  29.937  1.00  0.00     0.029 A 
ATOM     58  C   UNL A   1      40.515  29.608  29.918  1.00  0.00     0.049 A 
ATOM     59  H   UNL A   1      42.328  29.353  28.926  1.00  0.00     0.167 HD
ATOM     60  C   UNL A   1      46.190  28.544  27.015  1.00  0.00     0.037 A 
ATOM     61  C   UNL A   1      40.578  30.793  30.554  1.00  0.00     0.037 A 
ATOM     62  C   UNL A   1      46.309  29.867  27.567  1.00  0.00     0.049 A 
ATOM     63  C   UNL A   1      41.826  31.624  30.432  1.00  0.00     0.074 A 
ATOM     64  C   UNL A   1      47.368  30.752  27.466  1.00  0.00     0.029 A 
ATOM     65  N   UNL A   1      45.332  30.496  28.325  1.00  0.00    -0.354 N 
ATOM     66  N   UNL A   1      42.936  31.362  29.786  1.00  0.00    -0.248 NA
ATOM     67  C   UNL A   1      41.828  32.921  31.125  1.00  0.00     0.031 C 
ATOM     68  C   UNL A   1      47.051  31.899  28.200  1.00  0.00     0.029 A 
ATOM     69  C   UNL A   1      45.775  31.749  28.719  1.00  0.00     0.049 A 
ATOM     70  H   UNL A   1      44.455  30.110  28.549  1.00  0.00     0.167 HD
ATOM     71  C   UNL A   1      43.757  32.465  29.971  1.00  0.00     0.074 A 
ATOM     72  C   UNL A   1      43.011  33.409  30.778  1.00  0.00     0.031 C 
ATOM     73  C   UNL A   1      45.016  32.677  29.518  1.00  0.00     0.037 A 
BRANCH  60  74
ATOM     74  C   UNL A   1      47.371  27.964  26.294  1.00  0.00     0.064 A 
ATOM     75  C   UNL A   1      48.436  27.369  26.988  1.00  0.00     0.173 A 
ATOM     76  C   UNL A   1      47.426  27.972  24.893  1.00  0.00     0.173 A 
ATOM     77  F   UNL A   1      48.438  27.346  28.330  1.00  0.00    -0.203 F 
ATOM     78  C   UNL A   1      49.523  26.829  26.307  1.00  0.00     0.198 A 
ATOM     79  C   UNL A   1      48.500  27.404  24.213  1.00  0.00     0.198 A 
ATOM     80  F   UNL A   1      46.432  28.525  24.180  1.00  0.00    -0.203 F 
ATOM     81  F   UNL A   1      50.551  26.311  26.993  1.00  0.00    -0.200 F 
ATOM     82  C   UNL A   1      49.551  26.841  24.921  1.00  0.00     0.200 A 
ATOM     83  F   UNL A   1      48.521  27.406  22.873  1.00  0.00    -0.200 F 
ATOM     84  F   UNL A   1      50.595  26.315  24.266  1.00  0.00    -0.200 F 
ENDBRANCH  60  74
BRANCH  61  85
ATOM     85  C   UNL A   1      39.414  31.276  31.342  1.00  0.00     0.064 A 
ATOM     86  C   UNL A   1      39.164  30.784  32.630  1.00  0.00     0.173 A 
ATOM     87  C   UNL A   1      38.526  32.231  30.825  1.00  0.00     0.173 A 
ATOM     88  F   UNL A   1      39.973  29.854  33.158  1.00  0.00    -0.203 F 
ATOM     89  C   UNL A   1      38.059  31.212  33.364  1.00  0.00     0.198 A 
ATOM     90  C   UNL A   1      37.437  32.679  31.570  1.00  0.00     0.198 A 
ATOM     91  F   UNL A   1      38.723  32.737  29.598  1.00  0.00    -0.203 F 
ATOM     92  F   UNL A   1      37.819  30.691  34.575  1.00  0.00    -0.200 F 
ATOM     93  C   UNL A   1      37.200  32.163  32.835  1.00  0.00     0.200 A 
ATOM     94  F   UNL A   1      36.616  33.607  31.061  1.00  0.00    -0.200 F 
ATOM     95  F   UNL A   1      36.140  32.577  33.542  1.00  0.00    -0.200 F 
ENDBRANCH  61  85
BRANCH  73  96
ATOM     96  C   UNL A   1      45.658  33.989  29.858  1.00  0.00     0.064 A 
ATOM     97  C   UNL A   1      46.450  34.143  31.005  1.00  0.00     0.173 A 
ATOM     98  C   UNL A   1      45.516  35.092  29.003  1.00  0.00     0.173 A 
ATOM     99  F   UNL A   1      46.603  33.122  31.862  1.00  0.00    -0.203 F 
ATOM    100  C   UNL A   1      47.059  35.361  31.294  1.00  0.00     0.198 A 
ATOM    101  C   UNL A   1      46.150  36.299  29.280  1.00  0.00     0.198 A 
ATOM    102  F   UNL A   1      44.774  34.994  27.889  1.00  0.00    -0.203 F 
ATOM    103  F   UNL A   1      47.776  35.499  32.417  1.00  0.00    -0.200 F 
ATOM    104  C   UNL A   1      46.915  36.434  30.428  1.00  0.00     0.200 A 
ATOM    105  F   UNL A   1      46.021  37.332  28.434  1.00  0.00    -0.200 F 
ATOM    106  F   UNL A   1      47.511  37.603  30.704  1.00  0.00    -0.200 F 
ENDBRANCH  73  96
ENDBRANCH  47  48
ENDBRANCH  39  42
ENDBRANCH  37  38
ENDBRANCH  36  37
ENDBRANCH  35  36
ENDBRANCH  34  35
ENDBRANCH  32  34
ENDBRANCH   1  30
TORSDOF 21
ENDMDL
MODEL 3
REMARK VINA RESULT:     -12.2      1.441      2.625
REMARK SMILES CCCCCCNC(=O)Oc1cccc(-c2ccc([C@@H](C)C(=O)NCCCCNC(=O)c3ccc(-c4c5nc(c(-c6c(F)c(F)c(F)c(F)c6F)c6ccc([nH]6)c(-c6c(F)c(F)c(F)c(F)c6F)c6nc(c(-c7c(F)c(F)c(F)c(F)c7F)c7ccc4[nH]7)C=C6)C=C5)cc3)cc2C(F)(F)F)c1
REMARK SMILES IDX 20 1 21 2 19 3 16 4 17 5 96 6 18 7 95 8 15 9 11 10 12 11
REMARK SMILES IDX 101 12 13 13 14 14 10 15 8 16 7 17 9 19 6 20 5 21 4 22 3 23
REMARK SMILES IDX 2 24 1 25 97 26 98 27 99 28 100 29 22 30 23 31 24 32 25 34
REMARK SMILES IDX 26 35 27 36 28 37 29 38 30 39 31 41 32 42 33 43 94 44 34 45
REMARK SMILES IDX 93 46 35 47 36 48 37 49 87 50 38 51 92 52 86 53 88 54 39 55
REMARK SMILES IDX 91 56 85 57 84 58 40 60 72 61 52 62 71 63 53 64 56 65 70 66
REMARK SMILES IDX 89 67 54 68 55 69 69 71 90 72 57 73 41 74 42 75 50 76 43 77
REMARK SMILES IDX 44 78 48 79 51 80 45 81 46 82 49 83 47 84 73 85 74 86 82 87
REMARK SMILES IDX 75 88 76 89 80 90 83 91 77 92 78 93 81 94 79 95 58 96 59 97
REMARK SMILES IDX 67 98 60 99 61 100 65 101 68 102 62 103 63 104 66 105 64 106
REMARK H PARENT 7 18 24 33 29 40 88 59 56 70
REMARK Flexibility Score: inf
ROOT
ATOM      1  C   UNL A   1      32.249  18.823  23.781  1.00  0.00     0.105 C 
ATOM      2  C   UNL A   1      32.568  18.198  22.423  1.00  0.00     0.023 C 
ENDROOT
BRANCH   1   3
ATOM      3  C   UNL A   1      32.281  20.343  23.822  1.00  0.00    -0.035 A 
ATOM      4  C   UNL A   1      32.562  23.195  23.964  1.00  0.00    -0.006 A 
ATOM      5  C   UNL A   1      32.349  22.516  22.748  1.00  0.00     0.009 A 
ATOM      6  C   UNL A   1      32.523  22.421  25.143  1.00  0.00     0.064 A 
ATOM      7  C   UNL A   1      32.150  21.135  22.687  1.00  0.00     0.005 A 
ATOM      8  C   UNL A   1      32.450  21.006  25.046  1.00  0.00     0.018 A 
BRANCH   4   9
ATOM      9  C   UNL A   1      32.800  24.657  23.915  1.00  0.00    -0.014 A 
ATOM     10  C   UNL A   1      32.327  26.927  24.641  1.00  0.00     0.133 A 
ATOM     11  C   UNL A   1      33.285  27.443  23.773  1.00  0.00     0.047 A 
ATOM     12  C   UNL A   1      32.098  25.552  24.739  1.00  0.00     0.056 A 
ATOM     13  C   UNL A   1      34.025  26.570  22.987  1.00  0.00     0.004 A 
ATOM     14  C   UNL A   1      33.772  25.195  23.046  1.00  0.00     0.009 A 
BRANCH  10  15
ATOM     15  O   UNL A   1      31.483  27.865  25.263  1.00  0.00    -0.410 OA
BRANCH  15  16
ATOM     16  C   UNL A   1      31.430  27.954  26.644  1.00  0.00     0.412 C 
ATOM     17  N   UNL A   1      31.903  29.149  27.114  1.00  0.00    -0.321 N 
ATOM     18  H   UNL A   1      31.945  29.254  28.092  1.00  0.00     0.167 HD
ATOM     19  O   UNL A   1      31.025  27.084  27.403  1.00  0.00    -0.224 OA
BRANCH  17  20
ATOM     20  C   UNL A   1      32.350  30.276  26.318  1.00  0.00     0.119 C 
BRANCH  20  21
ATOM     21  C   UNL A   1      32.338  31.582  27.115  1.00  0.00     0.021 C 
BRANCH  21  22
ATOM     22  C   UNL A   1      33.615  31.861  27.915  1.00  0.00     0.002 C 
BRANCH  22  23
ATOM     23  C   UNL A   1      34.876  31.147  27.417  1.00  0.00    -0.000 C 
BRANCH  23  24
ATOM     24  C   UNL A   1      35.322  29.944  28.252  1.00  0.00    -0.003 C 
ATOM     25  C   UNL A   1      36.627  29.328  27.770  1.00  0.00     0.004 C 
ENDBRANCH  23  24
ENDBRANCH  22  23
ENDBRANCH  21  22
ENDBRANCH  20  21
ENDBRANCH  17  20
ENDBRANCH  15  16
ENDBRANCH  10  15
ENDBRANCH   4   9
BRANCH   6  26
ATOM     26  C   UNL A   1      32.516  22.990  26.548  1.00  0.00     0.417 C 
ATOM     27  F   UNL A   1      32.607  22.003  27.490  1.00  0.00    -0.166 F 
ATOM     28  F   UNL A   1      33.577  23.811  26.781  1.00  0.00    -0.166 F 
ATOM     29  F   UNL A   1      31.408  23.695  26.900  1.00  0.00    -0.166 F 
ENDBRANCH   6  26
ENDBRANCH   1   3
BRANCH   1  30
ATOM     30  C   UNL A   1      32.953  18.145  24.969  1.00  0.00     0.227 C 
ATOM     31  O   UNL A   1      32.298  17.449  25.755  1.00  0.00    -0.274 OA
ATOM     32  N   UNL A   1      34.287  18.237  25.222  1.00  0.00    -0.356 N 
ATOM     33  H   UNL A   1      34.596  17.669  25.965  1.00  0.00     0.163 HD
BRANCH  32  34
ATOM     34  C   UNL A   1      35.334  19.016  24.599  1.00  0.00     0.116 C 
BRANCH  34  35
ATOM     35  C   UNL A   1      35.628  20.300  25.376  1.00  0.00     0.023 C 
BRANCH  35  36
ATOM     36  C   UNL A   1      36.343  21.388  24.580  1.00  0.00     0.023 C 
BRANCH  36  37
ATOM     37  C   UNL A   1      37.609  21.934  25.225  1.00  0.00     0.116 C 
BRANCH  37  38
ATOM     38  N   UNL A   1      38.548  20.911  25.664  1.00  0.00    -0.352 N 
ATOM     39  C   UNL A   1      39.693  21.074  26.408  1.00  0.00     0.251 C 
ATOM     40  H   UNL A   1      38.337  19.988  25.393  1.00  0.00     0.163 HD
ATOM     41  O   UNL A   1      40.430  20.124  26.648  1.00  0.00    -0.269 OA
BRANCH  39  42
ATOM     42  C   UNL A   1      40.049  22.430  26.871  1.00  0.00     0.039 A 
ATOM     43  C   UNL A   1      41.042  22.574  27.842  1.00  0.00     0.014 A 
ATOM     44  C   UNL A   1      39.469  23.552  26.274  1.00  0.00     0.014 A 
ATOM     45  C   UNL A   1      41.520  23.848  28.150  1.00  0.00     0.010 A 
ATOM     46  C   UNL A   1      40.002  24.811  26.522  1.00  0.00     0.010 A 
ATOM     47  C   UNL A   1      41.039  24.970  27.455  1.00  0.00    -0.014 A 
BRANCH  47  48
ATOM     48  C   UNL A   1      41.617  26.320  27.672  1.00  0.00     0.031 A 
ATOM     49  C   UNL A   1      42.998  26.634  27.173  1.00  0.00     0.074 A 
ATOM     50  C   UNL A   1      40.934  27.228  28.397  1.00  0.00     0.049 A 
ATOM     51  N   UNL A   1      43.712  27.718  27.340  1.00  0.00    -0.248 NA
ATOM     52  C   UNL A   1      43.682  25.577  26.412  1.00  0.00     0.031 C 
ATOM     53  C   UNL A   1      39.612  27.016  28.990  1.00  0.00     0.029 A 
ATOM     54  N   UNL A   1      41.265  28.507  28.771  1.00  0.00    -0.354 N 
ATOM     55  C   UNL A   1      44.931  27.464  26.727  1.00  0.00     0.074 A 
ATOM     56  C   UNL A   1      44.881  26.107  26.228  1.00  0.00     0.031 C 
ATOM     57  C   UNL A   1      39.236  28.133  29.636  1.00  0.00     0.029 A 
ATOM     58  C   UNL A   1      40.303  29.124  29.533  1.00  0.00     0.049 A 
ATOM     59  H   UNL A   1      42.111  28.940  28.516  1.00  0.00     0.167 HD
ATOM     60  C   UNL A   1      45.986  28.297  26.570  1.00  0.00     0.037 A 
ATOM     61  C   UNL A   1      40.288  30.349  30.091  1.00  0.00     0.037 A 
ATOM     62  C   UNL A   1      46.016  29.658  27.035  1.00  0.00     0.049 A 
ATOM     63  C   UNL A   1      41.467  31.261  29.889  1.00  0.00     0.074 A 
ATOM     64  C   UNL A   1      47.003  30.611  26.854  1.00  0.00     0.029 A 
ATOM     65  N   UNL A   1      45.009  30.261  27.775  1.00  0.00    -0.354 N 
ATOM     66  N   UNL A   1      42.581  31.040  29.235  1.00  0.00    -0.248 NA
ATOM     67  C   UNL A   1      41.385  32.596  30.498  1.00  0.00     0.031 C 
ATOM     68  C   UNL A   1      46.614  31.776  27.522  1.00  0.00     0.029 A 
ATOM     69  C   UNL A   1      45.363  31.566  28.078  1.00  0.00     0.049 A 
ATOM     70  H   UNL A   1      44.168  29.826  28.044  1.00  0.00     0.167 HD
ATOM     71  C   UNL A   1      43.320  32.210  29.331  1.00  0.00     0.074 A 
ATOM     72  C   UNL A   1      42.521  33.147  30.094  1.00  0.00     0.031 C 
ATOM     73  C   UNL A   1      44.552  32.485  28.835  1.00  0.00     0.037 A 
BRANCH  60  74
ATOM     74  C   UNL A   1      47.194  27.761  25.860  1.00  0.00     0.064 A 
ATOM     75  C   UNL A   1      47.285  27.765  24.459  1.00  0.00     0.173 A 
ATOM     76  C   UNL A   1      48.289  27.270  26.587  1.00  0.00     0.173 A 
ATOM     77  F   UNL A   1      46.261  28.213  23.717  1.00  0.00    -0.203 F 
ATOM     78  C   UNL A   1      48.415  27.270  23.813  1.00  0.00     0.198 A 
ATOM     79  C   UNL A   1      49.429  26.804  25.939  1.00  0.00     0.198 A 
ATOM     80  F   UNL A   1      48.255  27.248  27.928  1.00  0.00    -0.203 F 
ATOM     81  F   UNL A   1      48.458  27.237  22.475  1.00  0.00    -0.200 F 
ATOM     82  C   UNL A   1      49.488  26.797  24.553  1.00  0.00     0.200 A 
ATOM     83  F   UNL A   1      50.471  26.358  26.655  1.00  0.00    -0.200 F 
ATOM     84  F   UNL A   1      50.578  26.327  23.930  1.00  0.00    -0.200 F 
ENDBRANCH  60  74
BRANCH  61  85
ATOM     85  C   UNL A   1      39.106  30.795  30.875  1.00  0.00     0.064 A 
ATOM     86  C   UNL A   1      38.069  31.514  30.265  1.00  0.00     0.173 A 
ATOM     87  C   UNL A   1      38.990  30.520  32.245  1.00  0.00     0.173 A 
ATOM     88  F   UNL A   1      38.145  31.821  28.961  1.00  0.00    -0.203 F 
ATOM     89  C   UNL A   1      36.971  31.959  30.999  1.00  0.00     0.198 A 
ATOM     90  C   UNL A   1      37.879  30.941  32.972  1.00  0.00     0.198 A 
ATOM     91  F   UNL A   1      39.953  29.830  32.875  1.00  0.00    -0.203 F 
ATOM     92  F   UNL A   1      36.017  32.684  30.399  1.00  0.00    -0.200 F 
ATOM     93  C   UNL A   1      36.875  31.667  32.351  1.00  0.00     0.200 A 
ATOM     94  F   UNL A   1      37.783  30.646  34.276  1.00  0.00    -0.200 F 
ATOM     95  F   UNL A   1      35.818  32.093  33.055  1.00  0.00    -0.200 F 
ENDBRANCH  61  85
BRANCH  73  96
ATOM     96  C   UNL A   1      45.099  33.861  29.077  1.00  0.00     0.064 A 
ATOM     97  C   UNL A   1      44.861  34.913  28.182  1.00  0.00     0.173 A 
ATOM     98  C   UNL A   1      45.832  34.138  30.241  1.00  0.00     0.173 A 
ATOM     99  F   UNL A   1      44.179  34.693  27.048  1.00  0.00    -0.203 F 
ATOM    100  C   UNL A   1      45.354  36.190  28.434  1.00  0.00     0.198 A 
ATOM    101  C   UNL A   1      46.299  35.422  30.504  1.00  0.00     0.198 A 
ATOM    102  F   UNL A   1      46.081  33.166  31.132  1.00  0.00    -0.203 F 
ATOM    103  F   UNL A   1      45.152  37.172  27.545  1.00  0.00    -0.200 F 
ATOM    104  C   UNL A   1      46.065  36.445  29.597  1.00  0.00     0.200 A 
ATOM    105  F   UNL A   1      46.974  35.670  31.635  1.00  0.00    -0.200 F 
ATOM    106  F   UNL A   1      46.532  37.678  29.842  1.00  0.00    -0.200 F 
ENDBRANCH  73  96
ENDBRANCH  47  48
ENDBRANCH  39  42
ENDBRANCH  37  38
ENDBRANCH  36  37
ENDBRANCH  35  36
ENDBRANCH  34  35
ENDBRANCH  32  34
ENDBRANCH   1  30
TORSDOF 21
ENDMDL
