MODEL 1
REMARK VINA RESULT:     -13.5      0.000      0.000
REMARK SMILES CS(=O)(=O)c1ccc(/C=C(/C(=O)NCCCCNC(=O)c2ccc(-c3c4nc(c(-c5c(F)c(F)c(F)c(F)c5F)c5ccc([nH]5)c(-c5c(F)c(F)c(F)c(F)c5F)c5nc(c(-c6c(F)c(F)c(F)c(F)c6F)c6ccc3[nH]6)C=C5)C=C4)cc2)c2ccc(-c3ccc(S(C)(=O)=O)cc3)cc2)cc1
REMARK SMILES IDX 15 1 14 2 13 3 11 4 12 5 10 7 9 8 8 9 5 10 6 11 101 12 7 13
REMARK SMILES IDX 100 14 2 15 1 16 3 17 4 18 84 19 85 20 99 21 86 22 98 23
REMARK SMILES IDX 87 24 88 25 89 26 97 27 90 28 96 29 91 30 92 31 93 32 94 33
REMARK SMILES IDX 95 34 16 35 17 36 18 37 19 38 20 40 21 41 22 42 83 43 23 44
REMARK SMILES IDX 82 45 24 46 25 47 26 48 76 49 27 50 81 51 75 52 77 53 28 54
REMARK SMILES IDX 80 55 74 56 73 57 29 59 61 60 41 61 60 62 42 63 45 64 59 65
REMARK SMILES IDX 78 66 43 67 44 68 58 70 79 71 46 72 30 73 31 74 39 75 32 76
REMARK SMILES IDX 33 77 37 78 40 79 34 80 35 81 38 82 36 83 62 84 63 85 71 86
REMARK SMILES IDX 64 87 65 88 69 89 72 90 66 91 67 92 70 93 68 94 47 95 48 96
REMARK SMILES IDX 56 97 49 98 50 99 54 100 57 101 51 102 52 103 55 104 53 105
REMARK H PARENT 13 6 18 39 77 58 45 69
REMARK Flexibility Score: inf
ROOT
ATOM      1  C   UNL A   1      31.713  27.656  26.225  1.00  0.00     0.023 C 
ENDROOT
BRANCH   1   2
ATOM      2  C   UNL A   1      31.166  26.543  25.326  1.00  0.00     0.116 C 
BRANCH   2   3
ATOM      3  N   UNL A   1      31.632  26.718  23.966  1.00  0.00    -0.352 N 
ATOM      4  C   UNL A   1      32.347  25.933  23.116  1.00  0.00     0.251 C 
ATOM      5  O   UNL A   1      32.613  26.428  22.018  1.00  0.00    -0.269 OA
ATOM      6  H   UNL A   1      31.379  27.586  23.576  1.00  0.00     0.163 HD
BRANCH   4   7
ATOM      7  C   UNL A   1      32.740  24.507  23.429  1.00  0.00     0.047 C 
ATOM      8  C   UNL A   1      31.839  23.499  23.471  1.00  0.00     0.022 C 
BRANCH   8   9
ATOM      9  C   UNL A   1      32.060  22.050  23.666  1.00  0.00    -0.025 A 
ATOM     10  C   UNL A   1      32.577  19.298  23.857  1.00  0.00     0.067 A 
ATOM     11  C   UNL A   1      32.539  20.080  25.013  1.00  0.00     0.021 A 
ATOM     12  C   UNL A   1      32.308  19.866  22.611  1.00  0.00     0.021 A 
ATOM     13  C   UNL A   1      32.264  21.449  24.914  1.00  0.00     0.009 A 
ATOM     14  C   UNL A   1      32.050  21.235  22.521  1.00  0.00     0.009 A 
BRANCH  10  15
ATOM     15  S   UNL A   1      32.963  17.568  23.971  1.00  0.00     0.175 S 
ATOM     16  C   UNL A   1      34.673  17.520  24.443  1.00  0.00     0.163 C 
ATOM     17  O   UNL A   1      32.869  17.011  22.638  1.00  0.00    -0.224 OA
ATOM     18  O   UNL A   1      32.169  17.035  25.065  1.00  0.00    -0.224 OA
ENDBRANCH  10  15
ENDBRANCH   8   9
BRANCH   7  19
ATOM     19  C   UNL A   1      34.129  24.275  23.893  1.00  0.00    -0.013 A 
ATOM     20  C   UNL A   1      34.441  24.568  25.228  1.00  0.00     0.009 A 
ATOM     21  C   UNL A   1      35.095  23.658  23.094  1.00  0.00     0.009 A 
ATOM     22  C   UNL A   1      35.662  24.178  25.777  1.00  0.00     0.009 A 
ATOM     23  C   UNL A   1      36.316  23.255  23.653  1.00  0.00     0.009 A 
ATOM     24  C   UNL A   1      36.602  23.471  25.012  1.00  0.00    -0.018 A 
BRANCH  24  25
ATOM     25  C   UNL A   1      37.808  22.909  25.647  1.00  0.00    -0.018 A 
ATOM     26  C   UNL A   1      38.177  21.572  25.400  1.00  0.00     0.010 A 
ATOM     27  C   UNL A   1      38.640  23.683  26.473  1.00  0.00     0.010 A 
ATOM     28  C   UNL A   1      39.337  21.023  25.950  1.00  0.00     0.021 A 
ATOM     29  C   UNL A   1      39.804  23.143  27.031  1.00  0.00     0.021 A 
ATOM     30  C   UNL A   1      40.141  21.815  26.769  1.00  0.00     0.067 A 
BRANCH  30  31
ATOM     31  S   UNL A   1      41.636  21.122  27.433  1.00  0.00     0.175 S 
ATOM     32  C   UNL A   1      42.695  20.975  26.018  1.00  0.00     0.163 C 
ATOM     33  O   UNL A   1      42.203  22.121  28.324  1.00  0.00    -0.224 OA
ATOM     34  O   UNL A   1      41.335  19.788  27.905  1.00  0.00    -0.224 OA
ENDBRANCH  30  31
ENDBRANCH  24  25
ENDBRANCH   7  19
ENDBRANCH   4   7
ENDBRANCH   2   3
ENDBRANCH   1   2
BRANCH   1  35
ATOM     35  C   UNL A   1      33.244  27.730  26.282  1.00  0.00     0.023 C 
BRANCH  35  36
ATOM     36  C   UNL A   1      33.854  28.990  25.676  1.00  0.00     0.116 C 
BRANCH  36  37
ATOM     37  N   UNL A   1      33.219  30.211  26.143  1.00  0.00    -0.352 N 
ATOM     38  C   UNL A   1      33.643  31.088  27.111  1.00  0.00     0.251 C 
ATOM     39  H   UNL A   1      32.367  30.443  25.706  1.00  0.00     0.163 HD
ATOM     40  O   UNL A   1      32.925  32.021  27.456  1.00  0.00    -0.269 OA
BRANCH  38  41
ATOM     41  C   UNL A   1      34.951  30.881  27.765  1.00  0.00     0.039 A 
ATOM     42  C   UNL A   1      35.844  31.954  27.824  1.00  0.00     0.014 A 
ATOM     43  C   UNL A   1      35.293  29.645  28.321  1.00  0.00     0.014 A 
ATOM     44  C   UNL A   1      37.059  31.806  28.495  1.00  0.00     0.010 A 
ATOM     45  C   UNL A   1      36.478  29.517  29.041  1.00  0.00     0.010 A 
ATOM     46  C   UNL A   1      37.370  30.596  29.135  1.00  0.00    -0.014 A 
BRANCH  46  47
ATOM     47  C   UNL A   1      38.625  30.442  29.911  1.00  0.00     0.031 A 
ATOM     48  C   UNL A   1      39.788  29.695  29.325  1.00  0.00     0.074 A 
ATOM     49  C   UNL A   1      38.688  30.918  31.169  1.00  0.00     0.049 A 
ATOM     50  N   UNL A   1      40.941  29.400  29.871  1.00  0.00    -0.248 NA
ATOM     51  C   UNL A   1      39.624  29.190  27.954  1.00  0.00     0.031 C 
ATOM     52  C   UNL A   1      37.604  31.615  31.865  1.00  0.00     0.029 A 
ATOM     53  N   UNL A   1      39.703  30.878  32.090  1.00  0.00    -0.354 N 
ATOM     54  C   UNL A   1      41.629  28.662  28.919  1.00  0.00     0.074 A 
ATOM     55  C   UNL A   1      40.752  28.516  27.778  1.00  0.00     0.031 C 
ATOM     56  C   UNL A   1      38.019  31.952  33.096  1.00  0.00     0.029 A 
ATOM     57  C   UNL A   1      39.384  31.471  33.287  1.00  0.00     0.049 A 
ATOM     58  H   UNL A   1      40.578  30.464  31.911  1.00  0.00     0.167 HD
ATOM     59  C   UNL A   1      42.890  28.169  28.983  1.00  0.00     0.037 A 
ATOM     60  C   UNL A   1      40.111  31.607  34.411  1.00  0.00     0.037 A 
ATOM     61  C   UNL A   1      43.773  28.343  30.106  1.00  0.00     0.049 A 
ATOM     62  C   UNL A   1      41.515  31.070  34.448  1.00  0.00     0.074 A 
ATOM     63  C   UNL A   1      45.088  27.938  30.242  1.00  0.00     0.029 A 
ATOM     64  N   UNL A   1      43.426  28.981  31.288  1.00  0.00    -0.354 N 
ATOM     65  N   UNL A   1      42.181  30.433  33.517  1.00  0.00    -0.248 NA
ATOM     66  C   UNL A   1      42.272  31.281  35.689  1.00  0.00     0.031 C 
ATOM     67  C   UNL A   1      45.527  28.299  31.521  1.00  0.00     0.029 A 
ATOM     68  C   UNL A   1      44.499  28.968  32.165  1.00  0.00     0.049 A 
ATOM     69  H   UNL A   1      42.548  29.385  31.477  1.00  0.00     0.167 HD
ATOM     70  C   UNL A   1      43.440  30.190  34.047  1.00  0.00     0.074 A 
ATOM     71  C   UNL A   1      43.451  30.761  35.377  1.00  0.00     0.031 C 
ATOM     72  C   UNL A   1      44.494  29.550  33.482  1.00  0.00     0.037 A 
BRANCH  59  73
ATOM     73  C   UNL A   1      43.392  27.399  27.797  1.00  0.00     0.064 A 
ATOM     74  C   UNL A   1      44.206  27.998  26.824  1.00  0.00     0.173 A 
ATOM     75  C   UNL A   1      43.083  26.039  27.649  1.00  0.00     0.173 A 
ATOM     76  F   UNL A   1      44.520  29.299  26.914  1.00  0.00    -0.203 F 
ATOM     77  C   UNL A   1      44.669  27.270  25.731  1.00  0.00     0.198 A 
ATOM     78  C   UNL A   1      43.571  25.307  26.569  1.00  0.00     0.198 A 
ATOM     79  F   UNL A   1      42.312  25.417  28.553  1.00  0.00    -0.203 F 
ATOM     80  F   UNL A   1      45.406  27.875  24.789  1.00  0.00    -0.200 F 
ATOM     81  C   UNL A   1      44.357  25.925  25.608  1.00  0.00     0.200 A 
ATOM     82  F   UNL A   1      43.277  24.004  26.456  1.00  0.00    -0.200 F 
ATOM     83  F   UNL A   1      44.808  25.225  24.558  1.00  0.00    -0.200 F 
ENDBRANCH  59  73
BRANCH  60  84
ATOM     84  C   UNL A   1      39.536  32.312  35.585  1.00  0.00     0.064 A 
ATOM     85  C   UNL A   1      38.726  31.632  36.505  1.00  0.00     0.173 A 
ATOM     86  C   UNL A   1      39.782  33.674  35.812  1.00  0.00     0.173 A 
ATOM     87  F   UNL A   1      38.447  30.333  36.318  1.00  0.00    -0.203 F 
ATOM     88  C   UNL A   1      38.167  32.291  37.597  1.00  0.00     0.198 A 
ATOM     89  C   UNL A   1      39.242  34.326  36.918  1.00  0.00     0.198 A 
ATOM     90  F   UNL A   1      40.555  34.367  34.964  1.00  0.00    -0.203 F 
ATOM     91  F   UNL A   1      37.362  31.627  38.438  1.00  0.00    -0.200 F 
ATOM     92  C   UNL A   1      38.429  33.637  37.806  1.00  0.00     0.200 A 
ATOM     93  F   UNL A   1      39.509  35.623  37.124  1.00  0.00    -0.200 F 
ATOM     94  F   UNL A   1      37.894  34.270  38.859  1.00  0.00    -0.200 F 
ENDBRANCH  60  84
BRANCH  72  95
ATOM     95  C   UNL A   1      45.755  29.465  34.289  1.00  0.00     0.064 A 
ATOM     96  C   UNL A   1      46.708  30.493  34.273  1.00  0.00     0.173 A 
ATOM     97  C   UNL A   1      45.995  28.356  35.114  1.00  0.00     0.173 A 
ATOM     98  F   UNL A   1      46.530  31.567  33.488  1.00  0.00    -0.203 F 
ATOM     99  C   UNL A   1      47.867  30.404  35.038  1.00  0.00     0.198 A 
ATOM    100  C   UNL A   1      47.143  28.282  35.898  1.00  0.00     0.198 A 
ATOM    101  F   UNL A   1      45.110  27.349  35.167  1.00  0.00    -0.203 F 
ATOM    102  F   UNL A   1      48.786  31.378  34.975  1.00  0.00    -0.200 F 
ATOM    103  C   UNL A   1      48.080  29.302  35.854  1.00  0.00     0.200 A 
ATOM    104  F   UNL A   1      47.342  27.222  36.693  1.00  0.00    -0.200 F 
ATOM    105  F   UNL A   1      49.196  29.221  36.593  1.00  0.00    -0.200 F 
ENDBRANCH  72  95
ENDBRANCH  46  47
ENDBRANCH  38  41
ENDBRANCH  36  37
ENDBRANCH  35  36
ENDBRANCH   1  35
TORSDOF 16
ENDMDL
MODEL 2
REMARK VINA RESULT:     -13.4      0.430      7.033
REMARK SMILES CS(=O)(=O)c1ccc(/C=C(/C(=O)NCCCCNC(=O)c2ccc(-c3c4nc(c(-c5c(F)c(F)c(F)c(F)c5F)c5ccc([nH]5)c(-c5c(F)c(F)c(F)c(F)c5F)c5nc(c(-c6c(F)c(F)c(F)c(F)c6F)c6ccc3[nH]6)C=C5)C=C4)cc2)c2ccc(-c3ccc(S(C)(=O)=O)cc3)cc2)cc1
REMARK SMILES IDX 15 1 14 2 13 3 11 4 12 5 10 7 9 8 8 9 5 10 6 11 101 12 7 13
REMARK SMILES IDX 100 14 2 15 1 16 3 17 4 18 84 19 85 20 99 21 86 22 98 23
REMARK SMILES IDX 87 24 88 25 89 26 97 27 90 28 96 29 91 30 92 31 93 32 94 33
REMARK SMILES IDX 95 34 16 35 17 36 18 37 19 38 20 40 21 41 22 42 83 43 23 44
REMARK SMILES IDX 82 45 24 46 25 47 26 48 76 49 27 50 81 51 75 52 77 53 28 54
REMARK SMILES IDX 80 55 74 56 73 57 29 59 61 60 41 61 60 62 42 63 45 64 59 65
REMARK SMILES IDX 78 66 43 67 44 68 58 70 79 71 46 72 30 73 31 74 39 75 32 76
REMARK SMILES IDX 33 77 37 78 40 79 34 80 35 81 38 82 36 83 62 84 63 85 71 86
REMARK SMILES IDX 64 87 65 88 69 89 72 90 66 91 67 92 70 93 68 94 47 95 48 96
REMARK SMILES IDX 56 97 49 98 50 99 54 100 57 101 51 102 52 103 55 104 53 105
REMARK H PARENT 13 6 18 39 77 58 45 69
REMARK Flexibility Score: inf
ROOT
ATOM      1  C   UNL A   1      31.532  27.842  26.231  1.00  0.00     0.023 C 
ENDROOT
BRANCH   1   2
ATOM      2  C   UNL A   1      31.115  26.666  25.343  1.00  0.00     0.116 C 
BRANCH   2   3
ATOM      3  N   UNL A   1      31.599  26.859  23.992  1.00  0.00    -0.352 N 
ATOM      4  C   UNL A   1      32.319  26.081  23.139  1.00  0.00     0.251 C 
ATOM      5  O   UNL A   1      32.603  26.590  22.051  1.00  0.00    -0.269 OA
ATOM      6  H   UNL A   1      31.357  27.734  23.611  1.00  0.00     0.163 HD
BRANCH   4   7
ATOM      7  C   UNL A   1      32.698  24.648  23.435  1.00  0.00     0.047 C 
ATOM      8  C   UNL A   1      31.787  23.649  23.470  1.00  0.00     0.022 C 
BRANCH   8   9
ATOM      9  C   UNL A   1      31.994  22.195  23.649  1.00  0.00    -0.025 A 
ATOM     10  C   UNL A   1      32.490  19.439  23.813  1.00  0.00     0.067 A 
ATOM     11  C   UNL A   1      32.409  20.201  24.980  1.00  0.00     0.021 A 
ATOM     12  C   UNL A   1      32.275  20.028  22.568  1.00  0.00     0.021 A 
ATOM     13  C   UNL A   1      32.145  21.572  24.894  1.00  0.00     0.009 A 
ATOM     14  C   UNL A   1      32.026  21.401  22.490  1.00  0.00     0.009 A 
BRANCH  10  15
ATOM     15  S   UNL A   1      32.864  17.704  23.914  1.00  0.00     0.175 S 
ATOM     16  C   UNL A   1      34.565  17.640  24.414  1.00  0.00     0.163 C 
ATOM     17  O   UNL A   1      32.790  17.164  22.572  1.00  0.00    -0.224 OA
ATOM     18  O   UNL A   1      32.047  17.164  24.987  1.00  0.00    -0.224 OA
ENDBRANCH  10  15
ENDBRANCH   8   9
BRANCH   7  19
ATOM     19  C   UNL A   1      34.088  24.396  23.891  1.00  0.00    -0.013 A 
ATOM     20  C   UNL A   1      34.414  24.696  25.221  1.00  0.00     0.009 A 
ATOM     21  C   UNL A   1      35.037  23.755  23.091  1.00  0.00     0.009 A 
ATOM     22  C   UNL A   1      35.632  24.291  25.764  1.00  0.00     0.009 A 
ATOM     23  C   UNL A   1      36.255  23.336  23.645  1.00  0.00     0.009 A 
ATOM     24  C   UNL A   1      36.554  23.561  25.000  1.00  0.00    -0.018 A 
BRANCH  24  25
ATOM     25  C   UNL A   1      37.755  22.984  25.632  1.00  0.00    -0.018 A 
ATOM     26  C   UNL A   1      38.105  21.641  25.388  1.00  0.00     0.010 A 
ATOM     27  C   UNL A   1      38.602  23.749  26.451  1.00  0.00     0.010 A 
ATOM     28  C   UNL A   1      39.259  21.078  25.935  1.00  0.00     0.021 A 
ATOM     29  C   UNL A   1      39.760  23.195  27.006  1.00  0.00     0.021 A 
ATOM     30  C   UNL A   1      40.078  21.861  26.747  1.00  0.00     0.067 A 
BRANCH  30  31
ATOM     31  S   UNL A   1      41.566  21.151  27.407  1.00  0.00     0.175 S 
ATOM     32  C   UNL A   1      42.620  20.993  25.990  1.00  0.00     0.163 C 
ATOM     33  O   UNL A   1      42.146  22.141  28.298  1.00  0.00    -0.224 OA
ATOM     34  O   UNL A   1      41.250  19.819  27.878  1.00  0.00    -0.224 OA
ENDBRANCH  30  31
ENDBRANCH  24  25
ENDBRANCH   7  19
ENDBRANCH   4   7
ENDBRANCH   2   3
ENDBRANCH   1   2
BRANCH   1  35
ATOM     35  C   UNL A   1      33.043  27.948  26.473  1.00  0.00     0.023 C 
BRANCH  35  36
ATOM     36  C   UNL A   1      33.723  29.140  25.806  1.00  0.00     0.116 C 
BRANCH  36  37
ATOM     37  N   UNL A   1      33.220  30.420  26.277  1.00  0.00    -0.352 N 
ATOM     38  C   UNL A   1      33.750  31.258  27.226  1.00  0.00     0.251 C 
ATOM     39  H   UNL A   1      32.384  30.729  25.858  1.00  0.00     0.163 HD
ATOM     40  O   UNL A   1      33.134  32.258  27.579  1.00  0.00    -0.269 OA
BRANCH  38  41
ATOM     41  C   UNL A   1      35.048  30.931  27.850  1.00  0.00     0.039 A 
ATOM     42  C   UNL A   1      36.038  31.917  27.887  1.00  0.00     0.014 A 
ATOM     43  C   UNL A   1      35.288  29.669  28.399  1.00  0.00     0.014 A 
ATOM     44  C   UNL A   1      37.249  31.657  28.530  1.00  0.00     0.010 A 
ATOM     45  C   UNL A   1      36.472  29.431  29.092  1.00  0.00     0.010 A 
ATOM     46  C   UNL A   1      37.462  30.423  29.164  1.00  0.00    -0.014 A 
BRANCH  46  47
ATOM     47  C   UNL A   1      38.715  30.154  29.911  1.00  0.00     0.031 A 
ATOM     48  C   UNL A   1      38.895  30.691  31.301  1.00  0.00     0.074 A 
ATOM     49  C   UNL A   1      39.714  29.482  29.308  1.00  0.00     0.049 A 
ATOM     50  N   UNL A   1      39.940  30.619  32.087  1.00  0.00    -0.248 NA
ATOM     51  C   UNL A   1      37.761  31.432  31.874  1.00  0.00     0.031 C 
ATOM     52  C   UNL A   1      39.676  28.957  27.942  1.00  0.00     0.029 A 
ATOM     53  N   UNL A   1      40.961  29.137  29.763  1.00  0.00    -0.354 N 
ATOM     54  C   UNL A   1      39.595  31.317  33.236  1.00  0.00     0.074 A 
ATOM     55  C   UNL A   1      38.264  31.844  33.030  1.00  0.00     0.031 C 
ATOM     56  C   UNL A   1      40.839  28.341  27.676  1.00  0.00     0.029 A 
ATOM     57  C   UNL A   1      41.714  28.454  28.840  1.00  0.00     0.049 A 
ATOM     58  H   UNL A   1      41.287  29.359  30.665  1.00  0.00     0.167 HD
ATOM     59  C   UNL A   1      40.318  31.485  34.370  1.00  0.00     0.037 A 
ATOM     60  C   UNL A   1      42.968  27.974  28.924  1.00  0.00     0.037 A 
ATOM     61  C   UNL A   1      41.629  30.933  34.585  1.00  0.00     0.049 A 
ATOM     62  C   UNL A   1      43.740  28.156  30.202  1.00  0.00     0.074 A 
ATOM     63  C   UNL A   1      42.417  30.993  35.721  1.00  0.00     0.029 A 
ATOM     64  N   UNL A   1      42.346  30.214  33.639  1.00  0.00    -0.354 N 
ATOM     65  N   UNL A   1      43.379  28.759  31.307  1.00  0.00    -0.248 NA
ATOM     66  C   UNL A   1      45.091  27.579  30.247  1.00  0.00     0.031 C 
ATOM     67  C   UNL A   1      43.625  30.341  35.451  1.00  0.00     0.029 A 
ATOM     68  C   UNL A   1      43.573  29.837  34.162  1.00  0.00     0.049 A 
ATOM     69  H   UNL A   1      42.029  30.003  32.731  1.00  0.00     0.167 HD
ATOM     70  C   UNL A   1      44.442  28.614  32.186  1.00  0.00     0.074 A 
ATOM     71  C   UNL A   1      45.458  27.852  31.491  1.00  0.00     0.031 C 
ATOM     72  C   UNL A   1      44.567  29.071  33.456  1.00  0.00     0.037 A 
BRANCH  59  73
ATOM     73  C   UNL A   1      39.698  32.295  35.471  1.00  0.00     0.064 A 
ATOM     74  C   UNL A   1      38.848  31.711  36.422  1.00  0.00     0.173 A 
ATOM     75  C   UNL A   1      39.984  33.662  35.595  1.00  0.00     0.173 A 
ATOM     76  F   UNL A   1      38.534  30.410  36.338  1.00  0.00    -0.203 F 
ATOM     77  C   UNL A   1      38.283  32.474  37.441  1.00  0.00     0.198 A 
ATOM     78  C   UNL A   1      39.439  34.416  36.633  1.00  0.00     0.198 A 
ATOM     79  F   UNL A   1      40.794  34.268  34.715  1.00  0.00    -0.203 F 
ATOM     80  F   UNL A   1      37.436  31.904  38.310  1.00  0.00    -0.200 F 
ATOM     81  C   UNL A   1      38.585  33.822  37.550  1.00  0.00     0.200 A 
ATOM     82  F   UNL A   1      39.739  35.717  36.743  1.00  0.00    -0.200 F 
ATOM     83  F   UNL A   1      38.044  34.554  38.534  1.00  0.00    -0.200 F 
ENDBRANCH  59  73
BRANCH  60  84
ATOM     84  C   UNL A   1      43.562  27.246  27.774  1.00  0.00     0.064 A 
ATOM     85  C   UNL A   1      44.378  27.910  26.848  1.00  0.00     0.173 A 
ATOM     86  C   UNL A   1      43.327  25.877  27.576  1.00  0.00     0.173 A 
ATOM     87  F   UNL A   1      44.615  29.223  26.986  1.00  0.00    -0.203 F 
ATOM     88  C   UNL A   1      44.923  27.238  25.756  1.00  0.00     0.198 A 
ATOM     89  C   UNL A   1      43.892  25.201  26.497  1.00  0.00     0.198 A 
ATOM     90  F   UNL A   1      42.558  25.196  28.437  1.00  0.00    -0.203 F 
ATOM     91  F   UNL A   1      45.666  27.905  24.863  1.00  0.00    -0.200 F 
ATOM     92  C   UNL A   1      44.683  25.882  25.584  1.00  0.00     0.200 A 
ATOM     93  F   UNL A   1      43.670  23.889  26.341  1.00  0.00    -0.200 F 
ATOM     94  F   UNL A   1      45.210  25.235  24.536  1.00  0.00    -0.200 F 
ENDBRANCH  60  84
BRANCH  72  95
ATOM     95  C   UNL A   1      45.832  28.729  34.186  1.00  0.00     0.064 A 
ATOM     96  C   UNL A   1      45.959  27.544  34.923  1.00  0.00     0.173 A 
ATOM     97  C   UNL A   1      46.944  29.583  34.114  1.00  0.00     0.173 A 
ATOM     98  F   UNL A   1      44.918  26.703  35.033  1.00  0.00    -0.203 F 
ATOM     99  C   UNL A   1      47.145  27.237  35.583  1.00  0.00     0.198 A 
ATOM    100  C   UNL A   1      48.137  29.260  34.754  1.00  0.00     0.198 A 
ATOM    101  F   UNL A   1      46.873  30.727  33.416  1.00  0.00    -0.203 F 
ATOM    102  F   UNL A   1      47.229  26.120  36.319  1.00  0.00    -0.200 F 
ATOM    103  C   UNL A   1      48.234  28.091  35.493  1.00  0.00     0.200 A 
ATOM    104  F   UNL A   1      49.191  30.081  34.657  1.00  0.00    -0.200 F 
ATOM    105  F   UNL A   1      49.376  27.790  36.126  1.00  0.00    -0.200 F 
ENDBRANCH  72  95
ENDBRANCH  46  47
ENDBRANCH  38  41
ENDBRANCH  36  37
ENDBRANCH  35  36
ENDBRANCH   1  35
TORSDOF 16
ENDMDL
MODEL 3
REMARK VINA RESULT:     -11.9      5.510     10.983
REMARK SMILES CS(=O)(=O)c1ccc(/C=C(/C(=O)NCCCCNC(=O)c2ccc(-c3c4nc(c(-c5c(F)c(F)c(F)c(F)c5F)c5ccc([nH]5)c(-c5c(F)c(F)c(F)c(F)c5F)c5nc(c(-c6c(F)c(F)c(F)c(F)c6F)c6ccc3[nH]6)C=C5)C=C4)cc2)c2ccc(-c3ccc(S(C)(=O)=O)cc3)cc2)cc1
REMARK SMILES IDX 15 1 14 2 13 3 11 4 12 5 10 7 9 8 8 9 5 10 6 11 101 12 7 13
REMARK SMILES IDX 100 14 2 15 1 16 3 17 4 18 84 19 85 20 99 21 86 22 98 23
REMARK SMILES IDX 87 24 88 25 89 26 97 27 90 28 96 29 91 30 92 31 93 32 94 33
REMARK SMILES IDX 95 34 16 35 17 36 18 37 19 38 20 40 21 41 22 42 83 43 23 44
REMARK SMILES IDX 82 45 24 46 25 47 26 48 76 49 27 50 81 51 75 52 77 53 28 54
REMARK SMILES IDX 80 55 74 56 73 57 29 59 61 60 41 61 60 62 42 63 45 64 59 65
REMARK SMILES IDX 78 66 43 67 44 68 58 70 79 71 46 72 30 73 31 74 39 75 32 76
REMARK SMILES IDX 33 77 37 78 40 79 34 80 35 81 38 82 36 83 62 84 63 85 71 86
REMARK SMILES IDX 64 87 65 88 69 89 72 90 66 91 67 92 70 93 68 94 47 95 48 96
REMARK SMILES IDX 56 97 49 98 50 99 54 100 57 101 51 102 52 103 55 104 53 105
REMARK H PARENT 13 6 18 39 77 58 45 69
REMARK Flexibility Score: inf
ROOT
ATOM      1  C   UNL A   1      47.614  25.883  31.960  1.00  0.00     0.023 C 
ENDROOT
BRANCH   1   2
ATOM      2  C   UNL A   1      48.435  26.897  31.159  1.00  0.00     0.116 C 
BRANCH   2   3
ATOM      3  N   UNL A   1      47.582  27.956  30.661  1.00  0.00    -0.352 N 
ATOM      4  C   UNL A   1      46.892  28.131  29.501  1.00  0.00     0.251 C 
ATOM      5  O   UNL A   1      46.289  29.201  29.388  1.00  0.00    -0.269 OA
ATOM      6  H   UNL A   1      47.479  28.704  31.292  1.00  0.00     0.163 HD
BRANCH   4   7
ATOM      7  C   UNL A   1      46.780  27.071  28.429  1.00  0.00     0.047 C 
ATOM      8  C   UNL A   1      46.170  25.884  28.644  1.00  0.00     0.022 C 
BRANCH   8   9
ATOM      9  C   UNL A   1      45.892  24.785  27.693  1.00  0.00    -0.025 A 
ATOM     10  C   UNL A   1      45.171  22.705  25.953  1.00  0.00     0.067 A 
ATOM     11  C   UNL A   1      46.156  23.619  25.573  1.00  0.00     0.021 A 
ATOM     12  C   UNL A   1      44.579  22.787  27.214  1.00  0.00     0.021 A 
ATOM     13  C   UNL A   1      46.524  24.645  26.451  1.00  0.00     0.009 A 
ATOM     14  C   UNL A   1      44.942  23.824  28.077  1.00  0.00     0.009 A 
BRANCH  10  15
ATOM     15  S   UNL A   1      44.671  21.424  24.828  1.00  0.00     0.175 S 
ATOM     16  C   UNL A   1      45.970  20.218  24.915  1.00  0.00     0.163 C 
ATOM     17  O   UNL A   1      44.693  21.983  23.493  1.00  0.00    -0.224 OA
ATOM     18  O   UNL A   1      43.461  20.837  25.376  1.00  0.00    -0.224 OA
ENDBRANCH  10  15
ENDBRANCH   8   9
BRANCH   7  19
ATOM     19  C   UNL A   1      47.545  27.292  27.177  1.00  0.00    -0.013 A 
ATOM     20  C   UNL A   1      48.810  26.701  27.059  1.00  0.00     0.009 A 
ATOM     21  C   UNL A   1      47.002  27.952  26.072  1.00  0.00     0.009 A 
ATOM     22  C   UNL A   1      49.484  26.696  25.839  1.00  0.00     0.009 A 
ATOM     23  C   UNL A   1      47.676  27.933  24.842  1.00  0.00     0.009 A 
ATOM     24  C   UNL A   1      48.907  27.269  24.696  1.00  0.00    -0.018 A 
BRANCH  24  25
ATOM     25  C   UNL A   1      49.542  27.102  23.376  1.00  0.00    -0.018 A 
ATOM     26  C   UNL A   1      50.942  27.205  23.248  1.00  0.00     0.010 A 
ATOM     27  C   UNL A   1      48.793  26.800  22.227  1.00  0.00     0.010 A 
ATOM     28  C   UNL A   1      51.576  27.008  22.021  1.00  0.00     0.021 A 
ATOM     29  C   UNL A   1      49.419  26.603  20.991  1.00  0.00     0.021 A 
ATOM     30  C   UNL A   1      50.807  26.713  20.896  1.00  0.00     0.067 A 
BRANCH  30  31
ATOM     31  S   UNL A   1      51.625  26.425  19.346  1.00  0.00     0.175 S 
ATOM     32  C   UNL A   1      53.122  27.366  19.480  1.00  0.00     0.163 C 
ATOM     33  O   UNL A   1      51.974  25.015  19.310  1.00  0.00    -0.224 OA
ATOM     34  O   UNL A   1      50.817  27.019  18.302  1.00  0.00    -0.224 OA
ENDBRANCH  30  31
ENDBRANCH  24  25
ENDBRANCH   7  19
ENDBRANCH   4   7
ENDBRANCH   2   3
ENDBRANCH   1   2
BRANCH   1  35
ATOM     35  C   UNL A   1      48.402  25.151  33.054  1.00  0.00     0.023 C 
BRANCH  35  36
ATOM     36  C   UNL A   1      48.979  26.047  34.145  1.00  0.00     0.116 C 
BRANCH  36  37
ATOM     37  N   UNL A   1      48.685  25.572  35.487  1.00  0.00    -0.352 N 
ATOM     38  C   UNL A   1      47.533  25.716  36.219  1.00  0.00     0.251 C 
ATOM     39  H   UNL A   1      49.411  25.079  35.933  1.00  0.00     0.163 HD
ATOM     40  O   UNL A   1      47.492  25.340  37.386  1.00  0.00    -0.269 OA
BRANCH  38  41
ATOM     41  C   UNL A   1      46.352  26.361  35.609  1.00  0.00     0.039 A 
ATOM     42  C   UNL A   1      46.478  27.668  35.132  1.00  0.00     0.014 A 
ATOM     43  C   UNL A   1      45.134  25.683  35.501  1.00  0.00     0.014 A 
ATOM     44  C   UNL A   1      45.398  28.277  34.491  1.00  0.00     0.010 A 
ATOM     45  C   UNL A   1      44.078  26.269  34.808  1.00  0.00     0.010 A 
ATOM     46  C   UNL A   1      44.201  27.570  34.297  1.00  0.00    -0.014 A 
BRANCH  46  47
ATOM     47  C   UNL A   1      43.067  28.175  33.557  1.00  0.00     0.031 A 
ATOM     48  C   UNL A   1      42.846  27.844  32.110  1.00  0.00     0.074 A 
ATOM     49  C   UNL A   1      42.278  29.075  34.175  1.00  0.00     0.049 A 
ATOM     50  N   UNL A   1      41.954  28.321  31.279  1.00  0.00    -0.248 NA
ATOM     51  C   UNL A   1      43.768  26.868  31.509  1.00  0.00     0.031 C 
ATOM     52  C   UNL A   1      42.426  29.517  35.563  1.00  0.00     0.029 A 
ATOM     53  N   UNL A   1      41.202  29.789  33.712  1.00  0.00    -0.354 N 
ATOM     54  C   UNL A   1      42.218  27.717  30.057  1.00  0.00     0.074 A 
ATOM     55  C   UNL A   1      43.379  26.874  30.242  1.00  0.00     0.031 C 
ATOM     56  C   UNL A   1      41.465  30.412  35.843  1.00  0.00     0.029 A 
ATOM     57  C   UNL A   1      40.655  30.630  34.649  1.00  0.00     0.049 A 
ATOM     58  H   UNL A   1      40.856  29.707  32.794  1.00  0.00     0.167 HD
ATOM     59  C   UNL A   1      41.538  27.839  28.891  1.00  0.00     0.037 A 
ATOM     60  C   UNL A   1      39.617  31.481  34.553  1.00  0.00     0.037 A 
ATOM     61  C   UNL A   1      40.365  28.654  28.719  1.00  0.00     0.049 A 
ATOM     62  C   UNL A   1      38.866  31.580  33.254  1.00  0.00     0.074 A 
ATOM     63  C   UNL A   1      39.569  28.795  27.596  1.00  0.00     0.029 A 
ATOM     64  N   UNL A   1      39.817  29.465  29.702  1.00  0.00    -0.354 N 
ATOM     65  N   UNL A   1      39.082  30.954  32.124  1.00  0.00    -0.248 NA
ATOM     66  C   UNL A   1      37.720  32.499  33.221  1.00  0.00     0.031 C 
ATOM     67  C   UNL A   1      38.559  29.719  27.889  1.00  0.00     0.029 A 
ATOM     68  C   UNL A   1      38.701  30.120  29.207  1.00  0.00     0.049 A 
ATOM     69  H   UNL A   1      40.169  29.560  30.617  1.00  0.00     0.167 HD
ATOM     70  C   UNL A   1      38.088  31.380  31.255  1.00  0.00     0.074 A 
ATOM     71  C   UNL A   1      37.258  32.308  31.993  1.00  0.00     0.031 C 
ATOM     72  C   UNL A   1      37.882  31.033  29.961  1.00  0.00     0.037 A 
BRANCH  59  73
ATOM     73  C   UNL A   1      42.047  27.065  27.711  1.00  0.00     0.064 A 
ATOM     74  C   UNL A   1      41.572  25.778  27.418  1.00  0.00     0.173 A 
ATOM     75  C   UNL A   1      42.995  27.629  26.844  1.00  0.00     0.173 A 
ATOM     76  F   UNL A   1      40.674  25.190  28.223  1.00  0.00    -0.203 F 
ATOM     77  C   UNL A   1      42.049  25.073  26.316  1.00  0.00     0.198 A 
ATOM     78  C   UNL A   1      43.449  26.931  25.728  1.00  0.00     0.198 A 
ATOM     79  F   UNL A   1      43.478  28.859  27.077  1.00  0.00    -0.203 F 
ATOM     80  F   UNL A   1      41.616  23.826  26.082  1.00  0.00    -0.200 F 
ATOM     81  C   UNL A   1      42.981  25.652  25.469  1.00  0.00     0.200 A 
ATOM     82  F   UNL A   1      44.342  27.496  24.903  1.00  0.00    -0.200 F 
ATOM     83  F   UNL A   1      43.435  24.973  24.406  1.00  0.00    -0.200 F 
ENDBRANCH  59  73
BRANCH  60  84
ATOM     84  C   UNL A   1      39.203  32.281  35.734  1.00  0.00     0.064 A 
ATOM     85  C   UNL A   1      39.682  33.585  35.919  1.00  0.00     0.173 A 
ATOM     86  C   UNL A   1      38.325  31.764  36.697  1.00  0.00     0.173 A 
ATOM     87  F   UNL A   1      40.539  34.116  35.034  1.00  0.00    -0.203 F 
ATOM     88  C   UNL A   1      39.315  34.336  37.033  1.00  0.00     0.198 A 
ATOM     89  C   UNL A   1      37.939  32.524  37.798  1.00  0.00     0.198 A 
ATOM     90  F   UNL A   1      37.835  30.523  36.561  1.00  0.00    -0.203 F 
ATOM     91  F   UNL A   1      39.819  35.564  37.208  1.00  0.00    -0.200 F 
ATOM     92  C   UNL A   1      38.439  33.806  37.971  1.00  0.00     0.200 A 
ATOM     93  F   UNL A   1      37.083  32.014  38.695  1.00  0.00    -0.200 F 
ATOM     94  F   UNL A   1      38.083  34.529  39.041  1.00  0.00    -0.200 F 
ENDBRANCH  60  84
BRANCH  72  95
ATOM     95  C   UNL A   1      36.693  31.635  29.272  1.00  0.00     0.064 A 
ATOM     96  C   UNL A   1      35.558  30.872  28.963  1.00  0.00     0.173 A 
ATOM     97  C   UNL A   1      36.676  33.001  28.952  1.00  0.00     0.173 A 
ATOM     98  F   UNL A   1      35.534  29.559  29.236  1.00  0.00    -0.203 F 
ATOM     99  C   UNL A   1      34.459  31.450  28.336  1.00  0.00     0.198 A 
ATOM    100  C   UNL A   1      35.564  33.581  28.349  1.00  0.00     0.198 A 
ATOM    101  F   UNL A   1      37.736  33.775  29.233  1.00  0.00    -0.203 F 
ATOM    102  F   UNL A   1      33.402  30.692  28.009  1.00  0.00    -0.200 F 
ATOM    103  C   UNL A   1      34.459  32.804  28.035  1.00  0.00     0.200 A 
ATOM    104  F   UNL A   1      35.563  34.892  28.068  1.00  0.00    -0.200 F 
ATOM    105  F   UNL A   1      33.397  33.359  27.435  1.00  0.00    -0.200 F 
ENDBRANCH  72  95
ENDBRANCH  46  47
ENDBRANCH  38  41
ENDBRANCH  36  37
ENDBRANCH  35  36
ENDBRANCH   1  35
TORSDOF 16
ENDMDL
