MODEL 1
REMARK VINA RESULT:     -12.8      0.000      0.000
REMARK SMILES CC[C@@H](Oc1cc(Cl)ccc1Cl)C(=O)NNC(=O)[C@@H]1[C@@H]2CC[C@@H](C2)[C@@H]1C(=O)NCCCCNC(=O)c1ccc(-c2c3nc(c(-c4c(F)c(F)c(F)c(F)c4F)c4ccc([nH]4)c(-c4c(F)c(F)c(F)c(F)c4F)c4nc(c(-c5c(F)c(F)c(F)c(F)c5F)c5ccc2[nH]5)C=C4)C=C3)cc1
REMARK SMILES IDX 29 1 28 2 26 3 27 4 25 6 19 7 20 8 21 9 24 10 23 11 22 12
REMARK SMILES IDX 17 13 16 14 18 16 15 17 13 18 14 19 3 21 2 22 1 23 4 24 5 25
REMARK SMILES IDX 6 26 11 27 7 28 10 29 12 30 8 31 9 32 30 33 31 34 32 35
REMARK SMILES IDX 33 36 34 37 35 39 36 40 37 41 98 42 38 43 97 44 39 45 40 46
REMARK SMILES IDX 41 47 91 48 42 49 96 50 90 51 92 52 43 53 95 54 89 55 88 56
REMARK SMILES IDX 44 58 76 59 56 60 75 61 57 62 60 63 74 64 93 65 58 66 59 67
REMARK SMILES IDX 73 69 94 70 61 71 45 72 46 73 54 74 47 75 48 76 52 77 55 78
REMARK SMILES IDX 49 79 50 80 53 81 51 82 77 83 78 84 86 85 79 86 80 87 84 88
REMARK SMILES IDX 87 89 81 90 82 91 85 92 83 93 62 94 63 95 71 96 64 97 65 98
REMARK SMILES IDX 69 99 72 100 66 101 67 102 70 103 68 104
REMARK H PARENT 28 5 16 15 15 20 33 38 92 57 60 68
REMARK Flexibility Score: inf
ROOT
ATOM      1  C   UNL A   1      36.683  22.032  25.325  1.00  0.00     0.116 C 
ENDROOT
BRANCH   1   2
ATOM      2  N   UNL A   1      35.825  22.466  26.414  1.00  0.00    -0.356 N 
ATOM      3  C   UNL A   1      34.544  22.943  26.384  1.00  0.00     0.224 C 
ATOM      4  O   UNL A   1      33.972  23.135  27.457  1.00  0.00    -0.275 OA
ATOM      5  H   UNL A   1      36.228  22.408  27.310  1.00  0.00     0.163 HD
BRANCH   3   6
ATOM      6  C   UNL A   1      33.847  23.094  25.037  1.00  0.00     0.094 C 
ATOM      7  C   UNL A   1      32.514  23.904  24.975  1.00  0.00     0.096 C 
ATOM      8  C   UNL A   1      31.510  22.848  24.475  1.00  0.00     0.002 C 
ATOM      9  C   UNL A   1      31.268  21.751  25.521  1.00  0.00     0.005 C 
ATOM     10  C   UNL A   1      32.371  22.102  23.441  1.00  0.00     0.009 C 
ATOM     11  C   UNL A   1      33.429  21.708  24.470  1.00  0.00     0.002 C 
ATOM     12  C   UNL A   1      32.558  20.926  25.472  1.00  0.00     0.005 C 
BRANCH   7  13
ATOM     13  C   UNL A   1      32.276  24.840  26.156  1.00  0.00     0.242 C 
ATOM     14  N   UNL A   1      32.869  26.059  26.286  1.00  0.00    -0.267 N 
ATOM     15  H   UNL A   1      32.632  26.568  27.094  1.00  0.00     0.191 HD
ATOM     16  O   UNL A   1      31.623  24.426  27.125  1.00  0.00    -0.273 OA
BRANCH  14  17
ATOM     17  N   UNL A   1      33.761  26.671  25.426  1.00  0.00    -0.264 N 
ATOM     18  C   UNL A   1      33.490  27.853  24.772  1.00  0.00     0.279 C 
ATOM     19  O   UNL A   1      34.366  28.351  24.058  1.00  0.00    -0.269 OA
ATOM     20  H   UNL A   1      34.633  26.240  25.274  1.00  0.00     0.191 HD
BRANCH  18  21
ATOM     21  C   UNL A   1      32.093  28.499  24.888  1.00  0.00     0.263 C 
BRANCH  21  22
ATOM     22  C   UNL A   1      32.192  29.786  25.725  1.00  0.00     0.052 C 
ATOM     23  C   UNL A   1      31.998  29.526  27.218  1.00  0.00     0.008 C 
ENDBRANCH  21  22
BRANCH  21  24
ATOM     24  O   UNL A   1      31.602  28.787  23.563  1.00  0.00    -0.479 OA
BRANCH  24  25
ATOM     25  C   UNL A   1      30.238  28.851  23.481  1.00  0.00     0.140 A 
ATOM     26  C   UNL A   1      29.653  30.113  23.366  1.00  0.00     0.068 A 
ATOM     27  C   UNL A   1      29.451  27.698  23.389  1.00  0.00     0.083 A 
ATOM     28  C   UNL A   1      28.271  30.222  23.237  1.00  0.00     0.044 A 
ATOM     29  C   UNL A   1      28.067  27.814  23.240  1.00  0.00     0.026 A 
ATOM     30  Cl  UNL A   1      30.153  26.124  23.429  1.00  0.00    -0.080 Cl
ATOM     31  Cl  UNL A   1      27.543  31.778  23.155  1.00  0.00    -0.084 Cl
ATOM     32  C   UNL A   1      27.474  29.079  23.175  1.00  0.00     0.022 A 
ENDBRANCH  24  25
ENDBRANCH  21  24
ENDBRANCH  18  21
ENDBRANCH  14  17
ENDBRANCH   7  13
ENDBRANCH   3   6
ENDBRANCH   1   2
BRANCH   1  33
ATOM     33  C   UNL A   1      36.544  20.541  25.020  1.00  0.00     0.023 C 
BRANCH  33  34
ATOM     34  C   UNL A   1      37.861  19.780  24.837  1.00  0.00     0.023 C 
BRANCH  34  35
ATOM     35  C   UNL A   1      39.014  20.197  25.748  1.00  0.00     0.116 C 
BRANCH  35  36
ATOM     36  N   UNL A   1      40.085  19.217  25.809  1.00  0.00    -0.352 N 
ATOM     37  C   UNL A   1      41.416  19.374  26.114  1.00  0.00     0.251 C 
ATOM     38  H   UNL A   1      39.814  18.294  25.598  1.00  0.00     0.163 HD
ATOM     39  O   UNL A   1      42.173  18.413  26.008  1.00  0.00    -0.269 OA
BRANCH  37  40
ATOM     40  C   UNL A   1      41.965  20.688  26.534  1.00  0.00     0.039 A 
ATOM     41  C   UNL A   1      42.308  21.608  25.537  1.00  0.00     0.014 A 
ATOM     42  C   UNL A   1      42.181  21.016  27.875  1.00  0.00     0.014 A 
ATOM     43  C   UNL A   1      42.804  22.868  25.883  1.00  0.00     0.010 A 
ATOM     44  C   UNL A   1      42.616  22.298  28.224  1.00  0.00     0.010 A 
ATOM     45  C   UNL A   1      42.929  23.240  27.232  1.00  0.00    -0.014 A 
BRANCH  45  46
ATOM     46  C   UNL A   1      43.364  24.614  27.601  1.00  0.00     0.031 A 
ATOM     47  C   UNL A   1      42.356  25.684  27.926  1.00  0.00     0.074 A 
ATOM     48  C   UNL A   1      44.680  24.909  27.623  1.00  0.00     0.049 A 
ATOM     49  N   UNL A   1      42.556  26.933  28.265  1.00  0.00    -0.248 NA
ATOM     50  C   UNL A   1      40.937  25.306  27.841  1.00  0.00     0.031 C 
ATOM     51  C   UNL A   1      45.759  23.979  27.286  1.00  0.00     0.029 A 
ATOM     52  N   UNL A   1      45.334  26.074  27.942  1.00  0.00    -0.354 N 
ATOM     53  C   UNL A   1      41.294  27.488  28.438  1.00  0.00     0.074 A 
ATOM     54  C   UNL A   1      40.333  26.455  28.111  1.00  0.00     0.031 C 
ATOM     55  C   UNL A   1      46.939  24.598  27.445  1.00  0.00     0.029 A 
ATOM     56  C   UNL A   1      46.703  25.976  27.864  1.00  0.00     0.049 A 
ATOM     57  H   UNL A   1      44.868  26.899  28.204  1.00  0.00     0.167 HD
ATOM     58  C   UNL A   1      40.965  28.734  28.856  1.00  0.00     0.037 A 
ATOM     59  C   UNL A   1      47.660  26.893  28.103  1.00  0.00     0.037 A 
ATOM     60  C   UNL A   1      41.917  29.761  29.194  1.00  0.00     0.049 A 
ATOM     61  C   UNL A   1      47.261  28.274  28.554  1.00  0.00     0.074 A 
ATOM     62  C   UNL A   1      41.676  31.046  29.652  1.00  0.00     0.029 A 
ATOM     63  N   UNL A   1      43.294  29.620  29.111  1.00  0.00    -0.354 N 
ATOM     64  N   UNL A   1      46.066  28.762  28.772  1.00  0.00    -0.248 NA
ATOM     65  C   UNL A   1      48.354  29.227  28.802  1.00  0.00     0.031 C 
ATOM     66  C   UNL A   1      42.905  31.693  29.815  1.00  0.00     0.029 A 
ATOM     67  C   UNL A   1      43.914  30.798  29.500  1.00  0.00     0.049 A 
ATOM     68  H   UNL A   1      43.762  28.805  28.819  1.00  0.00     0.167 HD
ATOM     69  C   UNL A   1      46.262  30.065  29.211  1.00  0.00     0.074 A 
ATOM     70  C   UNL A   1      47.692  30.283  29.250  1.00  0.00     0.031 C 
ATOM     71  C   UNL A   1      45.339  30.998  29.548  1.00  0.00     0.037 A 
BRANCH  58  72
ATOM     72  C   UNL A   1      39.506  29.058  28.997  1.00  0.00     0.064 A 
ATOM     73  C   UNL A   1      38.732  29.428  27.886  1.00  0.00     0.173 A 
ATOM     74  C   UNL A   1      38.859  28.932  30.236  1.00  0.00     0.173 A 
ATOM     75  F   UNL A   1      39.306  29.570  26.682  1.00  0.00    -0.203 F 
ATOM     76  C   UNL A   1      37.368  29.677  28.014  1.00  0.00     0.198 A 
ATOM     77  C   UNL A   1      37.489  29.156  30.353  1.00  0.00     0.198 A 
ATOM     78  F   UNL A   1      39.551  28.574  31.327  1.00  0.00    -0.203 F 
ATOM     79  F   UNL A   1      36.657  30.062  26.945  1.00  0.00    -0.200 F 
ATOM     80  C   UNL A   1      36.746  29.532  29.245  1.00  0.00     0.200 A 
ATOM     81  F   UNL A   1      36.886  29.002  31.542  1.00  0.00    -0.200 F 
ATOM     82  F   UNL A   1      35.431  29.758  29.362  1.00  0.00    -0.200 F 
ENDBRANCH  58  72
BRANCH  59  83
ATOM     83  C   UNL A   1      49.095  26.540  27.947  1.00  0.00     0.064 A 
ATOM     84  C   UNL A   1      49.894  26.269  29.068  1.00  0.00     0.173 A 
ATOM     85  C   UNL A   1      49.707  26.506  26.687  1.00  0.00     0.173 A 
ATOM     86  F   UNL A   1      49.360  26.311  30.297  1.00  0.00    -0.203 F 
ATOM     87  C   UNL A   1      51.258  26.012  28.935  1.00  0.00     0.198 A 
ATOM     88  C   UNL A   1      51.063  26.218  26.552  1.00  0.00     0.198 A 
ATOM     89  F   UNL A   1      48.986  26.755  25.583  1.00  0.00    -0.203 F 
ATOM     90  F   UNL A   1      52.010  25.819  30.027  1.00  0.00    -0.200 F 
ATOM     91  C   UNL A   1      51.840  25.983  27.677  1.00  0.00     0.200 A 
ATOM     92  F   UNL A   1      51.621  26.181  25.334  1.00  0.00    -0.200 F 
ATOM     93  F   UNL A   1      53.152  25.744  27.551  1.00  0.00    -0.200 F 
ENDBRANCH  59  83
BRANCH  71  94
ATOM     94  C   UNL A   1      45.852  32.326  30.025  1.00  0.00     0.064 A 
ATOM     95  C   UNL A   1      46.072  33.392  29.139  1.00  0.00     0.173 A 
ATOM     96  C   UNL A   1      46.115  32.538  31.386  1.00  0.00     0.173 A 
ATOM     97  F   UNL A   1      45.850  33.235  27.826  1.00  0.00    -0.203 F 
ATOM     98  C   UNL A   1      46.572  34.609  29.595  1.00  0.00     0.198 A 
ATOM     99  C   UNL A   1      46.586  33.766  31.843  1.00  0.00     0.198 A 
ATOM    100  F   UNL A   1      45.914  31.555  32.276  1.00  0.00    -0.203 F 
ATOM    101  F   UNL A   1      46.830  35.594  28.722  1.00  0.00    -0.200 F 
ATOM    102  C   UNL A   1      46.824  34.797  30.946  1.00  0.00     0.200 A 
ATOM    103  F   UNL A   1      46.818  33.950  33.150  1.00  0.00    -0.200 F 
ATOM    104  F   UNL A   1      47.306  35.969  31.382  1.00  0.00    -0.200 F 
ENDBRANCH  71  94
ENDBRANCH  45  46
ENDBRANCH  37  40
ENDBRANCH  35  36
ENDBRANCH  34  35
ENDBRANCH  33  34
ENDBRANCH   1  33
TORSDOF 17
ENDMDL
MODEL 2
REMARK VINA RESULT:     -12.8      0.939      6.867
REMARK SMILES CC[C@@H](Oc1cc(Cl)ccc1Cl)C(=O)NNC(=O)[C@@H]1[C@@H]2CC[C@@H](C2)[C@@H]1C(=O)NCCCCNC(=O)c1ccc(-c2c3nc(c(-c4c(F)c(F)c(F)c(F)c4F)c4ccc([nH]4)c(-c4c(F)c(F)c(F)c(F)c4F)c4nc(c(-c5c(F)c(F)c(F)c(F)c5F)c5ccc2[nH]5)C=C4)C=C3)cc1
REMARK SMILES IDX 29 1 28 2 26 3 27 4 25 6 19 7 20 8 21 9 24 10 23 11 22 12
REMARK SMILES IDX 17 13 16 14 18 16 15 17 13 18 14 19 3 21 2 22 1 23 4 24 5 25
REMARK SMILES IDX 6 26 11 27 7 28 10 29 12 30 8 31 9 32 30 33 31 34 32 35
REMARK SMILES IDX 33 36 34 37 35 39 36 40 37 41 98 42 38 43 97 44 39 45 40 46
REMARK SMILES IDX 41 47 91 48 42 49 96 50 90 51 92 52 43 53 95 54 89 55 88 56
REMARK SMILES IDX 44 58 76 59 56 60 75 61 57 62 60 63 74 64 93 65 58 66 59 67
REMARK SMILES IDX 73 69 94 70 61 71 45 72 46 73 54 74 47 75 48 76 52 77 55 78
REMARK SMILES IDX 49 79 50 80 53 81 51 82 77 83 78 84 86 85 79 86 80 87 84 88
REMARK SMILES IDX 87 89 81 90 82 91 85 92 83 93 62 94 63 95 71 96 64 97 65 98
REMARK SMILES IDX 69 99 72 100 66 101 67 102 70 103 68 104
REMARK H PARENT 28 5 16 15 15 20 33 38 92 57 60 68
REMARK Flexibility Score: inf
ROOT
ATOM      1  C   UNL A   1      36.548  21.885  25.216  1.00  0.00     0.116 C 
ENDROOT
BRANCH   1   2
ATOM      2  N   UNL A   1      35.703  22.312  26.318  1.00  0.00    -0.356 N 
ATOM      3  C   UNL A   1      34.437  22.827  26.304  1.00  0.00     0.224 C 
ATOM      4  O   UNL A   1      33.871  23.005  27.383  1.00  0.00    -0.275 OA
ATOM      5  H   UNL A   1      36.105  22.217  27.212  1.00  0.00     0.163 HD
BRANCH   3   6
ATOM      6  C   UNL A   1      33.744  23.038  24.962  1.00  0.00     0.094 C 
ATOM      7  C   UNL A   1      32.457  23.920  24.920  1.00  0.00     0.096 C 
ATOM      8  C   UNL A   1      31.396  22.928  24.407  1.00  0.00     0.002 C 
ATOM      9  C   UNL A   1      31.098  21.829  25.437  1.00  0.00     0.005 C 
ATOM     10  C   UNL A   1      32.211  22.153  23.358  1.00  0.00     0.009 C 
ATOM     11  C   UNL A   1      33.250  21.686  24.376  1.00  0.00     0.002 C 
ATOM     12  C   UNL A   1      32.341  20.937  25.369  1.00  0.00     0.005 C 
BRANCH   7  13
ATOM     13  C   UNL A   1      32.274  24.848  26.117  1.00  0.00     0.242 C 
ATOM     14  N   UNL A   1      32.901  26.051  26.242  1.00  0.00    -0.267 N 
ATOM     15  H   UNL A   1      32.698  26.556  27.062  1.00  0.00     0.191 HD
ATOM     16  O   UNL A   1      31.638  24.440  27.098  1.00  0.00    -0.273 OA
BRANCH  14  17
ATOM     17  N   UNL A   1      33.783  26.651  25.365  1.00  0.00    -0.264 N 
ATOM     18  C   UNL A   1      33.516  27.836  24.715  1.00  0.00     0.279 C 
ATOM     19  O   UNL A   1      34.384  28.322  23.984  1.00  0.00    -0.269 OA
ATOM     20  H   UNL A   1      34.647  26.209  25.196  1.00  0.00     0.191 HD
BRANCH  18  21
ATOM     21  C   UNL A   1      32.129  28.500  24.858  1.00  0.00     0.263 C 
BRANCH  21  22
ATOM     22  C   UNL A   1      32.235  29.707  25.805  1.00  0.00     0.052 C 
ATOM     23  C   UNL A   1      31.897  29.344  27.251  1.00  0.00     0.008 C 
ENDBRANCH  21  22
BRANCH  21  24
ATOM     24  O   UNL A   1      31.675  28.913  23.553  1.00  0.00    -0.479 OA
BRANCH  24  25
ATOM     25  C   UNL A   1      30.313  28.991  23.442  1.00  0.00     0.140 A 
ATOM     26  C   UNL A   1      29.742  30.261  23.344  1.00  0.00     0.068 A 
ATOM     27  C   UNL A   1      29.518  27.849  23.304  1.00  0.00     0.083 A 
ATOM     28  C   UNL A   1      28.365  30.386  23.186  1.00  0.00     0.044 A 
ATOM     29  C   UNL A   1      28.139  27.982  23.127  1.00  0.00     0.026 A 
ATOM     30  Cl  UNL A   1      30.205  26.268  23.322  1.00  0.00    -0.080 Cl
ATOM     31  Cl  UNL A   1      27.653  31.951  23.125  1.00  0.00    -0.084 Cl
ATOM     32  C   UNL A   1      27.560  29.253  23.079  1.00  0.00     0.022 A 
ENDBRANCH  24  25
ENDBRANCH  21  24
ENDBRANCH  18  21
ENDBRANCH  14  17
ENDBRANCH   7  13
ENDBRANCH   3   6
ENDBRANCH   1   2
BRANCH   1  33
ATOM     33  C   UNL A   1      36.520  20.373  25.001  1.00  0.00     0.023 C 
BRANCH  33  34
ATOM     34  C   UNL A   1      37.885  19.712  24.788  1.00  0.00     0.023 C 
BRANCH  34  35
ATOM     35  C   UNL A   1      38.995  20.127  25.751  1.00  0.00     0.116 C 
BRANCH  35  36
ATOM     36  N   UNL A   1      40.094  19.178  25.811  1.00  0.00    -0.352 N 
ATOM     37  C   UNL A   1      41.429  19.381  26.064  1.00  0.00     0.251 C 
ATOM     38  H   UNL A   1      39.841  18.241  25.644  1.00  0.00     0.163 HD
ATOM     39  O   UNL A   1      42.208  18.437  25.966  1.00  0.00    -0.269 OA
BRANCH  37  40
ATOM     40  C   UNL A   1      41.956  20.724  26.415  1.00  0.00     0.039 A 
ATOM     41  C   UNL A   1      42.211  21.625  25.376  1.00  0.00     0.014 A 
ATOM     42  C   UNL A   1      42.237  21.097  27.733  1.00  0.00     0.014 A 
ATOM     43  C   UNL A   1      42.683  22.910  25.659  1.00  0.00     0.010 A 
ATOM     44  C   UNL A   1      42.648  22.402  28.021  1.00  0.00     0.010 A 
ATOM     45  C   UNL A   1      42.871  23.324  26.988  1.00  0.00    -0.014 A 
BRANCH  45  46
ATOM     46  C   UNL A   1      43.280  24.722  27.294  1.00  0.00     0.031 A 
ATOM     47  C   UNL A   1      44.682  25.195  27.023  1.00  0.00     0.074 A 
ATOM     48  C   UNL A   1      42.384  25.568  27.844  1.00  0.00     0.049 A 
ATOM     49  N   UNL A   1      45.211  26.376  27.229  1.00  0.00    -0.248 NA
ATOM     50  C   UNL A   1      45.619  24.210  26.463  1.00  0.00     0.031 C 
ATOM     51  C   UNL A   1      41.007  25.225  28.199  1.00  0.00     0.029 A 
ATOM     52  N   UNL A   1      42.499  26.890  28.199  1.00  0.00    -0.354 N 
ATOM     53  C   UNL A   1      46.536  26.277  26.822  1.00  0.00     0.074 A 
ATOM     54  C   UNL A   1      46.746  24.905  26.409  1.00  0.00     0.031 C 
ATOM     55  C   UNL A   1      40.395  26.313  28.693  1.00  0.00     0.029 A 
ATOM     56  C   UNL A   1      41.343  27.423  28.719  1.00  0.00     0.049 A 
ATOM     57  H   UNL A   1      43.328  27.407  28.090  1.00  0.00     0.167 HD
ATOM     58  C   UNL A   1      47.482  27.245  26.770  1.00  0.00     0.037 A 
ATOM     59  C   UNL A   1      41.077  28.665  29.167  1.00  0.00     0.037 A 
ATOM     60  C   UNL A   1      47.274  28.614  27.167  1.00  0.00     0.049 A 
ATOM     61  C   UNL A   1      42.155  29.716  29.108  1.00  0.00     0.074 A 
ATOM     62  C   UNL A   1      48.168  29.672  27.125  1.00  0.00     0.029 A 
ATOM     63  N   UNL A   1      46.088  29.116  27.679  1.00  0.00    -0.354 N 
ATOM     64  N   UNL A   1      43.382  29.620  28.662  1.00  0.00    -0.248 NA
ATOM     65  C   UNL A   1      41.799  31.052  29.607  1.00  0.00     0.031 C 
ATOM     66  C   UNL A   1      47.533  30.806  27.643  1.00  0.00     0.029 A 
ATOM     67  C   UNL A   1      46.230  30.465  27.966  1.00  0.00     0.049 A 
ATOM     68  H   UNL A   1      45.265  28.593  27.819  1.00  0.00     0.167 HD
ATOM     69  C   UNL A   1      43.935  30.887  28.798  1.00  0.00     0.074 A 
ATOM     70  C   UNL A   1      42.902  31.738  29.346  1.00  0.00     0.031 C 
ATOM     71  C   UNL A   1      45.189  31.306  28.500  1.00  0.00     0.037 A 
BRANCH  58  72
ATOM     72  C   UNL A   1      48.836  26.868  26.241  1.00  0.00     0.064 A 
ATOM     73  C   UNL A   1      49.152  27.011  24.882  1.00  0.00     0.173 A 
ATOM     74  C   UNL A   1      49.848  26.427  27.108  1.00  0.00     0.173 A 
ATOM     75  F   UNL A   1      48.216  27.420  24.011  1.00  0.00    -0.203 F 
ATOM     76  C   UNL A   1      50.425  26.709  24.406  1.00  0.00     0.198 A 
ATOM     77  C   UNL A   1      51.127  26.153  26.632  1.00  0.00     0.198 A 
ATOM     78  F   UNL A   1      49.600  26.282  28.418  1.00  0.00    -0.203 F 
ATOM     79  F   UNL A   1      50.692  26.820  23.097  1.00  0.00    -0.200 F 
ATOM     80  C   UNL A   1      51.414  26.289  25.283  1.00  0.00     0.200 A 
ATOM     81  F   UNL A   1      52.087  25.760  27.483  1.00  0.00    -0.200 F 
ATOM     82  F   UNL A   1      52.643  26.013  24.825  1.00  0.00    -0.200 F 
ENDBRANCH  58  72
BRANCH  59  83
ATOM     83  C   UNL A   1      39.727  29.003  29.689  1.00  0.00     0.064 A 
ATOM     84  C   UNL A   1      39.406  28.795  31.038  1.00  0.00     0.173 A 
ATOM     85  C   UNL A   1      38.722  29.498  28.847  1.00  0.00     0.173 A 
ATOM     86  F   UNL A   1      40.327  28.301  31.878  1.00  0.00    -0.203 F 
ATOM     87  C   UNL A   1      38.119  29.037  31.517  1.00  0.00     0.198 A 
ATOM     88  C   UNL A   1      37.445  29.769  29.334  1.00  0.00     0.198 A 
ATOM     89  F   UNL A   1      38.980  29.717  27.550  1.00  0.00    -0.203 F 
ATOM     90  F   UNL A   1      37.823  28.770  32.796  1.00  0.00    -0.200 F 
ATOM     91  C   UNL A   1      37.142  29.527  30.666  1.00  0.00     0.200 A 
ATOM     92  F   UNL A   1      36.505  30.253  28.511  1.00  0.00    -0.200 F 
ATOM     93  F   UNL A   1      35.903  29.752  31.125  1.00  0.00    -0.200 F 
ENDBRANCH  59  83
BRANCH  71  94
ATOM     94  C   UNL A   1      45.497  32.758  28.723  1.00  0.00     0.064 A 
ATOM     95  C   UNL A   1      45.245  33.724  27.737  1.00  0.00     0.173 A 
ATOM     96  C   UNL A   1      46.039  33.189  29.943  1.00  0.00     0.173 A 
ATOM     97  F   UNL A   1      44.741  33.361  26.549  1.00  0.00    -0.203 F 
ATOM     98  C   UNL A   1      45.560  35.064  27.952  1.00  0.00     0.198 A 
ATOM     99  C   UNL A   1      46.324  34.534  30.165  1.00  0.00     0.198 A 
ATOM    100  F   UNL A   1      46.292  32.308  30.921  1.00  0.00    -0.203 F 
ATOM    101  F   UNL A   1      45.365  35.960  26.974  1.00  0.00    -0.200 F 
ATOM    102  C   UNL A   1      46.095  35.468  29.166  1.00  0.00     0.200 A 
ATOM    103  F   UNL A   1      46.830  34.925  31.343  1.00  0.00    -0.200 F 
ATOM    104  F   UNL A   1      46.398  36.758  29.370  1.00  0.00    -0.200 F 
ENDBRANCH  71  94
ENDBRANCH  45  46
ENDBRANCH  37  40
ENDBRANCH  35  36
ENDBRANCH  34  35
ENDBRANCH  33  34
ENDBRANCH   1  33
TORSDOF 17
ENDMDL
MODEL 3
REMARK VINA RESULT:     -12.8      4.438      7.644
REMARK SMILES CC[C@@H](Oc1cc(Cl)ccc1Cl)C(=O)NNC(=O)[C@@H]1[C@@H]2CC[C@@H](C2)[C@@H]1C(=O)NCCCCNC(=O)c1ccc(-c2c3nc(c(-c4c(F)c(F)c(F)c(F)c4F)c4ccc([nH]4)c(-c4c(F)c(F)c(F)c(F)c4F)c4nc(c(-c5c(F)c(F)c(F)c(F)c5F)c5ccc2[nH]5)C=C4)C=C3)cc1
REMARK SMILES IDX 29 1 28 2 26 3 27 4 25 6 19 7 20 8 21 9 24 10 23 11 22 12
REMARK SMILES IDX 17 13 16 14 18 16 15 17 13 18 14 19 3 21 2 22 1 23 4 24 5 25
REMARK SMILES IDX 6 26 11 27 7 28 10 29 12 30 8 31 9 32 30 33 31 34 32 35
REMARK SMILES IDX 33 36 34 37 35 39 36 40 37 41 98 42 38 43 97 44 39 45 40 46
REMARK SMILES IDX 41 47 91 48 42 49 96 50 90 51 92 52 43 53 95 54 89 55 88 56
REMARK SMILES IDX 44 58 76 59 56 60 75 61 57 62 60 63 74 64 93 65 58 66 59 67
REMARK SMILES IDX 73 69 94 70 61 71 45 72 46 73 54 74 47 75 48 76 52 77 55 78
REMARK SMILES IDX 49 79 50 80 53 81 51 82 77 83 78 84 86 85 79 86 80 87 84 88
REMARK SMILES IDX 87 89 81 90 82 91 85 92 83 93 62 94 63 95 71 96 64 97 65 98
REMARK SMILES IDX 69 99 72 100 66 101 67 102 70 103 68 104
REMARK H PARENT 28 5 16 15 15 20 33 38 92 57 60 68
REMARK Flexibility Score: inf
ROOT
ATOM      1  C   UNL A   1      31.175  26.614  26.203  1.00  0.00     0.116 C 
ENDROOT
BRANCH   1   2
ATOM      2  N   UNL A   1      30.977  25.338  26.867  1.00  0.00    -0.356 N 
ATOM      3  C   UNL A   1      31.772  24.225  26.885  1.00  0.00     0.224 C 
ATOM      4  O   UNL A   1      31.450  23.295  27.624  1.00  0.00    -0.275 OA
ATOM      5  H   UNL A   1      30.142  25.262  27.383  1.00  0.00     0.163 HD
BRANCH   3   6
ATOM      6  C   UNL A   1      33.073  24.239  26.090  1.00  0.00     0.094 C 
ATOM      7  C   UNL A   1      33.054  23.706  24.623  1.00  0.00     0.096 C 
ATOM      8  C   UNL A   1      34.040  22.524  24.690  1.00  0.00     0.002 C 
ATOM      9  C   UNL A   1      33.493  21.372  25.545  1.00  0.00     0.005 C 
ATOM     10  C   UNL A   1      35.122  23.106  25.616  1.00  0.00     0.009 C 
ATOM     11  C   UNL A   1      34.144  23.337  26.766  1.00  0.00     0.002 C 
ATOM     12  C   UNL A   1      33.626  21.902  26.976  1.00  0.00     0.005 C 
BRANCH   7  13
ATOM     13  C   UNL A   1      31.673  23.651  23.976  1.00  0.00     0.242 C 
ATOM     14  N   UNL A   1      31.418  24.064  22.704  1.00  0.00    -0.267 N 
ATOM     15  H   UNL A   1      30.485  23.976  22.404  1.00  0.00     0.191 HD
ATOM     16  O   UNL A   1      30.696  23.351  24.677  1.00  0.00    -0.273 OA
BRANCH  14  17
ATOM     17  N   UNL A   1      32.303  24.590  21.783  1.00  0.00    -0.264 N 
ATOM     18  C   UNL A   1      32.539  25.941  21.646  1.00  0.00     0.279 C 
ATOM     19  O   UNL A   1      33.382  26.318  20.827  1.00  0.00    -0.269 OA
ATOM     20  H   UNL A   1      32.789  23.968  21.195  1.00  0.00     0.191 HD
BRANCH  18  21
ATOM     21  C   UNL A   1      31.711  26.956  22.463  1.00  0.00     0.263 C 
BRANCH  21  22
ATOM     22  C   UNL A   1      32.657  27.969  23.130  1.00  0.00     0.052 C 
ATOM     23  C   UNL A   1      33.809  27.291  23.870  1.00  0.00     0.008 C 
ENDBRANCH  21  22
BRANCH  21  24
ATOM     24  O   UNL A   1      30.789  27.625  21.578  1.00  0.00    -0.479 OA
BRANCH  24  25
ATOM     25  C   UNL A   1      29.906  28.449  22.220  1.00  0.00     0.140 A 
ATOM     26  C   UNL A   1      29.908  29.801  21.870  1.00  0.00     0.068 A 
ATOM     27  C   UNL A   1      28.945  27.953  23.106  1.00  0.00     0.083 A 
ATOM     28  C   UNL A   1      28.997  30.668  22.467  1.00  0.00     0.044 A 
ATOM     29  C   UNL A   1      28.022  28.825  23.687  1.00  0.00     0.026 A 
ATOM     30  Cl  UNL A   1      28.853  26.273  23.483  1.00  0.00    -0.080 Cl
ATOM     31  Cl  UNL A   1      29.038  32.343  22.082  1.00  0.00    -0.084 Cl
ATOM     32  C   UNL A   1      28.055  30.187  23.375  1.00  0.00     0.022 A 
ENDBRANCH  24  25
ENDBRANCH  21  24
ENDBRANCH  18  21
ENDBRANCH  14  17
ENDBRANCH   7  13
ENDBRANCH   3   6
ENDBRANCH   1   2
BRANCH   1  33
ATOM     33  C   UNL A   1      31.926  27.622  27.071  1.00  0.00     0.023 C 
BRANCH  33  34
ATOM     34  C   UNL A   1      31.563  29.092  26.839  1.00  0.00     0.023 C 
BRANCH  34  35
ATOM     35  C   UNL A   1      32.640  29.960  26.190  1.00  0.00     0.116 C 
BRANCH  35  36
ATOM     36  N   UNL A   1      32.531  31.368  26.532  1.00  0.00    -0.352 N 
ATOM     37  C   UNL A   1      33.323  32.150  27.337  1.00  0.00     0.251 C 
ATOM     38  H   UNL A   1      31.768  31.836  26.120  1.00  0.00     0.163 HD
ATOM     39  O   UNL A   1      32.985  33.308  27.568  1.00  0.00    -0.269 OA
BRANCH  37  40
ATOM     40  C   UNL A   1      34.557  31.615  27.966  1.00  0.00     0.039 A 
ATOM     41  C   UNL A   1      35.646  32.480  28.120  1.00  0.00     0.014 A 
ATOM     42  C   UNL A   1      34.675  30.282  28.368  1.00  0.00     0.014 A 
ATOM     43  C   UNL A   1      36.820  32.030  28.731  1.00  0.00     0.010 A 
ATOM     44  C   UNL A   1      35.825  29.849  29.035  1.00  0.00     0.010 A 
ATOM     45  C   UNL A   1      36.909  30.719  29.227  1.00  0.00    -0.014 A 
BRANCH  45  46
ATOM     46  C   UNL A   1      38.121  30.269  29.963  1.00  0.00     0.031 A 
ATOM     47  C   UNL A   1      38.403  30.753  31.360  1.00  0.00     0.074 A 
ATOM     48  C   UNL A   1      38.990  29.432  29.359  1.00  0.00     0.049 A 
ATOM     49  N   UNL A   1      39.410  30.467  32.148  1.00  0.00    -0.248 NA
ATOM     50  C   UNL A   1      37.438  31.697  31.943  1.00  0.00     0.031 C 
ATOM     51  C   UNL A   1      38.860  28.923  27.993  1.00  0.00     0.029 A 
ATOM     52  N   UNL A   1      40.154  28.863  29.816  1.00  0.00    -0.354 N 
ATOM     53  C   UNL A   1      39.198  31.188  33.316  1.00  0.00     0.074 A 
ATOM     54  C   UNL A   1      37.996  31.970  33.113  1.00  0.00     0.031 C 
ATOM     55  C   UNL A   1      39.884  28.095  27.733  1.00  0.00     0.029 A 
ATOM     56  C   UNL A   1      40.760  28.037  28.899  1.00  0.00     0.049 A 
ATOM     57  H   UNL A   1      40.518  29.029  30.714  1.00  0.00     0.167 HD
ATOM     58  C   UNL A   1      39.921  31.180  34.461  1.00  0.00     0.037 A 
ATOM     59  C   UNL A   1      41.894  27.315  28.988  1.00  0.00     0.037 A 
ATOM     60  C   UNL A   1      41.110  30.395  34.672  1.00  0.00     0.049 A 
ATOM     61  C   UNL A   1      42.682  27.337  30.271  1.00  0.00     0.074 A 
ATOM     62  C   UNL A   1      41.895  30.302  35.810  1.00  0.00     0.029 A 
ATOM     63  N   UNL A   1      41.687  29.564  33.723  1.00  0.00    -0.354 N 
ATOM     64  N   UNL A   1      42.433  27.976  31.386  1.00  0.00    -0.248 NA
ATOM     65  C   UNL A   1      43.907  26.524  30.305  1.00  0.00     0.031 C 
ATOM     66  C   UNL A   1      42.964  29.442  35.539  1.00  0.00     0.029 A 
ATOM     67  C   UNL A   1      42.822  28.964  34.247  1.00  0.00     0.049 A 
ATOM     68  H   UNL A   1      41.341  29.420  32.812  1.00  0.00     0.167 HD
ATOM     69  C   UNL A   1      43.450  27.620  32.263  1.00  0.00     0.074 A 
ATOM     70  C   UNL A   1      44.306  26.691  31.557  1.00  0.00     0.031 C 
ATOM     71  C   UNL A   1      43.658  28.030  33.538  1.00  0.00     0.037 A 
BRANCH  58  72
ATOM     72  C   UNL A   1      39.436  32.034  35.597  1.00  0.00     0.064 A 
ATOM     73  C   UNL A   1      38.520  31.540  36.539  1.00  0.00     0.173 A 
ATOM     74  C   UNL A   1      39.942  33.329  35.788  1.00  0.00     0.173 A 
ATOM     75  F   UNL A   1      38.001  30.311  36.394  1.00  0.00    -0.203 F 
ATOM     76  C   UNL A   1      38.114  32.319  37.619  1.00  0.00     0.198 A 
ATOM     77  C   UNL A   1      39.554  34.093  36.886  1.00  0.00     0.198 A 
ATOM     78  F   UNL A   1      40.826  33.844  34.922  1.00  0.00    -0.203 F 
ATOM     79  F   UNL A   1      37.211  31.838  38.486  1.00  0.00    -0.200 F 
ATOM     80  C   UNL A   1      38.637  33.590  37.797  1.00  0.00     0.200 A 
ATOM     81  F   UNL A   1      40.071  35.318  37.064  1.00  0.00    -0.200 F 
ATOM     82  F   UNL A   1      38.256  34.331  38.846  1.00  0.00    -0.200 F 
ENDBRANCH  58  72
BRANCH  59  83
ATOM     83  C   UNL A   1      42.348  26.485  27.842  1.00  0.00     0.064 A 
ATOM     84  C   UNL A   1      43.267  26.988  26.909  1.00  0.00     0.173 A 
ATOM     85  C   UNL A   1      41.844  25.194  27.631  1.00  0.00     0.173 A 
ATOM     86  F   UNL A   1      43.760  28.226  27.056  1.00  0.00    -0.203 F 
ATOM     87  C   UNL A   1      43.638  26.243  25.791  1.00  0.00     0.198 A 
ATOM     88  C   UNL A   1      42.240  24.439  26.529  1.00  0.00     0.198 A 
ATOM     89  F   UNL A   1      40.965  24.666  28.495  1.00  0.00    -0.203 F 
ATOM     90  F   UNL A   1      44.469  26.773  24.883  1.00  0.00    -0.200 F 
ATOM     91  C   UNL A   1      43.126  24.969  25.604  1.00  0.00     0.200 A 
ATOM     92  F   UNL A   1      41.752  23.203  26.356  1.00  0.00    -0.200 F 
ATOM     93  F   UNL A   1      43.477  24.257  24.524  1.00  0.00    -0.200 F 
ENDBRANCH  59  83
BRANCH  71  94
ATOM     94  C   UNL A   1      44.836  27.444  34.262  1.00  0.00     0.064 A 
ATOM     95  C   UNL A   1      46.095  28.062  34.241  1.00  0.00     0.173 A 
ATOM     96  C   UNL A   1      44.699  26.255  34.994  1.00  0.00     0.173 A 
ATOM     97  F   UNL A   1      46.280  29.192  33.542  1.00  0.00    -0.203 F 
ATOM     98  C   UNL A   1      47.183  27.492  34.896  1.00  0.00     0.198 A 
ATOM     99  C   UNL A   1      45.782  25.704  35.673  1.00  0.00     0.198 A 
ATOM    100  F   UNL A   1      43.515  25.627  35.052  1.00  0.00    -0.203 F 
ATOM    101  F   UNL A   1      48.390  28.069  34.814  1.00  0.00    -0.200 F 
ATOM    102  C   UNL A   1      47.025  26.316  35.615  1.00  0.00     0.200 A 
ATOM    103  F   UNL A   1      45.626  24.574  36.377  1.00  0.00    -0.200 F 
ATOM    104  F   UNL A   1      48.074  25.768  36.244  1.00  0.00    -0.200 F 
ENDBRANCH  71  94
ENDBRANCH  45  46
ENDBRANCH  37  40
ENDBRANCH  35  36
ENDBRANCH  34  35
ENDBRANCH  33  34
ENDBRANCH   1  33
TORSDOF 17
ENDMDL
