MODEL 1
REMARK VINA RESULT:     -12.4      0.000      0.000
REMARK SMILES Cc1noc(C)c1[C@H](C)NC(=O)NC[C@@](C)(O)C(=O)NCCCCNC(=O)c1ccc(-c2c3nc(c(-c4c(F)c(F)c(F)c(F)c4F)c4ccc([nH]4)c(-c4c(F)c(F)c(F)c(F)c4F)c4nc(c(-c5c(F)c(F)c(F)c(F)c5F)c5ccc2[nH]5)C=C4)C=C3)cc1
REMARK SMILES IDX 21 1 20 2 18 3 19 4 15 6 16 7 14 8 13 9 10 10 11 11 12 13
REMARK SMILES IDX 8 15 9 16 7 17 1 18 2 19 3 20 4 21 5 22 6 23 17 24 22 26
REMARK SMILES IDX 23 27 24 28 25 29 26 30 27 32 28 33 29 34 90 35 30 36 89 37
REMARK SMILES IDX 31 38 32 39 33 40 83 41 34 42 88 43 82 44 84 45 35 46 87 47
REMARK SMILES IDX 81 48 80 49 36 51 68 52 48 53 67 54 49 55 52 56 66 57 85 58
REMARK SMILES IDX 50 59 51 60 65 62 86 63 53 64 37 65 38 66 46 67 39 68 40 69
REMARK SMILES IDX 44 70 47 71 41 72 42 73 45 74 43 75 69 76 70 77 78 78 71 79
REMARK SMILES IDX 72 80 76 81 79 82 73 83 74 84 77 85 75 86 54 87 55 88 63 89
REMARK SMILES IDX 56 90 57 91 61 92 64 93 58 94 59 95 62 96 60 97
REMARK H PARENT 20 5 10 12 13 14 17 25 25 31 84 50 52 61
REMARK Flexibility Score: inf
ROOT
ATOM      1  C   UNL A   1      31.527  29.786  25.244  1.00  0.00     0.116 C 
ENDROOT
BRANCH   1   2
ATOM      2  N   UNL A   1      32.568  28.828  24.930  1.00  0.00    -0.354 N 
ATOM      3  C   UNL A   1      32.599  27.463  25.026  1.00  0.00     0.253 C 
ATOM      4  O   UNL A   1      33.588  26.928  24.523  1.00  0.00    -0.272 OA
ATOM      5  H   UNL A   1      33.399  29.229  24.587  1.00  0.00     0.163 HD
BRANCH   3   6
ATOM      6  C   UNL A   1      31.403  26.662  25.624  1.00  0.00     0.157 C 
ATOM      7  C   UNL A   1      30.256  26.751  24.604  1.00  0.00     0.055 C 
BRANCH   6   8
ATOM      8  C   UNL A   1      31.673  25.158  25.960  1.00  0.00     0.162 C 
BRANCH   8   9
ATOM      9  N   UNL A   1      30.707  24.424  26.750  1.00  0.00    -0.335 N 
ATOM     10  N   UNL A   1      31.255  22.123  26.581  1.00  0.00    -0.331 N 
ATOM     11  C   UNL A   1      30.488  23.130  27.016  1.00  0.00     0.315 C 
ATOM     12  H   UNL A   1      30.865  21.236  26.762  1.00  0.00     0.165 HD
ATOM     13  O   UNL A   1      29.517  22.849  27.724  1.00  0.00    -0.249 OA
ATOM     14  H   UNL A   1      30.060  25.015  27.197  1.00  0.00     0.165 HD
BRANCH  10  15
ATOM     15  C   UNL A   1      32.536  22.053  25.901  1.00  0.00     0.116 C 
ATOM     16  C   UNL A   1      33.584  21.529  26.880  1.00  0.00     0.036 C 
BRANCH  15  17
ATOM     17  C   UNL A   1      32.372  21.243  24.643  1.00  0.00     0.040 A 
ATOM     18  C   UNL A   1      32.134  23.190  22.904  1.00  0.00     0.071 C 
ATOM     19  C   UNL A   1      32.202  21.773  23.324  1.00  0.00     0.086 A 
ATOM     20  N   UNL A   1      32.133  20.808  22.402  1.00  0.00    -0.085 NA
ATOM     21  O   UNL A   1      32.264  19.626  23.090  1.00  0.00    -0.361 OA
ATOM     22  C   UNL A   1      32.419  19.877  24.417  1.00  0.00     0.139 A 
ATOM     23  C   UNL A   1      32.613  18.671  25.247  1.00  0.00     0.091 C 
ENDBRANCH  15  17
ENDBRANCH  10  15
ENDBRANCH   8   9
ENDBRANCH   6   8
BRANCH   6  24
ATOM     24  O   UNL A   1      30.971  27.266  26.858  1.00  0.00    -0.378 OA
ATOM     25  H   UNL A   1      30.011  27.399  26.836  1.00  0.00     0.212 HD
ENDBRANCH   6  24
ENDBRANCH   3   6
ENDBRANCH   1   2
BRANCH   1  26
ATOM     26  C   UNL A   1      31.708  30.441  26.611  1.00  0.00     0.023 C 
BRANCH  26  27
ATOM     27  C   UNL A   1      31.582  31.966  26.645  1.00  0.00     0.023 C 
BRANCH  27  28
ATOM     28  C   UNL A   1      32.746  32.731  27.267  1.00  0.00     0.116 C 
BRANCH  28  29
ATOM     29  N   UNL A   1      32.409  34.087  27.671  1.00  0.00    -0.352 N 
ATOM     30  C   UNL A   1      33.001  34.903  28.606  1.00  0.00     0.251 C 
ATOM     31  H   UNL A   1      31.637  34.480  27.204  1.00  0.00     0.163 HD
ATOM     32  O   UNL A   1      32.511  36.002  28.851  1.00  0.00    -0.269 OA
BRANCH  30  33
ATOM     33  C   UNL A   1      34.196  34.451  29.353  1.00  0.00     0.039 A 
ATOM     34  C   UNL A   1      34.012  33.837  30.596  1.00  0.00     0.014 A 
ATOM     35  C   UNL A   1      35.485  34.617  28.844  1.00  0.00     0.014 A 
ATOM     36  C   UNL A   1      35.109  33.317  31.286  1.00  0.00     0.010 A 
ATOM     37  C   UNL A   1      36.569  34.031  29.494  1.00  0.00     0.010 A 
ATOM     38  C   UNL A   1      36.392  33.366  30.718  1.00  0.00    -0.014 A 
BRANCH  38  39
ATOM     39  C   UNL A   1      37.548  32.701  31.373  1.00  0.00     0.031 A 
ATOM     40  C   UNL A   1      38.230  31.533  30.722  1.00  0.00     0.074 A 
ATOM     41  C   UNL A   1      37.935  33.104  32.600  1.00  0.00     0.049 A 
ATOM     42  N   UNL A   1      39.207  30.787  31.171  1.00  0.00    -0.248 NA
ATOM     43  C   UNL A   1      37.725  31.130  29.402  1.00  0.00     0.031 C 
ATOM     44  C   UNL A   1      37.315  34.184  33.367  1.00  0.00     0.029 A 
ATOM     45  N   UNL A   1      38.929  32.638  33.425  1.00  0.00    -0.354 N 
ATOM     46  C   UNL A   1      39.427  29.823  30.197  1.00  0.00     0.074 A 
ATOM     47  C   UNL A   1      38.440  30.041  29.161  1.00  0.00     0.031 C 
ATOM     48  C   UNL A   1      37.948  34.306  34.544  1.00  0.00     0.029 A 
ATOM     49  C   UNL A   1      38.992  33.289  34.630  1.00  0.00     0.049 A 
ATOM     50  H   UNL A   1      39.539  31.906  33.174  1.00  0.00     0.167 HD
ATOM     51  C   UNL A   1      40.378  28.857  30.158  1.00  0.00     0.037 A 
ATOM     52  C   UNL A   1      39.791  33.085  35.696  1.00  0.00     0.037 A 
ATOM     53  C   UNL A   1      41.362  28.648  31.189  1.00  0.00     0.049 A 
ATOM     54  C   UNL A   1      40.836  32.006  35.636  1.00  0.00     0.074 A 
ATOM     55  C   UNL A   1      42.409  27.743  31.213  1.00  0.00     0.029 A 
ATOM     56  N   UNL A   1      41.410  29.343  32.389  1.00  0.00    -0.354 N 
ATOM     57  N   UNL A   1      41.093  31.155  34.672  1.00  0.00    -0.248 NA
ATOM     58  C   UNL A   1      41.710  31.865  36.809  1.00  0.00     0.031 C 
ATOM     59  C   UNL A   1      43.055  27.852  32.449  1.00  0.00     0.029 A 
ATOM     60  C   UNL A   1      42.450  28.866  33.174  1.00  0.00     0.049 A 
ATOM     61  H   UNL A   1      40.797  30.070  32.646  1.00  0.00     0.167 HD
ATOM     62  C   UNL A   1      42.163  30.389  35.112  1.00  0.00     0.074 A 
ATOM     63  C   UNL A   1      42.522  30.891  36.424  1.00  0.00     0.031 C 
ATOM     64  C   UNL A   1      42.791  29.364  34.484  1.00  0.00     0.037 A 
BRANCH  51  65
ATOM     65  C   UNL A   1      40.388  27.951  28.959  1.00  0.00     0.064 A 
ATOM     66  C   UNL A   1      39.678  26.740  28.943  1.00  0.00     0.173 A 
ATOM     67  C   UNL A   1      41.116  28.297  27.810  1.00  0.00     0.173 A 
ATOM     68  F   UNL A   1      38.972  26.356  30.017  1.00  0.00    -0.203 F 
ATOM     69  C   UNL A   1      39.736  25.887  27.843  1.00  0.00     0.198 A 
ATOM     70  C   UNL A   1      41.142  27.458  26.698  1.00  0.00     0.198 A 
ATOM     71  F   UNL A   1      41.804  29.447  27.764  1.00  0.00    -0.203 F 
ATOM     72  F   UNL A   1      39.108  24.704  27.881  1.00  0.00    -0.200 F 
ATOM     73  C   UNL A   1      40.465  26.248  26.720  1.00  0.00     0.200 A 
ATOM     74  F   UNL A   1      41.833  27.816  25.606  1.00  0.00    -0.200 F 
ATOM     75  F   UNL A   1      40.523  25.426  25.664  1.00  0.00    -0.200 F 
ENDBRANCH  51  65
BRANCH  52  76
ATOM     76  C   UNL A   1      39.632  33.940  36.900  1.00  0.00     0.064 A 
ATOM     77  C   UNL A   1      40.226  35.207  36.970  1.00  0.00     0.173 A 
ATOM     78  C   UNL A   1      38.852  33.523  37.989  1.00  0.00     0.173 A 
ATOM     79  F   UNL A   1      40.998  35.641  35.962  1.00  0.00    -0.203 F 
ATOM     80  C   UNL A   1      40.050  36.023  38.085  1.00  0.00     0.198 A 
ATOM     81  C   UNL A   1      38.654  34.351  39.092  1.00  0.00     0.198 A 
ATOM     82  F   UNL A   1      38.257  32.321  37.967  1.00  0.00    -0.203 F 
ATOM     83  F   UNL A   1      40.653  37.218  38.140  1.00  0.00    -0.200 F 
ATOM     84  C   UNL A   1      39.257  35.599  39.141  1.00  0.00     0.200 A 
ATOM     85  F   UNL A   1      37.873  33.943  40.101  1.00  0.00    -0.200 F 
ATOM     86  F   UNL A   1      39.075  36.391  40.207  1.00  0.00    -0.200 F 
ENDBRANCH  52  76
BRANCH  64  87
ATOM     87  C   UNL A   1      43.943  28.720  35.201  1.00  0.00     0.064 A 
ATOM     88  C   UNL A   1      43.759  27.620  36.053  1.00  0.00     0.173 A 
ATOM     89  C   UNL A   1      45.253  29.185  35.006  1.00  0.00     0.173 A 
ATOM     90  F   UNL A   1      42.527  27.145  36.287  1.00  0.00    -0.203 F 
ATOM     91  C   UNL A   1      44.841  27.026  36.699  1.00  0.00     0.198 A 
ATOM     92  C   UNL A   1      46.334  28.569  35.629  1.00  0.00     0.198 A 
ATOM     93  F   UNL A   1      45.485  30.231  34.198  1.00  0.00    -0.203 F 
ATOM     94  F   UNL A   1      44.635  26.007  37.545  1.00  0.00    -0.200 F 
ATOM     95  C   UNL A   1      46.127  27.495  36.481  1.00  0.00     0.200 A 
ATOM     96  F   UNL A   1      47.578  29.016  35.405  1.00  0.00    -0.200 F 
ATOM     97  F   UNL A   1      47.168  26.917  37.097  1.00  0.00    -0.200 F 
ENDBRANCH  64  87
ENDBRANCH  38  39
ENDBRANCH  30  33
ENDBRANCH  28  29
ENDBRANCH  27  28
ENDBRANCH  26  27
ENDBRANCH   1  26
TORSDOF 16
ENDMDL
MODEL 2
REMARK VINA RESULT:     -12.4      1.359      2.270
REMARK SMILES Cc1noc(C)c1[C@H](C)NC(=O)NC[C@@](C)(O)C(=O)NCCCCNC(=O)c1ccc(-c2c3nc(c(-c4c(F)c(F)c(F)c(F)c4F)c4ccc([nH]4)c(-c4c(F)c(F)c(F)c(F)c4F)c4nc(c(-c5c(F)c(F)c(F)c(F)c5F)c5ccc2[nH]5)C=C4)C=C3)cc1
REMARK SMILES IDX 21 1 20 2 18 3 19 4 15 6 16 7 14 8 13 9 10 10 11 11 12 13
REMARK SMILES IDX 8 15 9 16 7 17 1 18 2 19 3 20 4 21 5 22 6 23 17 24 22 26
REMARK SMILES IDX 23 27 24 28 25 29 26 30 27 32 28 33 29 34 90 35 30 36 89 37
REMARK SMILES IDX 31 38 32 39 33 40 83 41 34 42 88 43 82 44 84 45 35 46 87 47
REMARK SMILES IDX 81 48 80 49 36 51 68 52 48 53 67 54 49 55 52 56 66 57 85 58
REMARK SMILES IDX 50 59 51 60 65 62 86 63 53 64 37 65 38 66 46 67 39 68 40 69
REMARK SMILES IDX 44 70 47 71 41 72 42 73 45 74 43 75 69 76 70 77 78 78 71 79
REMARK SMILES IDX 72 80 76 81 79 82 73 83 74 84 77 85 75 86 54 87 55 88 63 89
REMARK SMILES IDX 56 90 57 91 61 92 64 93 58 94 59 95 62 96 60 97
REMARK H PARENT 20 5 10 12 13 14 17 25 25 31 84 50 52 61
REMARK Flexibility Score: inf
ROOT
ATOM      1  C   UNL A   1      32.421  29.822  25.644  1.00  0.00     0.116 C 
ENDROOT
BRANCH   1   2
ATOM      2  N   UNL A   1      31.412  30.127  24.649  1.00  0.00    -0.354 N 
ATOM      3  C   UNL A   1      30.718  29.320  23.789  1.00  0.00     0.253 C 
ATOM      4  O   UNL A   1      29.807  29.876  23.174  1.00  0.00    -0.272 OA
ATOM      5  H   UNL A   1      31.187  31.083  24.579  1.00  0.00     0.163 HD
BRANCH   3   6
ATOM      6  C   UNL A   1      31.001  27.789  23.703  1.00  0.00     0.157 C 
ATOM      7  C   UNL A   1      29.973  27.204  22.720  1.00  0.00     0.055 C 
BRANCH   6   8
ATOM      8  C   UNL A   1      32.438  27.373  23.248  1.00  0.00     0.162 C 
BRANCH   8   9
ATOM      9  N   UNL A   1      32.637  26.868  21.905  1.00  0.00    -0.335 N 
ATOM     10  N   UNL A   1      32.561  24.500  22.021  1.00  0.00    -0.331 N 
ATOM     11  C   UNL A   1      32.718  25.650  21.354  1.00  0.00     0.315 C 
ATOM     12  H   UNL A   1      32.788  23.708  21.481  1.00  0.00     0.165 HD
ATOM     13  O   UNL A   1      32.938  25.586  20.141  1.00  0.00    -0.249 OA
ATOM     14  H   UNL A   1      32.735  27.588  21.242  1.00  0.00     0.165 HD
BRANCH  10  15
ATOM     15  C   UNL A   1      32.131  24.167  23.367  1.00  0.00     0.116 C 
ATOM     16  C   UNL A   1      30.675  23.706  23.317  1.00  0.00     0.036 C 
BRANCH  15  17
ATOM     17  C   UNL A   1      33.098  23.174  23.952  1.00  0.00     0.040 A 
ATOM     18  C   UNL A   1      34.592  24.806  25.359  1.00  0.00     0.071 C 
ATOM     19  C   UNL A   1      34.178  23.483  24.840  1.00  0.00     0.086 A 
ATOM     20  N   UNL A   1      34.834  22.387  25.232  1.00  0.00    -0.085 NA
ATOM     21  O   UNL A   1      34.197  21.335  24.620  1.00  0.00    -0.361 OA
ATOM     22  C   UNL A   1      33.160  21.793  23.870  1.00  0.00     0.139 A 
ATOM     23  C   UNL A   1      32.377  20.734  23.201  1.00  0.00     0.091 C 
ENDBRANCH  15  17
ENDBRANCH  10  15
ENDBRANCH   8   9
ENDBRANCH   6   8
BRANCH   6  24
ATOM     24  O   UNL A   1      30.807  27.178  24.993  1.00  0.00    -0.378 OA
ATOM     25  H   UNL A   1      30.220  26.411  24.903  1.00  0.00     0.212 HD
ENDBRANCH   6  24
ENDBRANCH   3   6
ENDBRANCH   1   2
BRANCH   1  26
ATOM     26  C   UNL A   1      32.117  30.429  27.011  1.00  0.00     0.023 C 
BRANCH  26  27
ATOM     27  C   UNL A   1      31.754  31.917  27.018  1.00  0.00     0.023 C 
BRANCH  27  28
ATOM     28  C   UNL A   1      32.911  32.899  27.182  1.00  0.00     0.116 C 
BRANCH  28  29
ATOM     29  N   UNL A   1      32.506  34.206  27.672  1.00  0.00    -0.352 N 
ATOM     30  C   UNL A   1      33.038  34.975  28.680  1.00  0.00     0.251 C 
ATOM     31  H   UNL A   1      31.731  34.601  27.213  1.00  0.00     0.163 HD
ATOM     32  O   UNL A   1      32.496  36.033  28.989  1.00  0.00    -0.269 OA
BRANCH  30  33
ATOM     33  C   UNL A   1      34.233  34.519  29.427  1.00  0.00     0.039 A 
ATOM     34  C   UNL A   1      34.049  33.947  30.689  1.00  0.00     0.014 A 
ATOM     35  C   UNL A   1      35.519  34.641  28.898  1.00  0.00     0.014 A 
ATOM     36  C   UNL A   1      35.143  33.423  31.382  1.00  0.00     0.010 A 
ATOM     37  C   UNL A   1      36.597  34.050  29.553  1.00  0.00     0.010 A 
ATOM     38  C   UNL A   1      36.420  33.426  30.799  1.00  0.00    -0.014 A 
BRANCH  38  39
ATOM     39  C   UNL A   1      37.569  32.755  31.461  1.00  0.00     0.031 A 
ATOM     40  C   UNL A   1      38.252  31.586  30.811  1.00  0.00     0.074 A 
ATOM     41  C   UNL A   1      37.948  33.153  32.691  1.00  0.00     0.049 A 
ATOM     42  N   UNL A   1      39.223  30.836  31.265  1.00  0.00    -0.248 NA
ATOM     43  C   UNL A   1      37.755  31.190  29.485  1.00  0.00     0.031 C 
ATOM     44  C   UNL A   1      37.326  34.233  33.457  1.00  0.00     0.029 A 
ATOM     45  N   UNL A   1      38.935  32.681  33.522  1.00  0.00    -0.354 N 
ATOM     46  C   UNL A   1      39.446  29.874  30.290  1.00  0.00     0.074 A 
ATOM     47  C   UNL A   1      38.468  30.099  29.247  1.00  0.00     0.031 C 
ATOM     48  C   UNL A   1      37.951  34.350  34.639  1.00  0.00     0.029 A 
ATOM     49  C   UNL A   1      38.991  33.329  34.730  1.00  0.00     0.049 A 
ATOM     50  H   UNL A   1      39.543  31.948  33.273  1.00  0.00     0.167 HD
ATOM     51  C   UNL A   1      40.395  28.906  30.254  1.00  0.00     0.037 A 
ATOM     52  C   UNL A   1      39.781  33.118  35.801  1.00  0.00     0.037 A 
ATOM     53  C   UNL A   1      41.370  28.689  31.292  1.00  0.00     0.049 A 
ATOM     54  C   UNL A   1      40.823  32.036  35.746  1.00  0.00     0.074 A 
ATOM     55  C   UNL A   1      42.414  27.780  31.321  1.00  0.00     0.029 A 
ATOM     56  N   UNL A   1      41.412  29.381  32.494  1.00  0.00    -0.354 N 
ATOM     57  N   UNL A   1      41.083  31.187  34.781  1.00  0.00    -0.248 NA
ATOM     58  C   UNL A   1      41.687  31.888  36.924  1.00  0.00     0.031 C 
ATOM     59  C   UNL A   1      43.051  27.884  32.563  1.00  0.00     0.029 A 
ATOM     60  C   UNL A   1      42.444  28.898  33.286  1.00  0.00     0.049 A 
ATOM     61  H   UNL A   1      40.799  30.109  32.749  1.00  0.00     0.167 HD
ATOM     62  C   UNL A   1      42.148  30.416  35.226  1.00  0.00     0.074 A 
ATOM     63  C   UNL A   1      42.499  30.912  36.542  1.00  0.00     0.031 C 
ATOM     64  C   UNL A   1      42.777  29.390  34.600  1.00  0.00     0.037 A 
BRANCH  51  65
ATOM     65  C   UNL A   1      40.410  28.003  29.053  1.00  0.00     0.064 A 
ATOM     66  C   UNL A   1      41.168  28.306  27.911  1.00  0.00     0.173 A 
ATOM     67  C   UNL A   1      39.658  26.818  29.042  1.00  0.00     0.173 A 
ATOM     68  F   UNL A   1      41.899  29.430  27.864  1.00  0.00    -0.203 F 
ATOM     69  C   UNL A   1      41.134  27.485  26.786  1.00  0.00     0.198 A 
ATOM     70  C   UNL A   1      39.655  25.980  27.929  1.00  0.00     0.198 A 
ATOM     71  F   UNL A   1      38.923  26.471  30.109  1.00  0.00    -0.203 F 
ATOM     72  F   UNL A   1      41.810  27.834  25.683  1.00  0.00    -0.200 F 
ATOM     73  C   UNL A   1      40.380  26.321  26.797  1.00  0.00     0.200 A 
ATOM     74  F   UNL A   1      38.939  24.847  27.947  1.00  0.00    -0.200 F 
ATOM     75  F   UNL A   1      40.346  25.533  25.714  1.00  0.00    -0.200 F 
ENDBRANCH  51  65
BRANCH  52  76
ATOM     76  C   UNL A   1      39.616  33.970  37.006  1.00  0.00     0.064 A 
ATOM     77  C   UNL A   1      40.191  35.246  37.074  1.00  0.00     0.173 A 
ATOM     78  C   UNL A   1      38.848  33.541  38.099  1.00  0.00     0.173 A 
ATOM     79  F   UNL A   1      40.951  35.692  36.062  1.00  0.00    -0.203 F 
ATOM     80  C   UNL A   1      40.010  36.059  38.190  1.00  0.00     0.198 A 
ATOM     81  C   UNL A   1      38.644  34.366  39.204  1.00  0.00     0.198 A 
ATOM     82  F   UNL A   1      38.272  32.331  38.080  1.00  0.00    -0.203 F 
ATOM     83  F   UNL A   1      40.595  37.263  38.243  1.00  0.00    -0.200 F 
ATOM     84  C   UNL A   1      39.228  35.622  39.251  1.00  0.00     0.200 A 
ATOM     85  F   UNL A   1      37.875  33.946  40.217  1.00  0.00    -0.200 F 
ATOM     86  F   UNL A   1      39.041  36.411  40.317  1.00  0.00    -0.200 F 
ENDBRANCH  52  76
BRANCH  64  87
ATOM     87  C   UNL A   1      43.922  28.741  35.324  1.00  0.00     0.064 A 
ATOM     88  C   UNL A   1      43.729  27.632  36.163  1.00  0.00     0.173 A 
ATOM     89  C   UNL A   1      45.233  29.209  35.148  1.00  0.00     0.173 A 
ATOM     90  F   UNL A   1      42.494  27.155  36.379  1.00  0.00    -0.203 F 
ATOM     91  C   UNL A   1      44.804  27.033  36.816  1.00  0.00     0.198 A 
ATOM     92  C   UNL A   1      46.308  28.587  35.777  1.00  0.00     0.198 A 
ATOM     93  F   UNL A   1      45.474  30.262  34.352  1.00  0.00    -0.203 F 
ATOM     94  F   UNL A   1      44.589  26.005  37.649  1.00  0.00    -0.200 F 
ATOM     95  C   UNL A   1      46.092  27.505  36.616  1.00  0.00     0.200 A 
ATOM     96  F   UNL A   1      47.554  29.036  35.571  1.00  0.00    -0.200 F 
ATOM     97  F   UNL A   1      47.126  26.921  37.238  1.00  0.00    -0.200 F 
ENDBRANCH  64  87
ENDBRANCH  38  39
ENDBRANCH  30  33
ENDBRANCH  28  29
ENDBRANCH  27  28
ENDBRANCH  26  27
ENDBRANCH   1  26
TORSDOF 16
ENDMDL
MODEL 3
REMARK VINA RESULT:     -12.4      1.292      2.330
REMARK SMILES Cc1noc(C)c1[C@H](C)NC(=O)NC[C@@](C)(O)C(=O)NCCCCNC(=O)c1ccc(-c2c3nc(c(-c4c(F)c(F)c(F)c(F)c4F)c4ccc([nH]4)c(-c4c(F)c(F)c(F)c(F)c4F)c4nc(c(-c5c(F)c(F)c(F)c(F)c5F)c5ccc2[nH]5)C=C4)C=C3)cc1
REMARK SMILES IDX 21 1 20 2 18 3 19 4 15 6 16 7 14 8 13 9 10 10 11 11 12 13
REMARK SMILES IDX 8 15 9 16 7 17 1 18 2 19 3 20 4 21 5 22 6 23 17 24 22 26
REMARK SMILES IDX 23 27 24 28 25 29 26 30 27 32 28 33 29 34 90 35 30 36 89 37
REMARK SMILES IDX 31 38 32 39 33 40 83 41 34 42 88 43 82 44 84 45 35 46 87 47
REMARK SMILES IDX 81 48 80 49 36 51 68 52 48 53 67 54 49 55 52 56 66 57 85 58
REMARK SMILES IDX 50 59 51 60 65 62 86 63 53 64 37 65 38 66 46 67 39 68 40 69
REMARK SMILES IDX 44 70 47 71 41 72 42 73 45 74 43 75 69 76 70 77 78 78 71 79
REMARK SMILES IDX 72 80 76 81 79 82 73 83 74 84 77 85 75 86 54 87 55 88 63 89
REMARK SMILES IDX 56 90 57 91 61 92 64 93 58 94 59 95 62 96 60 97
REMARK H PARENT 20 5 10 12 13 14 17 25 25 31 84 50 52 61
REMARK Flexibility Score: inf
ROOT
ATOM      1  C   UNL A   1      33.048  30.109  26.186  1.00  0.00     0.116 C 
ENDROOT
BRANCH   1   2
ATOM      2  N   UNL A   1      33.290  29.816  24.787  1.00  0.00    -0.354 N 
ATOM      3  C   UNL A   1      33.390  28.627  24.117  1.00  0.00     0.253 C 
ATOM      4  O   UNL A   1      33.441  28.724  22.890  1.00  0.00    -0.272 OA
ATOM      5  H   UNL A   1      33.400  30.613  24.219  1.00  0.00     0.163 HD
BRANCH   3   6
ATOM      6  C   UNL A   1      33.322  27.262  24.867  1.00  0.00     0.157 C 
ATOM      7  C   UNL A   1      31.832  26.917  25.023  1.00  0.00     0.055 C 
BRANCH   6   8
ATOM      8  C   UNL A   1      34.058  26.060  24.188  1.00  0.00     0.162 C 
BRANCH   8   9
ATOM      9  N   UNL A   1      33.688  25.674  22.842  1.00  0.00    -0.335 N 
ATOM     10  N   UNL A   1      32.970  23.415  22.925  1.00  0.00    -0.331 N 
ATOM     11  C   UNL A   1      33.244  24.548  22.268  1.00  0.00     0.315 C 
ATOM     12  H   UNL A   1      32.784  22.657  22.324  1.00  0.00     0.165 HD
ATOM     13  O   UNL A   1      33.060  24.564  21.048  1.00  0.00    -0.249 OA
ATOM     14  H   UNL A   1      33.786  26.411  22.198  1.00  0.00     0.165 HD
BRANCH  10  15
ATOM     15  C   UNL A   1      32.888  23.060  24.331  1.00  0.00     0.116 C 
ATOM     16  C   UNL A   1      31.421  22.841  24.697  1.00  0.00     0.036 C 
BRANCH  15  17
ATOM     17  C   UNL A   1      33.795  21.887  24.587  1.00  0.00     0.040 A 
ATOM     18  C   UNL A   1      35.813  23.138  25.699  1.00  0.00     0.071 C 
ATOM     19  C   UNL A   1      35.086  21.949  25.203  1.00  0.00     0.086 A 
ATOM     20  N   UNL A   1      35.633  20.738  25.342  1.00  0.00    -0.085 NA
ATOM     21  O   UNL A   1      34.713  19.854  24.830  1.00  0.00    -0.361 OA
ATOM     22  C   UNL A   1      33.616  20.528  24.393  1.00  0.00     0.139 A 
ATOM     23  C   UNL A   1      32.543  19.664  23.862  1.00  0.00     0.091 C 
ENDBRANCH  15  17
ENDBRANCH  10  15
ENDBRANCH   8   9
ENDBRANCH   6   8
BRANCH   6  24
ATOM     24  O   UNL A   1      33.907  27.389  26.177  1.00  0.00    -0.378 OA
ATOM     25  H   UNL A   1      34.818  27.057  26.158  1.00  0.00     0.212 HD
ENDBRANCH   6  24
ENDBRANCH   3   6
ENDBRANCH   1   2
BRANCH   1  26
ATOM     26  C   UNL A   1      31.623  30.581  26.463  1.00  0.00     0.023 C 
BRANCH  26  27
ATOM     27  C   UNL A   1      31.448  32.086  26.683  1.00  0.00     0.023 C 
BRANCH  27  28
ATOM     28  C   UNL A   1      32.627  32.824  27.311  1.00  0.00     0.116 C 
BRANCH  28  29
ATOM     29  N   UNL A   1      32.328  34.198  27.682  1.00  0.00    -0.352 N 
ATOM     30  C   UNL A   1      32.952  35.023  28.587  1.00  0.00     0.251 C 
ATOM     31  H   UNL A   1      31.561  34.599  27.214  1.00  0.00     0.163 HD
ATOM     32  O   UNL A   1      32.493  36.141  28.809  1.00  0.00    -0.269 OA
BRANCH  30  33
ATOM     33  C   UNL A   1      34.146  34.562  29.332  1.00  0.00     0.039 A 
ATOM     34  C   UNL A   1      33.970  34.058  30.624  1.00  0.00     0.014 A 
ATOM     35  C   UNL A   1      35.424  34.612  28.772  1.00  0.00     0.014 A 
ATOM     36  C   UNL A   1      35.059  33.529  31.320  1.00  0.00     0.010 A 
ATOM     37  C   UNL A   1      36.495  34.015  29.434  1.00  0.00     0.010 A 
ATOM     38  C   UNL A   1      36.322  33.459  30.712  1.00  0.00    -0.014 A 
BRANCH  38  39
ATOM     39  C   UNL A   1      37.462  32.780  31.383  1.00  0.00     0.031 A 
ATOM     40  C   UNL A   1      38.131  31.597  30.747  1.00  0.00     0.074 A 
ATOM     41  C   UNL A   1      37.843  33.185  32.611  1.00  0.00     0.049 A 
ATOM     42  N   UNL A   1      39.092  30.838  31.211  1.00  0.00    -0.248 NA
ATOM     43  C   UNL A   1      37.633  31.193  29.424  1.00  0.00     0.031 C 
ATOM     44  C   UNL A   1      37.232  34.280  33.365  1.00  0.00     0.029 A 
ATOM     45  N   UNL A   1      38.821  32.709  33.449  1.00  0.00    -0.354 N 
ATOM     46  C   UNL A   1      39.305  29.865  30.245  1.00  0.00     0.074 A 
ATOM     47  C   UNL A   1      38.332  30.091  29.198  1.00  0.00     0.031 C 
ATOM     48  C   UNL A   1      37.856  34.400  34.547  1.00  0.00     0.029 A 
ATOM     49  C   UNL A   1      38.883  33.367  34.651  1.00  0.00     0.049 A 
ATOM     50  H   UNL A   1      39.421  31.966  33.209  1.00  0.00     0.167 HD
ATOM     51  C   UNL A   1      40.242  28.884  30.221  1.00  0.00     0.037 A 
ATOM     52  C   UNL A   1      39.668  33.158  35.725  1.00  0.00     0.037 A 
ATOM     53  C   UNL A   1      41.211  28.665  31.264  1.00  0.00     0.049 A 
ATOM     54  C   UNL A   1      40.696  32.061  35.683  1.00  0.00     0.074 A 
ATOM     55  C   UNL A   1      42.244  27.744  31.304  1.00  0.00     0.029 A 
ATOM     56  N   UNL A   1      41.259  29.368  32.459  1.00  0.00    -0.354 N 
ATOM     57  N   UNL A   1      40.948  31.201  34.727  1.00  0.00    -0.248 NA
ATOM     58  C   UNL A   1      41.556  31.914  36.865  1.00  0.00     0.031 C 
ATOM     59  C   UNL A   1      42.879  27.852  32.546  1.00  0.00     0.029 A 
ATOM     60  C   UNL A   1      42.283  28.880  33.258  1.00  0.00     0.049 A 
ATOM     61  H   UNL A   1      40.655  30.106  32.706  1.00  0.00     0.167 HD
ATOM     62  C   UNL A   1      42.002  30.420  35.183  1.00  0.00     0.074 A 
ATOM     63  C   UNL A   1      42.357  30.925  36.494  1.00  0.00     0.031 C 
ATOM     64  C   UNL A   1      42.620  29.381  34.568  1.00  0.00     0.037 A 
BRANCH  51  65
ATOM     65  C   UNL A   1      40.248  27.969  29.029  1.00  0.00     0.064 A 
ATOM     66  C   UNL A   1      39.542  26.756  29.024  1.00  0.00     0.173 A 
ATOM     67  C   UNL A   1      40.971  28.309  27.874  1.00  0.00     0.173 A 
ATOM     68  F   UNL A   1      38.841  26.378  30.103  1.00  0.00    -0.203 F 
ATOM     69  C   UNL A   1      39.597  25.896  27.929  1.00  0.00     0.198 A 
ATOM     70  C   UNL A   1      40.995  27.463  26.768  1.00  0.00     0.198 A 
ATOM     71  F   UNL A   1      41.656  29.460  27.818  1.00  0.00    -0.203 F 
ATOM     72  F   UNL A   1      38.972  24.712  27.978  1.00  0.00    -0.200 F 
ATOM     73  C   UNL A   1      40.320  26.251  26.801  1.00  0.00     0.200 A 
ATOM     74  F   UNL A   1      41.680  27.815  25.671  1.00  0.00    -0.200 F 
ATOM     75  F   UNL A   1      40.376  25.422  25.750  1.00  0.00    -0.200 F 
ENDBRANCH  51  65
BRANCH  52  76
ATOM     76  C   UNL A   1      39.511  34.023  36.922  1.00  0.00     0.064 A 
ATOM     77  C   UNL A   1      38.749  33.604  38.021  1.00  0.00     0.173 A 
ATOM     78  C   UNL A   1      40.149  35.269  37.007  1.00  0.00     0.173 A 
ATOM     79  F   UNL A   1      38.103  32.429  37.979  1.00  0.00    -0.203 F 
ATOM     80  C   UNL A   1      38.627  34.400  39.157  1.00  0.00     0.198 A 
ATOM     81  C   UNL A   1      40.049  36.053  38.155  1.00  0.00     0.198 A 
ATOM     82  F   UNL A   1      40.894  35.712  35.984  1.00  0.00    -0.203 F 
ATOM     83  F   UNL A   1      37.869  33.990  40.183  1.00  0.00    -0.200 F 
ATOM     84  C   UNL A   1      39.285  35.620  39.228  1.00  0.00     0.200 A 
ATOM     85  F   UNL A   1      40.700  37.221  38.224  1.00  0.00    -0.200 F 
ATOM     86  F   UNL A   1      39.181  36.378  40.327  1.00  0.00    -0.200 F 
ENDBRANCH  52  76
BRANCH  64  87
ATOM     87  C   UNL A   1      43.754  28.724  35.301  1.00  0.00     0.064 A 
ATOM     88  C   UNL A   1      45.085  29.124  35.108  1.00  0.00     0.173 A 
ATOM     89  C   UNL A   1      43.505  27.707  36.235  1.00  0.00     0.173 A 
ATOM     90  F   UNL A   1      45.381  30.081  34.215  1.00  0.00    -0.203 F 
ATOM     91  C   UNL A   1      46.125  28.514  35.807  1.00  0.00     0.198 A 
ATOM     92  C   UNL A   1      44.544  27.122  36.954  1.00  0.00     0.198 A 
ATOM     93  F   UNL A   1      42.250  27.290  36.462  1.00  0.00    -0.203 F 
ATOM     94  F   UNL A   1      47.393  28.881  35.571  1.00  0.00    -0.200 F 
ATOM     95  C   UNL A   1      45.853  27.521  36.734  1.00  0.00     0.200 A 
ATOM     96  F   UNL A   1      44.276  26.171  37.860  1.00  0.00    -0.200 F 
ATOM     97  F   UNL A   1      46.854  26.941  37.412  1.00  0.00    -0.200 F 
ENDBRANCH  64  87
ENDBRANCH  38  39
ENDBRANCH  30  33
ENDBRANCH  28  29
ENDBRANCH  27  28
ENDBRANCH  26  27
ENDBRANCH   1  26
TORSDOF 16
ENDMDL
