MODEL 1
REMARK VINA RESULT:     -13.1      0.000      0.000
REMARK SMILES CCn1ncc(-c2cc(C(F)(F)F)nc(-n3ccc(C(=O)NCCCCNC(=O)c4ccc(-c5c6nc(c(-c7c(F)c(F)c(F)c(F)c7F)c7ccc([nH]7)c(-c7c(F)c(F)c(F)c(F)c7F)c7nc(c(-c8c(F)c(F)c(F)c(F)c8F)c8ccc5[nH]8)C=C7)C=C6)cc4)n3)n2)c1C
REMARK SMILES IDX 24 1 23 2 22 3 20 4 21 5 19 7 16 8 17 9 93 10 18 11 15 12
REMARK SMILES IDX 7 13 8 14 94 15 9 16 14 17 6 18 3 19 4 20 95 21 5 22 96 23
REMARK SMILES IDX 2 24 1 25 10 26 11 27 12 28 13 29 25 30 26 31 27 32 28 33
REMARK SMILES IDX 29 35 30 36 31 37 92 38 32 39 91 40 33 41 34 42 35 43 85 44
REMARK SMILES IDX 36 45 90 46 84 47 86 48 37 49 89 50 83 51 82 52 38 54 70 55
REMARK SMILES IDX 50 56 69 57 51 58 54 59 68 60 87 61 52 62 53 63 67 65 88 66
REMARK SMILES IDX 55 67 39 68 40 69 48 70 41 71 42 72 46 73 49 74 43 75 44 76
REMARK SMILES IDX 47 77 45 78 71 79 72 80 80 81 73 82 74 83 78 84 81 85 75 86
REMARK SMILES IDX 76 87 79 88 77 89 56 90 57 91 65 92 58 93 59 94 63 95 66 96
REMARK SMILES IDX 60 97 61 98 64 99 62 100
REMARK H PARENT 22 6 27 34 86 53 54 64
REMARK Flexibility Score: inf
ROOT
ATOM      1  C   UNL A   1      41.917  21.277  27.627  1.00  0.00     0.023 C 
ENDROOT
BRANCH   1   2
ATOM      2  C   UNL A   1      40.388  21.390  27.603  1.00  0.00     0.116 C 
BRANCH   2   3
ATOM      3  N   UNL A   1      39.918  22.718  27.235  1.00  0.00    -0.351 N 
ATOM      4  C   UNL A   1      38.879  23.119  26.423  1.00  0.00     0.271 C 
ATOM      5  O   UNL A   1      38.748  24.337  26.232  1.00  0.00    -0.267 OA
ATOM      6  H   UNL A   1      40.429  23.458  27.636  1.00  0.00     0.163 HD
BRANCH   4   7
ATOM      7  C   UNL A   1      38.004  22.150  25.744  1.00  0.00     0.150 A 
ATOM      8  N   UNL A   1      36.217  21.169  25.081  1.00  0.00    -0.205 N 
ATOM      9  C   UNL A   1      37.216  20.234  24.933  1.00  0.00     0.119 A 
ATOM     10  N   UNL A   1      36.719  22.385  25.420  1.00  0.00    -0.160 NA
ATOM     11  C   UNL A   1      38.386  20.853  25.302  1.00  0.00     0.056 A 
BRANCH   8  12
ATOM     12  C   UNL A   1      34.806  20.937  24.998  1.00  0.00     0.251 A 
ATOM     13  C   UNL A   1      32.668  21.596  25.487  1.00  0.00     0.080 A 
ATOM     14  C   UNL A   1      32.146  20.420  24.998  1.00  0.00     0.062 A 
ATOM     15  N   UNL A   1      33.985  21.841  25.559  1.00  0.00    -0.211 NA
ATOM     16  C   UNL A   1      33.054  19.518  24.469  1.00  0.00     0.150 A 
ATOM     17  N   UNL A   1      34.386  19.796  24.410  1.00  0.00    -0.207 NA
BRANCH  13  18
ATOM     18  C   UNL A   1      31.799  22.693  25.854  1.00  0.00     0.041 A 
ATOM     19  N   UNL A   1      30.540  24.490  25.700  1.00  0.00    -0.269 N 
ATOM     20  N   UNL A   1      30.314  24.028  26.948  1.00  0.00    -0.181 NA
ATOM     21  C   UNL A   1      31.435  23.721  24.994  1.00  0.00     0.045 A 
ATOM     22  C   UNL A   1      31.088  22.947  27.041  1.00  0.00     0.145 A 
ATOM     23  C   UNL A   1      31.838  23.989  23.586  1.00  0.00     0.067 C 
BRANCH  19  24
ATOM     24  C   UNL A   1      29.877  25.716  25.285  1.00  0.00     0.141 C 
ATOM     25  C   UNL A   1      30.761  26.952  25.344  1.00  0.00     0.029 C 
ENDBRANCH  19  24
ENDBRANCH  13  18
BRANCH  16  26
ATOM     26  C   UNL A   1      32.567  18.161  23.985  1.00  0.00     0.433 C 
ATOM     27  F   UNL A   1      31.818  17.497  24.909  1.00  0.00    -0.165 F 
ATOM     28  F   UNL A   1      31.794  18.256  22.865  1.00  0.00    -0.165 F 
ATOM     29  F   UNL A   1      33.584  17.311  23.655  1.00  0.00    -0.165 F 
ENDBRANCH  16  26
ENDBRANCH   8  12
ENDBRANCH   4   7
ENDBRANCH   2   3
ENDBRANCH   1   2
BRANCH   1  30
ATOM     30  C   UNL A   1      42.518  19.973  27.085  1.00  0.00     0.023 C 
BRANCH  30  31
ATOM     31  C   UNL A   1      42.530  19.843  25.567  1.00  0.00     0.116 C 
BRANCH  31  32
ATOM     32  N   UNL A   1      43.848  19.527  25.021  1.00  0.00    -0.352 N 
ATOM     33  C   UNL A   1      44.806  20.408  24.571  1.00  0.00     0.251 C 
ATOM     34  H   UNL A   1      44.077  18.571  24.967  1.00  0.00     0.163 HD
ATOM     35  O   UNL A   1      45.672  20.040  23.774  1.00  0.00    -0.269 OA
BRANCH  33  36
ATOM     36  C   UNL A   1      44.789  21.804  25.041  1.00  0.00     0.039 A 
ATOM     37  C   UNL A   1      43.896  22.730  24.495  1.00  0.00     0.014 A 
ATOM     38  C   UNL A   1      45.674  22.186  26.050  1.00  0.00     0.014 A 
ATOM     39  C   UNL A   1      43.834  24.010  25.041  1.00  0.00     0.010 A 
ATOM     40  C   UNL A   1      45.537  23.411  26.664  1.00  0.00     0.010 A 
ATOM     41  C   UNL A   1      44.632  24.336  26.154  1.00  0.00    -0.014 A 
BRANCH  41  42
ATOM     42  C   UNL A   1      44.356  25.562  26.906  1.00  0.00     0.031 A 
ATOM     43  C   UNL A   1      45.302  26.662  26.573  1.00  0.00     0.074 A 
ATOM     44  C   UNL A   1      43.253  25.774  27.659  1.00  0.00     0.049 A 
ATOM     45  N   UNL A   1      46.206  27.171  27.340  1.00  0.00    -0.248 NA
ATOM     46  C   UNL A   1      45.372  27.143  25.181  1.00  0.00     0.031 C 
ATOM     47  C   UNL A   1      42.092  24.887  27.790  1.00  0.00     0.029 A 
ATOM     48  N   UNL A   1      42.872  26.870  28.390  1.00  0.00    -0.354 N 
ATOM     49  C   UNL A   1      46.778  28.213  26.612  1.00  0.00     0.074 A 
ATOM     50  C   UNL A   1      46.392  28.004  25.245  1.00  0.00     0.031 C 
ATOM     51  C   UNL A   1      41.058  25.564  28.336  1.00  0.00     0.029 A 
ATOM     52  C   UNL A   1      41.525  26.873  28.754  1.00  0.00     0.049 A 
ATOM     53  H   UNL A   1      43.495  27.592  28.635  1.00  0.00     0.167 HD
ATOM     54  C   UNL A   1      47.210  29.326  27.268  1.00  0.00     0.037 A 
ATOM     55  C   UNL A   1      40.834  27.876  29.353  1.00  0.00     0.037 A 
ATOM     56  C   UNL A   1      47.308  29.057  28.681  1.00  0.00     0.049 A 
ATOM     57  C   UNL A   1      41.814  28.753  30.027  1.00  0.00     0.074 A 
ATOM     58  C   UNL A   1      48.162  28.394  29.532  1.00  0.00     0.029 A 
ATOM     59  N   UNL A   1      46.117  29.207  29.335  1.00  0.00    -0.354 N 
ATOM     60  N   UNL A   1      42.502  28.388  31.073  1.00  0.00    -0.248 NA
ATOM     61  C   UNL A   1      42.288  29.954  29.348  1.00  0.00     0.031 C 
ATOM     62  C   UNL A   1      47.400  28.072  30.697  1.00  0.00     0.029 A 
ATOM     63  C   UNL A   1      46.116  28.589  30.552  1.00  0.00     0.049 A 
ATOM     64  H   UNL A   1      45.349  29.702  28.971  1.00  0.00     0.167 HD
ATOM     65  C   UNL A   1      43.713  29.023  30.907  1.00  0.00     0.074 A 
ATOM     66  C   UNL A   1      43.463  30.104  29.964  1.00  0.00     0.031 C 
ATOM     67  C   UNL A   1      44.871  28.393  31.252  1.00  0.00     0.037 A 
BRANCH  54  68
ATOM     68  C   UNL A   1      47.000  30.759  26.793  1.00  0.00     0.064 A 
ATOM     69  C   UNL A   1      48.085  31.662  26.889  1.00  0.00     0.173 A 
ATOM     70  C   UNL A   1      45.741  31.361  26.583  1.00  0.00     0.173 A 
ATOM     71  F   UNL A   1      49.333  31.214  27.093  1.00  0.00    -0.203 F 
ATOM     72  C   UNL A   1      47.904  33.050  26.876  1.00  0.00     0.198 A 
ATOM     73  C   UNL A   1      45.571  32.746  26.527  1.00  0.00     0.198 A 
ATOM     74  F   UNL A   1      44.606  30.659  26.532  1.00  0.00    -0.203 F 
ATOM     75  F   UNL A   1      48.947  33.860  27.102  1.00  0.00    -0.200 F 
ATOM     76  C   UNL A   1      46.645  33.590  26.706  1.00  0.00     0.200 A 
ATOM     77  F   UNL A   1      44.338  33.250  26.381  1.00  0.00    -0.200 F 
ATOM     78  F   UNL A   1      46.456  34.915  26.759  1.00  0.00    -0.200 F 
ENDBRANCH  54  68
BRANCH  55  79
ATOM     79  C   UNL A   1      39.400  28.249  29.272  1.00  0.00     0.064 A 
ATOM     80  C   UNL A   1      38.604  28.325  30.431  1.00  0.00     0.173 A 
ATOM     81  C   UNL A   1      38.867  28.838  28.111  1.00  0.00     0.173 A 
ATOM     82  F   UNL A   1      39.045  27.812  31.589  1.00  0.00    -0.203 F 
ATOM     83  C   UNL A   1      37.380  29.001  30.441  1.00  0.00     0.198 A 
ATOM     84  C   UNL A   1      37.641  29.507  28.122  1.00  0.00     0.198 A 
ATOM     85  F   UNL A   1      39.572  28.862  26.971  1.00  0.00    -0.203 F 
ATOM     86  F   UNL A   1      36.692  29.120  31.585  1.00  0.00    -0.200 F 
ATOM     87  C   UNL A   1      36.908  29.608  29.290  1.00  0.00     0.200 A 
ATOM     88  F   UNL A   1      37.208  30.117  27.009  1.00  0.00    -0.200 F 
ATOM     89  F   UNL A   1      35.775  30.322  29.317  1.00  0.00    -0.200 F 
ENDBRANCH  55  79
BRANCH  67  90
ATOM     90  C   UNL A   1      44.801  27.345  32.314  1.00  0.00     0.064 A 
ATOM     91  C   UNL A   1      44.762  27.600  33.694  1.00  0.00     0.173 A 
ATOM     92  C   UNL A   1      44.706  26.012  31.893  1.00  0.00     0.173 A 
ATOM     93  F   UNL A   1      44.778  28.854  34.167  1.00  0.00    -0.203 F 
ATOM     94  C   UNL A   1      44.668  26.554  34.610  1.00  0.00     0.198 A 
ATOM     95  C   UNL A   1      44.573  24.975  32.807  1.00  0.00     0.198 A 
ATOM     96  F   UNL A   1      44.708  25.719  30.583  1.00  0.00    -0.203 F 
ATOM     97  F   UNL A   1      44.655  26.812  35.926  1.00  0.00    -0.200 F 
ATOM     98  C   UNL A   1      44.566  25.244  34.165  1.00  0.00     0.200 A 
ATOM     99  F   UNL A   1      44.436  23.716  32.369  1.00  0.00    -0.200 F 
ATOM    100  F   UNL A   1      44.441  24.240  35.045  1.00  0.00    -0.200 F 
ENDBRANCH  67  90
ENDBRANCH  41  42
ENDBRANCH  33  36
ENDBRANCH  31  32
ENDBRANCH  30  31
ENDBRANCH   1  30
TORSDOF 15
ENDMDL
MODEL 2
REMARK VINA RESULT:     -13.1      1.911      2.582
REMARK SMILES CCn1ncc(-c2cc(C(F)(F)F)nc(-n3ccc(C(=O)NCCCCNC(=O)c4ccc(-c5c6nc(c(-c7c(F)c(F)c(F)c(F)c7F)c7ccc([nH]7)c(-c7c(F)c(F)c(F)c(F)c7F)c7nc(c(-c8c(F)c(F)c(F)c(F)c8F)c8ccc5[nH]8)C=C7)C=C6)cc4)n3)n2)c1C
REMARK SMILES IDX 24 1 23 2 22 3 20 4 21 5 19 7 16 8 17 9 93 10 18 11 15 12
REMARK SMILES IDX 7 13 8 14 94 15 9 16 14 17 6 18 3 19 4 20 95 21 5 22 96 23
REMARK SMILES IDX 2 24 1 25 10 26 11 27 12 28 13 29 25 30 26 31 27 32 28 33
REMARK SMILES IDX 29 35 30 36 31 37 92 38 32 39 91 40 33 41 34 42 35 43 85 44
REMARK SMILES IDX 36 45 90 46 84 47 86 48 37 49 89 50 83 51 82 52 38 54 70 55
REMARK SMILES IDX 50 56 69 57 51 58 54 59 68 60 87 61 52 62 53 63 67 65 88 66
REMARK SMILES IDX 55 67 39 68 40 69 48 70 41 71 42 72 46 73 49 74 43 75 44 76
REMARK SMILES IDX 47 77 45 78 71 79 72 80 80 81 73 82 74 83 78 84 81 85 75 86
REMARK SMILES IDX 76 87 79 88 77 89 56 90 57 91 65 92 58 93 59 94 63 95 66 96
REMARK SMILES IDX 60 97 61 98 64 99 62 100
REMARK H PARENT 22 6 27 34 86 53 54 64
REMARK Flexibility Score: inf
ROOT
ATOM      1  C   UNL A   1      40.248  21.677  26.759  1.00  0.00     0.023 C 
ENDROOT
BRANCH   1   2
ATOM      2  C   UNL A   1      38.936  22.087  26.080  1.00  0.00     0.116 C 
BRANCH   2   3
ATOM      3  N   UNL A   1      38.143  20.952  25.630  1.00  0.00    -0.351 N 
ATOM      4  C   UNL A   1      36.912  20.893  25.013  1.00  0.00     0.271 C 
ATOM      5  O   UNL A   1      36.440  19.766  24.802  1.00  0.00    -0.267 OA
ATOM      6  H   UNL A   1      38.558  20.074  25.795  1.00  0.00     0.163 HD
BRANCH   4   7
ATOM      7  C   UNL A   1      36.148  22.107  24.684  1.00  0.00     0.150 A 
ATOM      8  N   UNL A   1      34.579  23.567  24.708  1.00  0.00    -0.205 N 
ATOM      9  C   UNL A   1      35.247  23.776  23.522  1.00  0.00     0.119 A 
ATOM     10  N   UNL A   1      35.224  22.661  25.489  1.00  0.00    -0.160 NA
ATOM     11  C   UNL A   1      36.294  22.886  23.504  1.00  0.00     0.056 A 
BRANCH   8  12
ATOM     12  C   UNL A   1      33.316  24.123  25.090  1.00  0.00     0.251 A 
ATOM     13  C   UNL A   1      31.957  25.952  25.326  1.00  0.00     0.080 A 
ATOM     14  C   UNL A   1      30.994  25.208  25.970  1.00  0.00     0.062 A 
ATOM     15  N   UNL A   1      33.141  25.447  24.945  1.00  0.00    -0.211 NA
ATOM     16  C   UNL A   1      31.258  23.857  26.117  1.00  0.00     0.150 A 
ATOM     17  N   UNL A   1      32.395  23.292  25.625  1.00  0.00    -0.207 NA
BRANCH  13  18
ATOM     18  C   UNL A   1      31.691  27.315  24.922  1.00  0.00     0.041 A 
ATOM     19  N   UNL A   1      30.657  29.081  24.113  1.00  0.00    -0.269 N 
ATOM     20  N   UNL A   1      31.757  29.582  24.714  1.00  0.00    -0.181 NA
ATOM     21  C   UNL A   1      30.569  27.711  24.206  1.00  0.00     0.045 A 
ATOM     22  C   UNL A   1      32.386  28.507  25.192  1.00  0.00     0.145 A 
ATOM     23  C   UNL A   1      29.443  26.908  23.655  1.00  0.00     0.067 C 
BRANCH  19  24
ATOM     24  C   UNL A   1      29.762  30.001  23.431  1.00  0.00     0.141 C 
ATOM     25  C   UNL A   1      29.884  29.979  21.916  1.00  0.00     0.029 C 
ENDBRANCH  19  24
ENDBRANCH  13  18
BRANCH  16  26
ATOM     26  C   UNL A   1      30.282  22.984  26.891  1.00  0.00     0.433 C 
ATOM     27  F   UNL A   1      30.810  22.471  28.038  1.00  0.00    -0.165 F 
ATOM     28  F   UNL A   1      29.158  23.662  27.260  1.00  0.00    -0.165 F 
ATOM     29  F   UNL A   1      29.841  21.908  26.176  1.00  0.00    -0.165 F 
ENDBRANCH  16  26
ENDBRANCH   8  12
ENDBRANCH   4   7
ENDBRANCH   2   3
ENDBRANCH   1   2
BRANCH   1  30
ATOM     30  C   UNL A   1      40.739  20.247  26.498  1.00  0.00     0.023 C 
BRANCH  30  31
ATOM     31  C   UNL A   1      42.088  19.898  27.114  1.00  0.00     0.116 C 
BRANCH  31  32
ATOM     32  N   UNL A   1      43.124  19.615  26.123  1.00  0.00    -0.352 N 
ATOM     33  C   UNL A   1      43.778  20.513  25.309  1.00  0.00     0.251 C 
ATOM     34  H   UNL A   1      43.384  18.670  26.026  1.00  0.00     0.163 HD
ATOM     35  O   UNL A   1      44.305  20.138  24.259  1.00  0.00    -0.269 OA
BRANCH  33  36
ATOM     36  C   UNL A   1      43.839  21.933  25.693  1.00  0.00     0.039 A 
ATOM     37  C   UNL A   1      43.042  22.883  25.047  1.00  0.00     0.014 A 
ATOM     38  C   UNL A   1      44.699  22.317  26.723  1.00  0.00     0.014 A 
ATOM     39  C   UNL A   1      43.046  24.195  25.511  1.00  0.00     0.010 A 
ATOM     40  C   UNL A   1      44.621  23.585  27.254  1.00  0.00     0.010 A 
ATOM     41  C   UNL A   1      43.811  24.536  26.643  1.00  0.00    -0.014 A 
BRANCH  41  42
ATOM     42  C   UNL A   1      43.588  25.823  27.305  1.00  0.00     0.031 A 
ATOM     43  C   UNL A   1      44.564  26.861  26.878  1.00  0.00     0.074 A 
ATOM     44  C   UNL A   1      42.505  26.128  28.055  1.00  0.00     0.049 A 
ATOM     45  N   UNL A   1      45.497  27.395  27.593  1.00  0.00    -0.248 NA
ATOM     46  C   UNL A   1      44.629  27.236  25.453  1.00  0.00     0.031 C 
ATOM     47  C   UNL A   1      41.317  25.294  28.267  1.00  0.00     0.029 A 
ATOM     48  N   UNL A   1      42.172  27.287  28.706  1.00  0.00    -0.354 N 
ATOM     49  C   UNL A   1      46.092  28.360  26.781  1.00  0.00     0.074 A 
ATOM     50  C   UNL A   1      45.678  28.063  25.439  1.00  0.00     0.031 C 
ATOM     51  C   UNL A   1      40.315  26.044  28.774  1.00  0.00     0.029 A 
ATOM     52  C   UNL A   1      40.832  27.364  29.087  1.00  0.00     0.049 A 
ATOM     53  H   UNL A   1      42.822  28.004  28.889  1.00  0.00     0.167 HD
ATOM     54  C   UNL A   1      46.571  29.503  27.346  1.00  0.00     0.037 A 
ATOM     55  C   UNL A   1      40.184  28.431  29.619  1.00  0.00     0.037 A 
ATOM     56  C   UNL A   1      46.682  29.336  28.774  1.00  0.00     0.049 A 
ATOM     57  C   UNL A   1      41.204  29.322  30.213  1.00  0.00     0.074 A 
ATOM     58  C   UNL A   1      47.527  28.709  29.661  1.00  0.00     0.029 A 
ATOM     59  N   UNL A   1      45.508  29.575  29.431  1.00  0.00    -0.354 N 
ATOM     60  N   UNL A   1      41.895  29.013  31.273  1.00  0.00    -0.248 NA
ATOM     61  C   UNL A   1      41.706  30.453  29.439  1.00  0.00     0.031 C 
ATOM     62  C   UNL A   1      46.773  28.501  30.857  1.00  0.00     0.029 A 
ATOM     63  C   UNL A   1      45.505  29.050  30.690  1.00  0.00     0.049 A 
ATOM     64  H   UNL A   1      44.751  30.068  29.041  1.00  0.00     0.167 HD
ATOM     65  C   UNL A   1      43.124  29.592  31.044  1.00  0.00     0.074 A 
ATOM     66  C   UNL A   1      42.895  30.607  30.026  1.00  0.00     0.031 C 
ATOM     67  C   UNL A   1      44.265  28.949  31.420  1.00  0.00     0.037 A 
BRANCH  54  68
ATOM     68  C   UNL A   1      46.401  30.903  26.768  1.00  0.00     0.064 A 
ATOM     69  C   UNL A   1      47.507  31.783  26.810  1.00  0.00     0.173 A 
ATOM     70  C   UNL A   1      45.160  31.519  26.503  1.00  0.00     0.173 A 
ATOM     71  F   UNL A   1      48.742  31.321  27.059  1.00  0.00    -0.203 F 
ATOM     72  C   UNL A   1      47.362  33.171  26.697  1.00  0.00     0.198 A 
ATOM     73  C   UNL A   1      45.025  32.901  26.347  1.00  0.00     0.198 A 
ATOM     74  F   UNL A   1      44.007  30.844  26.491  1.00  0.00    -0.203 F 
ATOM     75  F   UNL A   1      48.423  33.969  26.875  1.00  0.00    -0.200 F 
ATOM     76  C   UNL A   1      46.118  33.728  26.476  1.00  0.00     0.200 A 
ATOM     77  F   UNL A   1      43.806  33.423  26.153  1.00  0.00    -0.200 F 
ATOM     78  F   UNL A   1      45.963  35.058  26.433  1.00  0.00    -0.200 F 
ENDBRANCH  54  68
BRANCH  55  79
ATOM     79  C   UNL A   1      38.762  28.847  29.529  1.00  0.00     0.064 A 
ATOM     80  C   UNL A   1      37.984  29.024  30.689  1.00  0.00     0.173 A 
ATOM     81  C   UNL A   1      38.234  29.377  28.338  1.00  0.00     0.173 A 
ATOM     82  F   UNL A   1      38.423  28.573  31.873  1.00  0.00    -0.203 F 
ATOM     83  C   UNL A   1      36.783  29.740  30.669  1.00  0.00     0.198 A 
ATOM     84  C   UNL A   1      37.031  30.086  28.318  1.00  0.00     0.198 A 
ATOM     85  F   UNL A   1      38.924  29.303  27.191  1.00  0.00    -0.203 F 
ATOM     86  F   UNL A   1      36.114  29.956  31.809  1.00  0.00    -0.200 F 
ATOM     87  C   UNL A   1      36.317  30.287  29.485  1.00  0.00     0.200 A 
ATOM     88  F   UNL A   1      36.604  30.637  27.173  1.00  0.00    -0.200 F 
ATOM     89  F   UNL A   1      35.208  31.039  29.478  1.00  0.00    -0.200 F 
ENDBRANCH  55  79
BRANCH  67  90
ATOM     90  C   UNL A   1      44.177  27.986  32.558  1.00  0.00     0.064 A 
ATOM     91  C   UNL A   1      44.078  28.347  33.911  1.00  0.00     0.173 A 
ATOM     92  C   UNL A   1      44.130  26.622  32.241  1.00  0.00     0.173 A 
ATOM     93  F   UNL A   1      44.047  29.634  34.283  1.00  0.00    -0.203 F 
ATOM     94  C   UNL A   1      43.972  27.374  34.903  1.00  0.00     0.198 A 
ATOM     95  C   UNL A   1      43.984  25.657  33.228  1.00  0.00     0.198 A 
ATOM     96  F   UNL A   1      44.191  26.228  30.959  1.00  0.00    -0.203 F 
ATOM     97  F   UNL A   1      43.901  27.734  36.193  1.00  0.00    -0.200 F 
ATOM     98  C   UNL A   1      43.917  26.031  34.559  1.00  0.00     0.200 A 
ATOM     99  F   UNL A   1      43.894  24.364  32.886  1.00  0.00    -0.200 F 
ATOM    100  F   UNL A   1      43.781  25.097  35.511  1.00  0.00    -0.200 F 
ENDBRANCH  67  90
ENDBRANCH  41  42
ENDBRANCH  33  36
ENDBRANCH  31  32
ENDBRANCH  30  31
ENDBRANCH   1  30
TORSDOF 15
ENDMDL
MODEL 3
REMARK VINA RESULT:     -12.8      3.654      5.850
REMARK SMILES CCn1ncc(-c2cc(C(F)(F)F)nc(-n3ccc(C(=O)NCCCCNC(=O)c4ccc(-c5c6nc(c(-c7c(F)c(F)c(F)c(F)c7F)c7ccc([nH]7)c(-c7c(F)c(F)c(F)c(F)c7F)c7nc(c(-c8c(F)c(F)c(F)c(F)c8F)c8ccc5[nH]8)C=C7)C=C6)cc4)n3)n2)c1C
REMARK SMILES IDX 24 1 23 2 22 3 20 4 21 5 19 7 16 8 17 9 93 10 18 11 15 12
REMARK SMILES IDX 7 13 8 14 94 15 9 16 14 17 6 18 3 19 4 20 95 21 5 22 96 23
REMARK SMILES IDX 2 24 1 25 10 26 11 27 12 28 13 29 25 30 26 31 27 32 28 33
REMARK SMILES IDX 29 35 30 36 31 37 92 38 32 39 91 40 33 41 34 42 35 43 85 44
REMARK SMILES IDX 36 45 90 46 84 47 86 48 37 49 89 50 83 51 82 52 38 54 70 55
REMARK SMILES IDX 50 56 69 57 51 58 54 59 68 60 87 61 52 62 53 63 67 65 88 66
REMARK SMILES IDX 55 67 39 68 40 69 48 70 41 71 42 72 46 73 49 74 43 75 44 76
REMARK SMILES IDX 47 77 45 78 71 79 72 80 80 81 73 82 74 83 78 84 81 85 75 86
REMARK SMILES IDX 76 87 79 88 77 89 56 90 57 91 65 92 58 93 59 94 63 95 66 96
REMARK SMILES IDX 60 97 61 98 64 99 62 100
REMARK H PARENT 22 6 27 34 86 53 54 64
REMARK Flexibility Score: inf
ROOT
ATOM      1  C   UNL A   1      35.674  23.732  24.675  1.00  0.00     0.023 C 
ENDROOT
BRANCH   1   2
ATOM      2  C   UNL A   1      34.341  23.110  24.242  1.00  0.00     0.116 C 
BRANCH   2   3
ATOM      3  N   UNL A   1      34.163  23.086  22.797  1.00  0.00    -0.351 N 
ATOM      4  C   UNL A   1      33.221  23.687  21.989  1.00  0.00     0.271 C 
ATOM      5  O   UNL A   1      33.272  23.433  20.777  1.00  0.00    -0.267 OA
ATOM      6  H   UNL A   1      34.831  22.549  22.313  1.00  0.00     0.163 HD
BRANCH   4   7
ATOM      7  C   UNL A   1      32.148  24.530  22.541  1.00  0.00     0.150 A 
ATOM      8  N   UNL A   1      31.133  26.263  23.290  1.00  0.00    -0.205 N 
ATOM      9  C   UNL A   1      30.402  25.191  23.751  1.00  0.00     0.119 A 
ATOM     10  N   UNL A   1      32.101  25.869  22.421  1.00  0.00    -0.160 NA
ATOM     11  C   UNL A   1      31.001  24.064  23.240  1.00  0.00     0.056 A 
BRANCH   8  12
ATOM     12  C   UNL A   1      31.008  27.628  23.705  1.00  0.00     0.251 A 
ATOM     13  C   UNL A   1      31.553  29.301  25.172  1.00  0.00     0.080 A 
ATOM     14  C   UNL A   1      30.643  30.160  24.598  1.00  0.00     0.062 A 
ATOM     15  N   UNL A   1      31.698  28.023  24.788  1.00  0.00    -0.211 NA
ATOM     16  C   UNL A   1      29.941  29.674  23.509  1.00  0.00     0.150 A 
ATOM     17  N   UNL A   1      30.161  28.423  23.016  1.00  0.00    -0.207 NA
BRANCH  13  18
ATOM     18  C   UNL A   1      32.493  29.774  26.163  1.00  0.00     0.041 A 
ATOM     19  N   UNL A   1      34.278  29.904  27.443  1.00  0.00    -0.269 N 
ATOM     20  N   UNL A   1      33.649  31.084  27.624  1.00  0.00    -0.181 NA
ATOM     21  C   UNL A   1      33.619  29.070  26.570  1.00  0.00     0.045 A 
ATOM     22  C   UNL A   1      32.562  30.996  26.857  1.00  0.00     0.145 A 
ATOM     23  C   UNL A   1      34.110  27.723  26.170  1.00  0.00     0.067 C 
BRANCH  19  24
ATOM     24  C   UNL A   1      35.497  29.647  28.193  1.00  0.00     0.141 C 
ATOM     25  C   UNL A   1      36.769  30.076  27.478  1.00  0.00     0.029 C 
ENDBRANCH  19  24
ENDBRANCH  13  18
BRANCH  16  26
ATOM     26  C   UNL A   1      28.858  30.532  22.871  1.00  0.00     0.433 C 
ATOM     27  F   UNL A   1      28.780  31.783  23.404  1.00  0.00    -0.165 F 
ATOM     28  F   UNL A   1      29.050  30.700  21.532  1.00  0.00    -0.165 F 
ATOM     29  F   UNL A   1      27.607  29.999  22.997  1.00  0.00    -0.165 F 
ENDBRANCH  16  26
ENDBRANCH   8  12
ENDBRANCH   4   7
ENDBRANCH   2   3
ENDBRANCH   1   2
BRANCH   1  30
ATOM     30  C   UNL A   1      36.899  22.808  24.665  1.00  0.00     0.023 C 
BRANCH  30  31
ATOM     31  C   UNL A   1      37.434  22.419  26.038  1.00  0.00     0.116 C 
BRANCH  31  32
ATOM     32  N   UNL A   1      38.702  21.696  25.985  1.00  0.00    -0.352 N 
ATOM     33  C   UNL A   1      39.963  22.190  26.233  1.00  0.00     0.251 C 
ATOM     34  H   UNL A   1      38.648  20.744  25.742  1.00  0.00     0.163 HD
ATOM     35  O   UNL A   1      40.959  21.629  25.769  1.00  0.00    -0.269 OA
BRANCH  33  36
ATOM     36  C   UNL A   1      40.122  23.403  27.054  1.00  0.00     0.039 A 
ATOM     37  C   UNL A   1      41.187  23.523  27.951  1.00  0.00     0.014 A 
ATOM     38  C   UNL A   1      39.198  24.438  26.912  1.00  0.00     0.014 A 
ATOM     39  C   UNL A   1      41.366  24.727  28.627  1.00  0.00     0.010 A 
ATOM     40  C   UNL A   1      39.436  25.664  27.492  1.00  0.00     0.010 A 
ATOM     41  C   UNL A   1      40.508  25.812  28.365  1.00  0.00    -0.014 A 
BRANCH  41  42
ATOM     42  C   UNL A   1      40.869  27.150  28.840  1.00  0.00     0.031 A 
ATOM     43  C   UNL A   1      42.082  27.687  28.166  1.00  0.00     0.074 A 
ATOM     44  C   UNL A   1      40.094  27.923  29.634  1.00  0.00     0.049 A 
ATOM     45  N   UNL A   1      43.240  27.898  28.697  1.00  0.00    -0.248 NA
ATOM     46  C   UNL A   1      42.069  27.854  26.701  1.00  0.00     0.031 C 
ATOM     47  C   UNL A   1      38.729  27.631  30.085  1.00  0.00     0.029 A 
ATOM     48  N   UNL A   1      40.306  29.184  30.128  1.00  0.00    -0.354 N 
ATOM     49  C   UNL A   1      44.019  28.471  27.693  1.00  0.00     0.074 A 
ATOM     50  C   UNL A   1      43.333  28.213  26.459  1.00  0.00     0.031 C 
ATOM     51  C   UNL A   1      38.155  28.757  30.565  1.00  0.00     0.029 A 
ATOM     52  C   UNL A   1      39.158  29.805  30.619  1.00  0.00     0.049 A 
ATOM     53  H   UNL A   1      41.192  29.614  30.135  1.00  0.00     0.167 HD
ATOM     54  C   UNL A   1      44.959  29.399  28.027  1.00  0.00     0.037 A 
ATOM     55  C   UNL A   1      39.029  31.089  31.041  1.00  0.00     0.037 A 
ATOM     56  C   UNL A   1      45.210  29.355  29.447  1.00  0.00     0.049 A 
ATOM     57  C   UNL A   1      40.378  31.582  31.390  1.00  0.00     0.074 A 
ATOM     58  C   UNL A   1      45.889  28.551  30.334  1.00  0.00     0.029 A 
ATOM     59  N   UNL A   1      44.314  30.092  30.169  1.00  0.00    -0.354 N 
ATOM     60  N   UNL A   1      41.057  31.147  32.414  1.00  0.00    -0.248 NA
ATOM     61  C   UNL A   1      41.139  32.346  30.407  1.00  0.00     0.031 C 
ATOM     62  C   UNL A   1      45.296  28.775  31.614  1.00  0.00     0.029 A 
ATOM     63  C   UNL A   1      44.305  29.744  31.488  1.00  0.00     0.049 A 
ATOM     64  H   UNL A   1      43.740  30.791  29.782  1.00  0.00     0.167 HD
ATOM     65  C   UNL A   1      42.364  31.186  31.981  1.00  0.00     0.074 A 
ATOM     66  C   UNL A   1      42.375  32.098  30.847  1.00  0.00     0.031 C 
ATOM     67  C   UNL A   1      43.235  30.201  32.340  1.00  0.00     0.037 A 
BRANCH  54  68
ATOM     68  C   UNL A   1      45.229  30.687  27.260  1.00  0.00     0.064 A 
ATOM     69  C   UNL A   1      46.570  31.020  26.960  1.00  0.00     0.173 A 
ATOM     70  C   UNL A   1      44.306  31.745  27.115  1.00  0.00     0.173 A 
ATOM     71  F   UNL A   1      47.543  30.102  27.064  1.00  0.00    -0.203 F 
ATOM     72  C   UNL A   1      46.962  32.325  26.641  1.00  0.00     0.198 A 
ATOM     73  C   UNL A   1      44.695  33.037  26.754  1.00  0.00     0.198 A 
ATOM     74  F   UNL A   1      43.011  31.620  27.418  1.00  0.00    -0.203 F 
ATOM     75  F   UNL A   1      48.262  32.614  26.494  1.00  0.00    -0.200 F 
ATOM     76  C   UNL A   1      46.025  33.335  26.550  1.00  0.00     0.200 A 
ATOM     77  F   UNL A   1      43.772  34.007  26.690  1.00  0.00    -0.200 F 
ATOM     78  F   UNL A   1      46.401  34.598  26.310  1.00  0.00    -0.200 F 
ENDBRANCH  54  68
BRANCH  55  79
ATOM     79  C   UNL A   1      37.859  32.002  31.025  1.00  0.00     0.064 A 
ATOM     80  C   UNL A   1      37.457  32.645  29.839  1.00  0.00     0.173 A 
ATOM     81  C   UNL A   1      36.935  32.018  32.086  1.00  0.00     0.173 A 
ATOM     82  F   UNL A   1      38.265  32.657  28.769  1.00  0.00    -0.203 F 
ATOM     83  C   UNL A   1      36.187  33.213  29.703  1.00  0.00     0.198 A 
ATOM     84  C   UNL A   1      35.669  32.591  31.950  1.00  0.00     0.198 A 
ATOM     85  F   UNL A   1      37.206  31.389  33.238  1.00  0.00    -0.203 F 
ATOM     86  F   UNL A   1      35.813  33.743  28.530  1.00  0.00    -0.200 F 
ATOM     87  C   UNL A   1      35.287  33.169  30.754  1.00  0.00     0.200 A 
ATOM     88  F   UNL A   1      34.795  32.517  32.964  1.00  0.00    -0.200 F 
ATOM     89  F   UNL A   1      34.042  33.642  30.600  1.00  0.00    -0.200 F 
ENDBRANCH  55  79
BRANCH  67  90
ATOM     90  C   UNL A   1      42.970  29.472  33.616  1.00  0.00     0.064 A 
ATOM     91  C   UNL A   1      43.335  29.926  34.893  1.00  0.00     0.173 A 
ATOM     92  C   UNL A   1      42.250  28.273  33.530  1.00  0.00     0.173 A 
ATOM     93  F   UNL A   1      43.964  31.098  35.057  1.00  0.00    -0.203 F 
ATOM     94  C   UNL A   1      43.019  29.186  36.031  1.00  0.00     0.198 A 
ATOM     95  C   UNL A   1      41.902  27.558  34.669  1.00  0.00     0.198 A 
ATOM     96  F   UNL A   1      41.853  27.812  32.334  1.00  0.00    -0.203 F 
ATOM     97  F   UNL A   1      43.394  29.622  37.243  1.00  0.00    -0.200 F 
ATOM     98  C   UNL A   1      42.296  28.007  35.918  1.00  0.00     0.200 A 
ATOM     99  F   UNL A   1      41.171  26.440  34.555  1.00  0.00    -0.200 F 
ATOM    100  F   UNL A   1      41.963  27.313  37.015  1.00  0.00    -0.200 F 
ENDBRANCH  67  90
ENDBRANCH  41  42
ENDBRANCH  33  36
ENDBRANCH  31  32
ENDBRANCH  30  31
ENDBRANCH   1  30
TORSDOF 15
ENDMDL
