MODEL 1
REMARK VINA RESULT:     -11.6      0.000      0.000
REMARK SMILES CC[C@@H](C)Nc1cc(OC)c(C(=O)NCCCCNC(=O)c2ccc(-c3c4nc(c(-c5c(F)c(F)c(F)c(F)c5F)c5ccc([nH]5)c(-c5c(F)c(F)c(F)c(F)c5F)c5nc(c(-c6c(F)c(F)c(F)c(F)c6F)c6ccc3[nH]6)C=C5)C=C4)cc2)cc1Cl
REMARK SMILES IDX 16 1 15 2 14 3 12 4 13 5 11 7 6 8 7 9 86 10 8 11 85 12 87 13
REMARK SMILES IDX 5 14 3 16 4 17 2 18 1 19 9 20 10 21 17 22 18 23 19 24 20 25
REMARK SMILES IDX 21 27 22 28 23 29 84 30 24 31 83 32 25 33 26 34 27 35 77 36
REMARK SMILES IDX 28 37 82 38 76 39 78 40 29 41 81 42 75 43 74 44 30 46 62 47
REMARK SMILES IDX 42 48 61 49 43 50 46 51 60 52 79 53 44 54 45 55 59 57 80 58
REMARK SMILES IDX 47 59 31 60 32 61 40 62 33 63 34 64 38 65 41 66 35 67 36 68
REMARK SMILES IDX 39 69 37 70 63 71 64 72 72 73 65 74 66 75 70 76 73 77 67 78
REMARK SMILES IDX 68 79 71 80 69 81 48 82 49 83 57 84 50 85 51 86 55 87 58 88
REMARK SMILES IDX 52 89 53 90 56 91 54 92
REMARK H PARENT 14 6 5 15 19 26 78 45 46 56
REMARK Flexibility Score: inf
ROOT
ATOM      1  C   UNL A   1      31.841  30.298  26.566  1.00  0.00     0.023 C 
ENDROOT
BRANCH   1   2
ATOM      2  C   UNL A   1      32.124  29.686  25.188  1.00  0.00     0.116 C 
BRANCH   2   3
ATOM      3  N   UNL A   1      30.951  29.797  24.343  1.00  0.00    -0.352 N 
ATOM      4  C   UNL A   1      30.374  28.963  23.416  1.00  0.00     0.255 C 
ATOM      5  O   UNL A   1      29.509  29.487  22.719  1.00  0.00    -0.269 OA
ATOM      6  H   UNL A   1      30.467  30.646  24.459  1.00  0.00     0.163 HD
BRANCH   4   7
ATOM      7  C   UNL A   1      30.767  27.528  23.231  1.00  0.00     0.083 A 
ATOM      8  C   UNL A   1      31.742  24.854  22.777  1.00  0.00     0.057 A 
ATOM      9  C   UNL A   1      31.128  25.236  23.983  1.00  0.00     0.074 A 
ATOM     10  C   UNL A   1      31.826  25.840  21.790  1.00  0.00     0.065 A 
ATOM     11  C   UNL A   1      30.648  26.547  24.229  1.00  0.00     0.133 A 
ATOM     12  C   UNL A   1      31.295  27.119  22.002  1.00  0.00     0.040 A 
ATOM     13  Cl  UNL A   1      32.525  25.579  20.229  1.00  0.00    -0.082 Cl
BRANCH   8  14
ATOM     14  N   UNL A   1      32.266  23.569  22.683  1.00  0.00    -0.381 N 
ATOM     15  H   UNL A   1      31.941  22.981  21.964  1.00  0.00     0.160 HD
BRANCH  14  16
ATOM     16  C   UNL A   1      33.281  23.052  23.608  1.00  0.00     0.075 C 
ATOM     17  C   UNL A   1      34.670  23.225  22.989  1.00  0.00     0.031 C 
BRANCH  16  18
ATOM     18  C   UNL A   1      32.979  21.559  23.861  1.00  0.00     0.021 C 
ATOM     19  C   UNL A   1      32.154  21.300  25.114  1.00  0.00     0.006 C 
ENDBRANCH  16  18
ENDBRANCH  14  16
ENDBRANCH   8  14
BRANCH  11  20
ATOM     20  O   UNL A   1      30.265  26.734  25.532  1.00  0.00    -0.496 OA
ATOM     21  C   UNL A   1      31.267  26.558  26.530  1.00  0.00     0.278 C 
ENDBRANCH  11  20
ENDBRANCH   4   7
ENDBRANCH   2   3
ENDBRANCH   1   2
BRANCH   1  22
ATOM     22  C   UNL A   1      31.678  31.819  26.570  1.00  0.00     0.023 C 
BRANCH  22  23
ATOM     23  C   UNL A   1      32.802  32.583  27.253  1.00  0.00     0.116 C 
BRANCH  23  24
ATOM     24  N   UNL A   1      32.443  33.952  27.584  1.00  0.00    -0.352 N 
ATOM     25  C   UNL A   1      33.008  34.781  28.525  1.00  0.00     0.251 C 
ATOM     26  H   UNL A   1      31.698  34.336  27.068  1.00  0.00     0.163 HD
ATOM     27  O   UNL A   1      32.529  35.878  28.757  1.00  0.00    -0.269 OA
BRANCH  25  28
ATOM     28  C   UNL A   1      34.180  34.301  29.283  1.00  0.00     0.039 A 
ATOM     29  C   UNL A   1      33.966  33.627  30.487  1.00  0.00     0.014 A 
ATOM     30  C   UNL A   1      35.474  34.486  28.790  1.00  0.00     0.014 A 
ATOM     31  C   UNL A   1      35.051  33.080  31.170  1.00  0.00     0.010 A 
ATOM     32  C   UNL A   1      36.547  33.883  29.436  1.00  0.00     0.010 A 
ATOM     33  C   UNL A   1      36.345  33.175  30.631  1.00  0.00    -0.014 A 
BRANCH  33  34
ATOM     34  C   UNL A   1      37.501  32.537  31.301  1.00  0.00     0.031 A 
ATOM     35  C   UNL A   1      38.209  31.387  30.646  1.00  0.00     0.074 A 
ATOM     36  C   UNL A   1      37.856  32.941  32.535  1.00  0.00     0.049 A 
ATOM     37  N   UNL A   1      39.191  30.652  31.101  1.00  0.00    -0.248 NA
ATOM     38  C   UNL A   1      37.726  30.990  29.314  1.00  0.00     0.031 C 
ATOM     39  C   UNL A   1      37.198  34.003  33.298  1.00  0.00     0.029 A 
ATOM     40  N   UNL A   1      38.846  32.494  33.372  1.00  0.00    -0.354 N 
ATOM     41  C   UNL A   1      39.426  29.694  30.124  1.00  0.00     0.074 A 
ATOM     42  C   UNL A   1      38.455  29.911  29.074  1.00  0.00     0.031 C 
ATOM     43  C   UNL A   1      37.810  34.133  34.486  1.00  0.00     0.029 A 
ATOM     44  C   UNL A   1      38.883  33.147  34.579  1.00  0.00     0.049 A 
ATOM     45  H   UNL A   1      39.471  31.772  33.130  1.00  0.00     0.167 HD
ATOM     46  C   UNL A   1      40.380  28.734  30.101  1.00  0.00     0.037 A 
ATOM     47  C   UNL A   1      39.689  32.966  35.641  1.00  0.00     0.037 A 
ATOM     48  C   UNL A   1      41.365  28.549  31.132  1.00  0.00     0.049 A 
ATOM     49  C   UNL A   1      40.765  31.919  35.575  1.00  0.00     0.074 A 
ATOM     50  C   UNL A   1      42.431  27.666  31.161  1.00  0.00     0.029 A 
ATOM     51  N   UNL A   1      41.401  29.260  32.323  1.00  0.00    -0.354 N 
ATOM     52  N   UNL A   1      41.038  31.075  34.609  1.00  0.00    -0.248 NA
ATOM     53  C   UNL A   1      41.652  31.805  36.740  1.00  0.00     0.031 C 
ATOM     54  C   UNL A   1      43.087  27.815  32.388  1.00  0.00     0.029 A 
ATOM     55  C   UNL A   1      42.458  28.820  33.105  1.00  0.00     0.049 A 
ATOM     56  H   UNL A   1      40.769  29.972  32.575  1.00  0.00     0.167 HD
ATOM     57  C   UNL A   1      42.137  30.345  35.039  1.00  0.00     0.074 A 
ATOM     58  C   UNL A   1      42.490  30.856  36.346  1.00  0.00     0.031 C 
ATOM     59  C   UNL A   1      42.792  29.341  34.405  1.00  0.00     0.037 A 
BRANCH  46  60
ATOM     60  C   UNL A   1      40.400  27.811  28.917  1.00  0.00     0.064 A 
ATOM     61  C   UNL A   1      41.173  28.089  27.778  1.00  0.00     0.173 A 
ATOM     62  C   UNL A   1      39.651  26.625  28.928  1.00  0.00     0.173 A 
ATOM     63  F   UNL A   1      41.896  29.216  27.712  1.00  0.00    -0.203 F 
ATOM     64  C   UNL A   1      41.165  27.232  26.680  1.00  0.00     0.198 A 
ATOM     65  C   UNL A   1      39.671  25.755  27.840  1.00  0.00     0.198 A 
ATOM     66  F   UNL A   1      38.900  26.309  29.994  1.00  0.00    -0.203 F 
ATOM     67  F   UNL A   1      41.866  27.547  25.582  1.00  0.00    -0.200 F 
ATOM     68  C   UNL A   1      40.420  26.063  26.715  1.00  0.00     0.200 A 
ATOM     69  F   UNL A   1      38.958  24.621  27.879  1.00  0.00    -0.200 F 
ATOM     70  F   UNL A   1      40.414  25.239  25.658  1.00  0.00    -0.200 F 
ENDBRANCH  46  60
BRANCH  47  71
ATOM     71  C   UNL A   1      39.523  33.823  36.842  1.00  0.00     0.064 A 
ATOM     72  C   UNL A   1      40.134  35.083  36.915  1.00  0.00     0.173 A 
ATOM     73  C   UNL A   1      38.734  33.414  37.926  1.00  0.00     0.173 A 
ATOM     74  F   UNL A   1      40.911  35.509  35.909  1.00  0.00    -0.203 F 
ATOM     75  C   UNL A   1      39.970  35.896  38.035  1.00  0.00     0.198 A 
ATOM     76  C   UNL A   1      38.553  34.238  39.034  1.00  0.00     0.198 A 
ATOM     77  F   UNL A   1      38.124  32.220  37.899  1.00  0.00    -0.203 F 
ATOM     78  F   UNL A   1      40.590  37.082  38.094  1.00  0.00    -0.200 F 
ATOM     79  C   UNL A   1      39.175  35.476  39.090  1.00  0.00     0.200 A 
ATOM     80  F   UNL A   1      37.773  33.835  40.046  1.00  0.00    -0.200 F 
ATOM     81  F   UNL A   1      39.011  36.263  40.162  1.00  0.00    -0.200 F 
ENDBRANCH  47  71
BRANCH  59  82
ATOM     82  C   UNL A   1      43.973  28.743  35.111  1.00  0.00     0.064 A 
ATOM     83  C   UNL A   1      45.261  29.281  34.972  1.00  0.00     0.173 A 
ATOM     84  C   UNL A   1      43.806  27.648  35.972  1.00  0.00     0.173 A 
ATOM     85  F   UNL A   1      45.473  30.318  34.149  1.00  0.00    -0.203 F 
ATOM     86  C   UNL A   1      46.342  28.731  35.654  1.00  0.00     0.198 A 
ATOM     87  C   UNL A   1      44.885  27.117  36.673  1.00  0.00     0.198 A 
ATOM     88  F   UNL A   1      42.593  27.101  36.144  1.00  0.00    -0.203 F 
ATOM     89  F   UNL A   1      47.571  29.234  35.475  1.00  0.00    -0.200 F 
ATOM     90  C   UNL A   1      46.153  27.655  36.509  1.00  0.00     0.200 A 
ATOM     91  F   UNL A   1      44.699  26.086  37.509  1.00  0.00    -0.200 F 
ATOM     92  F   UNL A   1      47.194  27.132  37.171  1.00  0.00    -0.200 F 
ENDBRANCH  59  82
ENDBRANCH  33  34
ENDBRANCH  25  28
ENDBRANCH  23  24
ENDBRANCH  22  23
ENDBRANCH   1  22
TORSDOF 15
ENDMDL
MODEL 2
REMARK VINA RESULT:     -11.5      5.887     11.303
REMARK SMILES CC[C@@H](C)Nc1cc(OC)c(C(=O)NCCCCNC(=O)c2ccc(-c3c4nc(c(-c5c(F)c(F)c(F)c(F)c5F)c5ccc([nH]5)c(-c5c(F)c(F)c(F)c(F)c5F)c5nc(c(-c6c(F)c(F)c(F)c(F)c6F)c6ccc3[nH]6)C=C5)C=C4)cc2)cc1Cl
REMARK SMILES IDX 16 1 15 2 14 3 12 4 13 5 11 7 6 8 7 9 86 10 8 11 85 12 87 13
REMARK SMILES IDX 5 14 3 16 4 17 2 18 1 19 9 20 10 21 17 22 18 23 19 24 20 25
REMARK SMILES IDX 21 27 22 28 23 29 84 30 24 31 83 32 25 33 26 34 27 35 77 36
REMARK SMILES IDX 28 37 82 38 76 39 78 40 29 41 81 42 75 43 74 44 30 46 62 47
REMARK SMILES IDX 42 48 61 49 43 50 46 51 60 52 79 53 44 54 45 55 59 57 80 58
REMARK SMILES IDX 47 59 31 60 32 61 40 62 33 63 34 64 38 65 41 66 35 67 36 68
REMARK SMILES IDX 39 69 37 70 63 71 64 72 72 73 65 74 66 75 70 76 73 77 67 78
REMARK SMILES IDX 68 79 71 80 69 81 48 82 49 83 57 84 50 85 51 86 55 87 58 88
REMARK SMILES IDX 52 89 53 90 56 91 54 92
REMARK H PARENT 14 6 5 15 19 26 78 45 46 56
REMARK Flexibility Score: inf
ROOT
ATOM      1  C   UNL A   1      37.128  21.153  24.762  1.00  0.00     0.023 C 
ENDROOT
BRANCH   1   2
ATOM      2  C   UNL A   1      35.829  21.091  25.577  1.00  0.00     0.116 C 
BRANCH   2   3
ATOM      3  N   UNL A   1      34.938  20.094  25.016  1.00  0.00    -0.352 N 
ATOM      4  C   UNL A   1      33.599  20.094  24.705  1.00  0.00     0.255 C 
ATOM      5  O   UNL A   1      33.127  18.987  24.460  1.00  0.00    -0.269 OA
ATOM      6  H   UNL A   1      35.385  19.240  24.817  1.00  0.00     0.163 HD
BRANCH   4   7
ATOM      7  C   UNL A   1      32.752  21.330  24.682  1.00  0.00     0.083 A 
ATOM      8  C   UNL A   1      31.147  23.715  24.893  1.00  0.00     0.057 A 
ATOM      9  C   UNL A   1      32.159  23.572  23.926  1.00  0.00     0.074 A 
ATOM     10  C   UNL A   1      30.938  22.617  25.732  1.00  0.00     0.065 A 
ATOM     11  C   UNL A   1      32.963  22.411  23.811  1.00  0.00     0.133 A 
ATOM     12  C   UNL A   1      31.685  21.442  25.580  1.00  0.00     0.040 A 
ATOM     13  Cl  UNL A   1      29.734  22.574  26.974  1.00  0.00    -0.082 Cl
BRANCH   8  14
ATOM     14  N   UNL A   1      30.488  24.937  24.980  1.00  0.00    -0.381 N 
ATOM     15  H   UNL A   1      29.519  24.937  25.156  1.00  0.00     0.160 HD
BRANCH  14  16
ATOM     16  C   UNL A   1      31.172  26.225  24.822  1.00  0.00     0.075 C 
ATOM     17  C   UNL A   1      31.025  27.042  26.108  1.00  0.00     0.031 C 
BRANCH  16  18
ATOM     18  C   UNL A   1      30.527  26.965  23.630  1.00  0.00     0.021 C 
ATOM     19  C   UNL A   1      29.018  27.126  23.746  1.00  0.00     0.006 C 
ENDBRANCH  16  18
ENDBRANCH  14  16
ENDBRANCH   8  14
BRANCH  11  20
ATOM     20  O   UNL A   1      34.001  22.573  22.930  1.00  0.00    -0.496 OA
ATOM     21  C   UNL A   1      34.835  23.712  23.119  1.00  0.00     0.278 C 
ENDBRANCH  11  20
ENDBRANCH   4   7
ENDBRANCH   2   3
ENDBRANCH   1   2
BRANCH   1  22
ATOM     22  C   UNL A   1      38.077  19.973  24.979  1.00  0.00     0.023 C 
BRANCH  22  23
ATOM     23  C   UNL A   1      39.273  20.267  25.870  1.00  0.00     0.116 C 
BRANCH  23  24
ATOM     24  N   UNL A   1      40.227  19.171  25.925  1.00  0.00    -0.352 N 
ATOM     25  C   UNL A   1      41.584  19.227  26.141  1.00  0.00     0.251 C 
ATOM     26  H   UNL A   1      39.853  18.271  25.790  1.00  0.00     0.163 HD
ATOM     27  O   UNL A   1      42.270  18.223  26.060  1.00  0.00    -0.269 OA
BRANCH  25  28
ATOM     28  C   UNL A   1      42.205  20.536  26.429  1.00  0.00     0.039 A 
ATOM     29  C   UNL A   1      42.672  21.302  25.360  1.00  0.00     0.014 A 
ATOM     30  C   UNL A   1      42.290  21.013  27.740  1.00  0.00     0.014 A 
ATOM     31  C   UNL A   1      43.172  22.582  25.599  1.00  0.00     0.010 A 
ATOM     32  C   UNL A   1      42.725  22.313  27.969  1.00  0.00     0.010 A 
ATOM     33  C   UNL A   1      43.169  23.108  26.901  1.00  0.00    -0.014 A 
BRANCH  33  34
ATOM     34  C   UNL A   1      43.626  24.491  27.168  1.00  0.00     0.031 A 
ATOM     35  C   UNL A   1      42.652  25.521  27.662  1.00  0.00     0.074 A 
ATOM     36  C   UNL A   1      44.895  24.836  26.883  1.00  0.00     0.049 A 
ATOM     37  N   UNL A   1      42.839  26.797  27.884  1.00  0.00    -0.248 NA
ATOM     38  C   UNL A   1      41.276  25.062  27.908  1.00  0.00     0.031 C 
ATOM     39  C   UNL A   1      45.912  23.936  26.335  1.00  0.00     0.029 A 
ATOM     40  N   UNL A   1      45.543  26.039  26.998  1.00  0.00    -0.354 N 
ATOM     41  C   UNL A   1      41.603  27.296  28.272  1.00  0.00     0.074 A 
ATOM     42  C   UNL A   1      40.664  26.197  28.210  1.00  0.00     0.031 C 
ATOM     43  C   UNL A   1      47.058  24.617  26.173  1.00  0.00     0.029 A 
ATOM     44  C   UNL A   1      46.849  26.004  26.579  1.00  0.00     0.049 A 
ATOM     45  H   UNL A   1      45.111  26.851  27.349  1.00  0.00     0.167 HD
ATOM     46  C   UNL A   1      41.288  28.553  28.663  1.00  0.00     0.037 A 
ATOM     47  C   UNL A   1      47.772  26.982  26.523  1.00  0.00     0.037 A 
ATOM     48  C   UNL A   1      42.236  29.630  28.757  1.00  0.00     0.049 A 
ATOM     49  C   UNL A   1      47.408  28.360  26.999  1.00  0.00     0.074 A 
ATOM     50  C   UNL A   1      42.038  30.917  29.229  1.00  0.00     0.029 A 
ATOM     51  N   UNL A   1      43.564  29.547  28.365  1.00  0.00    -0.354 N 
ATOM     52  N   UNL A   1      46.258  28.802  27.448  1.00  0.00    -0.248 NA
ATOM     53  C   UNL A   1      48.470  29.373  26.969  1.00  0.00     0.031 C 
ATOM     54  C   UNL A   1      43.237  31.623  29.085  1.00  0.00     0.029 A 
ATOM     55  C   UNL A   1      44.193  30.765  28.564  1.00  0.00     0.049 A 
ATOM     56  H   UNL A   1      43.996  28.740  28.000  1.00  0.00     0.167 HD
ATOM     57  C   UNL A   1      46.462  30.135  27.774  1.00  0.00     0.074 A 
ATOM     58  C   UNL A   1      47.850  30.427  27.485  1.00  0.00     0.031 C 
ATOM     59  C   UNL A   1      45.577  31.036  28.268  1.00  0.00     0.037 A 
BRANCH  46  60
ATOM     60  C   UNL A   1      39.855  28.826  29.018  1.00  0.00     0.064 A 
ATOM     61  C   UNL A   1      38.928  29.267  28.060  1.00  0.00     0.173 A 
ATOM     62  C   UNL A   1      39.398  28.626  30.329  1.00  0.00     0.173 A 
ATOM     63  F   UNL A   1      39.318  29.486  26.796  1.00  0.00    -0.203 F 
ATOM     64  C   UNL A   1      37.608  29.534  28.411  1.00  0.00     0.198 A 
ATOM     65  C   UNL A   1      38.068  28.865  30.669  1.00  0.00     0.198 A 
ATOM     66  F   UNL A   1      40.242  28.200  31.282  1.00  0.00    -0.203 F 
ATOM     67  F   UNL A   1      36.755  30.009  27.492  1.00  0.00    -0.200 F 
ATOM     68  C   UNL A   1      37.178  29.327  29.713  1.00  0.00     0.200 A 
ATOM     69  F   UNL A   1      37.652  28.654  31.925  1.00  0.00    -0.200 F 
ATOM     70  F   UNL A   1      35.905  29.583  30.049  1.00  0.00    -0.200 F 
ENDBRANCH  46  60
BRANCH  47  71
ATOM     71  C   UNL A   1      49.136  26.675  26.026  1.00  0.00     0.064 A 
ATOM     72  C   UNL A   1      49.505  26.976  24.708  1.00  0.00     0.173 A 
ATOM     73  C   UNL A   1      50.105  26.100  26.862  1.00  0.00     0.173 A 
ATOM     74  F   UNL A   1      48.607  27.510  23.868  1.00  0.00    -0.203 F 
ATOM     75  C   UNL A   1      50.789  26.702  24.240  1.00  0.00     0.198 A 
ATOM     76  C   UNL A   1      51.394  25.849  26.400  1.00  0.00     0.198 A 
ATOM     77  F   UNL A   1      49.802  25.802  28.133  1.00  0.00    -0.203 F 
ATOM     78  F   UNL A   1      51.106  26.970  22.967  1.00  0.00    -0.200 F 
ATOM     79  C   UNL A   1      51.734  26.145  25.088  1.00  0.00     0.200 A 
ATOM     80  F   UNL A   1      52.310  25.323  27.225  1.00  0.00    -0.200 F 
ATOM     81  F   UNL A   1      52.971  25.891  24.640  1.00  0.00    -0.200 F 
ENDBRANCH  47  71
BRANCH  59  82
ATOM     82  C   UNL A   1      46.091  32.418  28.547  1.00  0.00     0.064 A 
ATOM     83  C   UNL A   1      46.663  32.752  29.783  1.00  0.00     0.173 A 
ATOM     84  C   UNL A   1      46.051  33.404  27.551  1.00  0.00     0.173 A 
ATOM     85  F   UNL A   1      46.709  31.847  30.772  1.00  0.00    -0.203 F 
ATOM     86  C   UNL A   1      47.159  34.031  30.017  1.00  0.00     0.198 A 
ATOM     87  C   UNL A   1      46.572  34.674  27.779  1.00  0.00     0.198 A 
ATOM     88  F   UNL A   1      45.519  33.132  26.349  1.00  0.00    -0.203 F 
ATOM     89  F   UNL A   1      47.663  34.342  31.220  1.00  0.00    -0.200 F 
ATOM     90  C   UNL A   1      47.120  34.989  29.014  1.00  0.00     0.200 A 
ATOM     91  F   UNL A   1      46.547  35.594  26.806  1.00  0.00    -0.200 F 
ATOM     92  F   UNL A   1      47.606  36.217  29.240  1.00  0.00    -0.200 F 
ENDBRANCH  59  82
ENDBRANCH  33  34
ENDBRANCH  25  28
ENDBRANCH  23  24
ENDBRANCH  22  23
ENDBRANCH   1  22
TORSDOF 15
ENDMDL
MODEL 3
REMARK VINA RESULT:     -11.5      1.106      2.061
REMARK SMILES CC[C@@H](C)Nc1cc(OC)c(C(=O)NCCCCNC(=O)c2ccc(-c3c4nc(c(-c5c(F)c(F)c(F)c(F)c5F)c5ccc([nH]5)c(-c5c(F)c(F)c(F)c(F)c5F)c5nc(c(-c6c(F)c(F)c(F)c(F)c6F)c6ccc3[nH]6)C=C5)C=C4)cc2)cc1Cl
REMARK SMILES IDX 16 1 15 2 14 3 12 4 13 5 11 7 6 8 7 9 86 10 8 11 85 12 87 13
REMARK SMILES IDX 5 14 3 16 4 17 2 18 1 19 9 20 10 21 17 22 18 23 19 24 20 25
REMARK SMILES IDX 21 27 22 28 23 29 84 30 24 31 83 32 25 33 26 34 27 35 77 36
REMARK SMILES IDX 28 37 82 38 76 39 78 40 29 41 81 42 75 43 74 44 30 46 62 47
REMARK SMILES IDX 42 48 61 49 43 50 46 51 60 52 79 53 44 54 45 55 59 57 80 58
REMARK SMILES IDX 47 59 31 60 32 61 40 62 33 63 34 64 38 65 41 66 35 67 36 68
REMARK SMILES IDX 39 69 37 70 63 71 64 72 72 73 65 74 66 75 70 76 73 77 67 78
REMARK SMILES IDX 68 79 71 80 69 81 48 82 49 83 57 84 50 85 51 86 55 87 58 88
REMARK SMILES IDX 52 89 53 90 56 91 54 92
REMARK H PARENT 14 6 5 15 19 26 78 45 46 56
REMARK Flexibility Score: inf
ROOT
ATOM      1  C   UNL A   1      31.968  30.331  26.479  1.00  0.00     0.023 C 
ENDROOT
BRANCH   1   2
ATOM      2  C   UNL A   1      31.374  29.732  25.197  1.00  0.00     0.116 C 
BRANCH   2   3
ATOM      3  N   UNL A   1      32.376  29.703  24.151  1.00  0.00    -0.352 N 
ATOM      4  C   UNL A   1      33.090  28.690  23.556  1.00  0.00     0.255 C 
ATOM      5  O   UNL A   1      34.030  29.062  22.859  1.00  0.00    -0.269 OA
ATOM      6  H   UNL A   1      32.589  30.594  23.791  1.00  0.00     0.163 HD
BRANCH   4   7
ATOM      7  C   UNL A   1      32.783  27.236  23.745  1.00  0.00     0.083 A 
ATOM      8  C   UNL A   1      32.264  24.466  24.352  1.00  0.00     0.057 A 
ATOM      9  C   UNL A   1      31.362  25.257  23.619  1.00  0.00     0.074 A 
ATOM     10  C   UNL A   1      33.451  25.091  24.747  1.00  0.00     0.065 A 
ATOM     11  C   UNL A   1      31.595  26.622  23.316  1.00  0.00     0.133 A 
ATOM     12  C   UNL A   1      33.716  26.420  24.394  1.00  0.00     0.040 A 
ATOM     13  Cl  UNL A   1      34.703  24.297  25.640  1.00  0.00    -0.082 Cl
BRANCH   8  14
ATOM     14  N   UNL A   1      31.887  23.167  24.677  1.00  0.00    -0.381 N 
ATOM     15  H   UNL A   1      31.131  23.038  25.294  1.00  0.00     0.160 HD
BRANCH  14  16
ATOM     16  C   UNL A   1      32.566  21.982  24.142  1.00  0.00     0.075 C 
ATOM     17  C   UNL A   1      32.156  21.775  22.682  1.00  0.00     0.031 C 
BRANCH  16  18
ATOM     18  C   UNL A   1      32.153  20.767  25.001  1.00  0.00     0.021 C 
ATOM     19  C   UNL A   1      33.191  19.654  25.034  1.00  0.00     0.006 C 
ENDBRANCH  16  18
ENDBRANCH  14  16
ENDBRANCH   8  14
BRANCH  11  20
ATOM     20  O   UNL A   1      30.500  27.234  22.761  1.00  0.00    -0.496 OA
ATOM     21  C   UNL A   1      29.285  27.174  23.501  1.00  0.00     0.278 C 
ENDBRANCH  11  20
ENDBRANCH   4   7
ENDBRANCH   2   3
ENDBRANCH   1   2
BRANCH   1  22
ATOM     22  C   UNL A   1      31.673  31.818  26.687  1.00  0.00     0.023 C 
BRANCH  22  23
ATOM     23  C   UNL A   1      32.830  32.628  27.251  1.00  0.00     0.116 C 
BRANCH  23  24
ATOM     24  N   UNL A   1      32.463  33.996  27.578  1.00  0.00    -0.352 N 
ATOM     25  C   UNL A   1      33.013  34.827  28.526  1.00  0.00     0.251 C 
ATOM     26  H   UNL A   1      31.723  34.378  27.054  1.00  0.00     0.163 HD
ATOM     27  O   UNL A   1      32.528  35.922  28.752  1.00  0.00    -0.269 OA
BRANCH  25  28
ATOM     28  C   UNL A   1      34.178  34.351  29.298  1.00  0.00     0.039 A 
ATOM     29  C   UNL A   1      33.953  33.693  30.509  1.00  0.00     0.014 A 
ATOM     30  C   UNL A   1      35.477  34.523  28.812  1.00  0.00     0.014 A 
ATOM     31  C   UNL A   1      35.030  33.148  31.206  1.00  0.00     0.010 A 
ATOM     32  C   UNL A   1      36.542  33.922  29.472  1.00  0.00     0.010 A 
ATOM     33  C   UNL A   1      36.328  33.230  30.674  1.00  0.00    -0.014 A 
BRANCH  33  34
ATOM     34  C   UNL A   1      37.476  32.595  31.361  1.00  0.00     0.031 A 
ATOM     35  C   UNL A   1      38.191  31.442  30.718  1.00  0.00     0.074 A 
ATOM     36  C   UNL A   1      37.817  33.004  32.597  1.00  0.00     0.049 A 
ATOM     37  N   UNL A   1      39.168  30.709  31.187  1.00  0.00    -0.248 NA
ATOM     38  C   UNL A   1      37.724  31.040  29.383  1.00  0.00     0.031 C 
ATOM     39  C   UNL A   1      37.151  34.070  33.348  1.00  0.00     0.029 A 
ATOM     40  N   UNL A   1      38.798  32.560  33.447  1.00  0.00    -0.354 N 
ATOM     41  C   UNL A   1      39.414  29.747  30.218  1.00  0.00     0.074 A 
ATOM     42  C   UNL A   1      38.455  29.959  29.155  1.00  0.00     0.031 C 
ATOM     43  C   UNL A   1      37.750  34.204  34.542  1.00  0.00     0.029 A 
ATOM     44  C   UNL A   1      38.821  33.219  34.651  1.00  0.00     0.049 A 
ATOM     45  H   UNL A   1      39.425  31.838  33.215  1.00  0.00     0.167 HD
ATOM     46  C   UNL A   1      40.368  28.786  30.209  1.00  0.00     0.037 A 
ATOM     47  C   UNL A   1      39.615  33.042  35.723  1.00  0.00     0.037 A 
ATOM     48  C   UNL A   1      41.341  28.606  31.252  1.00  0.00     0.049 A 
ATOM     49  C   UNL A   1      40.692  31.995  35.673  1.00  0.00     0.074 A 
ATOM     50  C   UNL A   1      42.406  27.722  31.297  1.00  0.00     0.029 A 
ATOM     51  N   UNL A   1      41.363  29.321  32.441  1.00  0.00    -0.354 N 
ATOM     52  N   UNL A   1      40.975  31.146  34.714  1.00  0.00    -0.248 NA
ATOM     53  C   UNL A   1      41.565  31.885  36.849  1.00  0.00     0.031 C 
ATOM     54  C   UNL A   1      43.049  27.876  32.531  1.00  0.00     0.029 A 
ATOM     55  C   UNL A   1      42.411  28.885  33.236  1.00  0.00     0.049 A 
ATOM     56  H   UNL A   1      40.729  30.034  32.683  1.00  0.00     0.167 HD
ATOM     57  C   UNL A   1      42.069  30.418  35.159  1.00  0.00     0.074 A 
ATOM     58  C   UNL A   1      42.408  30.934  36.469  1.00  0.00     0.031 C 
ATOM     59  C   UNL A   1      42.731  29.411  34.538  1.00  0.00     0.037 A 
BRANCH  46  60
ATOM     60  C   UNL A   1      40.401  27.859  29.029  1.00  0.00     0.064 A 
ATOM     61  C   UNL A   1      39.652  26.672  29.002  1.00  0.00     0.173 A 
ATOM     62  C   UNL A   1      41.179  28.169  27.904  1.00  0.00     0.173 A 
ATOM     63  F   UNL A   1      38.903  26.323  30.059  1.00  0.00    -0.203 F 
ATOM     64  C   UNL A   1      39.710  25.813  27.908  1.00  0.00     0.198 A 
ATOM     65  C   UNL A   1      41.210  27.322  26.798  1.00  0.00     0.198 A 
ATOM     66  F   UNL A   1      41.910  29.294  27.876  1.00  0.00    -0.203 F 
ATOM     67  F   UNL A   1      39.030  24.658  27.929  1.00  0.00    -0.200 F 
ATOM     68  C   UNL A   1      40.483  26.142  26.805  1.00  0.00     0.200 A 
ATOM     69  F   UNL A   1      41.949  27.646  25.729  1.00  0.00    -0.200 F 
ATOM     70  F   UNL A   1      40.536  25.314  25.751  1.00  0.00    -0.200 F 
ENDBRANCH  46  60
BRANCH  47  71
ATOM     71  C   UNL A   1      39.436  33.904  36.918  1.00  0.00     0.064 A 
ATOM     72  C   UNL A   1      38.689  33.461  38.018  1.00  0.00     0.173 A 
ATOM     73  C   UNL A   1      40.026  35.174  36.996  1.00  0.00     0.173 A 
ATOM     74  F   UNL A   1      38.092  32.261  37.981  1.00  0.00    -0.203 F 
ATOM     75  C   UNL A   1      38.528  34.261  39.147  1.00  0.00     0.198 A 
ATOM     76  C   UNL A   1      39.884  35.963  38.136  1.00  0.00     0.198 A 
ATOM     77  F   UNL A   1      40.756  35.639  35.973  1.00  0.00    -0.203 F 
ATOM     78  F   UNL A   1      37.782  33.827  40.172  1.00  0.00    -0.200 F 
ATOM     79  C   UNL A   1      39.131  35.509  39.208  1.00  0.00     0.200 A 
ATOM     80  F   UNL A   1      40.479  37.162  38.197  1.00  0.00    -0.200 F 
ATOM     81  F   UNL A   1      38.984  36.273  40.298  1.00  0.00    -0.200 F 
ENDBRANCH  47  71
BRANCH  59  82
ATOM     82  C   UNL A   1      43.904  28.816  35.260  1.00  0.00     0.064 A 
ATOM     83  C   UNL A   1      45.209  29.284  35.050  1.00  0.00     0.173 A 
ATOM     84  C   UNL A   1      43.713  27.797  36.205  1.00  0.00     0.173 A 
ATOM     85  F   UNL A   1      45.444  30.246  34.145  1.00  0.00    -0.203 F 
ATOM     86  C   UNL A   1      46.284  28.739  35.747  1.00  0.00     0.198 A 
ATOM     87  C   UNL A   1      44.786  27.273  36.919  1.00  0.00     0.198 A 
ATOM     88  F   UNL A   1      42.483  27.319  36.446  1.00  0.00    -0.203 F 
ATOM     89  F   UNL A   1      47.528  29.172  35.501  1.00  0.00    -0.200 F 
ATOM     90  C   UNL A   1      46.071  27.740  36.686  1.00  0.00     0.200 A 
ATOM     91  F   UNL A   1      44.579  26.317  37.835  1.00  0.00    -0.200 F 
ATOM     92  F   UNL A   1      47.107  27.222  37.361  1.00  0.00    -0.200 F 
ENDBRANCH  59  82
ENDBRANCH  33  34
ENDBRANCH  25  28
ENDBRANCH  23  24
ENDBRANCH  22  23
ENDBRANCH   1  22
TORSDOF 15
ENDMDL
