MODEL 1
REMARK VINA RESULT:     -11.3      0.000      0.000
REMARK SMILES COc1ccc(C[C@H](C)[C@](O)(C(=O)NCCCCNC(=O)c2ccc(-c3c4nc(c(-c5c(F)c(F)c(F)c(F)c5F)c5ccc([nH]5)c(-c5c(F)c(F)c(F)c(F)c5F)c5nc(c(-c6c(F)c(F)c(F)c(F)c6F)c6ccc3[nH]6)C=C5)C=C4)cc2)C(C)C)cc1OC
REMARK SMILES IDX 15 1 14 2 12 3 13 4 10 6 8 7 9 8 7 9 6 10 3 11 4 12 89 13
REMARK SMILES IDX 5 14 88 15 2 16 1 17 90 18 91 19 85 20 86 21 87 22 11 23
REMARK SMILES IDX 16 25 17 26 18 27 19 28 20 29 21 31 22 32 23 33 84 34 24 35
REMARK SMILES IDX 83 36 25 37 26 38 27 39 77 40 28 41 82 42 76 43 78 44 29 45
REMARK SMILES IDX 81 46 75 47 74 48 30 50 62 51 42 52 61 53 43 54 46 55 60 56
REMARK SMILES IDX 79 57 44 58 45 59 59 61 80 62 47 63 31 64 32 65 40 66 33 67
REMARK SMILES IDX 34 68 38 69 41 70 35 71 36 72 39 73 37 74 63 75 64 76 72 77
REMARK SMILES IDX 65 78 66 79 70 80 73 81 67 82 68 83 71 84 69 85 48 86 49 87
REMARK SMILES IDX 57 88 50 89 51 90 55 91 58 92 52 93 53 94 56 95 54 96
REMARK H PARENT 14 5 11 24 19 30 78 49 46 60
REMARK Flexibility Score: inf
ROOT
ATOM      1  C   UNL A   1      32.373  29.859  25.781  1.00  0.00     0.116 C 
ENDROOT
BRANCH   1   2
ATOM      2  N   UNL A   1      31.960  28.704  26.562  1.00  0.00    -0.354 N 
ATOM      3  C   UNL A   1      31.507  27.478  26.154  1.00  0.00     0.252 C 
ATOM      4  O   UNL A   1      31.358  26.624  27.032  1.00  0.00    -0.272 OA
ATOM      5  H   UNL A   1      32.016  28.821  27.538  1.00  0.00     0.163 HD
BRANCH   3   6
ATOM      6  C   UNL A   1      31.268  27.178  24.627  1.00  0.00     0.148 C 
BRANCH   6   7
ATOM      7  C   UNL A   1      32.707  26.892  24.029  1.00  0.00     0.032 C 
ATOM      8  C   UNL A   1      33.182  27.973  23.057  1.00  0.00     0.011 C 
BRANCH   7   9
ATOM      9  C   UNL A   1      33.783  26.278  24.975  1.00  0.00     0.042 C 
BRANCH   9  10
ATOM     10  C   UNL A   1      34.273  24.846  24.929  1.00  0.00    -0.044 A 
ATOM     11  C   UNL A   1      34.918  22.087  24.961  1.00  0.00     0.160 A 
ATOM     12  C   UNL A   1      34.988  22.826  23.777  1.00  0.00     0.051 A 
ATOM     13  C   UNL A   1      34.527  22.715  26.146  1.00  0.00     0.160 A 
ATOM     14  C   UNL A   1      34.635  24.179  23.757  1.00  0.00     0.008 A 
ATOM     15  C   UNL A   1      34.219  24.085  26.114  1.00  0.00     0.054 A 
BRANCH  11  16
ATOM     16  O   UNL A   1      35.308  20.776  24.944  1.00  0.00    -0.493 OA
ATOM     17  C   UNL A   1      34.204  19.890  24.765  1.00  0.00     0.278 C 
ENDBRANCH  11  16
BRANCH  13  18
ATOM     18  O   UNL A   1      34.393  22.159  27.392  1.00  0.00    -0.493 OA
ATOM     19  C   UNL A   1      33.122  22.238  28.017  1.00  0.00     0.278 C 
ENDBRANCH  13  18
ENDBRANCH   9  10
ENDBRANCH   7   9
ENDBRANCH   6   7
BRANCH   6  20
ATOM     20  C   UNL A   1      30.228  26.015  24.458  1.00  0.00     0.025 C 
ATOM     21  C   UNL A   1      28.870  26.475  23.887  1.00  0.00     0.011 C 
ATOM     22  C   UNL A   1      30.733  24.898  23.537  1.00  0.00     0.011 C 
ENDBRANCH   6  20
BRANCH   6  23
ATOM     23  O   UNL A   1      30.710  28.350  24.014  1.00  0.00    -0.379 OA
ATOM     24  H   UNL A   1      29.741  28.295  24.034  1.00  0.00     0.212 HD
ENDBRANCH   6  23
ENDBRANCH   3   6
ENDBRANCH   1   2
BRANCH   1  25
ATOM     25  C   UNL A   1      31.295  30.935  25.733  1.00  0.00     0.023 C 
BRANCH  25  26
ATOM     26  C   UNL A   1      31.339  31.931  26.892  1.00  0.00     0.023 C 
BRANCH  26  27
ATOM     27  C   UNL A   1      32.635  32.726  27.018  1.00  0.00     0.116 C 
BRANCH  27  28
ATOM     28  N   UNL A   1      32.429  34.066  27.543  1.00  0.00    -0.352 N 
ATOM     29  C   UNL A   1      33.082  34.713  28.562  1.00  0.00     0.251 C 
ATOM     30  H   UNL A   1      31.718  34.586  27.102  1.00  0.00     0.163 HD
ATOM     31  O   UNL A   1      32.666  35.799  28.965  1.00  0.00    -0.269 OA
BRANCH  29  32
ATOM     32  C   UNL A   1      34.267  34.101  29.198  1.00  0.00     0.039 A 
ATOM     33  C   UNL A   1      34.078  33.224  30.269  1.00  0.00     0.014 A 
ATOM     34  C   UNL A   1      35.560  34.394  28.755  1.00  0.00     0.014 A 
ATOM     35  C   UNL A   1      35.180  32.606  30.863  1.00  0.00     0.010 A 
ATOM     36  C   UNL A   1      36.650  33.708  29.289  1.00  0.00     0.010 A 
ATOM     37  C   UNL A   1      36.474  32.820  30.359  1.00  0.00    -0.014 A 
BRANCH  37  38
ATOM     38  C   UNL A   1      37.650  32.142  30.964  1.00  0.00     0.031 A 
ATOM     39  C   UNL A   1      38.124  32.531  32.339  1.00  0.00     0.074 A 
ATOM     40  C   UNL A   1      38.310  31.196  30.268  1.00  0.00     0.049 A 
ATOM     41  N   UNL A   1      39.135  32.067  33.031  1.00  0.00    -0.248 NA
ATOM     42  C   UNL A   1      37.380  33.604  33.020  1.00  0.00     0.031 C 
ATOM     43  C   UNL A   1      37.982  30.764  28.908  1.00  0.00     0.029 A 
ATOM     44  N   UNL A   1      39.395  30.427  30.607  1.00  0.00    -0.354 N 
ATOM     45  C   UNL A   1      39.148  32.791  34.215  1.00  0.00     0.074 A 
ATOM     46  C   UNL A   1      38.091  33.773  34.124  1.00  0.00     0.031 C 
ATOM     47  C   UNL A   1      38.823  29.784  28.543  1.00  0.00     0.029 A 
ATOM     48  C   UNL A   1      39.774  29.544  29.624  1.00  0.00     0.049 A 
ATOM     49  H   UNL A   1      39.858  30.501  31.472  1.00  0.00     0.167 HD
ATOM     50  C   UNL A   1      39.948  32.632  35.297  1.00  0.00     0.037 A 
ATOM     51  C   UNL A   1      40.777  28.646  29.599  1.00  0.00     0.037 A 
ATOM     52  C   UNL A   1      40.987  31.641  35.395  1.00  0.00     0.049 A 
ATOM     53  C   UNL A   1      41.664  28.503  30.808  1.00  0.00     0.074 A 
ATOM     54  C   UNL A   1      41.818  31.364  36.467  1.00  0.00     0.029 A 
ATOM     55  N   UNL A   1      41.341  30.765  34.379  1.00  0.00    -0.354 N 
ATOM     56  N   UNL A   1      41.616  29.141  31.953  1.00  0.00    -0.248 NA
ATOM     57  C   UNL A   1      42.742  27.508  30.723  1.00  0.00     0.031 C 
ATOM     58  C   UNL A   1      42.710  30.359  36.081  1.00  0.00     0.029 A 
ATOM     59  C   UNL A   1      42.396  29.965  34.791  1.00  0.00     0.049 A 
ATOM     60  H   UNL A   1      40.907  30.718  33.497  1.00  0.00     0.167 HD
ATOM     61  C   UNL A   1      42.633  28.604  32.732  1.00  0.00     0.074 A 
ATOM     62  C   UNL A   1      43.266  27.573  31.938  1.00  0.00     0.031 C 
ATOM     63  C   UNL A   1      43.012  28.938  33.990  1.00  0.00     0.037 A 
BRANCH  50  64
ATOM     64  C   UNL A   1      39.725  33.547  36.468  1.00  0.00     0.064 A 
ATOM     65  C   UNL A   1      40.336  34.809  36.543  1.00  0.00     0.173 A 
ATOM     66  C   UNL A   1      38.860  33.178  37.509  1.00  0.00     0.173 A 
ATOM     67  F   UNL A   1      41.183  35.208  35.580  1.00  0.00    -0.203 F 
ATOM     68  C   UNL A   1      40.113  35.652  37.629  1.00  0.00     0.198 A 
ATOM     69  C   UNL A   1      38.612  34.037  38.576  1.00  0.00     0.198 A 
ATOM     70  F   UNL A   1      38.243  31.987  37.486  1.00  0.00    -0.203 F 
ATOM     71  F   UNL A   1      40.750  36.828  37.703  1.00  0.00    -0.200 F 
ATOM     72  C   UNL A   1      39.246  35.269  38.639  1.00  0.00     0.200 A 
ATOM     73  F   UNL A   1      37.760  33.673  39.544  1.00  0.00    -0.200 F 
ATOM     74  F   UNL A   1      39.023  36.086  39.679  1.00  0.00    -0.200 F 
ENDBRANCH  50  64
BRANCH  51  75
ATOM     75  C   UNL A   1      40.987  27.790  28.400  1.00  0.00     0.064 A 
ATOM     76  C   UNL A   1      41.812  28.211  27.347  1.00  0.00     0.173 A 
ATOM     77  C   UNL A   1      40.348  26.548  28.268  1.00  0.00     0.173 A 
ATOM     78  F   UNL A   1      42.429  29.400  27.416  1.00  0.00    -0.203 F 
ATOM     79  C   UNL A   1      41.964  27.441  26.197  1.00  0.00     0.198 A 
ATOM     80  C   UNL A   1      40.527  25.762  27.131  1.00  0.00     0.198 A 
ATOM     81  F   UNL A   1      39.551  26.094  29.247  1.00  0.00    -0.203 F 
ATOM     82  F   UNL A   1      42.710  27.898  25.181  1.00  0.00    -0.200 F 
ATOM     83  C   UNL A   1      41.326  26.215  26.091  1.00  0.00     0.200 A 
ATOM     84  F   UNL A   1      39.921  24.571  27.040  1.00  0.00    -0.200 F 
ATOM     85  F   UNL A   1      41.470  25.475  24.984  1.00  0.00    -0.200 F 
ENDBRANCH  51  75
BRANCH  63  86
ATOM     86  C   UNL A   1      44.143  28.157  34.599  1.00  0.00     0.064 A 
ATOM     87  C   UNL A   1      45.474  28.588  34.503  1.00  0.00     0.173 A 
ATOM     88  C   UNL A   1      43.886  26.975  35.311  1.00  0.00     0.173 A 
ATOM     89  F   UNL A   1      45.775  29.704  33.822  1.00  0.00    -0.203 F 
ATOM     90  C   UNL A   1      46.509  27.847  35.066  1.00  0.00     0.198 A 
ATOM     91  C   UNL A   1      44.920  26.256  35.905  1.00  0.00     0.198 A 
ATOM     92  F   UNL A   1      42.630  26.521  35.440  1.00  0.00    -0.203 F 
ATOM     93  F   UNL A   1      47.779  28.247  34.911  1.00  0.00    -0.200 F 
ATOM     94  C   UNL A   1      46.231  26.687  35.773  1.00  0.00     0.200 A 
ATOM     95  F   UNL A   1      44.647  25.144  36.602  1.00  0.00    -0.200 F 
ATOM     96  F   UNL A   1      47.228  25.978  36.320  1.00  0.00    -0.200 F 
ENDBRANCH  63  86
ENDBRANCH  37  38
ENDBRANCH  29  32
ENDBRANCH  27  28
ENDBRANCH  26  27
ENDBRANCH  25  26
ENDBRANCH   1  25
TORSDOF 18
ENDMDL
MODEL 2
REMARK VINA RESULT:     -11.2      5.035     10.752
REMARK SMILES COc1ccc(C[C@H](C)[C@](O)(C(=O)NCCCCNC(=O)c2ccc(-c3c4nc(c(-c5c(F)c(F)c(F)c(F)c5F)c5ccc([nH]5)c(-c5c(F)c(F)c(F)c(F)c5F)c5nc(c(-c6c(F)c(F)c(F)c(F)c6F)c6ccc3[nH]6)C=C5)C=C4)cc2)C(C)C)cc1OC
REMARK SMILES IDX 15 1 14 2 12 3 13 4 10 6 8 7 9 8 7 9 6 10 3 11 4 12 89 13
REMARK SMILES IDX 5 14 88 15 2 16 1 17 90 18 91 19 85 20 86 21 87 22 11 23
REMARK SMILES IDX 16 25 17 26 18 27 19 28 20 29 21 31 22 32 23 33 84 34 24 35
REMARK SMILES IDX 83 36 25 37 26 38 27 39 77 40 28 41 82 42 76 43 78 44 29 45
REMARK SMILES IDX 81 46 75 47 74 48 30 50 62 51 42 52 61 53 43 54 46 55 60 56
REMARK SMILES IDX 79 57 44 58 45 59 59 61 80 62 47 63 31 64 32 65 40 66 33 67
REMARK SMILES IDX 34 68 38 69 41 70 35 71 36 72 39 73 37 74 63 75 64 76 72 77
REMARK SMILES IDX 65 78 66 79 70 80 73 81 67 82 68 83 71 84 69 85 48 86 49 87
REMARK SMILES IDX 57 88 50 89 51 90 55 91 58 92 52 93 53 94 56 95 54 96
REMARK H PARENT 14 5 11 24 19 30 78 49 46 60
REMARK Flexibility Score: inf
ROOT
ATOM      1  C   UNL A   1      36.506  21.571  25.421  1.00  0.00     0.116 C 
ENDROOT
BRANCH   1   2
ATOM      2  N   UNL A   1      36.252  22.456  24.295  1.00  0.00    -0.354 N 
ATOM      3  C   UNL A   1      35.069  22.901  23.771  1.00  0.00     0.252 C 
ATOM      4  O   UNL A   1      35.144  23.764  22.893  1.00  0.00    -0.272 OA
ATOM      5  H   UNL A   1      37.059  22.787  23.837  1.00  0.00     0.163 HD
BRANCH   3   6
ATOM      6  C   UNL A   1      33.694  22.377  24.333  1.00  0.00     0.148 C 
BRANCH   6   7
ATOM      7  C   UNL A   1      33.521  23.088  25.739  1.00  0.00     0.032 C 
ATOM      8  C   UNL A   1      33.666  22.127  26.921  1.00  0.00     0.011 C 
BRANCH   7   9
ATOM      9  C   UNL A   1      34.125  24.514  25.916  1.00  0.00     0.042 C 
BRANCH   9  10
ATOM     10  C   UNL A   1      33.368  25.812  25.734  1.00  0.00    -0.044 A 
ATOM     11  C   UNL A   1      31.977  28.196  25.090  1.00  0.00     0.160 A 
ATOM     12  C   UNL A   1      31.393  27.223  25.907  1.00  0.00     0.051 A 
ATOM     13  C   UNL A   1      33.263  27.993  24.585  1.00  0.00     0.160 A 
ATOM     14  C   UNL A   1      32.067  26.033  26.195  1.00  0.00     0.008 A 
ATOM     15  C   UNL A   1      33.942  26.810  24.921  1.00  0.00     0.054 A 
BRANCH  11  16
ATOM     16  O   UNL A   1      31.297  29.362  24.866  1.00  0.00    -0.493 OA
ATOM     17  C   UNL A   1      30.495  29.297  23.687  1.00  0.00     0.278 C 
ENDBRANCH  11  16
BRANCH  13  18
ATOM     18  O   UNL A   1      33.990  28.820  23.769  1.00  0.00    -0.493 OA
ATOM     19  C   UNL A   1      33.968  28.560  22.374  1.00  0.00     0.278 C 
ENDBRANCH  13  18
ENDBRANCH   9  10
ENDBRANCH   7   9
ENDBRANCH   6   7
BRANCH   6  20
ATOM     20  C   UNL A   1      32.546  22.649  23.299  1.00  0.00     0.025 C 
ATOM     21  C   UNL A   1      32.153  21.409  22.467  1.00  0.00     0.011 C 
ATOM     22  C   UNL A   1      31.258  23.154  23.962  1.00  0.00     0.011 C 
ENDBRANCH   6  20
BRANCH   6  23
ATOM     23  O   UNL A   1      33.788  20.956  24.513  1.00  0.00    -0.379 OA
ATOM     24  H   UNL A   1      34.525  20.753  25.109  1.00  0.00     0.212 HD
ENDBRANCH   6  23
ENDBRANCH   3   6
ENDBRANCH   1   2
BRANCH   1  25
ATOM     25  C   UNL A   1      36.565  20.108  25.000  1.00  0.00     0.023 C 
BRANCH  25  26
ATOM     26  C   UNL A   1      37.975  19.572  24.755  1.00  0.00     0.023 C 
BRANCH  26  27
ATOM     27  C   UNL A   1      39.031  20.040  25.751  1.00  0.00     0.116 C 
BRANCH  27  28
ATOM     28  N   UNL A   1      40.142  19.109  25.877  1.00  0.00    -0.352 N 
ATOM     29  C   UNL A   1      41.468  19.363  26.123  1.00  0.00     0.251 C 
ATOM     30  H   UNL A   1      39.908  18.158  25.773  1.00  0.00     0.163 HD
ATOM     31  O   UNL A   1      42.291  18.451  26.048  1.00  0.00    -0.269 OA
BRANCH  29  32
ATOM     32  C   UNL A   1      41.919  20.732  26.452  1.00  0.00     0.039 A 
ATOM     33  C   UNL A   1      42.025  21.670  25.422  1.00  0.00     0.014 A 
ATOM     34  C   UNL A   1      42.249  21.092  27.761  1.00  0.00     0.014 A 
ATOM     35  C   UNL A   1      42.415  22.979  25.713  1.00  0.00     0.010 A 
ATOM     36  C   UNL A   1      42.550  22.419  28.063  1.00  0.00     0.010 A 
ATOM     37  C   UNL A   1      42.653  23.373  27.040  1.00  0.00    -0.014 A 
BRANCH  37  38
ATOM     38  C   UNL A   1      43.037  24.772  27.364  1.00  0.00     0.031 A 
ATOM     39  C   UNL A   1      44.441  25.250  27.106  1.00  0.00     0.074 A 
ATOM     40  C   UNL A   1      42.133  25.604  27.915  1.00  0.00     0.049 A 
ATOM     41  N   UNL A   1      44.971  26.426  27.332  1.00  0.00    -0.248 NA
ATOM     42  C   UNL A   1      45.384  24.269  26.544  1.00  0.00     0.031 C 
ATOM     43  C   UNL A   1      40.755  25.248  28.260  1.00  0.00     0.029 A 
ATOM     44  N   UNL A   1      42.237  26.923  28.284  1.00  0.00    -0.354 N 
ATOM     45  C   UNL A   1      46.301  26.322  26.946  1.00  0.00     0.074 A 
ATOM     46  C   UNL A   1      46.519  24.952  26.538  1.00  0.00     0.031 C 
ATOM     47  C   UNL A   1      40.132  26.330  28.756  1.00  0.00     0.029 A 
ATOM     48  C   UNL A   1      41.075  27.443  28.801  1.00  0.00     0.049 A 
ATOM     49  H   UNL A   1      43.065  27.446  28.187  1.00  0.00     0.167 HD
ATOM     50  C   UNL A   1      47.249  27.289  26.905  1.00  0.00     0.037 A 
ATOM     51  C   UNL A   1      40.803  28.680  29.261  1.00  0.00     0.037 A 
ATOM     52  C   UNL A   1      47.027  28.657  27.292  1.00  0.00     0.049 A 
ATOM     53  C   UNL A   1      41.881  29.730  29.221  1.00  0.00     0.074 A 
ATOM     54  C   UNL A   1      47.907  29.724  27.238  1.00  0.00     0.029 A 
ATOM     55  N   UNL A   1      45.836  29.147  27.811  1.00  0.00    -0.354 N 
ATOM     56  N   UNL A   1      43.113  29.640  28.781  1.00  0.00    -0.248 NA
ATOM     57  C   UNL A   1      41.528  31.061  29.738  1.00  0.00     0.031 C 
ATOM     58  C   UNL A   1      47.268  30.846  27.775  1.00  0.00     0.029 A 
ATOM     59  C   UNL A   1      45.969  30.495  28.106  1.00  0.00     0.049 A 
ATOM     60  H   UNL A   1      45.020  28.615  27.949  1.00  0.00     0.167 HD
ATOM     61  C   UNL A   1      43.669  30.903  28.938  1.00  0.00     0.074 A 
ATOM     62  C   UNL A   1      42.633  31.748  29.492  1.00  0.00     0.031 C 
ATOM     63  C   UNL A   1      44.926  31.324  28.653  1.00  0.00     0.037 A 
BRANCH  50  64
ATOM     64  C   UNL A   1      48.616  26.902  26.414  1.00  0.00     0.064 A 
ATOM     65  C   UNL A   1      49.590  26.383  27.282  1.00  0.00     0.173 A 
ATOM     66  C   UNL A   1      48.945  27.013  25.055  1.00  0.00     0.173 A 
ATOM     67  F   UNL A   1      49.333  26.267  28.594  1.00  0.00    -0.203 F 
ATOM     68  C   UNL A   1      50.850  26.019  26.813  1.00  0.00     0.198 A 
ATOM     69  C   UNL A   1      50.193  26.615  24.583  1.00  0.00     0.198 A 
ATOM     70  F   UNL A   1      48.051  27.495  24.179  1.00  0.00    -0.203 F 
ATOM     71  F   UNL A   1      51.780  25.577  27.670  1.00  0.00    -0.200 F 
ATOM     72  C   UNL A   1      51.147  26.127  25.464  1.00  0.00     0.200 A 
ATOM     73  F   UNL A   1      50.474  26.705  23.276  1.00  0.00    -0.200 F 
ATOM     74  F   UNL A   1      52.357  25.767  25.011  1.00  0.00    -0.200 F 
ENDBRANCH  50  64
BRANCH  51  75
ATOM     75  C   UNL A   1      39.446  29.006  29.778  1.00  0.00     0.064 A 
ATOM     76  C   UNL A   1      38.472  29.571  28.943  1.00  0.00     0.173 A 
ATOM     77  C   UNL A   1      39.105  28.788  31.121  1.00  0.00     0.173 A 
ATOM     78  F   UNL A   1      38.755  29.818  27.655  1.00  0.00    -0.203 F 
ATOM     79  C   UNL A   1      37.221  29.934  29.437  1.00  0.00     0.198 A 
ATOM     80  C   UNL A   1      37.841  29.121  31.606  1.00  0.00     0.198 A 
ATOM     81  F   UNL A   1      39.997  28.247  31.963  1.00  0.00    -0.203 F 
ATOM     82  F   UNL A   1      36.331  30.528  28.629  1.00  0.00    -0.200 F 
ATOM     83  C   UNL A   1      36.904  29.704  30.767  1.00  0.00     0.200 A 
ATOM     84  F   UNL A   1      37.535  28.882  32.889  1.00  0.00    -0.200 F 
ATOM     85  F   UNL A   1      35.702  30.055  31.242  1.00  0.00    -0.200 F 
ENDBRANCH  51  75
BRANCH  63  86
ATOM     86  C   UNL A   1      45.239  32.773  28.903  1.00  0.00     0.064 A 
ATOM     87  C   UNL A   1      45.820  33.205  30.105  1.00  0.00     0.173 A 
ATOM     88  C   UNL A   1      44.980  33.737  27.917  1.00  0.00     0.173 A 
ATOM     89  F   UNL A   1      46.076  32.327  31.086  1.00  0.00    -0.203 F 
ATOM     90  C   UNL A   1      46.096  34.553  30.322  1.00  0.00     0.198 A 
ATOM     91  C   UNL A   1      45.292  35.077  28.123  1.00  0.00     0.198 A 
ATOM     92  F   UNL A   1      44.433  33.376  26.745  1.00  0.00    -0.203 F 
ATOM     93  F   UNL A   1      46.596  34.950  31.501  1.00  0.00    -0.200 F 
ATOM     94  C   UNL A   1      45.840  35.486  29.330  1.00  0.00     0.200 A 
ATOM     95  F   UNL A   1      45.059  35.975  27.155  1.00  0.00    -0.200 F 
ATOM     96  F   UNL A   1      46.112  36.781  29.538  1.00  0.00    -0.200 F 
ENDBRANCH  63  86
ENDBRANCH  37  38
ENDBRANCH  29  32
ENDBRANCH  27  28
ENDBRANCH  26  27
ENDBRANCH  25  26
ENDBRANCH   1  25
TORSDOF 18
ENDMDL
MODEL 3
REMARK VINA RESULT:     -11.1      0.878      7.396
REMARK SMILES COc1ccc(C[C@H](C)[C@](O)(C(=O)NCCCCNC(=O)c2ccc(-c3c4nc(c(-c5c(F)c(F)c(F)c(F)c5F)c5ccc([nH]5)c(-c5c(F)c(F)c(F)c(F)c5F)c5nc(c(-c6c(F)c(F)c(F)c(F)c6F)c6ccc3[nH]6)C=C5)C=C4)cc2)C(C)C)cc1OC
REMARK SMILES IDX 15 1 14 2 12 3 13 4 10 6 8 7 9 8 7 9 6 10 3 11 4 12 89 13
REMARK SMILES IDX 5 14 88 15 2 16 1 17 90 18 91 19 85 20 86 21 87 22 11 23
REMARK SMILES IDX 16 25 17 26 18 27 19 28 20 29 21 31 22 32 23 33 84 34 24 35
REMARK SMILES IDX 83 36 25 37 26 38 27 39 77 40 28 41 82 42 76 43 78 44 29 45
REMARK SMILES IDX 81 46 75 47 74 48 30 50 62 51 42 52 61 53 43 54 46 55 60 56
REMARK SMILES IDX 79 57 44 58 45 59 59 61 80 62 47 63 31 64 32 65 40 66 33 67
REMARK SMILES IDX 34 68 38 69 41 70 35 71 36 72 39 73 37 74 63 75 64 76 72 77
REMARK SMILES IDX 65 78 66 79 70 80 73 81 67 82 68 83 71 84 69 85 48 86 49 87
REMARK SMILES IDX 57 88 50 89 51 90 55 91 58 92 52 93 53 94 56 95 54 96
REMARK H PARENT 14 5 11 24 19 30 78 49 46 60
REMARK Flexibility Score: inf
ROOT
ATOM      1  C   UNL A   1      32.318  30.024  26.000  1.00  0.00     0.116 C 
ENDROOT
BRANCH   1   2
ATOM      2  N   UNL A   1      31.698  28.894  26.673  1.00  0.00    -0.354 N 
ATOM      3  C   UNL A   1      31.352  27.660  26.193  1.00  0.00     0.252 C 
ATOM      4  O   UNL A   1      30.965  26.833  27.022  1.00  0.00    -0.272 OA
ATOM      5  H   UNL A   1      31.494  29.040  27.626  1.00  0.00     0.163 HD
BRANCH   3   6
ATOM      6  C   UNL A   1      31.523  27.317  24.665  1.00  0.00     0.148 C 
BRANCH   6   7
ATOM      7  C   UNL A   1      33.055  26.953  24.489  1.00  0.00     0.032 C 
ATOM      8  C   UNL A   1      33.867  28.067  23.825  1.00  0.00     0.011 C 
BRANCH   7   9
ATOM      9  C   UNL A   1      33.756  26.164  25.637  1.00  0.00     0.042 C 
BRANCH   9  10
ATOM     10  C   UNL A   1      33.691  24.664  25.832  1.00  0.00    -0.044 A 
ATOM     11  C   UNL A   1      33.787  21.892  26.413  1.00  0.00     0.160 A 
ATOM     12  C   UNL A   1      32.585  22.601  26.495  1.00  0.00     0.051 A 
ATOM     13  C   UNL A   1      34.957  22.556  26.038  1.00  0.00     0.160 A 
ATOM     14  C   UNL A   1      32.547  23.975  26.243  1.00  0.00     0.008 A 
ATOM     15  C   UNL A   1      34.890  23.929  25.745  1.00  0.00     0.054 A 
BRANCH  11  16
ATOM     16  O   UNL A   1      33.771  20.541  26.630  1.00  0.00    -0.493 OA
ATOM     17  C   UNL A   1      33.092  19.838  25.591  1.00  0.00     0.278 C 
ENDBRANCH  11  16
BRANCH  13  18
ATOM     18  O   UNL A   1      36.219  22.037  25.911  1.00  0.00    -0.493 OA
ATOM     19  C   UNL A   1      37.273  22.933  25.594  1.00  0.00     0.278 C 
ENDBRANCH  13  18
ENDBRANCH   9  10
ENDBRANCH   7   9
ENDBRANCH   6   7
BRANCH   6  20
ATOM     20  C   UNL A   1      30.514  26.191  24.246  1.00  0.00     0.025 C 
ATOM     21  C   UNL A   1      29.131  26.725  23.816  1.00  0.00     0.011 C 
ATOM     22  C   UNL A   1      31.031  25.335  23.083  1.00  0.00     0.011 C 
ENDBRANCH   6  20
BRANCH   6  23
ATOM     23  O   UNL A   1      31.209  28.488  23.897  1.00  0.00    -0.379 OA
ATOM     24  H   UNL A   1      31.058  28.238  22.973  1.00  0.00     0.212 HD
ENDBRANCH   6  23
ENDBRANCH   3   6
ENDBRANCH   1   2
BRANCH   1  25
ATOM     25  C   UNL A   1      31.334  31.164  25.765  1.00  0.00     0.023 C 
BRANCH  25  26
ATOM     26  C   UNL A   1      31.273  32.194  26.893  1.00  0.00     0.023 C 
BRANCH  26  27
ATOM     27  C   UNL A   1      32.577  32.936  27.167  1.00  0.00     0.116 C 
BRANCH  27  28
ATOM     28  N   UNL A   1      32.368  34.307  27.605  1.00  0.00    -0.352 N 
ATOM     29  C   UNL A   1      32.980  35.003  28.616  1.00  0.00     0.251 C 
ATOM     30  H   UNL A   1      31.688  34.810  27.100  1.00  0.00     0.163 HD
ATOM     31  O   UNL A   1      32.563  36.116  28.935  1.00  0.00    -0.269 OA
BRANCH  29  32
ATOM     32  C   UNL A   1      34.123  34.413  29.344  1.00  0.00     0.039 A 
ATOM     33  C   UNL A   1      33.874  33.687  30.511  1.00  0.00     0.014 A 
ATOM     34  C   UNL A   1      35.436  34.580  28.893  1.00  0.00     0.014 A 
ATOM     35  C   UNL A   1      34.933  33.089  31.197  1.00  0.00     0.010 A 
ATOM     36  C   UNL A   1      36.480  33.909  29.526  1.00  0.00     0.010 A 
ATOM     37  C   UNL A   1      36.243  33.171  30.695  1.00  0.00    -0.014 A 
BRANCH  37  38
ATOM     38  C   UNL A   1      37.373  32.512  31.400  1.00  0.00     0.031 A 
ATOM     39  C   UNL A   1      38.102  31.364  30.755  1.00  0.00     0.074 A 
ATOM     40  C   UNL A   1      37.727  32.927  32.632  1.00  0.00     0.049 A 
ATOM     41  N   UNL A   1      39.103  30.653  31.214  1.00  0.00    -0.248 NA
ATOM     42  C   UNL A   1      37.629  30.938  29.428  1.00  0.00     0.031 C 
ATOM     43  C   UNL A   1      37.069  33.996  33.386  1.00  0.00     0.029 A 
ATOM     44  N   UNL A   1      38.728  32.499  33.469  1.00  0.00    -0.354 N 
ATOM     45  C   UNL A   1      39.369  29.701  30.240  1.00  0.00     0.074 A 
ATOM     46  C   UNL A   1      38.385  29.876  29.195  1.00  0.00     0.031 C 
ATOM     47  C   UNL A   1      37.704  34.164  34.557  1.00  0.00     0.029 A 
ATOM     48  C   UNL A   1      38.788  33.192  34.655  1.00  0.00     0.049 A 
ATOM     49  H   UNL A   1      39.344  31.766  33.241  1.00  0.00     0.167 HD
ATOM     50  C   UNL A   1      40.366  28.783  30.202  1.00  0.00     0.037 A 
ATOM     51  C   UNL A   1      39.624  33.055  35.702  1.00  0.00     0.037 A 
ATOM     52  C   UNL A   1      41.357  28.623  31.232  1.00  0.00     0.049 A 
ATOM     53  C   UNL A   1      40.711  32.013  35.641  1.00  0.00     0.074 A 
ATOM     54  C   UNL A   1      42.437  27.759  31.265  1.00  0.00     0.029 A 
ATOM     55  N   UNL A   1      41.385  29.343  32.419  1.00  0.00    -0.354 N 
ATOM     56  N   UNL A   1      41.001  31.171  34.679  1.00  0.00    -0.248 NA
ATOM     57  C   UNL A   1      41.592  31.908  36.814  1.00  0.00     0.031 C 
ATOM     58  C   UNL A   1      43.087  27.916  32.493  1.00  0.00     0.029 A 
ATOM     59  C   UNL A   1      42.450  28.923  33.200  1.00  0.00     0.049 A 
ATOM     60  H   UNL A   1      40.745  30.047  32.667  1.00  0.00     0.167 HD
ATOM     61  C   UNL A   1      42.113  30.461  35.115  1.00  0.00     0.074 A 
ATOM     62  C   UNL A   1      42.458  30.987  36.419  1.00  0.00     0.031 C 
ATOM     63  C   UNL A   1      42.784  29.460  34.494  1.00  0.00     0.037 A 
BRANCH  50  64
ATOM     64  C   UNL A   1      40.438  27.885  29.000  1.00  0.00     0.064 A 
ATOM     65  C   UNL A   1      39.703  26.690  28.929  1.00  0.00     0.173 A 
ATOM     66  C   UNL A   1      41.217  28.239  27.888  1.00  0.00     0.173 A 
ATOM     67  F   UNL A   1      38.950  26.297  29.967  1.00  0.00    -0.203 F 
ATOM     68  C   UNL A   1      39.771  25.871  27.804  1.00  0.00     0.198 A 
ATOM     69  C   UNL A   1      41.256  27.435  26.752  1.00  0.00     0.198 A 
ATOM     70  F   UNL A   1      41.934  29.373  27.898  1.00  0.00    -0.203 F 
ATOM     71  F   UNL A   1      39.104  24.709  27.782  1.00  0.00    -0.200 F 
ATOM     72  C   UNL A   1      40.540  26.248  26.715  1.00  0.00     0.200 A 
ATOM     73  F   UNL A   1      41.987  27.809  25.693  1.00  0.00    -0.200 F 
ATOM     74  F   UNL A   1      40.597  25.464  25.629  1.00  0.00    -0.200 F 
ENDBRANCH  50  64
BRANCH  51  75
ATOM     75  C   UNL A   1      39.488  33.939  36.890  1.00  0.00     0.064 A 
ATOM     76  C   UNL A   1      40.114  35.193  36.933  1.00  0.00     0.173 A 
ATOM     77  C   UNL A   1      38.756  33.540  38.018  1.00  0.00     0.173 A 
ATOM     78  F   UNL A   1      40.843  35.613  35.889  1.00  0.00    -0.203 F 
ATOM     79  C   UNL A   1      40.040  35.999  38.068  1.00  0.00     0.198 A 
ATOM     80  C   UNL A   1      38.654  34.361  39.140  1.00  0.00     0.198 A 
ATOM     81  F   UNL A   1      38.133  32.352  38.030  1.00  0.00    -0.203 F 
ATOM     82  F   UNL A   1      40.699  37.165  38.102  1.00  0.00    -0.200 F 
ATOM     83  C   UNL A   1      39.306  35.584  39.168  1.00  0.00     0.200 A 
ATOM     84  F   UNL A   1      37.930  33.962  40.195  1.00  0.00    -0.200 F 
ATOM     85  F   UNL A   1      39.236  36.358  40.260  1.00  0.00    -0.200 F 
ENDBRANCH  51  75
BRANCH  63  86
ATOM     86  C   UNL A   1      43.982  28.892  35.203  1.00  0.00     0.064 A 
ATOM     87  C   UNL A   1      43.874  27.801  36.078  1.00  0.00     0.173 A 
ATOM     88  C   UNL A   1      45.259  29.430  34.982  1.00  0.00     0.173 A 
ATOM     89  F   UNL A   1      42.674  27.258  36.335  1.00  0.00    -0.203 F 
ATOM     90  C   UNL A   1      44.993  27.294  36.732  1.00  0.00     0.198 A 
ATOM     91  C   UNL A   1      46.382  28.896  35.608  1.00  0.00     0.198 A 
ATOM     92  F   UNL A   1      45.421  30.469  34.148  1.00  0.00    -0.203 F 
ATOM     93  F   UNL A   1      44.856  26.289  37.608  1.00  0.00    -0.200 F 
ATOM     94  C   UNL A   1      46.246  27.835  36.491  1.00  0.00     0.200 A 
ATOM     95  F   UNL A   1      47.595  29.411  35.361  1.00  0.00    -0.200 F 
ATOM     96  F   UNL A   1      47.323  27.342  37.116  1.00  0.00    -0.200 F 
ENDBRANCH  63  86
ENDBRANCH  37  38
ENDBRANCH  29  32
ENDBRANCH  27  28
ENDBRANCH  26  27
ENDBRANCH  25  26
ENDBRANCH   1  25
TORSDOF 18
ENDMDL
