MODEL 1
REMARK VINA RESULT:     -12.9      0.000      0.000
REMARK SMILES C[C@]1(C(=O)Nc2ccc(C(=O)NCCCCNC(=O)c3ccc(-c4c5nc(c(-c6c(F)c(F)c(F)c(F)c6F)c6ccc([nH]6)c(-c6c(F)c(F)c(F)c(F)c6F)c6nc(c(-c7c(F)c(F)c(F)c(F)c7F)c7ccc4[nH]7)C=C6)C=C5)cc3)c(O)c2)CCCO1
REMARK SMILES IDX 14 1 13 2 12 3 10 4 11 5 9 7 6 8 7 9 85 10 8 11 83 12 5 13
REMARK SMILES IDX 3 14 4 15 2 17 1 18 86 19 89 20 87 21 88 22 84 23 15 25
REMARK SMILES IDX 16 26 17 27 18 28 19 30 20 31 21 32 82 33 22 34 81 35 23 36
REMARK SMILES IDX 24 37 25 38 75 39 26 40 80 41 74 42 76 43 27 44 79 45 73 46
REMARK SMILES IDX 72 47 28 49 60 50 40 51 59 52 41 53 44 54 58 55 77 56 42 57
REMARK SMILES IDX 43 58 57 60 78 61 45 62 29 63 30 64 38 65 31 66 32 67 36 68
REMARK SMILES IDX 39 69 33 70 34 71 37 72 35 73 61 74 62 75 70 76 63 77 64 78
REMARK SMILES IDX 68 79 71 80 65 81 66 82 69 83 67 84 46 85 47 86 55 87 48 88
REMARK SMILES IDX 49 89 53 90 56 91 50 92 51 93 54 94 52 95
REMARK H PARENT 12 6 5 16 84 24 17 29 76 48 44 59
REMARK Flexibility Score: inf
ROOT
ATOM      1  C   UNL A   1      31.126  29.270  24.522  1.00  0.00     0.023 C 
ENDROOT
BRANCH   1   2
ATOM      2  C   UNL A   1      31.153  29.215  22.995  1.00  0.00     0.116 C 
BRANCH   2   3
ATOM      3  N   UNL A   1      32.473  29.084  22.397  1.00  0.00    -0.352 N 
ATOM      4  C   UNL A   1      33.294  27.986  22.248  1.00  0.00     0.255 C 
ATOM      5  O   UNL A   1      34.358  28.138  21.650  1.00  0.00    -0.269 OA
ATOM      6  H   UNL A   1      32.843  29.923  22.037  1.00  0.00     0.163 HD
BRANCH   4   7
ATOM      7  C   UNL A   1      32.992  26.660  22.859  1.00  0.00     0.081 A 
ATOM      8  C   UNL A   1      32.108  24.543  24.462  1.00  0.00     0.045 A 
ATOM      9  C   UNL A   1      33.182  25.319  24.885  1.00  0.00     0.027 A 
ATOM     10  C   UNL A   1      31.655  24.659  23.147  1.00  0.00     0.073 A 
ATOM     11  C   UNL A   1      33.606  26.391  24.095  1.00  0.00     0.020 A 
ATOM     12  C   UNL A   1      32.119  25.702  22.342  1.00  0.00     0.130 A 
BRANCH   8  13
ATOM     13  N   UNL A   1      31.452  23.645  25.301  1.00  0.00    -0.323 N 
ATOM     14  C   UNL A   1      31.349  22.284  25.294  1.00  0.00     0.256 C 
ATOM     15  O   UNL A   1      30.506  21.828  26.086  1.00  0.00    -0.271 OA
ATOM     16  H   UNL A   1      30.969  24.076  26.043  1.00  0.00     0.170 HD
BRANCH  14  17
ATOM     17  C   UNL A   1      32.265  21.292  24.485  1.00  0.00     0.144 C 
ATOM     18  C   UNL A   1      32.236  21.247  22.952  1.00  0.00     0.053 C 
ATOM     19  C   UNL A   1      33.728  21.542  24.920  1.00  0.00     0.048 C 
ATOM     20  O   UNL A   1      31.979  19.942  24.937  1.00  0.00    -0.365 OA
ATOM     21  C   UNL A   1      34.340  20.164  24.845  1.00  0.00     0.032 C 
ATOM     22  C   UNL A   1      33.201  19.302  25.337  1.00  0.00     0.162 C 
ENDBRANCH  14  17
ENDBRANCH   8  13
BRANCH  12  23
ATOM     23  O   UNL A   1      31.670  25.697  21.052  1.00  0.00    -0.507 OA
ATOM     24  H   UNL A   1      30.869  26.132  20.833  1.00  0.00     0.293 HD
ENDBRANCH  12  23
ENDBRANCH   4   7
ENDBRANCH   2   3
ENDBRANCH   1   2
BRANCH   1  25
ATOM     25  C   UNL A   1      32.391  29.758  25.226  1.00  0.00     0.023 C 
BRANCH  25  26
ATOM     26  C   UNL A   1      32.243  30.211  26.675  1.00  0.00     0.116 C 
BRANCH  26  27
ATOM     27  N   UNL A   1      32.303  31.654  26.852  1.00  0.00    -0.352 N 
ATOM     28  C   UNL A   1      33.256  32.448  27.442  1.00  0.00     0.251 C 
ATOM     29  H   UNL A   1      31.529  32.144  26.488  1.00  0.00     0.163 HD
ATOM     30  O   UNL A   1      33.047  33.657  27.555  1.00  0.00    -0.269 OA
BRANCH  28  31
ATOM     31  C   UNL A   1      34.510  31.876  27.983  1.00  0.00     0.039 A 
ATOM     32  C   UNL A   1      35.603  32.728  28.176  1.00  0.00     0.014 A 
ATOM     33  C   UNL A   1      34.633  30.520  28.294  1.00  0.00     0.014 A 
ATOM     34  C   UNL A   1      36.777  32.240  28.758  1.00  0.00     0.010 A 
ATOM     35  C   UNL A   1      35.766  30.056  28.962  1.00  0.00     0.010 A 
ATOM     36  C   UNL A   1      36.851  30.910  29.204  1.00  0.00    -0.014 A 
BRANCH  36  37
ATOM     37  C   UNL A   1      38.050  30.420  29.940  1.00  0.00     0.031 A 
ATOM     38  C   UNL A   1      38.307  30.840  31.362  1.00  0.00     0.074 A 
ATOM     39  C   UNL A   1      38.934  29.622  29.309  1.00  0.00     0.049 A 
ATOM     40  N   UNL A   1      39.293  30.505  32.159  1.00  0.00    -0.248 NA
ATOM     41  C   UNL A   1      37.351  31.782  31.963  1.00  0.00     0.031 C 
ATOM     42  C   UNL A   1      38.837  29.196  27.910  1.00  0.00     0.029 A 
ATOM     43  N   UNL A   1      40.086  29.023  29.757  1.00  0.00    -0.354 N 
ATOM     44  C   UNL A   1      39.076  31.195  33.344  1.00  0.00     0.074 A 
ATOM     45  C   UNL A   1      37.905  32.019  33.142  1.00  0.00     0.031 C 
ATOM     46  C   UNL A   1      39.860  28.373  27.628  1.00  0.00     0.029 A 
ATOM     47  C   UNL A   1      40.706  28.243  28.809  1.00  0.00     0.049 A 
ATOM     48  H   UNL A   1      40.434  29.141  30.669  1.00  0.00     0.167 HD
ATOM     49  C   UNL A   1      39.771  31.128  34.506  1.00  0.00     0.037 A 
ATOM     50  C   UNL A   1      41.830  27.504  28.884  1.00  0.00     0.037 A 
ATOM     51  C   UNL A   1      40.929  30.294  34.709  1.00  0.00     0.049 A 
ATOM     52  C   UNL A   1      42.585  27.447  30.186  1.00  0.00     0.074 A 
ATOM     53  C   UNL A   1      41.666  30.109  35.866  1.00  0.00     0.029 A 
ATOM     54  N   UNL A   1      41.524  29.513  33.729  1.00  0.00    -0.354 N 
ATOM     55  N   UNL A   1      42.317  28.035  31.326  1.00  0.00    -0.248 NA
ATOM     56  C   UNL A   1      43.793  26.612  30.212  1.00  0.00     0.031 C 
ATOM     57  C   UNL A   1      42.741  29.263  35.570  1.00  0.00     0.029 A 
ATOM     58  C   UNL A   1      42.636  28.867  34.247  1.00  0.00     0.049 A 
ATOM     59  H   UNL A   1      41.203  29.430  32.801  1.00  0.00     0.167 HD
ATOM     60  C   UNL A   1      43.304  27.621  32.210  1.00  0.00     0.074 A 
ATOM     61  C   UNL A   1      44.161  26.711  31.480  1.00  0.00     0.031 C 
ATOM     62  C   UNL A   1      43.484  27.965  33.510  1.00  0.00     0.037 A 
BRANCH  49  63
ATOM     63  C   UNL A   1      39.296  31.975  35.653  1.00  0.00     0.064 A 
ATOM     64  C   UNL A   1      38.388  31.486  36.605  1.00  0.00     0.173 A 
ATOM     65  C   UNL A   1      39.783  33.279  35.827  1.00  0.00     0.173 A 
ATOM     66  F   UNL A   1      37.883  30.248  36.483  1.00  0.00    -0.203 F 
ATOM     67  C   UNL A   1      37.962  32.279  37.667  1.00  0.00     0.198 A 
ATOM     68  C   UNL A   1      39.382  34.059  36.909  1.00  0.00     0.198 A 
ATOM     69  F   UNL A   1      40.658  33.797  34.951  1.00  0.00    -0.203 F 
ATOM     70  F   UNL A   1      37.052  31.809  38.532  1.00  0.00    -0.200 F 
ATOM     71  C   UNL A   1      38.465  33.562  37.822  1.00  0.00     0.200 A 
ATOM     72  F   UNL A   1      39.882  35.292  37.067  1.00  0.00    -0.200 F 
ATOM     73  F   UNL A   1      38.061  34.322  38.849  1.00  0.00    -0.200 F 
ENDBRANCH  49  63
BRANCH  50  74
ATOM     74  C   UNL A   1      42.295  26.733  27.700  1.00  0.00     0.064 A 
ATOM     75  C   UNL A   1      41.810  25.442  27.443  1.00  0.00     0.173 A 
ATOM     76  C   UNL A   1      43.239  27.262  26.809  1.00  0.00     0.173 A 
ATOM     77  F   UNL A   1      40.921  24.883  28.276  1.00  0.00    -0.203 F 
ATOM     78  C   UNL A   1      42.271  24.702  26.356  1.00  0.00     0.198 A 
ATOM     79  C   UNL A   1      43.674  26.534  25.702  1.00  0.00     0.198 A 
ATOM     80  F   UNL A   1      43.731  28.495  27.004  1.00  0.00    -0.203 F 
ATOM     81  F   UNL A   1      41.831  23.451  26.165  1.00  0.00    -0.200 F 
ATOM     82  C   UNL A   1      43.197  25.251  25.483  1.00  0.00     0.200 A 
ATOM     83  F   UNL A   1      44.557  27.076  24.852  1.00  0.00    -0.200 F 
ATOM     84  F   UNL A   1      43.637  24.541  24.435  1.00  0.00    -0.200 F 
ENDBRANCH  50  74
BRANCH  62  85
ATOM     85  C   UNL A   1      44.637  27.328  34.234  1.00  0.00     0.064 A 
ATOM     86  C   UNL A   1      45.899  27.939  34.300  1.00  0.00     0.173 A 
ATOM     87  C   UNL A   1      44.473  26.096  34.885  1.00  0.00     0.173 A 
ATOM     88  F   UNL A   1      46.114  29.112  33.684  1.00  0.00    -0.203 F 
ATOM     89  C   UNL A   1      46.961  27.322  34.955  1.00  0.00     0.198 A 
ATOM     90  C   UNL A   1      45.527  25.499  35.571  1.00  0.00     0.198 A 
ATOM     91  F   UNL A   1      43.286  25.471  34.862  1.00  0.00    -0.203 F 
ATOM     92  F   UNL A   1      48.173  27.894  34.948  1.00  0.00    -0.200 F 
ATOM     93  C   UNL A   1      46.773  26.107  35.595  1.00  0.00     0.200 A 
ATOM     94  F   UNL A   1      45.338  24.333  36.204  1.00  0.00    -0.200 F 
ATOM     95  F   UNL A   1      47.796  25.514  36.227  1.00  0.00    -0.200 F 
ENDBRANCH  62  85
ENDBRANCH  36  37
ENDBRANCH  28  31
ENDBRANCH  26  27
ENDBRANCH  25  26
ENDBRANCH   1  25
TORSDOF 14
ENDMDL
MODEL 2
REMARK VINA RESULT:     -12.7      3.287      4.594
REMARK SMILES C[C@]1(C(=O)Nc2ccc(C(=O)NCCCCNC(=O)c3ccc(-c4c5nc(c(-c6c(F)c(F)c(F)c(F)c6F)c6ccc([nH]6)c(-c6c(F)c(F)c(F)c(F)c6F)c6nc(c(-c7c(F)c(F)c(F)c(F)c7F)c7ccc4[nH]7)C=C6)C=C5)cc3)c(O)c2)CCCO1
REMARK SMILES IDX 14 1 13 2 12 3 10 4 11 5 9 7 6 8 7 9 85 10 8 11 83 12 5 13
REMARK SMILES IDX 3 14 4 15 2 17 1 18 86 19 89 20 87 21 88 22 84 23 15 25
REMARK SMILES IDX 16 26 17 27 18 28 19 30 20 31 21 32 82 33 22 34 81 35 23 36
REMARK SMILES IDX 24 37 25 38 75 39 26 40 80 41 74 42 76 43 27 44 79 45 73 46
REMARK SMILES IDX 72 47 28 49 60 50 40 51 59 52 41 53 44 54 58 55 77 56 42 57
REMARK SMILES IDX 43 58 57 60 78 61 45 62 29 63 30 64 38 65 31 66 32 67 36 68
REMARK SMILES IDX 39 69 33 70 34 71 37 72 35 73 61 74 62 75 70 76 63 77 64 78
REMARK SMILES IDX 68 79 71 80 65 81 66 82 69 83 67 84 46 85 47 86 55 87 48 88
REMARK SMILES IDX 49 89 53 90 56 91 50 92 51 93 54 94 52 95
REMARK H PARENT 12 6 5 16 84 24 17 29 76 48 44 59
REMARK Flexibility Score: inf
ROOT
ATOM      1  C   UNL A   1      31.889  26.579  26.489  1.00  0.00     0.023 C 
ENDROOT
BRANCH   1   2
ATOM      2  C   UNL A   1      30.585  26.156  25.815  1.00  0.00     0.116 C 
BRANCH   2   3
ATOM      3  N   UNL A   1      29.867  25.071  26.467  1.00  0.00    -0.352 N 
ATOM      4  C   UNL A   1      30.272  23.801  26.819  1.00  0.00     0.255 C 
ATOM      5  O   UNL A   1      29.470  23.083  27.416  1.00  0.00    -0.269 OA
ATOM      6  H   UNL A   1      28.931  25.280  26.695  1.00  0.00     0.163 HD
BRANCH   4   7
ATOM      7  C   UNL A   1      31.593  23.234  26.425  1.00  0.00     0.081 A 
ATOM      8  C   UNL A   1      33.840  21.622  25.989  1.00  0.00     0.045 A 
ATOM      9  C   UNL A   1      33.621  22.165  27.251  1.00  0.00     0.027 A 
ATOM     10  C   UNL A   1      33.094  22.089  24.905  1.00  0.00     0.073 A 
ATOM     11  C   UNL A   1      32.485  22.949  27.473  1.00  0.00     0.020 A 
ATOM     12  C   UNL A   1      31.989  22.915  25.125  1.00  0.00     0.130 A 
BRANCH   8  13
ATOM     13  N   UNL A   1      34.779  20.621  25.753  1.00  0.00    -0.323 N 
ATOM     14  C   UNL A   1      36.006  20.631  25.156  1.00  0.00     0.256 C 
ATOM     15  O   UNL A   1      36.479  19.503  24.936  1.00  0.00    -0.271 OA
ATOM     16  H   UNL A   1      34.504  19.734  26.080  1.00  0.00     0.170 HD
BRANCH  14  17
ATOM     17  C   UNL A   1      36.877  21.906  24.853  1.00  0.00     0.144 C 
ATOM     18  C   UNL A   1      36.789  22.634  23.506  1.00  0.00     0.053 C 
ATOM     19  C   UNL A   1      36.594  22.943  25.966  1.00  0.00     0.048 C 
ATOM     20  O   UNL A   1      38.274  21.554  25.034  1.00  0.00    -0.365 OA
ATOM     21  C   UNL A   1      37.929  23.630  26.131  1.00  0.00     0.032 C 
ATOM     22  C   UNL A   1      38.886  22.474  25.951  1.00  0.00     0.162 C 
ENDBRANCH  14  17
ENDBRANCH   8  13
BRANCH  12  23
ATOM     23  O   UNL A   1      31.360  23.372  24.002  1.00  0.00    -0.507 OA
ATOM     24  H   UNL A   1      31.250  24.293  23.869  1.00  0.00     0.293 HD
ENDBRANCH  12  23
ENDBRANCH   4   7
ENDBRANCH   2   3
ENDBRANCH   1   2
BRANCH   1  25
ATOM     25  C   UNL A   1      32.282  28.052  26.387  1.00  0.00     0.023 C 
BRANCH  25  26
ATOM     26  C   UNL A   1      33.540  28.484  27.133  1.00  0.00     0.116 C 
BRANCH  26  27
ATOM     27  N   UNL A   1      33.525  29.874  27.562  1.00  0.00    -0.352 N 
ATOM     28  C   UNL A   1      34.501  30.643  28.149  1.00  0.00     0.251 C 
ATOM     29  H   UNL A   1      32.673  30.342  27.406  1.00  0.00     0.163 HD
ATOM     30  O   UNL A   1      34.228  31.790  28.510  1.00  0.00    -0.269 OA
BRANCH  28  31
ATOM     31  C   UNL A   1      35.861  30.111  28.395  1.00  0.00     0.039 A 
ATOM     32  C   UNL A   1      36.808  30.201  27.371  1.00  0.00     0.014 A 
ATOM     33  C   UNL A   1      36.215  29.519  29.609  1.00  0.00     0.014 A 
ATOM     34  C   UNL A   1      38.123  29.781  27.594  1.00  0.00     0.010 A 
ATOM     35  C   UNL A   1      37.547  29.190  29.863  1.00  0.00     0.010 A 
ATOM     36  C   UNL A   1      38.518  29.319  28.861  1.00  0.00    -0.014 A 
BRANCH  36  37
ATOM     37  C   UNL A   1      39.943  28.992  29.141  1.00  0.00     0.031 A 
ATOM     38  C   UNL A   1      40.815  29.943  29.916  1.00  0.00     0.074 A 
ATOM     39  C   UNL A   1      40.467  27.848  28.659  1.00  0.00     0.049 A 
ATOM     40  N   UNL A   1      42.074  29.818  30.261  1.00  0.00    -0.248 NA
ATOM     41  C   UNL A   1      40.206  31.214  30.337  1.00  0.00     0.031 C 
ATOM     42  C   UNL A   1      39.749  26.872  27.835  1.00  0.00     0.029 A 
ATOM     43  N   UNL A   1      41.723  27.306  28.791  1.00  0.00    -0.354 N 
ATOM     44  C   UNL A   1      42.403  30.990  30.930  1.00  0.00     0.074 A 
ATOM     45  C   UNL A   1      41.235  31.841  30.886  1.00  0.00     0.031 C 
ATOM     46  C   UNL A   1      40.560  25.835  27.572  1.00  0.00     0.029 A 
ATOM     47  C   UNL A   1      41.865  26.087  28.172  1.00  0.00     0.049 A 
ATOM     48  H   UNL A   1      42.451  27.750  29.282  1.00  0.00     0.167 HD
ATOM     49  C   UNL A   1      43.563  31.316  31.551  1.00  0.00     0.037 A 
ATOM     50  C   UNL A   1      42.928  25.262  28.099  1.00  0.00     0.037 A 
ATOM     51  C   UNL A   1      44.720  30.459  31.607  1.00  0.00     0.049 A 
ATOM     52  C   UNL A   1      44.206  25.648  28.796  1.00  0.00     0.074 A 
ATOM     53  C   UNL A   1      45.921  30.672  32.261  1.00  0.00     0.029 A 
ATOM     54  N   UNL A   1      44.826  29.229  30.974  1.00  0.00    -0.354 N 
ATOM     55  N   UNL A   1      44.474  26.720  29.502  1.00  0.00    -0.248 NA
ATOM     56  C   UNL A   1      45.324  24.702  28.695  1.00  0.00     0.031 C 
ATOM     57  C   UNL A   1      46.772  29.599  31.977  1.00  0.00     0.029 A 
ATOM     58  C   UNL A   1      46.081  28.685  31.200  1.00  0.00     0.049 A 
ATOM     59  H   UNL A   1      44.113  28.805  30.442  1.00  0.00     0.167 HD
ATOM     60  C   UNL A   1      45.778  26.565  29.950  1.00  0.00     0.074 A 
ATOM     61  C   UNL A   1      46.238  25.283  29.458  1.00  0.00     0.031 C 
ATOM     62  C   UNL A   1      46.529  27.409  30.702  1.00  0.00     0.037 A 
BRANCH  49  63
ATOM     63  C   UNL A   1      43.638  32.656  32.227  1.00  0.00     0.064 A 
ATOM     64  C   UNL A   1      43.275  32.826  33.573  1.00  0.00     0.173 A 
ATOM     65  C   UNL A   1      44.118  33.779  31.536  1.00  0.00     0.173 A 
ATOM     66  F   UNL A   1      42.801  31.788  34.280  1.00  0.00    -0.203 F 
ATOM     67  C   UNL A   1      43.357  34.071  34.189  1.00  0.00     0.198 A 
ATOM     68  C   UNL A   1      44.232  35.017  32.165  1.00  0.00     0.198 A 
ATOM     69  F   UNL A   1      44.486  33.675  30.250  1.00  0.00    -0.203 F 
ATOM     70  F   UNL A   1      42.952  34.219  35.458  1.00  0.00    -0.200 F 
ATOM     71  C   UNL A   1      43.842  35.164  33.487  1.00  0.00     0.200 A 
ATOM     72  F   UNL A   1      44.716  36.068  31.489  1.00  0.00    -0.200 F 
ATOM     73  F   UNL A   1      43.929  36.361  34.083  1.00  0.00    -0.200 F 
ENDBRANCH  49  63
BRANCH  50  74
ATOM     74  C   UNL A   1      42.822  23.974  27.362  1.00  0.00     0.064 A 
ATOM     75  C   UNL A   1      42.382  22.808  28.005  1.00  0.00     0.173 A 
ATOM     76  C   UNL A   1      43.168  23.878  26.007  1.00  0.00     0.173 A 
ATOM     77  F   UNL A   1      42.059  22.842  29.306  1.00  0.00    -0.203 F 
ATOM     78  C   UNL A   1      42.318  21.592  27.328  1.00  0.00     0.198 A 
ATOM     79  C   UNL A   1      43.070  22.668  25.321  1.00  0.00     0.198 A 
ATOM     80  F   UNL A   1      43.589  24.964  25.341  1.00  0.00    -0.203 F 
ATOM     81  F   UNL A   1      41.946  20.482  27.981  1.00  0.00    -0.200 F 
ATOM     82  C   UNL A   1      42.655  21.524  25.985  1.00  0.00     0.200 A 
ATOM     83  F   UNL A   1      43.381  22.611  24.019  1.00  0.00    -0.200 F 
ATOM     84  F   UNL A   1      42.589  20.355  25.333  1.00  0.00    -0.200 F 
ENDBRANCH  50  74
BRANCH  62  85
ATOM     85  C   UNL A   1      47.916  26.956  31.063  1.00  0.00     0.064 A 
ATOM     86  C   UNL A   1      49.036  27.328  30.306  1.00  0.00     0.173 A 
ATOM     87  C   UNL A   1      48.128  26.152  32.194  1.00  0.00     0.173 A 
ATOM     88  F   UNL A   1      48.888  28.086  29.208  1.00  0.00    -0.203 F 
ATOM     89  C   UNL A   1      50.311  26.879  30.643  1.00  0.00     0.198 A 
ATOM     90  C   UNL A   1      49.408  25.735  32.549  1.00  0.00     0.198 A 
ATOM     91  F   UNL A   1      47.093  25.773  32.959  1.00  0.00    -0.203 F 
ATOM     92  F   UNL A   1      51.357  27.194  29.865  1.00  0.00    -0.200 F 
ATOM     93  C   UNL A   1      50.496  26.089  31.767  1.00  0.00     0.200 A 
ATOM     94  F   UNL A   1      49.586  24.986  33.646  1.00  0.00    -0.200 F 
ATOM     95  F   UNL A   1      51.723  25.659  32.091  1.00  0.00    -0.200 F 
ENDBRANCH  62  85
ENDBRANCH  36  37
ENDBRANCH  28  31
ENDBRANCH  26  27
ENDBRANCH  25  26
ENDBRANCH   1  25
TORSDOF 14
ENDMDL
MODEL 3
REMARK VINA RESULT:     -12.7      4.266     10.031
REMARK SMILES C[C@]1(C(=O)Nc2ccc(C(=O)NCCCCNC(=O)c3ccc(-c4c5nc(c(-c6c(F)c(F)c(F)c(F)c6F)c6ccc([nH]6)c(-c6c(F)c(F)c(F)c(F)c6F)c6nc(c(-c7c(F)c(F)c(F)c(F)c7F)c7ccc4[nH]7)C=C6)C=C5)cc3)c(O)c2)CCCO1
REMARK SMILES IDX 14 1 13 2 12 3 10 4 11 5 9 7 6 8 7 9 85 10 8 11 83 12 5 13
REMARK SMILES IDX 3 14 4 15 2 17 1 18 86 19 89 20 87 21 88 22 84 23 15 25
REMARK SMILES IDX 16 26 17 27 18 28 19 30 20 31 21 32 82 33 22 34 81 35 23 36
REMARK SMILES IDX 24 37 25 38 75 39 26 40 80 41 74 42 76 43 27 44 79 45 73 46
REMARK SMILES IDX 72 47 28 49 60 50 40 51 59 52 41 53 44 54 58 55 77 56 42 57
REMARK SMILES IDX 43 58 57 60 78 61 45 62 29 63 30 64 38 65 31 66 32 67 36 68
REMARK SMILES IDX 39 69 33 70 34 71 37 72 35 73 61 74 62 75 70 76 63 77 64 78
REMARK SMILES IDX 68 79 71 80 65 81 66 82 69 83 67 84 46 85 47 86 55 87 48 88
REMARK SMILES IDX 49 89 53 90 56 91 50 92 51 93 54 94 52 95
REMARK H PARENT 12 6 5 16 84 24 17 29 76 48 44 59
REMARK Flexibility Score: inf
ROOT
ATOM      1  C   UNL A   1      35.034  20.665  24.978  1.00  0.00     0.023 C 
ENDROOT
BRANCH   1   2
ATOM      2  C   UNL A   1      33.729  20.298  25.682  1.00  0.00     0.116 C 
BRANCH   2   3
ATOM      3  N   UNL A   1      33.512  20.936  26.971  1.00  0.00    -0.352 N 
ATOM      4  C   UNL A   1      32.933  22.144  27.297  1.00  0.00     0.255 C 
ATOM      5  O   UNL A   1      32.826  22.431  28.489  1.00  0.00    -0.269 OA
ATOM      6  H   UNL A   1      33.834  20.415  27.744  1.00  0.00     0.163 HD
BRANCH   4   7
ATOM      7  C   UNL A   1      32.525  23.149  26.274  1.00  0.00     0.081 A 
ATOM      8  C   UNL A   1      32.243  24.745  23.992  1.00  0.00     0.045 A 
ATOM      9  C   UNL A   1      33.310  24.968  24.856  1.00  0.00     0.027 A 
ATOM     10  C   UNL A   1      31.196  23.916  24.398  1.00  0.00     0.073 A 
ATOM     11  C   UNL A   1      33.463  24.154  25.982  1.00  0.00     0.020 A 
ATOM     12  C   UNL A   1      31.330  23.141  25.552  1.00  0.00     0.130 A 
BRANCH   8  13
ATOM     13  N   UNL A   1      32.169  25.316  22.724  1.00  0.00    -0.323 N 
ATOM     14  C   UNL A   1      31.346  26.263  22.185  1.00  0.00     0.256 C 
ATOM     15  O   UNL A   1      31.437  26.381  20.951  1.00  0.00    -0.271 OA
ATOM     16  H   UNL A   1      32.841  24.970  22.093  1.00  0.00     0.170 HD
BRANCH  14  17
ATOM     17  C   UNL A   1      30.424  27.253  22.990  1.00  0.00     0.144 C 
ATOM     18  C   UNL A   1      29.207  26.751  23.778  1.00  0.00     0.053 C 
ATOM     19  C   UNL A   1      31.325  28.040  23.971  1.00  0.00     0.048 C 
ATOM     20  O   UNL A   1      29.926  28.258  22.069  1.00  0.00    -0.365 OA
ATOM     21  C   UNL A   1      30.664  29.397  24.015  1.00  0.00     0.032 C 
ATOM     22  C   UNL A   1      30.227  29.566  22.579  1.00  0.00     0.162 C 
ENDBRANCH  14  17
ENDBRANCH   8  13
BRANCH  12  23
ATOM     23  O   UNL A   1      30.232  22.410  25.905  1.00  0.00    -0.507 OA
ATOM     24  H   UNL A   1      29.667  22.063  25.243  1.00  0.00     0.293 HD
ENDBRANCH  12  23
ENDBRANCH   4   7
ENDBRANCH   2   3
ENDBRANCH   1   2
BRANCH   1  25
ATOM     25  C   UNL A   1      36.055  21.473  25.777  1.00  0.00     0.023 C 
BRANCH  25  26
ATOM     26  C   UNL A   1      37.438  21.646  25.156  1.00  0.00     0.116 C 
BRANCH  26  27
ATOM     27  N   UNL A   1      38.427  20.697  25.642  1.00  0.00    -0.352 N 
ATOM     28  C   UNL A   1      39.602  20.897  26.327  1.00  0.00     0.251 C 
ATOM     29  H   UNL A   1      38.222  19.754  25.446  1.00  0.00     0.163 HD
ATOM     30  O   UNL A   1      40.333  19.933  26.561  1.00  0.00    -0.269 OA
BRANCH  28  31
ATOM     31  C   UNL A   1      40.027  22.249  26.753  1.00  0.00     0.039 A 
ATOM     32  C   UNL A   1      41.038  22.358  27.714  1.00  0.00     0.014 A 
ATOM     33  C   UNL A   1      39.446  23.407  26.233  1.00  0.00     0.014 A 
ATOM     34  C   UNL A   1      41.520  23.618  28.083  1.00  0.00     0.010 A 
ATOM     35  C   UNL A   1      39.992  24.656  26.528  1.00  0.00     0.010 A 
ATOM     36  C   UNL A   1      41.036  24.778  27.455  1.00  0.00    -0.014 A 
BRANCH  36  37
ATOM     37  C   UNL A   1      41.635  26.109  27.749  1.00  0.00     0.031 A 
ATOM     38  C   UNL A   1      43.018  26.457  27.268  1.00  0.00     0.074 A 
ATOM     39  C   UNL A   1      40.943  26.997  28.491  1.00  0.00     0.049 A 
ATOM     40  N   UNL A   1      43.694  27.570  27.424  1.00  0.00    -0.248 NA
ATOM     41  C   UNL A   1      43.753  25.411  26.540  1.00  0.00     0.031 C 
ATOM     42  C   UNL A   1      39.622  26.758  29.076  1.00  0.00     0.029 A 
ATOM     43  N   UNL A   1      41.250  28.278  28.879  1.00  0.00    -0.354 N 
ATOM     44  C   UNL A   1      44.926  27.355  26.821  1.00  0.00     0.074 A 
ATOM     45  C   UNL A   1      44.932  25.985  26.355  1.00  0.00     0.031 C 
ATOM     46  C   UNL A   1      39.214  27.869  29.711  1.00  0.00     0.029 A 
ATOM     47  C   UNL A   1      40.257  28.884  29.614  1.00  0.00     0.049 A 
ATOM     48  H   UNL A   1      42.099  28.720  28.654  1.00  0.00     0.167 HD
ATOM     49  C   UNL A   1      45.949  28.226  26.644  1.00  0.00     0.037 A 
ATOM     50  C   UNL A   1      40.194  30.119  30.147  1.00  0.00     0.037 A 
ATOM     51  C   UNL A   1      45.933  29.595  27.096  1.00  0.00     0.049 A 
ATOM     52  C   UNL A   1      41.344  31.068  29.938  1.00  0.00     0.074 A 
ATOM     53  C   UNL A   1      46.893  30.574  26.913  1.00  0.00     0.029 A 
ATOM     54  N   UNL A   1      44.909  30.175  27.830  1.00  0.00    -0.354 N 
ATOM     55  N   UNL A   1      42.467  30.880  29.287  1.00  0.00    -0.248 NA
ATOM     56  C   UNL A   1      41.211  32.406  30.528  1.00  0.00     0.031 C 
ATOM     57  C   UNL A   1      46.477  31.728  27.586  1.00  0.00     0.029 A 
ATOM     58  C   UNL A   1      45.227  31.490  28.132  1.00  0.00     0.049 A 
ATOM     59  H   UNL A   1      44.078  29.718  28.097  1.00  0.00     0.167 HD
ATOM     60  C   UNL A   1      43.159  32.080  29.367  1.00  0.00     0.074 A 
ATOM     61  C   UNL A   1      42.319  32.998  30.106  1.00  0.00     0.031 C 
ATOM     62  C   UNL A   1      44.383  32.394  28.872  1.00  0.00     0.037 A 
BRANCH  49  63
ATOM     63  C   UNL A   1      47.172  27.729  25.926  1.00  0.00     0.064 A 
ATOM     64  C   UNL A   1      47.268  27.757  24.526  1.00  0.00     0.173 A 
ATOM     65  C   UNL A   1      48.279  27.256  26.646  1.00  0.00     0.173 A 
ATOM     66  F   UNL A   1      46.235  28.192  23.786  1.00  0.00    -0.203 F 
ATOM     67  C   UNL A   1      48.410  27.300  23.874  1.00  0.00     0.198 A 
ATOM     68  C   UNL A   1      49.434  26.832  25.992  1.00  0.00     0.198 A 
ATOM     69  F   UNL A   1      48.247  27.212  27.986  1.00  0.00    -0.203 F 
ATOM     70  F   UNL A   1      48.456  27.286  22.534  1.00  0.00    -0.200 F 
ATOM     71  C   UNL A   1      49.495  26.845  24.608  1.00  0.00     0.200 A 
ATOM     72  F   UNL A   1      50.488  26.408  26.704  1.00  0.00    -0.200 F 
ATOM     73  F   UNL A   1      50.598  26.414  23.980  1.00  0.00    -0.200 F 
ENDBRANCH  49  63
BRANCH  50  74
ATOM     74  C   UNL A   1      38.986  30.542  30.905  1.00  0.00     0.064 A 
ATOM     75  C   UNL A   1      37.871  31.080  30.246  1.00  0.00     0.173 A 
ATOM     76  C   UNL A   1      38.924  30.430  32.302  1.00  0.00     0.173 A 
ATOM     77  F   UNL A   1      37.889  31.228  28.914  1.00  0.00    -0.203 F 
ATOM     78  C   UNL A   1      36.753  31.513  30.956  1.00  0.00     0.198 A 
ATOM     79  C   UNL A   1      37.791  30.830  33.008  1.00  0.00     0.198 A 
ATOM     80  F   UNL A   1      39.960  29.915  32.982  1.00  0.00    -0.203 F 
ATOM     81  F   UNL A   1      35.724  32.073  30.306  1.00  0.00    -0.200 F 
ATOM     82  C   UNL A   1      36.711  31.381  32.336  1.00  0.00     0.200 A 
ATOM     83  F   UNL A   1      37.749  30.685  34.340  1.00  0.00    -0.200 F 
ATOM     84  F   UNL A   1      35.633  31.793  33.018  1.00  0.00    -0.200 F 
ENDBRANCH  50  74
BRANCH  62  85
ATOM     85  C   UNL A   1      44.871  33.798  29.089  1.00  0.00     0.064 A 
ATOM     86  C   UNL A   1      45.654  34.147  30.200  1.00  0.00     0.173 A 
ATOM     87  C   UNL A   1      44.564  34.807  28.163  1.00  0.00     0.173 A 
ATOM     88  F   UNL A   1      45.965  33.224  31.123  1.00  0.00    -0.203 F 
ATOM     89  C   UNL A   1      46.076  35.460  30.396  1.00  0.00     0.198 A 
ATOM     90  C   UNL A   1      45.019  36.111  28.343  1.00  0.00     0.198 A 
ATOM     91  F   UNL A   1      43.826  34.529  27.077  1.00  0.00    -0.203 F 
ATOM     92  F   UNL A   1      46.767  35.780  31.499  1.00  0.00    -0.200 F 
ATOM     93  C   UNL A   1      45.765  36.438  29.465  1.00  0.00     0.200 A 
ATOM     94  F   UNL A   1      44.732  37.051  27.432  1.00  0.00    -0.200 F 
ATOM     95  F   UNL A   1      46.173  37.700  29.654  1.00  0.00    -0.200 F 
ENDBRANCH  62  85
ENDBRANCH  36  37
ENDBRANCH  28  31
ENDBRANCH  26  27
ENDBRANCH  25  26
ENDBRANCH   1  25
TORSDOF 14
ENDMDL
