MODEL 1
REMARK VINA RESULT:     -11.7      0.000      0.000
REMARK SMILES C[C@H](CC(=O)NCCCCNC(=O)c1ccc(-c2c3nc(c(-c4c(F)c(F)c(F)c(F)c4F)c4ccc([nH]4)c(-c4c(F)c(F)c(F)c(F)c4F)c4nc(c(-c5c(F)c(F)c(F)c(F)c5F)c5ccc2[nH]5)C=C4)C=C3)cc1)Sc1ccc(F)cc1
REMARK SMILES IDX 8 1 7 2 6 3 4 4 5 5 3 7 2 8 1 9 77 10 78 11 79 12 84 13
REMARK SMILES IDX 80 14 83 15 81 16 82 17 9 18 10 19 11 20 12 21 13 23 14 24
REMARK SMILES IDX 15 25 76 26 16 27 75 28 17 29 18 30 19 31 69 32 20 33 74 34
REMARK SMILES IDX 68 35 70 36 21 37 73 38 67 39 66 40 22 42 54 43 34 44 53 45
REMARK SMILES IDX 35 46 38 47 52 48 71 49 36 50 37 51 51 53 72 54 39 55 23 56
REMARK SMILES IDX 24 57 32 58 25 59 26 60 30 61 33 62 27 63 28 64 31 65 29 66
REMARK SMILES IDX 55 67 56 68 64 69 57 70 58 71 62 72 65 73 59 74 60 75 63 76
REMARK SMILES IDX 61 77 40 78 41 79 49 80 42 81 43 82 47 83 50 84 44 85 45 86
REMARK SMILES IDX 48 87 46 88
REMARK H PARENT 6 6 11 22 70 41 38 52
REMARK Flexibility Score: inf
ROOT
ATOM      1  C   UNL A   1      31.692  30.262  26.391  1.00  0.00     0.023 C 
ENDROOT
BRANCH   1   2
ATOM      2  C   UNL A   1      33.119  29.819  26.086  1.00  0.00     0.116 C 
BRANCH   2   3
ATOM      3  N   UNL A   1      33.376  29.700  24.669  1.00  0.00    -0.356 N 
ATOM      4  C   UNL A   1      33.328  28.593  23.877  1.00  0.00     0.221 C 
ATOM      5  O   UNL A   1      33.545  28.724  22.673  1.00  0.00    -0.275 OA
ATOM      6  H   UNL A   1      33.621  30.537  24.211  1.00  0.00     0.163 HD
BRANCH   4   7
ATOM      7  C   UNL A   1      33.020  27.233  24.475  1.00  0.00     0.114 C 
BRANCH   7   8
ATOM      8  C   UNL A   1      31.575  26.745  24.296  1.00  0.00     0.058 C 
ATOM      9  C   UNL A   1      30.642  26.886  25.500  1.00  0.00     0.020 C 
BRANCH   8  10
ATOM     10  S   UNL A   1      30.708  27.168  22.693  1.00  0.00    -0.122 SA
BRANCH  10  11
ATOM     11  C   UNL A   1      29.571  28.496  23.037  1.00  0.00     0.008 A 
ATOM     12  C   UNL A   1      30.038  29.805  23.229  1.00  0.00     0.018 A 
ATOM     13  C   UNL A   1      28.188  28.278  22.982  1.00  0.00     0.018 A 
ATOM     14  C   UNL A   1      29.147  30.851  23.492  1.00  0.00     0.040 A 
ATOM     15  C   UNL A   1      27.292  29.331  23.215  1.00  0.00     0.040 A 
ATOM     16  C   UNL A   1      27.781  30.600  23.498  1.00  0.00     0.123 A 
ATOM     17  F   UNL A   1      26.930  31.590  23.798  1.00  0.00    -0.207 F 
ENDBRANCH  10  11
ENDBRANCH   8  10
ENDBRANCH   7   8
ENDBRANCH   4   7
ENDBRANCH   2   3
ENDBRANCH   1   2
BRANCH   1  18
ATOM     18  C   UNL A   1      31.513  31.759  26.570  1.00  0.00     0.023 C 
BRANCH  18  19
ATOM     19  C   UNL A   1      32.704  32.418  27.242  1.00  0.00     0.116 C 
BRANCH  19  20
ATOM     20  N   UNL A   1      32.465  33.819  27.585  1.00  0.00    -0.352 N 
ATOM     21  C   UNL A   1      33.058  34.585  28.554  1.00  0.00     0.251 C 
ATOM     22  H   UNL A   1      31.781  34.275  27.044  1.00  0.00     0.163 HD
ATOM     23  O   UNL A   1      32.612  35.692  28.836  1.00  0.00    -0.269 OA
BRANCH  21  24
ATOM     24  C   UNL A   1      34.228  34.048  29.268  1.00  0.00     0.039 A 
ATOM     25  C   UNL A   1      34.033  33.144  30.311  1.00  0.00     0.014 A 
ATOM     26  C   UNL A   1      35.517  34.406  28.865  1.00  0.00     0.014 A 
ATOM     27  C   UNL A   1      35.143  32.550  30.909  1.00  0.00     0.010 A 
ATOM     28  C   UNL A   1      36.608  33.722  29.372  1.00  0.00     0.010 A 
ATOM     29  C   UNL A   1      36.434  32.806  30.416  1.00  0.00    -0.014 A 
BRANCH  29  30
ATOM     30  C   UNL A   1      37.619  32.140  31.002  1.00  0.00     0.031 A 
ATOM     31  C   UNL A   1      38.089  32.520  32.378  1.00  0.00     0.074 A 
ATOM     32  C   UNL A   1      38.292  31.233  30.269  1.00  0.00     0.049 A 
ATOM     33  N   UNL A   1      39.099  32.051  33.065  1.00  0.00    -0.248 NA
ATOM     34  C   UNL A   1      37.353  33.596  33.061  1.00  0.00     0.031 C 
ATOM     35  C   UNL A   1      37.975  30.850  28.892  1.00  0.00     0.029 A 
ATOM     36  N   UNL A   1      39.380  30.461  30.586  1.00  0.00    -0.354 N 
ATOM     37  C   UNL A   1      39.121  32.781  34.245  1.00  0.00     0.074 A 
ATOM     38  C   UNL A   1      38.080  33.777  34.151  1.00  0.00     0.031 C 
ATOM     39  C   UNL A   1      38.815  29.881  28.500  1.00  0.00     0.029 A 
ATOM     40  C   UNL A   1      39.748  29.596  29.584  1.00  0.00     0.049 A 
ATOM     41  H   UNL A   1      39.852  30.520  31.448  1.00  0.00     0.167 HD
ATOM     42  C   UNL A   1      39.915  32.609  35.328  1.00  0.00     0.037 A 
ATOM     43  C   UNL A   1      40.722  28.669  29.556  1.00  0.00     0.037 A 
ATOM     44  C   UNL A   1      40.929  31.594  35.422  1.00  0.00     0.049 A 
ATOM     45  C   UNL A   1      41.568  28.475  30.785  1.00  0.00     0.074 A 
ATOM     46  C   UNL A   1      41.754  31.290  36.489  1.00  0.00     0.029 A 
ATOM     47  N   UNL A   1      41.256  30.714  34.399  1.00  0.00    -0.354 N 
ATOM     48  N   UNL A   1      41.527  29.112  31.930  1.00  0.00    -0.248 NA
ATOM     49  C   UNL A   1      42.586  27.419  30.722  1.00  0.00     0.031 C 
ATOM     50  C   UNL A   1      42.613  30.257  36.096  1.00  0.00     0.029 A 
ATOM     51  C   UNL A   1      42.282  29.876  34.804  1.00  0.00     0.049 A 
ATOM     52  H   UNL A   1      40.822  30.689  33.515  1.00  0.00     0.167 HD
ATOM     53  C   UNL A   1      42.488  28.517  32.734  1.00  0.00     0.074 A 
ATOM     54  C   UNL A   1      43.079  27.450  31.950  1.00  0.00     0.031 C 
ATOM     55  C   UNL A   1      42.852  28.821  34.005  1.00  0.00     0.037 A 
BRANCH  42  56
ATOM     56  C   UNL A   1      39.702  33.530  36.496  1.00  0.00     0.064 A 
ATOM     57  C   UNL A   1      40.397  34.745  36.614  1.00  0.00     0.173 A 
ATOM     58  C   UNL A   1      38.784  33.204  37.504  1.00  0.00     0.173 A 
ATOM     59  F   UNL A   1      41.302  35.099  35.687  1.00  0.00    -0.203 F 
ATOM     60  C   UNL A   1      40.208  35.579  37.712  1.00  0.00     0.198 A 
ATOM     61  C   UNL A   1      38.570  34.058  38.584  1.00  0.00     0.198 A 
ATOM     62  F   UNL A   1      38.090  32.057  37.444  1.00  0.00    -0.203 F 
ATOM     63  F   UNL A   1      40.930  36.701  37.832  1.00  0.00    -0.200 F 
ATOM     64  C   UNL A   1      39.289  35.239  38.693  1.00  0.00     0.200 A 
ATOM     65  F   UNL A   1      37.672  33.733  39.525  1.00  0.00    -0.200 F 
ATOM     66  F   UNL A   1      39.103  36.044  39.748  1.00  0.00    -0.200 F 
ENDBRANCH  42  56
BRANCH  43  67
ATOM     67  C   UNL A   1      40.906  27.819  28.352  1.00  0.00     0.064 A 
ATOM     68  C   UNL A   1      40.170  26.637  28.184  1.00  0.00     0.173 A 
ATOM     69  C   UNL A   1      41.817  28.166  27.344  1.00  0.00     0.173 A 
ATOM     70  F   UNL A   1      39.296  26.255  29.127  1.00  0.00    -0.203 F 
ATOM     71  C   UNL A   1      40.357  25.822  27.071  1.00  0.00     0.198 A 
ATOM     72  C   UNL A   1      41.981  27.366  26.214  1.00  0.00     0.198 A 
ATOM     73  F   UNL A   1      42.538  29.292  27.448  1.00  0.00    -0.203 F 
ATOM     74  F   UNL A   1      39.676  24.673  26.961  1.00  0.00    -0.200 F 
ATOM     75  C   UNL A   1      41.259  26.189  26.084  1.00  0.00     0.200 A 
ATOM     76  F   UNL A   1      42.840  27.734  25.254  1.00  0.00    -0.200 F 
ATOM     77  F   UNL A   1      41.436  25.408  25.010  1.00  0.00    -0.200 F 
ENDBRANCH  43  67
BRANCH  55  78
ATOM     78  C   UNL A   1      43.911  27.960  34.634  1.00  0.00     0.064 A 
ATOM     79  C   UNL A   1      43.593  26.773  35.308  1.00  0.00     0.173 A 
ATOM     80  C   UNL A   1      45.262  28.329  34.551  1.00  0.00     0.173 A 
ATOM     81  F   UNL A   1      42.314  26.383  35.426  1.00  0.00    -0.203 F 
ATOM     82  C   UNL A   1      44.585  26.010  35.917  1.00  0.00     0.198 A 
ATOM     83  C   UNL A   1      46.255  27.543  35.128  1.00  0.00     0.198 A 
ATOM     84  F   UNL A   1      45.621  29.450  33.907  1.00  0.00    -0.203 F 
ATOM     85  F   UNL A   1      44.251  24.917  36.617  1.00  0.00    -0.200 F 
ATOM     86  C   UNL A   1      45.914  26.393  35.822  1.00  0.00     0.200 A 
ATOM     87  F   UNL A   1      47.541  27.906  35.021  1.00  0.00    -0.200 F 
ATOM     88  F   UNL A   1      46.868  25.657  36.412  1.00  0.00    -0.200 F 
ENDBRANCH  55  78
ENDBRANCH  29  30
ENDBRANCH  21  24
ENDBRANCH  19  20
ENDBRANCH  18  19
ENDBRANCH   1  18
TORSDOF 14
ENDMDL
MODEL 2
REMARK VINA RESULT:     -11.6      6.286     11.704
REMARK SMILES C[C@H](CC(=O)NCCCCNC(=O)c1ccc(-c2c3nc(c(-c4c(F)c(F)c(F)c(F)c4F)c4ccc([nH]4)c(-c4c(F)c(F)c(F)c(F)c4F)c4nc(c(-c5c(F)c(F)c(F)c(F)c5F)c5ccc2[nH]5)C=C4)C=C3)cc1)Sc1ccc(F)cc1
REMARK SMILES IDX 8 1 7 2 6 3 4 4 5 5 3 7 2 8 1 9 77 10 78 11 79 12 84 13
REMARK SMILES IDX 80 14 83 15 81 16 82 17 9 18 10 19 11 20 12 21 13 23 14 24
REMARK SMILES IDX 15 25 76 26 16 27 75 28 17 29 18 30 19 31 69 32 20 33 74 34
REMARK SMILES IDX 68 35 70 36 21 37 73 38 67 39 66 40 22 42 54 43 34 44 53 45
REMARK SMILES IDX 35 46 38 47 52 48 71 49 36 50 37 51 51 53 72 54 39 55 23 56
REMARK SMILES IDX 24 57 32 58 25 59 26 60 30 61 33 62 27 63 28 64 31 65 29 66
REMARK SMILES IDX 55 67 56 68 64 69 57 70 58 71 62 72 65 73 59 74 60 75 63 76
REMARK SMILES IDX 61 77 40 78 41 79 49 80 42 81 43 82 47 83 50 84 44 85 45 86
REMARK SMILES IDX 48 87 46 88
REMARK H PARENT 6 6 11 22 70 41 38 52
REMARK Flexibility Score: inf
ROOT
ATOM      1  C   UNL A   1      37.161  20.928  24.471  1.00  0.00     0.023 C 
ENDROOT
BRANCH   1   2
ATOM      2  C   UNL A   1      36.915  22.050  25.473  1.00  0.00     0.116 C 
BRANCH   2   3
ATOM      3  N   UNL A   1      35.967  21.684  26.501  1.00  0.00    -0.356 N 
ATOM      4  C   UNL A   1      34.690  22.122  26.688  1.00  0.00     0.221 C 
ATOM      5  O   UNL A   1      34.036  21.643  27.614  1.00  0.00    -0.275 OA
ATOM      6  H   UNL A   1      36.288  21.024  27.158  1.00  0.00     0.163 HD
BRANCH   4   7
ATOM      7  C   UNL A   1      34.101  23.182  25.778  1.00  0.00     0.114 C 
BRANCH   7   8
ATOM      8  C   UNL A   1      33.249  22.653  24.614  1.00  0.00     0.058 C 
ATOM      9  C   UNL A   1      33.953  22.465  23.269  1.00  0.00     0.020 C 
BRANCH   8  10
ATOM     10  S   UNL A   1      32.057  21.257  24.975  1.00  0.00    -0.122 SA
BRANCH  10  11
ATOM     11  C   UNL A   1      32.764  19.767  24.301  1.00  0.00     0.008 A 
ATOM     12  C   UNL A   1      33.853  19.145  24.927  1.00  0.00     0.018 A 
ATOM     13  C   UNL A   1      32.154  19.120  23.217  1.00  0.00     0.018 A 
ATOM     14  C   UNL A   1      34.405  17.971  24.404  1.00  0.00     0.040 A 
ATOM     15  C   UNL A   1      32.687  17.927  22.709  1.00  0.00     0.040 A 
ATOM     16  C   UNL A   1      33.825  17.381  23.289  1.00  0.00     0.123 A 
ATOM     17  F   UNL A   1      34.381  16.284  22.758  1.00  0.00    -0.207 F 
ENDBRANCH  10  11
ENDBRANCH   8  10
ENDBRANCH   7   8
ENDBRANCH   4   7
ENDBRANCH   2   3
ENDBRANCH   1   2
BRANCH   1  18
ATOM     18  C   UNL A   1      37.985  19.768  25.001  1.00  0.00     0.023 C 
BRANCH  18  19
ATOM     19  C   UNL A   1      39.224  20.222  25.753  1.00  0.00     0.116 C 
BRANCH  19  20
ATOM     20  N   UNL A   1      40.236  19.174  25.872  1.00  0.00    -0.352 N 
ATOM     21  C   UNL A   1      41.588  19.295  26.060  1.00  0.00     0.251 C 
ATOM     22  H   UNL A   1      39.898  18.251  25.806  1.00  0.00     0.163 HD
ATOM     23  O   UNL A   1      42.325  18.321  25.952  1.00  0.00    -0.269 OA
BRANCH  21  24
ATOM     24  C   UNL A   1      42.146  20.622  26.372  1.00  0.00     0.039 A 
ATOM     25  C   UNL A   1      42.491  21.478  25.328  1.00  0.00     0.014 A 
ATOM     26  C   UNL A   1      42.278  21.028  27.703  1.00  0.00     0.014 A 
ATOM     27  C   UNL A   1      42.911  22.773  25.625  1.00  0.00     0.010 A 
ATOM     28  C   UNL A   1      42.570  22.350  27.989  1.00  0.00     0.010 A 
ATOM     29  C   UNL A   1      42.914  23.228  26.955  1.00  0.00    -0.014 A 
BRANCH  29  30
ATOM     30  C   UNL A   1      43.302  24.619  27.283  1.00  0.00     0.031 A 
ATOM     31  C   UNL A   1      44.701  25.093  27.003  1.00  0.00     0.074 A 
ATOM     32  C   UNL A   1      42.405  25.429  27.876  1.00  0.00     0.049 A 
ATOM     33  N   UNL A   1      45.232  26.271  27.213  1.00  0.00    -0.248 NA
ATOM     34  C   UNL A   1      45.642  24.106  26.450  1.00  0.00     0.031 C 
ATOM     35  C   UNL A   1      41.047  25.047  28.269  1.00  0.00     0.029 A 
ATOM     36  N   UNL A   1      42.499  26.746  28.244  1.00  0.00    -0.354 N 
ATOM     37  C   UNL A   1      46.561  26.157  26.830  1.00  0.00     0.074 A 
ATOM     38  C   UNL A   1      46.780  24.780  26.452  1.00  0.00     0.031 C 
ATOM     39  C   UNL A   1      40.419  26.118  28.776  1.00  0.00     0.029 A 
ATOM     40  C   UNL A   1      41.336  27.252  28.772  1.00  0.00     0.049 A 
ATOM     41  H   UNL A   1      43.321  27.279  28.139  1.00  0.00     0.167 HD
ATOM     42  C   UNL A   1      47.504  27.124  26.761  1.00  0.00     0.037 A 
ATOM     43  C   UNL A   1      41.047  28.496  29.191  1.00  0.00     0.037 A 
ATOM     44  C   UNL A   1      47.266  28.498  27.112  1.00  0.00     0.049 A 
ATOM     45  C   UNL A   1      42.103  29.562  29.073  1.00  0.00     0.074 A 
ATOM     46  C   UNL A   1      48.129  29.575  27.030  1.00  0.00     0.029 A 
ATOM     47  N   UNL A   1      46.067  28.983  27.617  1.00  0.00    -0.354 N 
ATOM     48  N   UNL A   1      43.333  29.465  28.629  1.00  0.00    -0.248 NA
ATOM     49  C   UNL A   1      41.723  30.913  29.500  1.00  0.00     0.031 C 
ATOM     50  C   UNL A   1      47.468  30.703  27.528  1.00  0.00     0.029 A 
ATOM     51  C   UNL A   1      46.171  30.342  27.864  1.00  0.00     0.049 A 
ATOM     52  H   UNL A   1      45.260  28.441  27.774  1.00  0.00     0.167 HD
ATOM     53  C   UNL A   1      43.864  30.745  28.692  1.00  0.00     0.074 A 
ATOM     54  C   UNL A   1      42.811  31.605  29.197  1.00  0.00     0.031 C 
ATOM     55  C   UNL A   1      45.108  31.175  28.365  1.00  0.00     0.037 A 
BRANCH  42  56
ATOM     56  C   UNL A   1      48.870  26.727  26.276  1.00  0.00     0.064 A 
ATOM     57  C   UNL A   1      49.820  26.150  27.136  1.00  0.00     0.173 A 
ATOM     58  C   UNL A   1      49.233  26.911  24.935  1.00  0.00     0.173 A 
ATOM     59  F   UNL A   1      49.533  25.968  28.435  1.00  0.00    -0.203 F 
ATOM     60  C   UNL A   1      51.089  25.808  26.680  1.00  0.00     0.198 A 
ATOM     61  C   UNL A   1      50.492  26.535  24.472  1.00  0.00     0.198 A 
ATOM     62  F   UNL A   1      48.366  27.456  24.067  1.00  0.00    -0.203 F 
ATOM     63  F   UNL A   1      51.998  25.318  27.535  1.00  0.00    -0.200 F 
ATOM     64  C   UNL A   1      51.422  25.993  25.347  1.00  0.00     0.200 A 
ATOM     65  F   UNL A   1      50.807  26.703  23.181  1.00  0.00    -0.200 F 
ATOM     66  F   UNL A   1      52.643  25.658  24.907  1.00  0.00    -0.200 F 
ENDBRANCH  42  56
BRANCH  43  67
ATOM     67  C   UNL A   1      39.687  28.813  29.701  1.00  0.00     0.064 A 
ATOM     68  C   UNL A   1      38.681  29.267  28.835  1.00  0.00     0.173 A 
ATOM     69  C   UNL A   1      39.362  28.668  31.057  1.00  0.00     0.173 A 
ATOM     70  F   UNL A   1      38.946  29.434  27.531  1.00  0.00    -0.203 F 
ATOM     71  C   UNL A   1      37.413  29.590  29.311  1.00  0.00     0.198 A 
ATOM     72  C   UNL A   1      38.083  28.962  31.526  1.00  0.00     0.198 A 
ATOM     73  F   UNL A   1      40.284  28.226  31.925  1.00  0.00    -0.203 F 
ATOM     74  F   UNL A   1      36.486  30.069  28.469  1.00  0.00    -0.200 F 
ATOM     75  C   UNL A   1      37.113  29.433  30.655  1.00  0.00     0.200 A 
ATOM     76  F   UNL A   1      37.792  28.791  32.823  1.00  0.00    -0.200 F 
ATOM     77  F   UNL A   1      35.892  29.739  31.111  1.00  0.00    -0.200 F 
ENDBRANCH  43  67
BRANCH  55  78
ATOM     78  C   UNL A   1      45.378  32.646  28.506  1.00  0.00     0.064 A 
ATOM     79  C   UNL A   1      45.100  33.550  27.471  1.00  0.00     0.173 A 
ATOM     80  C   UNL A   1      45.915  33.156  29.698  1.00  0.00     0.173 A 
ATOM     81  F   UNL A   1      44.596  33.112  26.306  1.00  0.00    -0.203 F 
ATOM     82  C   UNL A   1      45.394  34.904  27.607  1.00  0.00     0.198 A 
ATOM     83  C   UNL A   1      46.172  34.515  29.844  1.00  0.00     0.198 A 
ATOM     84  F   UNL A   1      46.189  32.334  30.723  1.00  0.00    -0.203 F 
ATOM     85  F   UNL A   1      45.185  35.738  26.579  1.00  0.00    -0.200 F 
ATOM     86  C   UNL A   1      45.924  35.386  28.794  1.00  0.00     0.200 A 
ATOM     87  F   UNL A   1      46.668  34.981  30.998  1.00  0.00    -0.200 F 
ATOM     88  F   UNL A   1      46.208  36.690  28.922  1.00  0.00    -0.200 F 
ENDBRANCH  55  78
ENDBRANCH  29  30
ENDBRANCH  21  24
ENDBRANCH  19  20
ENDBRANCH  18  19
ENDBRANCH   1  18
TORSDOF 14
ENDMDL
MODEL 3
REMARK VINA RESULT:     -11.6      0.277      1.659
REMARK SMILES C[C@H](CC(=O)NCCCCNC(=O)c1ccc(-c2c3nc(c(-c4c(F)c(F)c(F)c(F)c4F)c4ccc([nH]4)c(-c4c(F)c(F)c(F)c(F)c4F)c4nc(c(-c5c(F)c(F)c(F)c(F)c5F)c5ccc2[nH]5)C=C4)C=C3)cc1)Sc1ccc(F)cc1
REMARK SMILES IDX 8 1 7 2 6 3 4 4 5 5 3 7 2 8 1 9 77 10 78 11 79 12 84 13
REMARK SMILES IDX 80 14 83 15 81 16 82 17 9 18 10 19 11 20 12 21 13 23 14 24
REMARK SMILES IDX 15 25 76 26 16 27 75 28 17 29 18 30 19 31 69 32 20 33 74 34
REMARK SMILES IDX 68 35 70 36 21 37 73 38 67 39 66 40 22 42 54 43 34 44 53 45
REMARK SMILES IDX 35 46 38 47 52 48 71 49 36 50 37 51 51 53 72 54 39 55 23 56
REMARK SMILES IDX 24 57 32 58 25 59 26 60 30 61 33 62 27 63 28 64 31 65 29 66
REMARK SMILES IDX 55 67 56 68 64 69 57 70 58 71 62 72 65 73 59 74 60 75 63 76
REMARK SMILES IDX 61 77 40 78 41 79 49 80 42 81 43 82 47 83 50 84 44 85 45 86
REMARK SMILES IDX 48 87 46 88
REMARK H PARENT 6 6 11 22 70 41 38 52
REMARK Flexibility Score: inf
ROOT
ATOM      1  C   UNL A   1      31.628  30.578  26.510  1.00  0.00     0.023 C 
ENDROOT
BRANCH   1   2
ATOM      2  C   UNL A   1      33.050  30.084  26.269  1.00  0.00     0.116 C 
BRANCH   2   3
ATOM      3  N   UNL A   1      33.343  29.883  24.868  1.00  0.00    -0.356 N 
ATOM      4  C   UNL A   1      33.240  28.747  24.123  1.00  0.00     0.221 C 
ATOM      5  O   UNL A   1      33.504  28.808  22.922  1.00  0.00    -0.275 OA
ATOM      6  H   UNL A   1      33.661  30.680  24.384  1.00  0.00     0.163 HD
BRANCH   4   7
ATOM      7  C   UNL A   1      32.817  27.441  24.768  1.00  0.00     0.114 C 
BRANCH   7   8
ATOM      8  C   UNL A   1      31.514  26.831  24.231  1.00  0.00     0.058 C 
ATOM      9  C   UNL A   1      30.394  26.588  25.243  1.00  0.00     0.020 C 
BRANCH   8  10
ATOM     10  S   UNL A   1      30.854  27.486  22.607  1.00  0.00    -0.122 SA
BRANCH  10  11
ATOM     11  C   UNL A   1      29.648  28.740  22.991  1.00  0.00     0.008 A 
ATOM     12  C   UNL A   1      30.051  30.042  23.323  1.00  0.00     0.018 A 
ATOM     13  C   UNL A   1      28.279  28.481  22.831  1.00  0.00     0.018 A 
ATOM     14  C   UNL A   1      29.105  31.030  23.618  1.00  0.00     0.040 A 
ATOM     15  C   UNL A   1      27.331  29.479  23.096  1.00  0.00     0.040 A 
ATOM     16  C   UNL A   1      27.753  30.734  23.516  1.00  0.00     0.123 A 
ATOM     17  F   UNL A   1      26.847  31.665  23.845  1.00  0.00    -0.207 F 
ENDBRANCH  10  11
ENDBRANCH   8  10
ENDBRANCH   7   8
ENDBRANCH   4   7
ENDBRANCH   2   3
ENDBRANCH   1   2
BRANCH   1  18
ATOM     18  C   UNL A   1      31.484  32.086  26.605  1.00  0.00     0.023 C 
BRANCH  18  19
ATOM     19  C   UNL A   1      32.675  32.751  27.271  1.00  0.00     0.116 C 
BRANCH  19  20
ATOM     20  N   UNL A   1      32.416  34.137  27.656  1.00  0.00    -0.352 N 
ATOM     21  C   UNL A   1      32.999  34.883  28.646  1.00  0.00     0.251 C 
ATOM     22  H   UNL A   1      31.723  34.599  27.129  1.00  0.00     0.163 HD
ATOM     23  O   UNL A   1      32.537  35.974  28.962  1.00  0.00    -0.269 OA
BRANCH  21  24
ATOM     24  C   UNL A   1      34.179  34.342  29.341  1.00  0.00     0.039 A 
ATOM     25  C   UNL A   1      33.999  33.561  30.481  1.00  0.00     0.014 A 
ATOM     26  C   UNL A   1      35.459  34.573  28.828  1.00  0.00     0.014 A 
ATOM     27  C   UNL A   1      35.107  32.957  31.071  1.00  0.00     0.010 A 
ATOM     28  C   UNL A   1      36.537  33.871  29.337  1.00  0.00     0.010 A 
ATOM     29  C   UNL A   1      36.377  33.077  30.479  1.00  0.00    -0.014 A 
BRANCH  29  30
ATOM     30  C   UNL A   1      37.555  32.394  31.059  1.00  0.00     0.031 A 
ATOM     31  C   UNL A   1      38.038  32.770  32.432  1.00  0.00     0.074 A 
ATOM     32  C   UNL A   1      38.212  31.476  30.325  1.00  0.00     0.049 A 
ATOM     33  N   UNL A   1      39.045  32.287  33.114  1.00  0.00    -0.248 NA
ATOM     34  C   UNL A   1      37.321  33.857  33.118  1.00  0.00     0.031 C 
ATOM     35  C   UNL A   1      37.881  31.096  28.950  1.00  0.00     0.029 A 
ATOM     36  N   UNL A   1      39.290  30.690  30.636  1.00  0.00    -0.354 N 
ATOM     37  C   UNL A   1      39.084  33.019  34.293  1.00  0.00     0.074 A 
ATOM     38  C   UNL A   1      38.057  34.030  34.203  1.00  0.00     0.031 C 
ATOM     39  C   UNL A   1      38.705  30.114  28.554  1.00  0.00     0.029 A 
ATOM     40  C   UNL A   1      39.639  29.818  29.634  1.00  0.00     0.049 A 
ATOM     41  H   UNL A   1      39.768  30.744  31.495  1.00  0.00     0.167 HD
ATOM     42  C   UNL A   1      39.881  32.837  35.372  1.00  0.00     0.037 A 
ATOM     43  C   UNL A   1      40.600  28.876  29.603  1.00  0.00     0.037 A 
ATOM     44  C   UNL A   1      40.881  31.808  35.462  1.00  0.00     0.049 A 
ATOM     45  C   UNL A   1      41.450  28.672  30.827  1.00  0.00     0.074 A 
ATOM     46  C   UNL A   1      41.708  31.494  36.525  1.00  0.00     0.029 A 
ATOM     47  N   UNL A   1      41.190  30.922  34.439  1.00  0.00    -0.354 N 
ATOM     48  N   UNL A   1      41.424  29.312  31.971  1.00  0.00    -0.248 NA
ATOM     49  C   UNL A   1      42.452  27.602  30.760  1.00  0.00     0.031 C 
ATOM     50  C   UNL A   1      42.549  30.448  36.129  1.00  0.00     0.029 A 
ATOM     51  C   UNL A   1      42.206  30.069  34.840  1.00  0.00     0.049 A 
ATOM     52  H   UNL A   1      40.751  30.901  33.558  1.00  0.00     0.167 HD
ATOM     53  C   UNL A   1      42.381  28.704  32.771  1.00  0.00     0.074 A 
ATOM     54  C   UNL A   1      42.953  27.628  31.986  1.00  0.00     0.031 C 
ATOM     55  C   UNL A   1      42.756  29.005  34.039  1.00  0.00     0.037 A 
BRANCH  42  56
ATOM     56  C   UNL A   1      39.688  33.763  36.540  1.00  0.00     0.064 A 
ATOM     57  C   UNL A   1      40.321  35.016  36.600  1.00  0.00     0.173 A 
ATOM     58  C   UNL A   1      38.851  33.403  37.606  1.00  0.00     0.173 A 
ATOM     59  F   UNL A   1      41.148  35.404  35.617  1.00  0.00    -0.203 F 
ATOM     60  C   UNL A   1      40.152  35.854  37.699  1.00  0.00     0.198 A 
ATOM     61  C   UNL A   1      38.655  34.260  38.686  1.00  0.00     0.198 A 
ATOM     62  F   UNL A   1      38.219  32.220  37.601  1.00  0.00    -0.203 F 
ATOM     63  F   UNL A   1      40.817  37.016  37.761  1.00  0.00    -0.200 F 
ATOM     64  C   UNL A   1      39.314  35.480  38.737  1.00  0.00     0.200 A 
ATOM     65  F   UNL A   1      37.835  33.902  39.683  1.00  0.00    -0.200 F 
ATOM     66  F   UNL A   1      39.147  36.290  39.791  1.00  0.00    -0.200 F 
ENDBRANCH  42  56
BRANCH  43  67
ATOM     67  C   UNL A   1      40.766  28.022  28.398  1.00  0.00     0.064 A 
ATOM     68  C   UNL A   1      41.562  28.440  27.323  1.00  0.00     0.173 A 
ATOM     69  C   UNL A   1      40.137  26.773  28.295  1.00  0.00     0.173 A 
ATOM     70  F   UNL A   1      42.174  29.633  27.368  1.00  0.00    -0.203 F 
ATOM     71  C   UNL A   1      41.701  27.657  26.180  1.00  0.00     0.198 A 
ATOM     72  C   UNL A   1      40.302  25.975  27.164  1.00  0.00     0.198 A 
ATOM     73  F   UNL A   1      39.374  26.320  29.300  1.00  0.00    -0.203 F 
ATOM     74  F   UNL A   1      42.428  28.104  25.147  1.00  0.00    -0.200 F 
ATOM     75  C   UNL A   1      41.075  26.422  26.103  1.00  0.00     0.200 A 
ATOM     76  F   UNL A   1      39.710  24.775  27.102  1.00  0.00    -0.200 F 
ATOM     77  F   UNL A   1      41.212  25.666  25.006  1.00  0.00    -0.200 F 
ENDBRANCH  43  67
BRANCH  55  78
ATOM     78  C   UNL A   1      43.806  28.131  34.663  1.00  0.00     0.064 A 
ATOM     79  C   UNL A   1      45.169  28.452  34.598  1.00  0.00     0.173 A 
ATOM     80  C   UNL A   1      43.438  26.959  35.342  1.00  0.00     0.173 A 
ATOM     81  F   UNL A   1      45.575  29.556  33.950  1.00  0.00    -0.203 F 
ATOM     82  C   UNL A   1      46.130  27.607  35.149  1.00  0.00     0.198 A 
ATOM     83  C   UNL A   1      44.398  26.137  35.925  1.00  0.00     0.198 A 
ATOM     84  F   UNL A   1      42.146  26.612  35.443  1.00  0.00    -0.203 F 
ATOM     85  F   UNL A   1      47.431  27.898  35.013  1.00  0.00    -0.200 F 
ATOM     86  C   UNL A   1      45.743  26.455  35.816  1.00  0.00     0.200 A 
ATOM     87  F   UNL A   1      44.021  25.033  36.583  1.00  0.00    -0.200 F 
ATOM     88  F   UNL A   1      46.669  25.642  36.344  1.00  0.00    -0.200 F 
ENDBRANCH  55  78
ENDBRANCH  29  30
ENDBRANCH  21  24
ENDBRANCH  19  20
ENDBRANCH  18  19
ENDBRANCH   1  18
TORSDOF 14
ENDMDL
