MODEL 1
REMARK VINA RESULT:     -12.2      0.000      0.000
REMARK SMILES O=C(NCCCCNC(=O)[C@@H]1C[NH2+]CCN1C(=O)N[C@@H]1CCOC1)c1ccc(-c2c3nc(c(-c4c(F)c(F)c(F)c(F)c4F)c4ccc([nH]4)c(-c4c(F)c(F)c(F)c(F)c4F)c4nc(c(-c5c(F)c(F)c(F)c(F)c5F)c5ccc2[nH]5)C=C4)C=C3)cc1
REMARK SMILES IDX 5 1 4 2 3 3 1 4 2 5 25 7 26 8 87 9 27 10 86 11 28 12 29 13
REMARK SMILES IDX 30 14 80 15 31 16 85 17 79 18 81 19 32 20 84 21 78 22 77 23
REMARK SMILES IDX 33 25 65 26 45 27 64 28 46 29 49 30 63 31 82 32 47 33 48 34
REMARK SMILES IDX 62 36 83 37 50 38 34 39 35 40 43 41 36 42 37 43 41 44 44 45
REMARK SMILES IDX 38 46 39 47 42 48 40 49 66 50 67 51 75 52 68 53 69 54 73 55
REMARK SMILES IDX 76 56 70 57 71 58 74 59 72 60 51 61 52 62 60 63 53 64 54 65
REMARK SMILES IDX 58 66 61 67 55 68 56 69 59 70 57 71 6 72 7 73 8 74 9 75
REMARK SMILES IDX 10 77 11 78 12 79 16 80 13 81 15 82 14 83 17 86 18 87 19 88
REMARK SMILES IDX 20 90 21 91 24 92 22 93 23 94
REMARK H PARENT 3 6 81 24 49 35 8 76 13 84 13 85 19 89
REMARK Flexibility Score: inf
ROOT
ATOM      1  C   UNL A   1      31.296  31.782  26.670  1.00  0.00     0.023 C 
ENDROOT
BRANCH   1   2
ATOM      2  C   UNL A   1      32.633  32.489  26.875  1.00  0.00     0.116 C 
BRANCH   2   3
ATOM      3  N   UNL A   1      32.467  33.829  27.422  1.00  0.00    -0.352 N 
ATOM      4  O   UNL A   1      32.647  35.478  28.947  1.00  0.00    -0.269 OA
ATOM      5  C   UNL A   1      33.087  34.430  28.494  1.00  0.00     0.251 C 
ATOM      6  H   UNL A   1      31.809  34.390  26.953  1.00  0.00     0.163 HD
BRANCH   5   7
ATOM      7  C   UNL A   1      34.284  33.811  29.104  1.00  0.00     0.039 A 
ATOM      8  C   UNL A   1      34.157  32.737  29.985  1.00  0.00     0.014 A 
ATOM      9  C   UNL A   1      35.556  34.280  28.752  1.00  0.00     0.014 A 
ATOM     10  C   UNL A   1      35.283  32.223  30.619  1.00  0.00     0.010 A 
ATOM     11  C   UNL A   1      36.695  33.705  29.327  1.00  0.00     0.010 A 
ATOM     12  C   UNL A   1      36.566  32.689  30.287  1.00  0.00    -0.014 A 
BRANCH  12  13
ATOM     13  C   UNL A   1      37.752  32.051  30.914  1.00  0.00     0.031 A 
ATOM     14  C   UNL A   1      38.175  32.399  32.315  1.00  0.00     0.074 A 
ATOM     15  C   UNL A   1      38.425  31.117  30.217  1.00  0.00     0.049 A 
ATOM     16  N   UNL A   1      39.156  31.902  33.026  1.00  0.00    -0.248 NA
ATOM     17  C   UNL A   1      37.404  33.442  33.004  1.00  0.00     0.031 C 
ATOM     18  C   UNL A   1      38.115  30.708  28.846  1.00  0.00     0.029 A 
ATOM     19  N   UNL A   1      39.490  30.326  30.565  1.00  0.00    -0.354 N 
ATOM     20  C   UNL A   1      39.132  32.584  34.236  1.00  0.00     0.074 A 
ATOM     21  C   UNL A   1      38.055  33.548  34.154  1.00  0.00     0.031 C 
ATOM     22  C   UNL A   1      38.929  29.704  28.490  1.00  0.00     0.029 A 
ATOM     23  C   UNL A   1      39.859  29.441  29.582  1.00  0.00     0.049 A 
ATOM     24  H   UNL A   1      39.945  30.386  31.436  1.00  0.00     0.167 HD
ATOM     25  C   UNL A   1      39.932  32.412  35.317  1.00  0.00     0.037 A 
ATOM     26  C   UNL A   1      40.844  28.525  29.558  1.00  0.00     0.037 A 
ATOM     27  C   UNL A   1      40.992  31.438  35.398  1.00  0.00     0.049 A 
ATOM     28  C   UNL A   1      41.728  28.374  30.762  1.00  0.00     0.074 A 
ATOM     29  C   UNL A   1      41.831  31.159  36.464  1.00  0.00     0.029 A 
ATOM     30  N   UNL A   1      41.362  30.585  34.367  1.00  0.00    -0.354 N 
ATOM     31  N   UNL A   1      41.670  28.996  31.914  1.00  0.00    -0.248 NA
ATOM     32  C   UNL A   1      42.817  27.394  30.661  1.00  0.00     0.031 C 
ATOM     33  C   UNL A   1      42.739  30.173  36.061  1.00  0.00     0.029 A 
ATOM     34  C   UNL A   1      42.433  29.799  34.762  1.00  0.00     0.049 A 
ATOM     35  H   UNL A   1      40.927  30.544  33.484  1.00  0.00     0.167 HD
ATOM     36  C   UNL A   1      42.700  28.472  32.682  1.00  0.00     0.074 A 
ATOM     37  C   UNL A   1      43.354  27.466  31.870  1.00  0.00     0.031 C 
ATOM     38  C   UNL A   1      43.073  28.799  33.943  1.00  0.00     0.037 A 
BRANCH  25  39
ATOM     39  C   UNL A   1      39.709  33.313  36.498  1.00  0.00     0.064 A 
ATOM     40  C   UNL A   1      40.378  34.539  36.632  1.00  0.00     0.173 A 
ATOM     41  C   UNL A   1      38.781  32.963  37.492  1.00  0.00     0.173 A 
ATOM     42  F   UNL A   1      41.281  34.918  35.716  1.00  0.00    -0.203 F 
ATOM     43  C   UNL A   1      40.147  35.366  37.730  1.00  0.00     0.198 A 
ATOM     44  C   UNL A   1      38.533  33.806  38.573  1.00  0.00     0.198 A 
ATOM     45  F   UNL A   1      38.107  31.806  37.411  1.00  0.00    -0.203 F 
ATOM     46  F   UNL A   1      40.833  36.511  37.859  1.00  0.00    -0.200 F 
ATOM     47  C   UNL A   1      39.220  35.002  38.695  1.00  0.00     0.200 A 
ATOM     48  F   UNL A   1      37.627  33.458  39.498  1.00  0.00    -0.200 F 
ATOM     49  F   UNL A   1      38.997  35.802  39.747  1.00  0.00    -0.200 F 
ENDBRANCH  25  39
BRANCH  26  50
ATOM     50  C   UNL A   1      41.035  27.678  28.352  1.00  0.00     0.064 A 
ATOM     51  C   UNL A   1      41.875  28.089  27.309  1.00  0.00     0.173 A 
ATOM     52  C   UNL A   1      40.395  26.436  28.225  1.00  0.00     0.173 A 
ATOM     53  F   UNL A   1      42.494  29.276  27.376  1.00  0.00    -0.203 F 
ATOM     54  C   UNL A   1      42.058  27.294  26.178  1.00  0.00     0.198 A 
ATOM     55  C   UNL A   1      40.603  25.630  27.110  1.00  0.00     0.198 A 
ATOM     56  F   UNL A   1      39.585  25.995  29.199  1.00  0.00    -0.203 F 
ATOM     57  F   UNL A   1      42.837  27.728  25.179  1.00  0.00    -0.200 F 
ATOM     58  C   UNL A   1      41.429  26.063  26.084  1.00  0.00     0.200 A 
ATOM     59  F   UNL A   1      40.007  24.433  27.031  1.00  0.00    -0.200 F 
ATOM     60  F   UNL A   1      41.614  25.295  25.002  1.00  0.00    -0.200 F 
ENDBRANCH  26  50
BRANCH  38  61
ATOM     61  C   UNL A   1      44.222  28.035  34.531  1.00  0.00     0.064 A 
ATOM     62  C   UNL A   1      44.021  26.879  35.299  1.00  0.00     0.173 A 
ATOM     63  C   UNL A   1      45.542  28.458  34.311  1.00  0.00     0.173 A 
ATOM     64  F   UNL A   1      42.777  26.444  35.553  1.00  0.00    -0.203 F 
ATOM     65  C   UNL A   1      45.098  26.191  35.852  1.00  0.00     0.198 A 
ATOM     66  C   UNL A   1      46.617  27.751  34.841  1.00  0.00     0.198 A 
ATOM     67  F   UNL A   1      45.788  29.555  33.580  1.00  0.00    -0.203 F 
ATOM     68  F   UNL A   1      44.880  25.121  36.629  1.00  0.00    -0.200 F 
ATOM     69  C   UNL A   1      46.395  26.624  35.618  1.00  0.00     0.200 A 
ATOM     70  F   UNL A   1      47.870  28.164  34.605  1.00  0.00    -0.200 F 
ATOM     71  F   UNL A   1      47.430  25.961  36.151  1.00  0.00    -0.200 F 
ENDBRANCH  38  61
ENDBRANCH  12  13
ENDBRANCH   5   7
ENDBRANCH   2   3
ENDBRANCH   1   2
BRANCH   1  72
ATOM     72  C   UNL A   1      31.404  30.356  26.119  1.00  0.00     0.023 C 
BRANCH  72  73
ATOM     73  C   UNL A   1      32.831  29.883  25.813  1.00  0.00     0.116 C 
BRANCH  73  74
ATOM     74  N   UNL A   1      33.052  29.701  24.385  1.00  0.00    -0.354 N 
ATOM     75  C   UNL A   1      32.654  28.703  23.532  1.00  0.00     0.248 C 
ATOM     76  H   UNL A   1      33.576  30.418  23.959  1.00  0.00     0.163 HD
ATOM     77  O   UNL A   1      33.032  28.772  22.359  1.00  0.00    -0.272 OA
BRANCH  75  78
ATOM     78  C   UNL A   1      31.869  27.485  24.052  1.00  0.00     0.231 C 
ATOM     79  C   UNL A   1      32.293  26.257  23.187  1.00  0.00     0.296 C 
ATOM     80  N   UNL A   1      30.412  27.384  24.405  1.00  0.00    -0.302 N 
ATOM     81  N   UNL A   1      32.077  24.966  23.884  1.00  0.00    -0.343 N 
ATOM     82  C   UNL A   1      30.234  26.132  25.184  1.00  0.00     0.183 C 
ATOM     83  C   UNL A   1      30.682  24.884  24.358  1.00  0.00     0.282 C 
ATOM     84  H   UNL A   1      32.710  24.900  24.680  1.00  0.00     0.346 HD
ATOM     85  H   UNL A   1      32.259  24.199  23.236  1.00  0.00     0.346 HD
BRANCH  80  86
ATOM     86  C   UNL A   1      29.365  27.528  23.531  1.00  0.00     0.318 C 
ATOM     87  O   UNL A   1      28.422  26.724  23.501  1.00  0.00    -0.249 OA
ATOM     88  N   UNL A   1      29.112  28.578  22.762  1.00  0.00    -0.333 N 
ATOM     89  H   UNL A   1      28.318  28.354  22.225  1.00  0.00     0.165 HD
BRANCH  88  90
ATOM     90  C   UNL A   1      29.519  29.931  22.375  1.00  0.00     0.112 C 
ATOM     91  C   UNL A   1      29.163  30.844  23.538  1.00  0.00     0.056 C 
ATOM     92  C   UNL A   1      28.793  30.619  21.251  1.00  0.00     0.185 C 
ATOM     93  C   UNL A   1      27.698  31.086  23.243  1.00  0.00     0.162 C 
ATOM     94  O   UNL A   1      27.653  31.283  21.819  1.00  0.00    -0.379 OA
ENDBRANCH  88  90
ENDBRANCH  80  86
ENDBRANCH  75  78
ENDBRANCH  73  74
ENDBRANCH  72  73
ENDBRANCH   1  72
TORSDOF 13
ENDMDL
MODEL 2
REMARK VINA RESULT:     -12.1      3.271      5.091
REMARK SMILES O=C(NCCCCNC(=O)[C@@H]1C[NH2+]CCN1C(=O)N[C@@H]1CCOC1)c1ccc(-c2c3nc(c(-c4c(F)c(F)c(F)c(F)c4F)c4ccc([nH]4)c(-c4c(F)c(F)c(F)c(F)c4F)c4nc(c(-c5c(F)c(F)c(F)c(F)c5F)c5ccc2[nH]5)C=C4)C=C3)cc1
REMARK SMILES IDX 5 1 4 2 3 3 1 4 2 5 25 7 26 8 87 9 27 10 86 11 28 12 29 13
REMARK SMILES IDX 30 14 80 15 31 16 85 17 79 18 81 19 32 20 84 21 78 22 77 23
REMARK SMILES IDX 33 25 65 26 45 27 64 28 46 29 49 30 63 31 82 32 47 33 48 34
REMARK SMILES IDX 62 36 83 37 50 38 34 39 35 40 43 41 36 42 37 43 41 44 44 45
REMARK SMILES IDX 38 46 39 47 42 48 40 49 66 50 67 51 75 52 68 53 69 54 73 55
REMARK SMILES IDX 76 56 70 57 71 58 74 59 72 60 51 61 52 62 60 63 53 64 54 65
REMARK SMILES IDX 58 66 61 67 55 68 56 69 59 70 57 71 6 72 7 73 8 74 9 75
REMARK SMILES IDX 10 77 11 78 12 79 16 80 13 81 15 82 14 83 17 86 18 87 19 88
REMARK SMILES IDX 20 90 21 91 24 92 22 93 23 94
REMARK H PARENT 3 6 81 24 49 35 8 76 13 84 13 85 19 89
REMARK Flexibility Score: inf
ROOT
ATOM      1  C   UNL A   1      32.765  27.770  25.309  1.00  0.00     0.023 C 
ENDROOT
BRANCH   1   2
ATOM      2  C   UNL A   1      33.585  29.029  25.032  1.00  0.00     0.116 C 
BRANCH   2   3
ATOM      3  N   UNL A   1      32.955  30.223  25.577  1.00  0.00    -0.352 N 
ATOM      4  O   UNL A   1      32.449  31.766  27.140  1.00  0.00    -0.269 OA
ATOM      5  C   UNL A   1      33.237  30.926  26.726  1.00  0.00     0.251 C 
ATOM      6  H   UNL A   1      32.212  30.583  25.042  1.00  0.00     0.163 HD
BRANCH   5   7
ATOM      7  C   UNL A   1      34.492  30.669  27.467  1.00  0.00     0.039 A 
ATOM      8  C   UNL A   1      34.771  29.399  27.972  1.00  0.00     0.014 A 
ATOM      9  C   UNL A   1      35.426  31.701  27.617  1.00  0.00     0.014 A 
ATOM     10  C   UNL A   1      35.911  29.193  28.741  1.00  0.00     0.010 A 
ATOM     11  C   UNL A   1      36.614  31.469  28.320  1.00  0.00     0.010 A 
ATOM     12  C   UNL A   1      36.854  30.220  28.911  1.00  0.00    -0.014 A 
BRANCH  12  13
ATOM     13  C   UNL A   1      38.105  29.936  29.660  1.00  0.00     0.031 A 
ATOM     14  C   UNL A   1      38.316  30.458  31.054  1.00  0.00     0.074 A 
ATOM     15  C   UNL A   1      39.040  29.160  29.080  1.00  0.00     0.049 A 
ATOM     16  N   UNL A   1      39.328  30.264  31.862  1.00  0.00    -0.248 NA
ATOM     17  C   UNL A   1      37.260  31.315  31.611  1.00  0.00     0.031 C 
ATOM     18  C   UNL A   1      38.950  28.607  27.727  1.00  0.00     0.029 A 
ATOM     19  N   UNL A   1      40.234  28.682  29.555  1.00  0.00    -0.354 N 
ATOM     20  C   UNL A   1      39.041  30.987  33.013  1.00  0.00     0.074 A 
ATOM     21  C   UNL A   1      37.771  31.646  32.789  1.00  0.00     0.031 C 
ATOM     22  C   UNL A   1      40.011  27.820  27.501  1.00  0.00     0.029 A 
ATOM     23  C   UNL A   1      40.887  27.861  28.668  1.00  0.00     0.049 A 
ATOM     24  H   UNL A   1      40.589  28.904  30.446  1.00  0.00     0.167 HD
ATOM     25  C   UNL A   1      39.769  31.084  34.152  1.00  0.00     0.037 A 
ATOM     26  C   UNL A   1      42.064  27.220  28.775  1.00  0.00     0.037 A 
ATOM     27  C   UNL A   1      41.024  30.411  34.374  1.00  0.00     0.049 A 
ATOM     28  C   UNL A   1      42.858  27.364  30.042  1.00  0.00     0.074 A 
ATOM     29  C   UNL A   1      41.818  30.413  35.509  1.00  0.00     0.029 A 
ATOM     30  N   UNL A   1      41.674  29.619  33.437  1.00  0.00    -0.354 N 
ATOM     31  N   UNL A   1      42.557  28.018  31.137  1.00  0.00    -0.248 NA
ATOM     32  C   UNL A   1      44.158  26.682  30.085  1.00  0.00     0.031 C 
ATOM     33  C   UNL A   1      42.969  29.662  35.241  1.00  0.00     0.029 A 
ATOM     34  C   UNL A   1      42.869  29.149  33.958  1.00  0.00     0.049 A 
ATOM     35  H   UNL A   1      41.335  29.420  32.534  1.00  0.00     0.167 HD
ATOM     36  C   UNL A   1      43.619  27.813  32.006  1.00  0.00     0.074 A 
ATOM     37  C   UNL A   1      44.562  26.956  31.317  1.00  0.00     0.031 C 
ATOM     38  C   UNL A   1      43.797  28.295  33.260  1.00  0.00     0.037 A 
BRANCH  25  39
ATOM     39  C   UNL A   1      39.238  31.967  35.245  1.00  0.00     0.064 A 
ATOM     40  C   UNL A   1      38.437  31.464  36.281  1.00  0.00     0.173 A 
ATOM     41  C   UNL A   1      39.570  33.331  35.278  1.00  0.00     0.173 A 
ATOM     42  F   UNL A   1      38.083  30.171  36.293  1.00  0.00    -0.203 F 
ATOM     43  C   UNL A   1      37.965  32.298  37.293  1.00  0.00     0.198 A 
ATOM     44  C   UNL A   1      39.119  34.156  36.307  1.00  0.00     0.198 A 
ATOM     45  F   UNL A   1      40.339  33.864  34.318  1.00  0.00    -0.203 F 
ATOM     46  F   UNL A   1      37.164  31.804  38.247  1.00  0.00    -0.200 F 
ATOM     47  C   UNL A   1      38.312  33.641  37.309  1.00  0.00     0.200 A 
ATOM     48  F   UNL A   1      39.467  35.450  36.327  1.00  0.00    -0.200 F 
ATOM     49  F   UNL A   1      37.862  34.440  38.286  1.00  0.00    -0.200 F 
ENDBRANCH  25  39
BRANCH  26  50
ATOM     50  C   UNL A   1      42.553  26.378  27.652  1.00  0.00     0.064 A 
ATOM     51  C   UNL A   1      43.481  26.878  26.729  1.00  0.00     0.173 A 
ATOM     52  C   UNL A   1      42.115  25.056  27.488  1.00  0.00     0.173 A 
ATOM     53  F   UNL A   1      43.915  28.142  26.833  1.00  0.00    -0.203 F 
ATOM     54  C   UNL A   1      43.943  26.090  25.677  1.00  0.00     0.198 A 
ATOM     55  C   UNL A   1      42.601  24.260  26.455  1.00  0.00     0.198 A 
ATOM     56  F   UNL A   1      41.231  24.529  28.349  1.00  0.00    -0.203 F 
ATOM     57  F   UNL A   1      44.801  26.604  24.786  1.00  0.00    -0.200 F 
ATOM     58  C   UNL A   1      43.509  24.780  25.546  1.00  0.00     0.200 A 
ATOM     59  F   UNL A   1      42.193  22.989  26.343  1.00  0.00    -0.200 F 
ATOM     60  F   UNL A   1      43.962  24.019  24.540  1.00  0.00    -0.200 F 
ENDBRANCH  26  50
BRANCH  38  61
ATOM     61  C   UNL A   1      45.048  27.877  33.976  1.00  0.00     0.064 A 
ATOM     62  C   UNL A   1      46.248  28.587  33.837  1.00  0.00     0.173 A 
ATOM     63  C   UNL A   1      45.039  26.758  34.823  1.00  0.00     0.173 A 
ATOM     64  F   UNL A   1      46.312  29.653  33.024  1.00  0.00    -0.203 F 
ATOM     65  C   UNL A   1      47.405  28.175  34.495  1.00  0.00     0.198 A 
ATOM     66  C   UNL A   1      46.189  26.367  35.503  1.00  0.00     0.198 A 
ATOM     67  F   UNL A   1      43.915  26.047  34.994  1.00  0.00    -0.203 F 
ATOM     68  F   UNL A   1      48.554  28.836  34.304  1.00  0.00    -0.200 F 
ATOM     69  C   UNL A   1      47.372  27.069  35.331  1.00  0.00     0.200 A 
ATOM     70  F   UNL A   1      46.153  25.304  36.319  1.00  0.00    -0.200 F 
ATOM     71  F   UNL A   1      48.485  26.674  35.964  1.00  0.00    -0.200 F 
ENDBRANCH  38  61
ENDBRANCH  12  13
ENDBRANCH   5   7
ENDBRANCH   2   3
ENDBRANCH   1   2
BRANCH   1  72
ATOM     72  C   UNL A   1      33.546  26.457  25.181  1.00  0.00     0.023 C 
BRANCH  72  73
ATOM     73  C   UNL A   1      33.089  25.537  24.041  1.00  0.00     0.116 C 
BRANCH  73  74
ATOM     74  N   UNL A   1      34.206  24.839  23.422  1.00  0.00    -0.354 N 
ATOM     75  C   UNL A   1      34.814  23.650  23.741  1.00  0.00     0.248 C 
ATOM     76  H   UNL A   1      34.591  25.297  22.640  1.00  0.00     0.163 HD
ATOM     77  O   UNL A   1      35.792  23.313  23.068  1.00  0.00    -0.272 OA
BRANCH  75  78
ATOM     78  C   UNL A   1      34.362  22.836  24.966  1.00  0.00     0.231 C 
ATOM     79  C   UNL A   1      35.291  23.236  26.155  1.00  0.00     0.296 C 
ATOM     80  N   UNL A   1      34.020  21.375  25.053  1.00  0.00    -0.302 N 
ATOM     81  N   UNL A   1      34.665  22.987  27.476  1.00  0.00    -0.343 N 
ATOM     82  C   UNL A   1      33.310  21.165  26.341  1.00  0.00     0.183 C 
ATOM     83  C   UNL A   1      34.201  21.589  27.552  1.00  0.00     0.282 C 
ATOM     84  H   UNL A   1      33.872  23.616  27.599  1.00  0.00     0.346 HD
ATOM     85  H   UNL A   1      35.352  23.155  28.212  1.00  0.00     0.346 HD
BRANCH  80  86
ATOM     86  C   UNL A   1      34.888  20.335  24.838  1.00  0.00     0.318 C 
ATOM     87  O   UNL A   1      36.117  20.487  24.900  1.00  0.00    -0.249 OA
ATOM     88  N   UNL A   1      34.577  19.052  24.723  1.00  0.00    -0.333 N 
ATOM     89  H   UNL A   1      35.415  18.571  24.533  1.00  0.00     0.165 HD
BRANCH  88  90
ATOM     90  C   UNL A   1      33.510  18.049  24.759  1.00  0.00     0.112 C 
ATOM     91  C   UNL A   1      34.159  16.709  24.445  1.00  0.00     0.056 C 
ATOM     92  C   UNL A   1      32.435  18.087  23.707  1.00  0.00     0.185 C 
ATOM     93  C   UNL A   1      34.188  16.779  22.933  1.00  0.00     0.162 C 
ATOM     94  O   UNL A   1      32.908  17.332  22.581  1.00  0.00    -0.379 OA
ENDBRANCH  88  90
ENDBRANCH  80  86
ENDBRANCH  75  78
ENDBRANCH  73  74
ENDBRANCH  72  73
ENDBRANCH   1  72
TORSDOF 13
ENDMDL
MODEL 3
REMARK VINA RESULT:     -12.1      5.931     11.335
REMARK SMILES O=C(NCCCCNC(=O)[C@@H]1C[NH2+]CCN1C(=O)N[C@@H]1CCOC1)c1ccc(-c2c3nc(c(-c4c(F)c(F)c(F)c(F)c4F)c4ccc([nH]4)c(-c4c(F)c(F)c(F)c(F)c4F)c4nc(c(-c5c(F)c(F)c(F)c(F)c5F)c5ccc2[nH]5)C=C4)C=C3)cc1
REMARK SMILES IDX 5 1 4 2 3 3 1 4 2 5 25 7 26 8 87 9 27 10 86 11 28 12 29 13
REMARK SMILES IDX 30 14 80 15 31 16 85 17 79 18 81 19 32 20 84 21 78 22 77 23
REMARK SMILES IDX 33 25 65 26 45 27 64 28 46 29 49 30 63 31 82 32 47 33 48 34
REMARK SMILES IDX 62 36 83 37 50 38 34 39 35 40 43 41 36 42 37 43 41 44 44 45
REMARK SMILES IDX 38 46 39 47 42 48 40 49 66 50 67 51 75 52 68 53 69 54 73 55
REMARK SMILES IDX 76 56 70 57 71 58 74 59 72 60 51 61 52 62 60 63 53 64 54 65
REMARK SMILES IDX 58 66 61 67 55 68 56 69 59 70 57 71 6 72 7 73 8 74 9 75
REMARK SMILES IDX 10 77 11 78 12 79 16 80 13 81 15 82 14 83 17 86 18 87 19 88
REMARK SMILES IDX 20 90 21 91 24 92 22 93 23 94
REMARK H PARENT 3 6 81 24 49 35 8 76 13 84 13 85 19 89
REMARK Flexibility Score: inf
ROOT
ATOM      1  C   UNL A   1      37.988  19.545  25.027  1.00  0.00     0.023 C 
ENDROOT
BRANCH   1   2
ATOM      2  C   UNL A   1      39.096  20.074  25.936  1.00  0.00     0.116 C 
BRANCH   2   3
ATOM      3  N   UNL A   1      40.258  19.196  25.950  1.00  0.00    -0.352 N 
ATOM      4  O   UNL A   1      42.438  18.647  25.790  1.00  0.00    -0.269 OA
ATOM      5  C   UNL A   1      41.597  19.503  26.030  1.00  0.00     0.251 C 
ATOM      6  H   UNL A   1      40.054  18.235  25.893  1.00  0.00     0.163 HD
BRANCH   5   7
ATOM      7  C   UNL A   1      42.027  20.869  26.402  1.00  0.00     0.039 A 
ATOM      8  C   UNL A   1      42.144  21.866  25.432  1.00  0.00     0.014 A 
ATOM      9  C   UNL A   1      42.269  21.172  27.747  1.00  0.00     0.014 A 
ATOM     10  C   UNL A   1      42.633  23.119  25.782  1.00  0.00     0.010 A 
ATOM     11  C   UNL A   1      42.680  22.460  28.109  1.00  0.00     0.010 A 
ATOM     12  C   UNL A   1      42.892  23.437  27.126  1.00  0.00    -0.014 A 
BRANCH  12  13
ATOM     13  C   UNL A   1      43.323  24.816  27.472  1.00  0.00     0.031 A 
ATOM     14  C   UNL A   1      44.719  25.293  27.182  1.00  0.00     0.074 A 
ATOM     15  C   UNL A   1      42.422  25.653  28.019  1.00  0.00     0.049 A 
ATOM     16  N   UNL A   1      45.242  26.477  27.379  1.00  0.00    -0.248 NA
ATOM     17  C   UNL A   1      45.651  24.314  26.604  1.00  0.00     0.031 C 
ATOM     18  C   UNL A   1      41.043  25.298  28.357  1.00  0.00     0.029 A 
ATOM     19  N   UNL A   1      42.517  26.977  28.365  1.00  0.00    -0.354 N 
ATOM     20  C   UNL A   1      46.566  26.382  26.968  1.00  0.00     0.074 A 
ATOM     21  C   UNL A   1      46.774  25.016  26.535  1.00  0.00     0.031 C 
ATOM     22  C   UNL A   1      40.404  26.387  28.806  1.00  0.00     0.029 A 
ATOM     23  C   UNL A   1      41.343  27.503  28.847  1.00  0.00     0.049 A 
ATOM     24  H   UNL A   1      43.346  27.500  28.276  1.00  0.00     0.167 HD
ATOM     25  C   UNL A   1      47.515  27.349  26.948  1.00  0.00     0.037 A 
ATOM     26  C   UNL A   1      41.056  28.741  29.284  1.00  0.00     0.037 A 
ATOM     27  C   UNL A   1      47.296  28.712  27.365  1.00  0.00     0.049 A 
ATOM     28  C   UNL A   1      42.135  29.786  29.270  1.00  0.00     0.074 A 
ATOM     29  C   UNL A   1      48.182  29.776  27.345  1.00  0.00     0.029 A 
ATOM     30  N   UNL A   1      46.103  29.198  27.886  1.00  0.00    -0.354 N 
ATOM     31  N   UNL A   1      43.370  29.694  28.842  1.00  0.00    -0.248 NA
ATOM     32  C   UNL A   1      41.778  31.107  29.804  1.00  0.00     0.031 C 
ATOM     33  C   UNL A   1      47.541  30.891  27.897  1.00  0.00     0.029 A 
ATOM     34  C   UNL A   1      46.239  30.538  28.213  1.00  0.00     0.049 A 
ATOM     35  H   UNL A   1      45.282  28.668  28.004  1.00  0.00     0.167 HD
ATOM     36  C   UNL A   1      43.934  30.947  29.037  1.00  0.00     0.074 A 
ATOM     37  C   UNL A   1      42.898  31.787  29.603  1.00  0.00     0.031 C 
ATOM     38  C   UNL A   1      45.198  31.361  28.774  1.00  0.00     0.037 A 
BRANCH  25  39
ATOM     39  C   UNL A   1      48.890  26.967  26.479  1.00  0.00     0.064 A 
ATOM     40  C   UNL A   1      49.860  26.464  27.359  1.00  0.00     0.173 A 
ATOM     41  C   UNL A   1      49.229  27.067  25.120  1.00  0.00     0.173 A 
ATOM     42  F   UNL A   1      49.591  26.355  28.668  1.00  0.00    -0.203 F 
ATOM     43  C   UNL A   1      51.126  26.102  26.901  1.00  0.00     0.198 A 
ATOM     44  C   UNL A   1      50.486  26.679  24.662  1.00  0.00     0.198 A 
ATOM     45  F   UNL A   1      48.338  27.534  24.234  1.00  0.00    -0.203 F 
ATOM     46  F   UNL A   1      52.050  25.667  27.769  1.00  0.00    -0.200 F 
ATOM     47  C   UNL A   1      51.435  26.204  25.553  1.00  0.00     0.200 A 
ATOM     48  F   UNL A   1      50.778  26.766  23.357  1.00  0.00    -0.200 F 
ATOM     49  F   UNL A   1      52.651  25.851  25.115  1.00  0.00    -0.200 F 
ENDBRANCH  25  39
BRANCH  26  50
ATOM     50  C   UNL A   1      39.685  29.058  29.760  1.00  0.00     0.064 A 
ATOM     51  C   UNL A   1      39.332  28.884  31.105  1.00  0.00     0.173 A 
ATOM     52  C   UNL A   1      38.706  29.554  28.887  1.00  0.00     0.173 A 
ATOM     53  F   UNL A   1      40.228  28.395  31.975  1.00  0.00    -0.203 F 
ATOM     54  C   UNL A   1      38.047  29.182  31.555  1.00  0.00     0.198 A 
ATOM     55  C   UNL A   1      37.432  29.881  29.344  1.00  0.00     0.198 A 
ATOM     56  F   UNL A   1      38.995  29.743  27.591  1.00  0.00    -0.203 F 
ATOM     57  F   UNL A   1      37.725  28.971  32.839  1.00  0.00    -0.200 F 
ATOM     58  C   UNL A   1      37.102  29.688  30.677  1.00  0.00     0.200 A 
ATOM     59  F   UNL A   1      36.527  30.386  28.495  1.00  0.00    -0.200 F 
ATOM     60  F   UNL A   1      35.870  29.985  31.113  1.00  0.00    -0.200 F 
ENDBRANCH  26  50
BRANCH  38  61
ATOM     61  C   UNL A   1      45.515  32.798  29.068  1.00  0.00     0.064 A 
ATOM     62  C   UNL A   1      46.051  33.196  30.301  1.00  0.00     0.173 A 
ATOM     63  C   UNL A   1      45.293  33.786  28.098  1.00  0.00     0.173 A 
ATOM     64  F   UNL A   1      46.264  32.291  31.270  1.00  0.00    -0.203 F 
ATOM     65  C   UNL A   1      46.323  34.536  30.565  1.00  0.00     0.198 A 
ATOM     66  C   UNL A   1      45.595  35.121  28.353  1.00  0.00     0.198 A 
ATOM     67  F   UNL A   1      44.786  33.457  26.900  1.00  0.00    -0.203 F 
ATOM     68  F   UNL A   1      46.782  34.901  31.770  1.00  0.00    -0.200 F 
ATOM     69  C   UNL A   1      46.100  35.496  29.589  1.00  0.00     0.200 A 
ATOM     70  F   UNL A   1      45.389  36.046  27.405  1.00  0.00    -0.200 F 
ATOM     71  F   UNL A   1      46.363  36.785  29.843  1.00  0.00    -0.200 F 
ENDBRANCH  38  61
ENDBRANCH  12  13
ENDBRANCH   5   7
ENDBRANCH   2   3
ENDBRANCH   1   2
BRANCH   1  72
ATOM     72  C   UNL A   1      36.969  20.600  24.581  1.00  0.00     0.023 C 
BRANCH  72  73
ATOM     73  C   UNL A   1      36.703  21.718  25.597  1.00  0.00     0.116 C 
BRANCH  73  74
ATOM     74  N   UNL A   1      35.621  21.381  26.511  1.00  0.00    -0.354 N 
ATOM     75  C   UNL A   1      34.262  21.538  26.394  1.00  0.00     0.248 C 
ATOM     76  H   UNL A   1      35.913  20.970  27.356  1.00  0.00     0.163 HD
ATOM     77  O   UNL A   1      33.567  21.209  27.360  1.00  0.00    -0.272 OA
BRANCH  75  78
ATOM     78  C   UNL A   1      33.648  22.210  25.153  1.00  0.00     0.231 C 
ATOM     79  C   UNL A   1      32.357  22.951  25.620  1.00  0.00     0.296 C 
ATOM     80  N   UNL A   1      33.442  21.640  23.777  1.00  0.00    -0.302 N 
ATOM     81  N   UNL A   1      31.977  24.062  24.714  1.00  0.00    -0.343 N 
ATOM     82  C   UNL A   1      33.157  22.779  22.868  1.00  0.00     0.183 C 
ATOM     83  C   UNL A   1      31.888  23.564  23.327  1.00  0.00     0.282 C 
ATOM     84  H   UNL A   1      32.681  24.797  24.766  1.00  0.00     0.346 HD
ATOM     85  H   UNL A   1      31.071  24.434  24.997  1.00  0.00     0.346 HD
BRANCH  80  86
ATOM     86  C   UNL A   1      32.621  20.589  23.462  1.00  0.00     0.318 C 
ATOM     87  O   UNL A   1      31.878  20.615  22.470  1.00  0.00    -0.249 OA
ATOM     88  N   UNL A   1      32.623  19.384  24.016  1.00  0.00    -0.333 N 
ATOM     89  H   UNL A   1      31.890  18.877  23.599  1.00  0.00     0.165 HD
BRANCH  88  90
ATOM     90  C   UNL A   1      33.258  18.493  24.989  1.00  0.00     0.112 C 
ATOM     91  C   UNL A   1      34.510  17.941  24.324  1.00  0.00     0.056 C 
ATOM     92  C   UNL A   1      32.564  17.214  25.372  1.00  0.00     0.185 C 
ATOM     93  C   UNL A   1      33.905  16.808  23.522  1.00  0.00     0.162 C 
ATOM     94  O   UNL A   1      32.952  16.212  24.419  1.00  0.00    -0.379 OA
ENDBRANCH  88  90
ENDBRANCH  80  86
ENDBRANCH  75  78
ENDBRANCH  73  74
ENDBRANCH  72  73
ENDBRANCH   1  72
TORSDOF 13
ENDMDL
