MODEL 1
REMARK VINA RESULT:     -12.9      0.000      0.000
REMARK SMILES Cc1c(NC(=S)NC(=O)CSc2ccc(Cl)cc2)cccc1C(=O)NCCCCNC(=O)c1ccc(-c2c3nc(c(-c4c(F)c(F)c(F)c(F)c4F)c4ccc([nH]4)c(-c4c(F)c(F)c(F)c(F)c4F)c4nc(c(-c5c(F)c(F)c(F)c(F)c5F)c5ccc2[nH]5)C=C4)C=C3)cc1
REMARK SMILES IDX 23 1 24 2 25 3 22 5 1 6 2 7 3 8 19 9 21 10 20 11 4 12 5 14
REMARK SMILES IDX 6 15 7 16 8 17 9 19 10 20 11 21 12 22 13 23 18 24 14 25
REMARK SMILES IDX 17 26 15 27 16 28 26 29 27 30 28 31 29 32 30 33 31 34 32 36
REMARK SMILES IDX 33 37 34 38 95 39 35 40 94 41 36 42 37 43 38 44 88 45 39 46
REMARK SMILES IDX 93 47 87 48 89 49 40 50 92 51 86 52 85 53 41 55 73 56 53 57
REMARK SMILES IDX 72 58 54 59 57 60 71 61 90 62 55 63 56 64 70 66 91 67 58 68
REMARK SMILES IDX 42 69 43 70 51 71 44 72 45 73 49 74 52 75 46 76 47 77 50 78
REMARK SMILES IDX 48 79 74 80 75 81 83 82 76 83 77 84 81 85 84 86 78 87 79 88
REMARK SMILES IDX 82 89 80 90 59 91 60 92 68 93 61 94 62 95 66 96 69 97 63 98
REMARK SMILES IDX 64 99 67 100 65 101
REMARK H PARENT 25 4 4 13 7 18 30 35 89 54 57 65
REMARK Flexibility Score: inf
ROOT
ATOM      1  C   UNL A   1      34.778  32.952  27.919  1.00  0.00     0.251 C 
ATOM      2  O   UNL A   1      35.967  33.096  27.588  1.00  0.00    -0.269 OA
ATOM      3  N   UNL A   1      34.269  34.082  28.494  1.00  0.00    -0.352 N 
ATOM      4  H   UNL A   1      34.959  34.781  28.555  1.00  0.00     0.163 HD
ENDROOT
BRANCH   1   5
ATOM      5  C   UNL A   1      34.148  31.603  27.638  1.00  0.00     0.044 A 
ATOM      6  C   UNL A   1      31.775  32.203  26.869  1.00  0.00     0.047 C 
ATOM      7  C   UNL A   1      32.913  31.248  27.039  1.00  0.00    -0.015 A 
ATOM      8  C   UNL A   1      32.729  29.908  26.569  1.00  0.00     0.044 A 
ATOM      9  C   UNL A   1      33.594  28.894  26.970  1.00  0.00     0.026 A 
ATOM     10  C   UNL A   1      35.042  30.542  27.934  1.00  0.00     0.014 A 
ATOM     11  C   UNL A   1      34.752  29.208  27.660  1.00  0.00     0.003 A 
BRANCH   8  12
ATOM     12  N   UNL A   1      31.663  29.633  25.687  1.00  0.00    -0.332 N 
ATOM     13  H   UNL A   1      30.792  29.594  26.144  1.00  0.00     0.169 HD
BRANCH  12  14
ATOM     14  C   UNL A   1      31.565  29.413  24.370  1.00  0.00     0.177 C 
ATOM     15  S   UNL A   1      30.071  29.715  23.666  1.00  0.00    -0.040 S 
BRANCH  14  16
ATOM     16  N   UNL A   1      32.572  29.024  23.541  1.00  0.00    -0.302 N 
ATOM     17  C   UNL A   1      33.390  27.951  23.235  1.00  0.00     0.236 C 
ATOM     18  H   UNL A   1      32.801  29.776  22.947  1.00  0.00     0.172 HD
ATOM     19  O   UNL A   1      34.084  28.081  22.215  1.00  0.00    -0.274 OA
BRANCH  17  20
ATOM     20  C   UNL A   1      33.476  26.662  24.025  1.00  0.00     0.175 C 
BRANCH  20  21
ATOM     21  S   UNL A   1      33.456  25.147  23.029  1.00  0.00    -0.116 SA
BRANCH  21  22
ATOM     22  C   UNL A   1      34.792  24.284  23.813  1.00  0.00     0.008 A 
ATOM     23  C   UNL A   1      35.137  24.541  25.144  1.00  0.00     0.016 A 
ATOM     24  C   UNL A   1      35.490  23.322  23.081  1.00  0.00     0.016 A 
ATOM     25  C   UNL A   1      36.175  23.823  25.742  1.00  0.00     0.021 A 
ATOM     26  C   UNL A   1      36.525  22.606  23.679  1.00  0.00     0.021 A 
ATOM     27  C   UNL A   1      36.862  22.857  25.007  1.00  0.00     0.041 A 
ATOM     28  Cl  UNL A   1      38.135  21.965  25.743  1.00  0.00    -0.084 Cl
ENDBRANCH  21  22
ENDBRANCH  20  21
ENDBRANCH  17  20
ENDBRANCH  14  16
ENDBRANCH  12  14
ENDBRANCH   8  12
ENDBRANCH   1   5
BRANCH   3  29
ATOM     29  C   UNL A   1      33.016  34.553  29.039  1.00  0.00     0.116 C 
BRANCH  29  30
ATOM     30  C   UNL A   1      32.904  36.081  29.083  1.00  0.00     0.023 C 
BRANCH  30  31
ATOM     31  C   UNL A   1      32.940  36.700  30.474  1.00  0.00     0.023 C 
BRANCH  31  32
ATOM     32  C   UNL A   1      32.801  35.672  31.585  1.00  0.00     0.116 C 
BRANCH  32  33
ATOM     33  N   UNL A   1      33.636  35.898  32.760  1.00  0.00    -0.352 N 
ATOM     34  C   UNL A   1      34.623  35.090  33.316  1.00  0.00     0.251 C 
ATOM     35  H   UNL A   1      33.477  36.747  33.230  1.00  0.00     0.163 HD
ATOM     36  O   UNL A   1      35.149  35.411  34.369  1.00  0.00    -0.269 OA
BRANCH  34  37
ATOM     37  C   UNL A   1      35.153  33.932  32.545  1.00  0.00     0.039 A 
ATOM     38  C   UNL A   1      35.242  32.696  33.202  1.00  0.00     0.014 A 
ATOM     39  C   UNL A   1      35.814  34.120  31.340  1.00  0.00     0.014 A 
ATOM     40  C   UNL A   1      36.235  31.796  32.822  1.00  0.00     0.010 A 
ATOM     41  C   UNL A   1      36.900  33.317  31.067  1.00  0.00     0.010 A 
ATOM     42  C   UNL A   1      37.156  32.193  31.857  1.00  0.00    -0.014 A 
BRANCH  42  43
ATOM     43  C   UNL A   1      38.474  31.587  31.700  1.00  0.00     0.031 A 
ATOM     44  C   UNL A   1      38.637  30.348  30.910  1.00  0.00     0.074 A 
ATOM     45  C   UNL A   1      39.561  32.255  32.154  1.00  0.00     0.049 A 
ATOM     46  N   UNL A   1      39.672  29.580  30.957  1.00  0.00    -0.248 NA
ATOM     47  C   UNL A   1      37.594  29.839  30.029  1.00  0.00     0.031 C 
ATOM     48  C   UNL A   1      40.961  32.010  31.812  1.00  0.00     0.029 A 
ATOM     49  N   UNL A   1      39.620  33.206  33.189  1.00  0.00    -0.354 N 
ATOM     50  C   UNL A   1      39.571  28.665  29.931  1.00  0.00     0.074 A 
ATOM     51  C   UNL A   1      38.220  28.811  29.452  1.00  0.00     0.031 C 
ATOM     52  C   UNL A   1      41.739  32.525  32.775  1.00  0.00     0.029 A 
ATOM     53  C   UNL A   1      40.859  32.982  33.836  1.00  0.00     0.049 A 
ATOM     54  H   UNL A   1      38.943  33.884  33.415  1.00  0.00     0.167 HD
ATOM     55  C   UNL A   1      40.698  28.002  29.534  1.00  0.00     0.037 A 
ATOM     56  C   UNL A   1      40.916  32.555  35.130  1.00  0.00     0.037 A 
ATOM     57  C   UNL A   1      41.793  28.243  30.480  1.00  0.00     0.049 A 
ATOM     58  C   UNL A   1      41.601  31.219  35.309  1.00  0.00     0.074 A 
ATOM     59  C   UNL A   1      42.909  29.063  30.447  1.00  0.00     0.029 A 
ATOM     60  N   UNL A   1      41.661  27.816  31.800  1.00  0.00    -0.354 N 
ATOM     61  N   UNL A   1      41.816  30.378  34.335  1.00  0.00    -0.248 NA
ATOM     62  C   UNL A   1      42.057  30.707  36.598  1.00  0.00     0.031 C 
ATOM     63  C   UNL A   1      43.405  29.185  31.771  1.00  0.00     0.029 A 
ATOM     64  C   UNL A   1      42.608  28.420  32.604  1.00  0.00     0.049 A 
ATOM     65  H   UNL A   1      40.985  27.173  32.115  1.00  0.00     0.167 HD
ATOM     66  C   UNL A   1      42.380  29.234  34.834  1.00  0.00     0.074 A 
ATOM     67  C   UNL A   1      42.534  29.499  36.253  1.00  0.00     0.031 C 
ATOM     68  C   UNL A   1      42.649  28.159  34.037  1.00  0.00     0.037 A 
BRANCH  55  69
ATOM     69  C   UNL A   1      40.912  27.381  28.157  1.00  0.00     0.064 A 
ATOM     70  C   UNL A   1      40.557  26.032  27.919  1.00  0.00     0.173 A 
ATOM     71  C   UNL A   1      41.547  28.000  27.062  1.00  0.00     0.173 A 
ATOM     72  F   UNL A   1      39.844  25.328  28.808  1.00  0.00    -0.203 F 
ATOM     73  C   UNL A   1      40.917  25.344  26.753  1.00  0.00     0.198 A 
ATOM     74  C   UNL A   1      41.935  27.307  25.910  1.00  0.00     0.198 A 
ATOM     75  F   UNL A   1      41.772  29.313  27.020  1.00  0.00    -0.203 F 
ATOM     76  F   UNL A   1      40.572  24.057  26.607  1.00  0.00    -0.200 F 
ATOM     77  C   UNL A   1      41.637  25.973  25.761  1.00  0.00     0.200 A 
ATOM     78  F   UNL A   1      42.603  27.955  24.944  1.00  0.00    -0.200 F 
ATOM     79  F   UNL A   1      42.014  25.311  24.661  1.00  0.00    -0.200 F 
ENDBRANCH  55  69
BRANCH  56  80
ATOM     80  C   UNL A   1      39.791  33.058  35.960  1.00  0.00     0.064 A 
ATOM     81  C   UNL A   1      38.769  32.156  36.313  1.00  0.00     0.173 A 
ATOM     82  C   UNL A   1      39.896  34.238  36.705  1.00  0.00     0.173 A 
ATOM     83  F   UNL A   1      38.628  31.006  35.635  1.00  0.00    -0.203 F 
ATOM     84  C   UNL A   1      37.969  32.367  37.434  1.00  0.00     0.198 A 
ATOM     85  C   UNL A   1      39.082  34.453  37.821  1.00  0.00     0.198 A 
ATOM     86  F   UNL A   1      40.866  35.125  36.437  1.00  0.00    -0.203 F 
ATOM     87  F   UNL A   1      37.084  31.432  37.809  1.00  0.00    -0.200 F 
ATOM     88  C   UNL A   1      38.146  33.504  38.203  1.00  0.00     0.200 A 
ATOM     89  F   UNL A   1      39.280  35.535  38.589  1.00  0.00    -0.200 F 
ATOM     90  F   UNL A   1      37.450  33.663  39.338  1.00  0.00    -0.200 F 
ENDBRANCH  56  80
BRANCH  68  91
ATOM     91  C   UNL A   1      43.048  26.784  34.514  1.00  0.00     0.064 A 
ATOM     92  C   UNL A   1      42.140  25.825  34.991  1.00  0.00     0.173 A 
ATOM     93  C   UNL A   1      44.382  26.334  34.353  1.00  0.00     0.173 A 
ATOM     94  F   UNL A   1      40.830  26.091  35.081  1.00  0.00    -0.203 F 
ATOM     95  C   UNL A   1      42.544  24.532  35.335  1.00  0.00     0.198 A 
ATOM     96  C   UNL A   1      44.769  25.026  34.642  1.00  0.00     0.198 A 
ATOM     97  F   UNL A   1      45.341  27.145  33.885  1.00  0.00    -0.203 F 
ATOM     98  F   UNL A   1      41.644  23.664  35.822  1.00  0.00    -0.200 F 
ATOM     99  C   UNL A   1      43.852  24.128  35.148  1.00  0.00     0.200 A 
ATOM    100  F   UNL A   1      46.029  24.637  34.406  1.00  0.00    -0.200 F 
ATOM    101  F   UNL A   1      44.223  22.873  35.434  1.00  0.00    -0.200 F 
ENDBRANCH  68  91
ENDBRANCH  42  43
ENDBRANCH  34  37
ENDBRANCH  32  33
ENDBRANCH  31  32
ENDBRANCH  30  31
ENDBRANCH  29  30
ENDBRANCH   3  29
TORSDOF 17
ENDMDL
MODEL 2
REMARK VINA RESULT:     -12.6      5.541     11.055
REMARK SMILES Cc1c(NC(=S)NC(=O)CSc2ccc(Cl)cc2)cccc1C(=O)NCCCCNC(=O)c1ccc(-c2c3nc(c(-c4c(F)c(F)c(F)c(F)c4F)c4ccc([nH]4)c(-c4c(F)c(F)c(F)c(F)c4F)c4nc(c(-c5c(F)c(F)c(F)c(F)c5F)c5ccc2[nH]5)C=C4)C=C3)cc1
REMARK SMILES IDX 23 1 24 2 25 3 22 5 1 6 2 7 3 8 19 9 21 10 20 11 4 12 5 14
REMARK SMILES IDX 6 15 7 16 8 17 9 19 10 20 11 21 12 22 13 23 18 24 14 25
REMARK SMILES IDX 17 26 15 27 16 28 26 29 27 30 28 31 29 32 30 33 31 34 32 36
REMARK SMILES IDX 33 37 34 38 95 39 35 40 94 41 36 42 37 43 38 44 88 45 39 46
REMARK SMILES IDX 93 47 87 48 89 49 40 50 92 51 86 52 85 53 41 55 73 56 53 57
REMARK SMILES IDX 72 58 54 59 57 60 71 61 90 62 55 63 56 64 70 66 91 67 58 68
REMARK SMILES IDX 42 69 43 70 51 71 44 72 45 73 49 74 52 75 46 76 47 77 50 78
REMARK SMILES IDX 48 79 74 80 75 81 83 82 76 83 77 84 81 85 84 86 78 87 79 88
REMARK SMILES IDX 82 89 80 90 59 91 60 92 68 93 61 94 62 95 66 96 69 97 63 98
REMARK SMILES IDX 64 99 67 100 65 101
REMARK H PARENT 25 4 4 13 7 18 30 35 89 54 57 65
REMARK Flexibility Score: inf
ROOT
ATOM      1  C   UNL A   1      37.710  21.515  25.318  1.00  0.00     0.251 C 
ATOM      2  O   UNL A   1      37.666  20.312  25.013  1.00  0.00    -0.269 OA
ATOM      3  N   UNL A   1      38.850  21.824  26.005  1.00  0.00    -0.352 N 
ATOM      4  H   UNL A   1      39.400  21.019  26.145  1.00  0.00     0.163 HD
ENDROOT
BRANCH   1   5
ATOM      5  C   UNL A   1      36.537  22.374  24.892  1.00  0.00     0.044 A 
ATOM      6  C   UNL A   1      35.285  22.806  27.089  1.00  0.00     0.047 C 
ATOM      7  C   UNL A   1      35.561  23.075  25.645  1.00  0.00    -0.015 A 
ATOM      8  C   UNL A   1      34.790  24.096  25.002  1.00  0.00     0.044 A 
ATOM      9  C   UNL A   1      34.756  24.187  23.614  1.00  0.00     0.026 A 
ATOM     10  C   UNL A   1      36.528  22.578  23.489  1.00  0.00     0.014 A 
ATOM     11  C   UNL A   1      35.622  23.423  22.851  1.00  0.00     0.003 A 
BRANCH   8  12
ATOM     12  N   UNL A   1      34.073  25.014  25.797  1.00  0.00    -0.332 N 
ATOM     13  H   UNL A   1      34.640  25.458  26.470  1.00  0.00     0.169 HD
BRANCH  12  14
ATOM     14  C   UNL A   1      32.800  25.422  25.847  1.00  0.00     0.177 C 
ATOM     15  S   UNL A   1      32.449  26.888  25.107  1.00  0.00    -0.040 S 
BRANCH  14  16
ATOM     16  N   UNL A   1      31.754  24.736  26.386  1.00  0.00    -0.302 N 
ATOM     17  C   UNL A   1      31.266  23.456  26.583  1.00  0.00     0.236 C 
ATOM     18  H   UNL A   1      31.119  25.381  26.772  1.00  0.00     0.172 HD
ATOM     19  O   UNL A   1      30.273  23.371  27.322  1.00  0.00    -0.274 OA
BRANCH  17  20
ATOM     20  C   UNL A   1      31.856  22.193  25.994  1.00  0.00     0.175 C 
BRANCH  20  21
ATOM     21  S   UNL A   1      31.879  22.127  24.182  1.00  0.00    -0.116 SA
BRANCH  21  22
ATOM     22  C   UNL A   1      32.524  20.489  23.973  1.00  0.00     0.008 A 
ATOM     23  C   UNL A   1      31.993  19.619  23.016  1.00  0.00     0.016 A 
ATOM     24  C   UNL A   1      33.592  20.082  24.774  1.00  0.00     0.016 A 
ATOM     25  C   UNL A   1      32.542  18.345  22.855  1.00  0.00     0.021 A 
ATOM     26  C   UNL A   1      34.141  18.811  24.613  1.00  0.00     0.021 A 
ATOM     27  C   UNL A   1      33.616  17.949  23.652  1.00  0.00     0.041 A 
ATOM     28  Cl  UNL A   1      34.300  16.384  23.452  1.00  0.00    -0.084 Cl
ENDBRANCH  21  22
ENDBRANCH  20  21
ENDBRANCH  17  20
ENDBRANCH  14  16
ENDBRANCH  12  14
ENDBRANCH   8  12
ENDBRANCH   1   5
BRANCH   3  29
ATOM     29  C   UNL A   1      39.486  22.983  26.588  1.00  0.00     0.116 C 
BRANCH  29  30
ATOM     30  C   UNL A   1      40.656  22.637  27.517  1.00  0.00     0.023 C 
BRANCH  30  31
ATOM     31  C   UNL A   1      41.760  21.794  26.893  1.00  0.00     0.023 C 
BRANCH  31  32
ATOM     32  C   UNL A   1      42.367  22.432  25.654  1.00  0.00     0.116 C 
BRANCH  32  33
ATOM     33  N   UNL A   1      43.340  21.616  24.937  1.00  0.00    -0.352 N 
ATOM     34  C   UNL A   1      44.700  21.827  24.738  1.00  0.00     0.251 C 
ATOM     35  H   UNL A   1      42.981  20.793  24.534  1.00  0.00     0.163 HD
ATOM     36  O   UNL A   1      45.334  21.071  24.019  1.00  0.00    -0.269 OA
BRANCH  34  37
ATOM     37  C   UNL A   1      45.413  22.867  25.531  1.00  0.00     0.039 A 
ATOM     38  C   UNL A   1      45.519  22.673  26.915  1.00  0.00     0.014 A 
ATOM     39  C   UNL A   1      45.689  24.112  24.986  1.00  0.00     0.014 A 
ATOM     40  C   UNL A   1      45.579  23.784  27.753  1.00  0.00     0.010 A 
ATOM     41  C   UNL A   1      45.577  25.215  25.806  1.00  0.00     0.010 A 
ATOM     42  C   UNL A   1      45.445  25.049  27.188  1.00  0.00    -0.014 A 
BRANCH  42  43
ATOM     43  C   UNL A   1      45.025  26.229  27.936  1.00  0.00     0.031 A 
ATOM     44  C   UNL A   1      43.646  26.745  27.803  1.00  0.00     0.074 A 
ATOM     45  C   UNL A   1      45.862  26.749  28.865  1.00  0.00     0.049 A 
ATOM     46  N   UNL A   1      43.266  27.922  28.168  1.00  0.00    -0.248 NA
ATOM     47  C   UNL A   1      42.579  25.974  27.179  1.00  0.00     0.031 C 
ATOM     48  C   UNL A   1      45.527  27.686  29.936  1.00  0.00     0.029 A 
ATOM     49  N   UNL A   1      47.265  26.662  28.908  1.00  0.00    -0.354 N 
ATOM     50  C   UNL A   1      41.889  27.963  28.108  1.00  0.00     0.074 A 
ATOM     51  C   UNL A   1      41.526  26.764  27.397  1.00  0.00     0.031 C 
ATOM     52  C   UNL A   1      46.646  28.312  30.330  1.00  0.00     0.029 A 
ATOM     53  C   UNL A   1      47.704  27.906  29.422  1.00  0.00     0.049 A 
ATOM     54  H   UNL A   1      47.824  25.897  28.639  1.00  0.00     0.167 HD
ATOM     55  C   UNL A   1      41.234  28.946  28.795  1.00  0.00     0.037 A 
ATOM     56  C   UNL A   1      48.449  28.763  28.664  1.00  0.00     0.037 A 
ATOM     57  C   UNL A   1      42.188  29.942  29.295  1.00  0.00     0.049 A 
ATOM     58  C   UNL A   1      47.794  30.105  28.430  1.00  0.00     0.074 A 
ATOM     59  C   UNL A   1      42.742  30.179  30.543  1.00  0.00     0.029 A 
ATOM     60  N   UNL A   1      42.940  30.683  28.386  1.00  0.00    -0.354 N 
ATOM     61  N   UNL A   1      46.525  30.336  28.616  1.00  0.00    -0.248 NA
ATOM     62  C   UNL A   1      48.506  31.278  27.928  1.00  0.00     0.031 C 
ATOM     63  C   UNL A   1      43.879  31.011  30.369  1.00  0.00     0.029 A 
ATOM     64  C   UNL A   1      44.002  31.300  29.021  1.00  0.00     0.049 A 
ATOM     65  H   UNL A   1      42.743  30.756  27.425  1.00  0.00     0.167 HD
ATOM     66  C   UNL A   1      46.232  31.620  28.241  1.00  0.00     0.074 A 
ATOM     67  C   UNL A   1      47.511  32.178  27.841  1.00  0.00     0.031 C 
ATOM     68  C   UNL A   1      44.956  32.106  28.271  1.00  0.00     0.037 A 
BRANCH  55  69
ATOM     69  C   UNL A   1      39.787  28.868  29.272  1.00  0.00     0.064 A 
ATOM     70  C   UNL A   1      38.732  29.279  28.424  1.00  0.00     0.173 A 
ATOM     71  C   UNL A   1      39.364  28.506  30.566  1.00  0.00     0.173 A 
ATOM     72  F   UNL A   1      38.940  29.548  27.128  1.00  0.00    -0.203 F 
ATOM     73  C   UNL A   1      37.413  29.432  28.868  1.00  0.00     0.198 A 
ATOM     74  C   UNL A   1      38.053  28.688  31.022  1.00  0.00     0.198 A 
ATOM     75  F   UNL A   1      40.174  27.905  31.438  1.00  0.00    -0.203 F 
ATOM     76  F   UNL A   1      36.468  29.854  28.016  1.00  0.00    -0.200 F 
ATOM     77  C   UNL A   1      37.079  29.169  30.179  1.00  0.00     0.200 A 
ATOM     78  F   UNL A   1      37.748  28.388  32.294  1.00  0.00    -0.200 F 
ATOM     79  F   UNL A   1      35.827  29.347  30.617  1.00  0.00    -0.200 F 
ENDBRANCH  55  69
BRANCH  56  80
ATOM     80  C   UNL A   1      49.341  28.065  27.702  1.00  0.00     0.064 A 
ATOM     81  C   UNL A   1      50.595  27.617  28.163  1.00  0.00     0.173 A 
ATOM     82  C   UNL A   1      48.853  27.509  26.515  1.00  0.00     0.173 A 
ATOM     83  F   UNL A   1      51.106  28.114  29.300  1.00  0.00    -0.203 F 
ATOM     84  C   UNL A   1      51.270  26.575  27.532  1.00  0.00     0.198 A 
ATOM     85  C   UNL A   1      49.540  26.473  25.877  1.00  0.00     0.198 A 
ATOM     86  F   UNL A   1      47.653  27.873  26.039  1.00  0.00    -0.203 F 
ATOM     87  F   UNL A   1      52.403  26.094  28.063  1.00  0.00    -0.200 F 
ATOM     88  C   UNL A   1      50.727  25.984  26.403  1.00  0.00     0.200 A 
ATOM     89  F   UNL A   1      48.995  25.874  24.808  1.00  0.00    -0.200 F 
ATOM     90  F   UNL A   1      51.320  24.916  25.852  1.00  0.00    -0.200 F 
ENDBRANCH  56  80
BRANCH  68  91
ATOM     91  C   UNL A   1      44.493  33.410  27.669  1.00  0.00     0.064 A 
ATOM     92  C   UNL A   1      43.972  33.534  26.371  1.00  0.00     0.173 A 
ATOM     93  C   UNL A   1      44.421  34.577  28.470  1.00  0.00     0.173 A 
ATOM     94  F   UNL A   1      43.879  32.476  25.555  1.00  0.00    -0.203 F 
ATOM     95  C   UNL A   1      43.469  34.746  25.890  1.00  0.00     0.198 A 
ATOM     96  C   UNL A   1      43.865  35.767  28.006  1.00  0.00     0.198 A 
ATOM     97  F   UNL A   1      44.864  34.584  29.735  1.00  0.00    -0.203 F 
ATOM     98  F   UNL A   1      43.017  34.822  24.629  1.00  0.00    -0.200 F 
ATOM     99  C   UNL A   1      43.402  35.857  26.709  1.00  0.00     0.200 A 
ATOM    100  F   UNL A   1      43.761  36.819  28.829  1.00  0.00    -0.200 F 
ATOM    101  F   UNL A   1      42.874  37.003  26.258  1.00  0.00    -0.200 F 
ENDBRANCH  68  91
ENDBRANCH  42  43
ENDBRANCH  34  37
ENDBRANCH  32  33
ENDBRANCH  31  32
ENDBRANCH  30  31
ENDBRANCH  29  30
ENDBRANCH   3  29
TORSDOF 17
ENDMDL
MODEL 3
REMARK VINA RESULT:     -12.2      4.418     10.504
REMARK SMILES Cc1c(NC(=S)NC(=O)CSc2ccc(Cl)cc2)cccc1C(=O)NCCCCNC(=O)c1ccc(-c2c3nc(c(-c4c(F)c(F)c(F)c(F)c4F)c4ccc([nH]4)c(-c4c(F)c(F)c(F)c(F)c4F)c4nc(c(-c5c(F)c(F)c(F)c(F)c5F)c5ccc2[nH]5)C=C4)C=C3)cc1
REMARK SMILES IDX 23 1 24 2 25 3 22 5 1 6 2 7 3 8 19 9 21 10 20 11 4 12 5 14
REMARK SMILES IDX 6 15 7 16 8 17 9 19 10 20 11 21 12 22 13 23 18 24 14 25
REMARK SMILES IDX 17 26 15 27 16 28 26 29 27 30 28 31 29 32 30 33 31 34 32 36
REMARK SMILES IDX 33 37 34 38 95 39 35 40 94 41 36 42 37 43 38 44 88 45 39 46
REMARK SMILES IDX 93 47 87 48 89 49 40 50 92 51 86 52 85 53 41 55 73 56 53 57
REMARK SMILES IDX 72 58 54 59 57 60 71 61 90 62 55 63 56 64 70 66 91 67 58 68
REMARK SMILES IDX 42 69 43 70 51 71 44 72 45 73 49 74 52 75 46 76 47 77 50 78
REMARK SMILES IDX 48 79 74 80 75 81 83 82 76 83 77 84 81 85 84 86 78 87 79 88
REMARK SMILES IDX 82 89 80 90 59 91 60 92 68 93 61 94 62 95 66 96 69 97 63 98
REMARK SMILES IDX 64 99 67 100 65 101
REMARK H PARENT 25 4 4 13 7 18 30 35 89 54 57 65
REMARK Flexibility Score: inf
ROOT
ATOM      1  C   UNL A   1      36.296  22.879  23.721  1.00  0.00     0.251 C 
ATOM      2  O   UNL A   1      36.420  22.661  22.505  1.00  0.00    -0.269 OA
ATOM      3  N   UNL A   1      37.409  23.470  24.249  1.00  0.00    -0.352 N 
ATOM      4  H   UNL A   1      38.102  23.582  23.559  1.00  0.00     0.163 HD
ENDROOT
BRANCH   1   5
ATOM      5  C   UNL A   1      34.988  22.460  24.362  1.00  0.00     0.044 A 
ATOM      6  C   UNL A   1      33.954  24.684  25.113  1.00  0.00     0.047 C 
ATOM      7  C   UNL A   1      33.885  23.217  24.832  1.00  0.00    -0.015 A 
ATOM      8  C   UNL A   1      32.635  22.556  25.056  1.00  0.00     0.044 A 
ATOM      9  C   UNL A   1      32.573  21.168  25.130  1.00  0.00     0.026 A 
ATOM     10  C   UNL A   1      34.839  21.049  24.358  1.00  0.00     0.014 A 
ATOM     11  C   UNL A   1      33.678  20.409  24.785  1.00  0.00     0.003 A 
BRANCH   8  12
ATOM     12  N   UNL A   1      31.466  23.334  25.194  1.00  0.00    -0.332 N 
ATOM     13  H   UNL A   1      31.044  23.541  24.329  1.00  0.00     0.169 HD
BRANCH  12  14
ATOM     14  C   UNL A   1      30.798  23.853  26.230  1.00  0.00     0.177 C 
ATOM     15  S   UNL A   1      29.754  22.822  27.046  1.00  0.00    -0.040 S 
BRANCH  14  16
ATOM     16  N   UNL A   1      30.928  25.116  26.721  1.00  0.00    -0.302 N 
ATOM     17  C   UNL A   1      31.029  26.440  26.332  1.00  0.00     0.236 C 
ATOM     18  H   UNL A   1      30.963  25.072  27.704  1.00  0.00     0.172 HD
ATOM     19  O   UNL A   1      30.967  27.274  27.249  1.00  0.00    -0.274 OA
BRANCH  17  20
ATOM     20  C   UNL A   1      31.185  26.924  24.906  1.00  0.00     0.175 C 
BRANCH  20  21
ATOM     21  S   UNL A   1      29.803  26.526  23.803  1.00  0.00    -0.116 SA
BRANCH  21  22
ATOM     22  C   UNL A   1      29.231  28.172  23.471  1.00  0.00     0.008 A 
ATOM     23  C   UNL A   1      27.948  28.404  22.966  1.00  0.00     0.016 A 
ATOM     24  C   UNL A   1      30.083  29.244  23.741  1.00  0.00     0.016 A 
ATOM     25  C   UNL A   1      27.517  29.713  22.743  1.00  0.00     0.021 A 
ATOM     26  C   UNL A   1      29.652  30.551  23.519  1.00  0.00     0.021 A 
ATOM     27  C   UNL A   1      28.370  30.780  23.023  1.00  0.00     0.041 A 
ATOM     28  Cl  UNL A   1      27.839  32.394  22.758  1.00  0.00    -0.084 Cl
ENDBRANCH  21  22
ENDBRANCH  20  21
ENDBRANCH  17  20
ENDBRANCH  14  16
ENDBRANCH  12  14
ENDBRANCH   8  12
ENDBRANCH   1   5
BRANCH   3  29
ATOM     29  C   UNL A   1      37.868  23.979  25.521  1.00  0.00     0.116 C 
BRANCH  29  30
ATOM     30  C   UNL A   1      38.171  22.881  26.547  1.00  0.00     0.023 C 
BRANCH  30  31
ATOM     31  C   UNL A   1      39.395  22.026  26.247  1.00  0.00     0.023 C 
BRANCH  31  32
ATOM     32  C   UNL A   1      40.529  22.243  27.236  1.00  0.00     0.116 C 
BRANCH  32  33
ATOM     33  N   UNL A   1      41.740  22.841  26.684  1.00  0.00    -0.352 N 
ATOM     34  C   UNL A   1      41.996  24.162  26.332  1.00  0.00     0.251 C 
ATOM     35  H   UNL A   1      42.486  22.217  26.538  1.00  0.00     0.163 HD
ATOM     36  O   UNL A   1      43.049  24.453  25.788  1.00  0.00    -0.269 OA
BRANCH  34  37
ATOM     37  C   UNL A   1      41.065  25.239  26.768  1.00  0.00     0.039 A 
ATOM     38  C   UNL A   1      41.058  26.433  26.034  1.00  0.00     0.014 A 
ATOM     39  C   UNL A   1      40.456  25.193  28.014  1.00  0.00     0.014 A 
ATOM     40  C   UNL A   1      40.740  27.625  26.680  1.00  0.00     0.010 A 
ATOM     41  C   UNL A   1      40.305  26.377  28.702  1.00  0.00     0.010 A 
ATOM     42  C   UNL A   1      40.521  27.597  28.054  1.00  0.00    -0.014 A 
BRANCH  42  43
ATOM     43  C   UNL A   1      40.644  28.767  28.917  1.00  0.00     0.031 A 
ATOM     44  C   UNL A   1      39.557  29.766  28.980  1.00  0.00     0.074 A 
ATOM     45  C   UNL A   1      41.693  28.844  29.770  1.00  0.00     0.049 A 
ATOM     46  N   UNL A   1      39.683  30.957  29.459  1.00  0.00    -0.248 NA
ATOM     47  C   UNL A   1      38.228  29.511  28.442  1.00  0.00     0.031 C 
ATOM     48  C   UNL A   1      41.832  29.725  30.928  1.00  0.00     0.029 A 
ATOM     49  N   UNL A   1      42.957  28.241  29.642  1.00  0.00    -0.354 N 
ATOM     50  C   UNL A   1      38.425  31.510  29.564  1.00  0.00     0.074 A 
ATOM     51  C   UNL A   1      37.574  30.607  28.830  1.00  0.00     0.031 C 
ATOM     52  C   UNL A   1      43.135  29.851  31.224  1.00  0.00     0.029 A 
ATOM     53  C   UNL A   1      43.877  29.177  30.174  1.00  0.00     0.049 A 
ATOM     54  H   UNL A   1      43.160  27.355  29.262  1.00  0.00     0.167 HD
ATOM     55  C   UNL A   1      38.252  32.590  30.383  1.00  0.00     0.037 A 
ATOM     56  C   UNL A   1      44.821  29.769  29.387  1.00  0.00     0.037 A 
ATOM     57  C   UNL A   1      39.552  33.108  30.826  1.00  0.00     0.049 A 
ATOM     58  C   UNL A   1      44.705  31.274  29.313  1.00  0.00     0.074 A 
ATOM     59  C   UNL A   1      40.261  32.997  32.011  1.00  0.00     0.029 A 
ATOM     60  N   UNL A   1      40.446  33.606  29.881  1.00  0.00    -0.354 N 
ATOM     61  N   UNL A   1      43.639  31.938  29.662  1.00  0.00    -0.248 NA
ATOM     62  C   UNL A   1      45.761  32.145  28.803  1.00  0.00     0.031 C 
ATOM     63  C   UNL A   1      41.608  33.362  31.754  1.00  0.00     0.029 A 
ATOM     64  C   UNL A   1      41.713  33.719  30.421  1.00  0.00     0.049 A 
ATOM     65  H   UNL A   1      40.208  33.843  28.956  1.00  0.00     0.167 HD
ATOM     66  C   UNL A   1      43.822  33.270  29.403  1.00  0.00     0.074 A 
ATOM     67  C   UNL A   1      45.176  33.353  28.889  1.00  0.00     0.031 C 
ATOM     68  C   UNL A   1      42.832  34.187  29.614  1.00  0.00     0.037 A 
BRANCH  55  69
ATOM     69  C   UNL A   1      36.931  33.005  31.023  1.00  0.00     0.064 A 
ATOM     70  C   UNL A   1      36.001  33.787  30.298  1.00  0.00     0.173 A 
ATOM     71  C   UNL A   1      36.552  32.768  32.359  1.00  0.00     0.173 A 
ATOM     72  F   UNL A   1      36.147  34.012  28.985  1.00  0.00    -0.203 F 
ATOM     73  C   UNL A   1      34.876  34.375  30.889  1.00  0.00     0.198 A 
ATOM     74  C   UNL A   1      35.445  33.379  32.960  1.00  0.00     0.198 A 
ATOM     75  F   UNL A   1      37.189  31.893  33.135  1.00  0.00    -0.203 F 
ATOM     76  F   UNL A   1      34.052  35.129  30.148  1.00  0.00    -0.200 F 
ATOM     77  C   UNL A   1      34.615  34.198  32.231  1.00  0.00     0.200 A 
ATOM     78  F   UNL A   1      35.195  33.160  34.260  1.00  0.00    -0.200 F 
ATOM     79  F   UNL A   1      33.561  34.786  32.808  1.00  0.00    -0.200 F 
ENDBRANCH  55  69
BRANCH  56  80
ATOM     80  C   UNL A   1      45.296  28.892  28.286  1.00  0.00     0.064 A 
ATOM     81  C   UNL A   1      46.264  27.913  28.585  1.00  0.00     0.173 A 
ATOM     82  C   UNL A   1      44.570  28.739  27.100  1.00  0.00     0.173 A 
ATOM     83  F   UNL A   1      46.986  28.009  29.713  1.00  0.00    -0.203 F 
ATOM     84  C   UNL A   1      46.412  26.773  27.798  1.00  0.00     0.198 A 
ATOM     85  C   UNL A   1      44.730  27.600  26.306  1.00  0.00     0.198 A 
ATOM     86  F   UNL A   1      43.614  29.621  26.772  1.00  0.00    -0.203 F 
ATOM     87  F   UNL A   1      47.260  25.806  28.176  1.00  0.00    -0.200 F 
ATOM     88  C   UNL A   1      45.623  26.605  26.673  1.00  0.00     0.200 A 
ATOM     89  F   UNL A   1      43.939  27.418  25.238  1.00  0.00    -0.200 F 
ATOM     90  F   UNL A   1      45.689  25.465  25.971  1.00  0.00    -0.200 F 
ENDBRANCH  56  80
BRANCH  68  91
ATOM     91  C   UNL A   1      42.846  35.624  29.152  1.00  0.00     0.064 A 
ATOM     92  C   UNL A   1      42.154  36.091  28.023  1.00  0.00     0.173 A 
ATOM     93  C   UNL A   1      43.454  36.622  29.951  1.00  0.00     0.173 A 
ATOM     94  F   UNL A   1      41.443  35.260  27.249  1.00  0.00    -0.203 F 
ATOM     95  C   UNL A   1      42.120  37.447  27.686  1.00  0.00     0.198 A 
ATOM     96  C   UNL A   1      43.369  37.979  29.644  1.00  0.00     0.198 A 
ATOM     97  F   UNL A   1      44.126  36.309  31.068  1.00  0.00    -0.203 F 
ATOM     98  F   UNL A   1      41.477  37.839  26.576  1.00  0.00    -0.200 F 
ATOM     99  C   UNL A   1      42.714  38.391  28.502  1.00  0.00     0.200 A 
ATOM    100  F   UNL A   1      43.906  38.884  30.473  1.00  0.00    -0.200 F 
ATOM    101  F   UNL A   1      42.637  39.694  28.201  1.00  0.00    -0.200 F 
ENDBRANCH  68  91
ENDBRANCH  42  43
ENDBRANCH  34  37
ENDBRANCH  32  33
ENDBRANCH  31  32
ENDBRANCH  30  31
ENDBRANCH  29  30
ENDBRANCH   3  29
TORSDOF 17
ENDMDL
