MODEL 1
REMARK VINA RESULT:     -11.5      0.000      0.000
REMARK SMILES CC[C@@H](Oc1ccc(Cl)c(Cl)c1)C(=O)NCCCCNC(=O)c1ccc(-c2c3nc(c(-c4c(F)c(F)c(F)c(F)c4F)c4ccc([nH]4)c(-c4c(F)c(F)c(F)c(F)c4F)c4nc(c(-c5c(F)c(F)c(F)c(F)c5F)c5ccc2[nH]5)C=C4)C=C3)cc1
REMARK SMILES IDX 17 1 16 2 15 3 13 4 14 5 3 7 2 8 1 9 4 10 5 11 6 12 12 13
REMARK SMILES IDX 7 14 10 15 8 16 11 17 9 18 18 19 19 20 20 21 21 22 22 24
REMARK SMILES IDX 23 25 24 26 85 27 25 28 84 29 26 30 27 31 28 32 78 33 29 34
REMARK SMILES IDX 83 35 77 36 79 37 30 38 82 39 76 40 75 41 31 43 63 44 43 45
REMARK SMILES IDX 62 46 44 47 47 48 61 49 80 50 45 51 46 52 60 54 81 55 48 56
REMARK SMILES IDX 32 57 33 58 41 59 34 60 35 61 39 62 42 63 36 64 37 65 40 66
REMARK SMILES IDX 38 67 64 68 65 69 73 70 66 71 67 72 71 73 74 74 68 75 69 76
REMARK SMILES IDX 72 77 70 78 49 79 50 80 58 81 51 82 52 83 56 84 59 85 53 86
REMARK SMILES IDX 54 87 57 88 55 89
REMARK H PARENT 15 6 20 23 79 42 47 53
REMARK Flexibility Score: inf
ROOT
ATOM      1  C   UNL A   1      36.771  20.643  24.964  1.00  0.00     0.023 C 
ENDROOT
BRANCH   1   2
ATOM      2  C   UNL A   1      37.152  22.076  24.614  1.00  0.00     0.116 C 
BRANCH   2   3
ATOM      3  N   UNL A   1      36.366  22.597  23.509  1.00  0.00    -0.353 N 
ATOM      4  C   UNL A   1      35.093  23.103  23.516  1.00  0.00     0.261 C 
ATOM      5  O   UNL A   1      34.631  23.523  22.451  1.00  0.00    -0.271 OA
ATOM      6  H   UNL A   1      36.811  22.585  22.631  1.00  0.00     0.163 HD
BRANCH   4   7
ATOM      7  C   UNL A   1      34.249  23.088  24.802  1.00  0.00     0.261 C 
BRANCH   7   8
ATOM      8  C   UNL A   1      34.114  24.535  25.315  1.00  0.00     0.052 C 
ATOM      9  C   UNL A   1      32.837  24.783  26.109  1.00  0.00     0.008 C 
ENDBRANCH   7   8
BRANCH   7  10
ATOM     10  O   UNL A   1      33.001  22.472  24.434  1.00  0.00    -0.481 OA
BRANCH  10  11
ATOM     11  C   UNL A   1      32.980  21.115  24.525  1.00  0.00     0.122 A 
ATOM     12  C   UNL A   1      33.122  20.505  25.769  1.00  0.00     0.048 A 
ATOM     13  C   UNL A   1      32.665  20.363  23.398  1.00  0.00     0.068 A 
ATOM     14  C   UNL A   1      33.053  19.117  25.871  1.00  0.00     0.026 A 
ATOM     15  C   UNL A   1      32.565  18.973  23.502  1.00  0.00     0.063 A 
ATOM     16  C   UNL A   1      32.782  18.347  24.737  1.00  0.00     0.059 A 
ATOM     17  Cl  UNL A   1      32.156  18.087  22.077  1.00  0.00    -0.083 Cl
ATOM     18  Cl  UNL A   1      32.716  16.632  24.935  1.00  0.00    -0.083 Cl
ENDBRANCH  10  11
ENDBRANCH   7  10
ENDBRANCH   4   7
ENDBRANCH   2   3
ENDBRANCH   1   2
BRANCH   1  19
ATOM     19  C   UNL A   1      37.943  19.662  24.993  1.00  0.00     0.023 C 
BRANCH  19  20
ATOM     20  C   UNL A   1      39.173  20.141  25.757  1.00  0.00     0.116 C 
BRANCH  20  21
ATOM     21  N   UNL A   1      40.224  19.138  25.837  1.00  0.00    -0.352 N 
ATOM     22  C   UNL A   1      41.565  19.293  26.076  1.00  0.00     0.251 C 
ATOM     23  H   UNL A   1      39.927  18.209  25.700  1.00  0.00     0.163 HD
ATOM     24  O   UNL A   1      42.318  18.327  25.975  1.00  0.00    -0.269 OA
BRANCH  22  25
ATOM     25  C   UNL A   1      42.118  20.622  26.416  1.00  0.00     0.039 A 
ATOM     26  C   UNL A   1      42.463  21.485  25.373  1.00  0.00     0.014 A 
ATOM     27  C   UNL A   1      42.303  21.022  27.743  1.00  0.00     0.014 A 
ATOM     28  C   UNL A   1      42.929  22.768  25.661  1.00  0.00     0.010 A 
ATOM     29  C   UNL A   1      42.691  22.330  28.029  1.00  0.00     0.010 A 
ATOM     30  C   UNL A   1      43.008  23.218  26.991  1.00  0.00    -0.014 A 
BRANCH  30  31
ATOM     31  C   UNL A   1      43.393  24.622  27.287  1.00  0.00     0.031 A 
ATOM     32  C   UNL A   1      44.790  25.111  27.026  1.00  0.00     0.074 A 
ATOM     33  C   UNL A   1      42.475  25.455  27.818  1.00  0.00     0.049 A 
ATOM     34  N   UNL A   1      45.294  26.307  27.204  1.00  0.00    -0.248 NA
ATOM     35  C   UNL A   1      45.759  24.126  26.520  1.00  0.00     0.031 C 
ATOM     36  C   UNL A   1      41.107  25.082  28.179  1.00  0.00     0.029 A 
ATOM     37  N   UNL A   1      42.552  26.786  28.142  1.00  0.00    -0.354 N 
ATOM     38  C   UNL A   1      46.626  26.221  26.825  1.00  0.00     0.074 A 
ATOM     39  C   UNL A   1      46.875  24.839  26.472  1.00  0.00     0.031 C 
ATOM     40  C   UNL A   1      40.463  26.164  28.642  1.00  0.00     0.029 A 
ATOM     41  C   UNL A   1      41.381  27.298  28.646  1.00  0.00     0.049 A 
ATOM     42  H   UNL A   1      43.368  27.323  28.026  1.00  0.00     0.167 HD
ATOM     43  C   UNL A   1      47.551  27.208  26.747  1.00  0.00     0.037 A 
ATOM     44  C   UNL A   1      41.081  28.543  29.065  1.00  0.00     0.037 A 
ATOM     45  C   UNL A   1      47.301  28.583  27.094  1.00  0.00     0.049 A 
ATOM     46  C   UNL A   1      42.130  29.617  28.972  1.00  0.00     0.074 A 
ATOM     47  C   UNL A   1      48.162  29.665  27.016  1.00  0.00     0.029 A 
ATOM     48  N   UNL A   1      46.099  29.068  27.590  1.00  0.00    -0.354 N 
ATOM     49  N   UNL A   1      43.364  29.535  28.538  1.00  0.00    -0.248 NA
ATOM     50  C   UNL A   1      41.737  30.962  29.413  1.00  0.00     0.031 C 
ATOM     51  C   UNL A   1      47.498  30.792  27.511  1.00  0.00     0.029 A 
ATOM     52  C   UNL A   1      46.203  30.428  27.842  1.00  0.00     0.049 A 
ATOM     53  H   UNL A   1      45.291  28.525  27.742  1.00  0.00     0.167 HD
ATOM     54  C   UNL A   1      43.887  30.818  28.633  1.00  0.00     0.074 A 
ATOM     55  C   UNL A   1      42.824  31.665  29.133  1.00  0.00     0.031 C 
ATOM     56  C   UNL A   1      45.137  31.256  28.344  1.00  0.00     0.037 A 
BRANCH  43  57
ATOM     57  C   UNL A   1      48.920  26.843  26.247  1.00  0.00     0.064 A 
ATOM     58  C   UNL A   1      49.887  26.288  27.101  1.00  0.00     0.173 A 
ATOM     59  C   UNL A   1      49.252  26.988  24.891  1.00  0.00     0.173 A 
ATOM     60  F   UNL A   1      49.625  26.137  28.408  1.00  0.00    -0.203 F 
ATOM     61  C   UNL A   1      51.139  25.913  26.621  1.00  0.00     0.198 A 
ATOM     62  C   UNL A   1      50.494  26.584  24.409  1.00  0.00     0.198 A 
ATOM     63  F   UNL A   1      48.364  27.507  24.030  1.00  0.00    -0.203 F 
ATOM     64  F   UNL A   1      52.059  25.425  27.464  1.00  0.00    -0.200 F 
ATOM     65  C   UNL A   1      51.438  26.052  25.274  1.00  0.00     0.200 A 
ATOM     66  F   UNL A   1      50.775  26.704  23.105  1.00  0.00    -0.200 F 
ATOM     67  F   UNL A   1      52.638  25.677  24.811  1.00  0.00    -0.200 F 
ENDBRANCH  43  57
BRANCH  44  68
ATOM     68  C   UNL A   1      39.726  28.845  29.601  1.00  0.00     0.064 A 
ATOM     69  C   UNL A   1      39.413  28.631  30.950  1.00  0.00     0.173 A 
ATOM     70  C   UNL A   1      38.707  29.327  28.766  1.00  0.00     0.173 A 
ATOM     71  F   UNL A   1      40.347  28.154  31.787  1.00  0.00    -0.203 F 
ATOM     72  C   UNL A   1      38.125  28.850  31.436  1.00  0.00     0.198 A 
ATOM     73  C   UNL A   1      37.429  29.580  29.260  1.00  0.00     0.198 A 
ATOM     74  F   UNL A   1      38.953  29.558  27.467  1.00  0.00    -0.203 F 
ATOM     75  F   UNL A   1      37.838  28.573  32.716  1.00  0.00    -0.200 F 
ATOM     76  C   UNL A   1      37.136  29.329  30.592  1.00  0.00     0.200 A 
ATOM     77  F   UNL A   1      36.481  30.062  28.445  1.00  0.00    -0.200 F 
ATOM     78  F   UNL A   1      35.898  29.538  31.058  1.00  0.00    -0.200 F 
ENDBRANCH  44  68
BRANCH  56  79
ATOM     79  C   UNL A   1      45.408  32.721  28.541  1.00  0.00     0.064 A 
ATOM     80  C   UNL A   1      45.917  33.222  29.749  1.00  0.00     0.173 A 
ATOM     81  C   UNL A   1      45.154  33.638  27.508  1.00  0.00     0.173 A 
ATOM     82  F   UNL A   1      46.165  32.390  30.772  1.00  0.00    -0.203 F 
ATOM     83  C   UNL A   1      46.114  34.588  29.933  1.00  0.00     0.198 A 
ATOM     84  C   UNL A   1      45.387  34.999  27.683  1.00  0.00     0.198 A 
ATOM     85  F   UNL A   1      44.676  33.213  26.329  1.00  0.00    -0.203 F 
ATOM     86  F   UNL A   1      46.530  35.048  31.121  1.00  0.00    -0.200 F 
ATOM     87  C   UNL A   1      45.854  35.475  28.900  1.00  0.00     0.200 A 
ATOM     88  F   UNL A   1      45.151  35.852  26.677  1.00  0.00    -0.200 F 
ATOM     89  F   UNL A   1      46.040  36.789  29.079  1.00  0.00    -0.200 F 
ENDBRANCH  56  79
ENDBRANCH  30  31
ENDBRANCH  22  25
ENDBRANCH  20  21
ENDBRANCH  19  20
ENDBRANCH   1  19
TORSDOF 14
ENDMDL
MODEL 2
REMARK VINA RESULT:     -11.5      1.752      8.017
REMARK SMILES CC[C@@H](Oc1ccc(Cl)c(Cl)c1)C(=O)NCCCCNC(=O)c1ccc(-c2c3nc(c(-c4c(F)c(F)c(F)c(F)c4F)c4ccc([nH]4)c(-c4c(F)c(F)c(F)c(F)c4F)c4nc(c(-c5c(F)c(F)c(F)c(F)c5F)c5ccc2[nH]5)C=C4)C=C3)cc1
REMARK SMILES IDX 17 1 16 2 15 3 13 4 14 5 3 7 2 8 1 9 4 10 5 11 6 12 12 13
REMARK SMILES IDX 7 14 10 15 8 16 11 17 9 18 18 19 19 20 20 21 21 22 22 24
REMARK SMILES IDX 23 25 24 26 85 27 25 28 84 29 26 30 27 31 28 32 78 33 29 34
REMARK SMILES IDX 83 35 77 36 79 37 30 38 82 39 76 40 75 41 31 43 63 44 43 45
REMARK SMILES IDX 62 46 44 47 47 48 61 49 80 50 45 51 46 52 60 54 81 55 48 56
REMARK SMILES IDX 32 57 33 58 41 59 34 60 35 61 39 62 42 63 36 64 37 65 40 66
REMARK SMILES IDX 38 67 64 68 65 69 73 70 66 71 67 72 71 73 74 74 68 75 69 76
REMARK SMILES IDX 72 77 70 78 49 79 50 80 58 81 51 82 52 83 56 84 59 85 53 86
REMARK SMILES IDX 54 87 57 88 55 89
REMARK H PARENT 15 6 20 23 79 42 47 53
REMARK Flexibility Score: inf
ROOT
ATOM      1  C   UNL A   1      37.378  21.046  24.655  1.00  0.00     0.023 C 
ENDROOT
BRANCH   1   2
ATOM      2  C   UNL A   1      36.013  21.049  25.332  1.00  0.00     0.116 C 
BRANCH   2   3
ATOM      3  N   UNL A   1      35.321  19.782  25.173  1.00  0.00    -0.353 N 
ATOM      4  C   UNL A   1      34.059  19.539  24.698  1.00  0.00     0.261 C 
ATOM      5  O   UNL A   1      33.685  18.366  24.622  1.00  0.00    -0.271 OA
ATOM      6  H   UNL A   1      35.830  18.985  25.446  1.00  0.00     0.163 HD
BRANCH   4   7
ATOM      7  C   UNL A   1      33.121  20.703  24.331  1.00  0.00     0.261 C 
BRANCH   7   8
ATOM      8  C   UNL A   1      32.193  20.240  23.192  1.00  0.00     0.052 C 
ATOM      9  C   UNL A   1      31.949  21.309  22.132  1.00  0.00     0.008 C 
ENDBRANCH   7   8
BRANCH   7  10
ATOM     10  O   UNL A   1      32.436  21.041  25.551  1.00  0.00    -0.481 OA
BRANCH  10  11
ATOM     11  C   UNL A   1      32.102  22.353  25.679  1.00  0.00     0.122 A 
ATOM     12  C   UNL A   1      30.819  22.699  26.097  1.00  0.00     0.048 A 
ATOM     13  C   UNL A   1      33.088  23.323  25.538  1.00  0.00     0.068 A 
ATOM     14  C   UNL A   1      30.487  24.041  26.274  1.00  0.00     0.026 A 
ATOM     15  C   UNL A   1      32.767  24.667  25.744  1.00  0.00     0.063 A 
ATOM     16  C   UNL A   1      31.459  25.030  26.091  1.00  0.00     0.059 A 
ATOM     17  Cl  UNL A   1      34.032  25.832  25.573  1.00  0.00    -0.083 Cl
ATOM     18  Cl  UNL A   1      30.978  26.672  26.322  1.00  0.00    -0.083 Cl
ENDBRANCH  10  11
ENDBRANCH   7  10
ENDBRANCH   4   7
ENDBRANCH   2   3
ENDBRANCH   1   2
BRANCH   1  19
ATOM     19  C   UNL A   1      38.246  19.830  24.977  1.00  0.00     0.023 C 
BRANCH  19  20
ATOM     20  C   UNL A   1      39.326  20.062  26.029  1.00  0.00     0.116 C 
BRANCH  20  21
ATOM     21  N   UNL A   1      40.385  19.065  25.992  1.00  0.00    -0.352 N 
ATOM     22  C   UNL A   1      41.743  19.227  26.092  1.00  0.00     0.251 C 
ATOM     23  H   UNL A   1      40.080  18.136  25.879  1.00  0.00     0.163 HD
ATOM     24  O   UNL A   1      42.486  18.266  25.907  1.00  0.00    -0.269 OA
BRANCH  22  25
ATOM     25  C   UNL A   1      42.321  20.557  26.384  1.00  0.00     0.039 A 
ATOM     26  C   UNL A   1      42.701  21.366  25.311  1.00  0.00     0.014 A 
ATOM     27  C   UNL A   1      42.494  21.010  27.696  1.00  0.00     0.014 A 
ATOM     28  C   UNL A   1      43.192  22.649  25.551  1.00  0.00     0.010 A 
ATOM     29  C   UNL A   1      42.907  22.320  27.932  1.00  0.00     0.010 A 
ATOM     30  C   UNL A   1      43.260  23.155  26.861  1.00  0.00    -0.014 A 
BRANCH  30  31
ATOM     31  C   UNL A   1      43.674  24.562  27.103  1.00  0.00     0.031 A 
ATOM     32  C   UNL A   1      42.693  25.577  27.621  1.00  0.00     0.074 A 
ATOM     33  C   UNL A   1      44.943  24.927  26.832  1.00  0.00     0.049 A 
ATOM     34  N   UNL A   1      42.887  26.839  27.910  1.00  0.00    -0.248 NA
ATOM     35  C   UNL A   1      41.307  25.125  27.820  1.00  0.00     0.031 C 
ATOM     36  C   UNL A   1      45.970  24.052  26.264  1.00  0.00     0.029 A 
ATOM     37  N   UNL A   1      45.586  26.127  27.001  1.00  0.00    -0.354 N 
ATOM     38  C   UNL A   1      41.657  27.326  28.331  1.00  0.00     0.074 A 
ATOM     39  C   UNL A   1      40.706  26.244  28.195  1.00  0.00     0.031 C 
ATOM     40  C   UNL A   1      47.122  24.733  26.162  1.00  0.00     0.029 A 
ATOM     41  C   UNL A   1      46.908  26.101  26.623  1.00  0.00     0.049 A 
ATOM     42  H   UNL A   1      45.145  26.931  27.357  1.00  0.00     0.167 HD
ATOM     43  C   UNL A   1      41.354  28.554  28.817  1.00  0.00     0.037 A 
ATOM     44  C   UNL A   1      47.842  27.071  26.645  1.00  0.00     0.037 A 
ATOM     45  C   UNL A   1      42.302  29.630  28.956  1.00  0.00     0.049 A 
ATOM     46  C   UNL A   1      47.473  28.426  27.184  1.00  0.00     0.074 A 
ATOM     47  C   UNL A   1      42.101  30.899  29.470  1.00  0.00     0.029 A 
ATOM     48  N   UNL A   1      43.635  29.562  28.574  1.00  0.00    -0.354 N 
ATOM     49  N   UNL A   1      46.324  28.848  27.652  1.00  0.00    -0.248 NA
ATOM     50  C   UNL A   1      48.541  29.436  27.214  1.00  0.00     0.031 C 
ATOM     51  C   UNL A   1      43.296  31.616  29.353  1.00  0.00     0.029 A 
ATOM     52  C   UNL A   1      44.260  30.775  28.822  1.00  0.00     0.049 A 
ATOM     53  H   UNL A   1      44.071  28.771  28.183  1.00  0.00     0.167 HD
ATOM     54  C   UNL A   1      46.534  30.162  28.050  1.00  0.00     0.074 A 
ATOM     55  C   UNL A   1      47.931  30.454  27.801  1.00  0.00     0.031 C 
ATOM     56  C   UNL A   1      45.651  31.052  28.565  1.00  0.00     0.037 A 
BRANCH  43  57
ATOM     57  C   UNL A   1      39.938  28.800  29.257  1.00  0.00     0.064 A 
ATOM     58  C   UNL A   1      38.964  29.269  28.360  1.00  0.00     0.173 A 
ATOM     59  C   UNL A   1      39.532  28.506  30.567  1.00  0.00     0.173 A 
ATOM     60  F   UNL A   1      39.301  29.575  27.098  1.00  0.00    -0.203 F 
ATOM     61  C   UNL A   1      37.645  29.454  28.764  1.00  0.00     0.198 A 
ATOM     62  C   UNL A   1      38.205  28.662  30.959  1.00  0.00     0.198 A 
ATOM     63  F   UNL A   1      40.419  28.049  31.464  1.00  0.00    -0.203 F 
ATOM     64  F   UNL A   1      36.744  29.942  27.902  1.00  0.00    -0.200 F 
ATOM     65  C   UNL A   1      37.264  29.141  30.061  1.00  0.00     0.200 A 
ATOM     66  F   UNL A   1      37.835  28.345  32.208  1.00  0.00    -0.200 F 
ATOM     67  F   UNL A   1      35.991  29.305  30.444  1.00  0.00    -0.200 F 
ENDBRANCH  43  57
BRANCH  44  68
ATOM     68  C   UNL A   1      49.218  26.795  26.151  1.00  0.00     0.064 A 
ATOM     69  C   UNL A   1      49.575  27.039  24.818  1.00  0.00     0.173 A 
ATOM     70  C   UNL A   1      50.197  26.253  26.997  1.00  0.00     0.173 A 
ATOM     71  F   UNL A   1      48.670  27.540  23.964  1.00  0.00    -0.203 F 
ATOM     72  C   UNL A   1      50.844  26.717  24.340  1.00  0.00     0.198 A 
ATOM     73  C   UNL A   1      51.477  25.966  26.527  1.00  0.00     0.198 A 
ATOM     74  F   UNL A   1      49.912  26.007  28.285  1.00  0.00    -0.203 F 
ATOM     75  F   UNL A   1      51.135  26.900  23.044  1.00  0.00    -0.200 F 
ATOM     76  C   UNL A   1      51.795  26.185  25.196  1.00  0.00     0.200 A 
ATOM     77  F   UNL A   1      52.399  25.469  27.363  1.00  0.00    -0.200 F 
ATOM     78  F   UNL A   1      53.014  25.875  24.736  1.00  0.00    -0.200 F 
ENDBRANCH  44  68
BRANCH  56  79
ATOM     79  C   UNL A   1      46.181  32.414  28.913  1.00  0.00     0.064 A 
ATOM     80  C   UNL A   1      46.167  33.471  27.989  1.00  0.00     0.173 A 
ATOM     81  C   UNL A   1      46.710  32.668  30.188  1.00  0.00     0.173 A 
ATOM     82  F   UNL A   1      45.684  33.278  26.752  1.00  0.00    -0.203 F 
ATOM     83  C   UNL A   1      46.709  34.712  28.311  1.00  0.00     0.198 A 
ATOM     84  C   UNL A   1      47.217  33.922  30.519  1.00  0.00     0.198 A 
ATOM     85  F   UNL A   1      46.739  31.698  31.115  1.00  0.00    -0.203 F 
ATOM     86  F   UNL A   1      46.751  35.681  27.386  1.00  0.00    -0.200 F 
ATOM     87  C   UNL A   1      47.228  34.939  29.576  1.00  0.00     0.200 A 
ATOM     88  F   UNL A   1      47.703  34.144  31.748  1.00  0.00    -0.200 F 
ATOM     89  F   UNL A   1      47.753  36.132  29.883  1.00  0.00    -0.200 F 
ENDBRANCH  56  79
ENDBRANCH  30  31
ENDBRANCH  22  25
ENDBRANCH  20  21
ENDBRANCH  19  20
ENDBRANCH   1  19
TORSDOF 14
ENDMDL
MODEL 3
REMARK VINA RESULT:     -11.4      1.713      7.843
REMARK SMILES CC[C@@H](Oc1ccc(Cl)c(Cl)c1)C(=O)NCCCCNC(=O)c1ccc(-c2c3nc(c(-c4c(F)c(F)c(F)c(F)c4F)c4ccc([nH]4)c(-c4c(F)c(F)c(F)c(F)c4F)c4nc(c(-c5c(F)c(F)c(F)c(F)c5F)c5ccc2[nH]5)C=C4)C=C3)cc1
REMARK SMILES IDX 17 1 16 2 15 3 13 4 14 5 3 7 2 8 1 9 4 10 5 11 6 12 12 13
REMARK SMILES IDX 7 14 10 15 8 16 11 17 9 18 18 19 19 20 20 21 21 22 22 24
REMARK SMILES IDX 23 25 24 26 85 27 25 28 84 29 26 30 27 31 28 32 78 33 29 34
REMARK SMILES IDX 83 35 77 36 79 37 30 38 82 39 76 40 75 41 31 43 63 44 43 45
REMARK SMILES IDX 62 46 44 47 47 48 61 49 80 50 45 51 46 52 60 54 81 55 48 56
REMARK SMILES IDX 32 57 33 58 41 59 34 60 35 61 39 62 42 63 36 64 37 65 40 66
REMARK SMILES IDX 38 67 64 68 65 69 73 70 66 71 67 72 71 73 74 74 68 75 69 76
REMARK SMILES IDX 72 77 70 78 49 79 50 80 58 81 51 82 52 83 56 84 59 85 53 86
REMARK SMILES IDX 54 87 57 88 55 89
REMARK H PARENT 15 6 20 23 79 42 47 53
REMARK Flexibility Score: inf
ROOT
ATOM      1  C   UNL A   1      37.456  21.238  24.608  1.00  0.00     0.023 C 
ENDROOT
BRANCH   1   2
ATOM      2  C   UNL A   1      35.985  21.315  24.997  1.00  0.00     0.116 C 
BRANCH   2   3
ATOM      3  N   UNL A   1      35.372  20.000  25.082  1.00  0.00    -0.353 N 
ATOM      4  C   UNL A   1      34.104  19.613  24.737  1.00  0.00     0.261 C 
ATOM      5  O   UNL A   1      33.807  18.422  24.867  1.00  0.00    -0.271 OA
ATOM      6  H   UNL A   1      35.950  19.287  25.439  1.00  0.00     0.163 HD
BRANCH   4   7
ATOM      7  C   UNL A   1      33.069  20.647  24.261  1.00  0.00     0.261 C 
BRANCH   7   8
ATOM      8  C   UNL A   1      32.279  20.041  23.084  1.00  0.00     0.052 C 
ATOM      9  C   UNL A   1      31.913  21.058  22.009  1.00  0.00     0.008 C 
ENDBRANCH   7   8
BRANCH   7  10
ATOM     10  O   UNL A   1      32.268  20.947  25.419  1.00  0.00    -0.481 OA
BRANCH  10  11
ATOM     11  C   UNL A   1      32.006  22.267  25.611  1.00  0.00     0.122 A 
ATOM     12  C   UNL A   1      30.766  22.658  26.111  1.00  0.00     0.048 A 
ATOM     13  C   UNL A   1      33.030  23.195  25.450  1.00  0.00     0.068 A 
ATOM     14  C   UNL A   1      30.510  24.006  26.353  1.00  0.00     0.026 A 
ATOM     15  C   UNL A   1      32.786  24.544  25.720  1.00  0.00     0.063 A 
ATOM     16  C   UNL A   1      31.518  24.954  26.152  1.00  0.00     0.059 A 
ATOM     17  Cl  UNL A   1      34.096  25.653  25.520  1.00  0.00    -0.083 Cl
ATOM     18  Cl  UNL A   1      31.131  26.608  26.467  1.00  0.00    -0.083 Cl
ENDBRANCH  10  11
ENDBRANCH   7  10
ENDBRANCH   4   7
ENDBRANCH   2   3
ENDBRANCH   1   2
BRANCH   1  19
ATOM     19  C   UNL A   1      38.151  19.935  25.000  1.00  0.00     0.023 C 
BRANCH  19  20
ATOM     20  C   UNL A   1      39.198  20.062  26.102  1.00  0.00     0.116 C 
BRANCH  20  21
ATOM     21  N   UNL A   1      40.267  19.081  25.992  1.00  0.00    -0.352 N 
ATOM     22  C   UNL A   1      41.625  19.258  26.047  1.00  0.00     0.251 C 
ATOM     23  H   UNL A   1      39.969  18.152  25.859  1.00  0.00     0.163 HD
ATOM     24  O   UNL A   1      42.373  18.314  25.802  1.00  0.00    -0.269 OA
BRANCH  22  25
ATOM     25  C   UNL A   1      42.198  20.585  26.362  1.00  0.00     0.039 A 
ATOM     26  C   UNL A   1      42.568  21.417  25.303  1.00  0.00     0.014 A 
ATOM     27  C   UNL A   1      42.376  21.012  27.682  1.00  0.00     0.014 A 
ATOM     28  C   UNL A   1      43.053  22.698  25.566  1.00  0.00     0.010 A 
ATOM     29  C   UNL A   1      42.784  22.320  27.941  1.00  0.00     0.010 A 
ATOM     30  C   UNL A   1      43.127  23.177  26.886  1.00  0.00    -0.014 A 
BRANCH  30  31
ATOM     31  C   UNL A   1      43.534  24.581  27.154  1.00  0.00     0.031 A 
ATOM     32  C   UNL A   1      42.545  25.586  27.675  1.00  0.00     0.074 A 
ATOM     33  C   UNL A   1      44.805  24.953  26.902  1.00  0.00     0.049 A 
ATOM     34  N   UNL A   1      42.732  26.844  27.986  1.00  0.00    -0.248 NA
ATOM     35  C   UNL A   1      41.159  25.128  27.852  1.00  0.00     0.031 C 
ATOM     36  C   UNL A   1      45.840  24.089  26.332  1.00  0.00     0.029 A 
ATOM     37  N   UNL A   1      45.444  26.153  27.096  1.00  0.00    -0.354 N 
ATOM     38  C   UNL A   1      41.497  27.323  28.401  1.00  0.00     0.074 A 
ATOM     39  C   UNL A   1      40.550  26.240  28.238  1.00  0.00     0.031 C 
ATOM     40  C   UNL A   1      46.992  24.774  26.253  1.00  0.00     0.029 A 
ATOM     41  C   UNL A   1      46.769  26.135  26.732  1.00  0.00     0.049 A 
ATOM     42  H   UNL A   1      44.996  26.950  27.459  1.00  0.00     0.167 HD
ATOM     43  C   UNL A   1      41.186  28.542  28.902  1.00  0.00     0.037 A 
ATOM     44  C   UNL A   1      47.701  27.106  26.779  1.00  0.00     0.037 A 
ATOM     45  C   UNL A   1      42.130  29.617  29.067  1.00  0.00     0.049 A 
ATOM     46  C   UNL A   1      47.323  28.453  27.335  1.00  0.00     0.074 A 
ATOM     47  C   UNL A   1      41.920  30.878  29.598  1.00  0.00     0.029 A 
ATOM     48  N   UNL A   1      43.467  29.559  28.699  1.00  0.00    -0.354 N 
ATOM     49  N   UNL A   1      46.168  28.865  27.796  1.00  0.00    -0.248 NA
ATOM     50  C   UNL A   1      48.388  29.464  27.392  1.00  0.00     0.031 C 
ATOM     51  C   UNL A   1      43.115  31.599  29.506  1.00  0.00     0.029 A 
ATOM     52  C   UNL A   1      44.087  30.769  28.972  1.00  0.00     0.049 A 
ATOM     53  H   UNL A   1      43.909  28.774  28.301  1.00  0.00     0.167 HD
ATOM     54  C   UNL A   1      46.371  30.173  28.216  1.00  0.00     0.074 A 
ATOM     55  C   UNL A   1      47.769  30.472  27.988  1.00  0.00     0.031 C 
ATOM     56  C   UNL A   1      45.479  31.053  28.735  1.00  0.00     0.037 A 
BRANCH  43  57
ATOM     57  C   UNL A   1      39.764  28.778  29.330  1.00  0.00     0.064 A 
ATOM     58  C   UNL A   1      39.341  28.511  30.642  1.00  0.00     0.173 A 
ATOM     59  C   UNL A   1      38.831  29.334  28.442  1.00  0.00     0.173 A 
ATOM     60  F   UNL A   1      40.190  27.969  31.528  1.00  0.00    -0.203 F 
ATOM     61  C   UNL A   1      38.033  28.771  31.042  1.00  0.00     0.198 A 
ATOM     62  C   UNL A   1      37.532  29.622  28.854  1.00  0.00     0.198 A 
ATOM     63  F   UNL A   1      39.183  29.614  27.178  1.00  0.00    -0.203 F 
ATOM     64  F   UNL A   1      37.642  28.469  32.287  1.00  0.00    -0.200 F 
ATOM     65  C   UNL A   1      37.133  29.336  30.150  1.00  0.00     0.200 A 
ATOM     66  F   UNL A   1      36.668  30.181  27.997  1.00  0.00    -0.200 F 
ATOM     67  F   UNL A   1      35.878  29.600  30.541  1.00  0.00    -0.200 F 
ENDBRANCH  43  57
BRANCH  44  68
ATOM     68  C   UNL A   1      49.083  26.841  26.297  1.00  0.00     0.064 A 
ATOM     69  C   UNL A   1      49.454  27.106  24.971  1.00  0.00     0.173 A 
ATOM     70  C   UNL A   1      50.054  26.289  27.145  1.00  0.00     0.173 A 
ATOM     71  F   UNL A   1      48.557  27.618  24.115  1.00  0.00    -0.203 F 
ATOM     72  C   UNL A   1      50.729  26.795  24.502  1.00  0.00     0.198 A 
ATOM     73  C   UNL A   1      51.340  26.011  26.685  1.00  0.00     0.198 A 
ATOM     74  F   UNL A   1      49.756  26.023  28.426  1.00  0.00    -0.203 F 
ATOM     75  F   UNL A   1      51.034  26.997  23.213  1.00  0.00    -0.200 F 
ATOM     76  C   UNL A   1      51.672  26.252  25.361  1.00  0.00     0.200 A 
ATOM     77  F   UNL A   1      52.254  25.504  27.524  1.00  0.00    -0.200 F 
ATOM     78  F   UNL A   1      52.896  25.951  24.910  1.00  0.00    -0.200 F 
ENDBRANCH  44  68
BRANCH  56  79
ATOM     79  C   UNL A   1      46.002  32.411  29.110  1.00  0.00     0.064 A 
ATOM     80  C   UNL A   1      46.521  32.677  30.386  1.00  0.00     0.173 A 
ATOM     81  C   UNL A   1      45.983  33.463  28.180  1.00  0.00     0.173 A 
ATOM     82  F   UNL A   1      46.550  31.710  31.316  1.00  0.00    -0.203 F 
ATOM     83  C   UNL A   1      46.954  33.953  30.734  1.00  0.00     0.198 A 
ATOM     84  C   UNL A   1      46.452  34.729  28.519  1.00  0.00     0.198 A 
ATOM     85  F   UNL A   1      45.507  33.264  26.942  1.00  0.00    -0.203 F 
ATOM     86  F   UNL A   1      47.376  34.198  31.982  1.00  0.00    -0.200 F 
ATOM     87  C   UNL A   1      46.924  34.977  29.800  1.00  0.00     0.200 A 
ATOM     88  F   UNL A   1      46.438  35.713  27.609  1.00  0.00    -0.200 F 
ATOM     89  F   UNL A   1      47.337  36.206  30.136  1.00  0.00    -0.200 F 
ENDBRANCH  56  79
ENDBRANCH  30  31
ENDBRANCH  22  25
ENDBRANCH  20  21
ENDBRANCH  19  20
ENDBRANCH   1  19
TORSDOF 14
ENDMDL
