MODEL 1
REMARK VINA RESULT:     -10.3      0.000      0.000
REMARK SMILES C[C@]([NH3+])(Cc1ccccc1Br)C(=O)NCCCCNC(=O)c1ccc(-c2c3nc(c(-c4c(F)c(F)c(F)c(F)c4F)c4ccc([nH]4)c(-c4c(F)c(F)c(F)c(F)c4F)c4nc(c(-c5c(F)c(F)c(F)c(F)c5F)c5ccc2[nH]5)C=C4)C=C3)cc1
REMARK SMILES IDX 16 1 15 2 14 3 12 4 13 5 2 7 1 8 4 9 5 10 6 11 10 12 7 13
REMARK SMILES IDX 9 14 11 15 8 16 3 17 17 21 18 22 19 23 20 24 21 26 22 27
REMARK SMILES IDX 23 28 84 29 24 30 83 31 25 32 26 33 27 34 77 35 28 36 82 37
REMARK SMILES IDX 76 38 78 39 29 40 81 41 75 42 74 43 30 45 62 46 42 47 61 48
REMARK SMILES IDX 43 49 46 50 60 51 79 52 44 53 45 54 59 56 80 57 47 58 31 59
REMARK SMILES IDX 32 60 40 61 33 62 34 63 38 64 41 65 35 66 36 67 39 68 37 69
REMARK SMILES IDX 63 70 64 71 72 72 65 73 66 74 70 75 73 76 67 77 68 78 71 79
REMARK SMILES IDX 69 80 48 81 49 82 57 83 50 84 51 85 55 86 58 87 52 88 53 89
REMARK SMILES IDX 56 90 54 91
REMARK H PARENT 14 6 3 18 3 19 3 20 19 25 78 44 46 55
REMARK Flexibility Score: inf
ROOT
ATOM      1  C   UNL A   1      41.864  19.604  26.124  1.00  0.00     0.023 C 
ENDROOT
BRANCH   1   2
ATOM      2  C   UNL A   1      42.875  20.743  26.227  1.00  0.00     0.116 C 
BRANCH   2   3
ATOM      3  N   UNL A   1      44.197  20.380  25.751  1.00  0.00    -0.351 N 
ATOM      4  C   UNL A   1      45.234  21.126  25.267  1.00  0.00     0.281 C 
ATOM      5  O   UNL A   1      46.309  20.525  25.145  1.00  0.00    -0.268 OA
ATOM      6  H   UNL A   1      44.382  19.414  25.782  1.00  0.00     0.163 HD
BRANCH   4   7
ATOM      7  C   UNL A   1      45.098  22.652  24.944  1.00  0.00     0.175 C 
ATOM      8  C   UNL A   1      46.403  23.155  24.296  1.00  0.00     0.090 C 
BRANCH   7   9
ATOM      9  C   UNL A   1      44.703  23.488  26.196  1.00  0.00     0.115 C 
BRANCH   9  10
ATOM     10  C   UNL A   1      44.889  24.994  26.079  1.00  0.00    -0.027 A 
ATOM     11  C   UNL A   1      43.926  25.743  25.377  1.00  0.00     0.005 A 
ATOM     12  C   UNL A   1      45.986  25.687  26.625  1.00  0.00     0.021 A 
ATOM     13  C   UNL A   1      44.045  27.126  25.224  1.00  0.00     0.000 A 
ATOM     14  C   UNL A   1      46.108  27.073  26.459  1.00  0.00     0.016 A 
ATOM     15  Br  UNL A   1      47.357  24.828  27.626  1.00  0.00    -0.051 Br
ATOM     16  C   UNL A   1      45.139  27.791  25.763  1.00  0.00     0.001 A 
ENDBRANCH   9  10
ENDBRANCH   7   9
BRANCH   7  17
ATOM     17  N   UNL A   1      44.046  22.830  23.908  1.00  0.00    -0.345 N 
ATOM     18  H   UNL A   1      43.438  23.605  24.171  1.00  0.00     0.345 HD
ATOM     19  H   UNL A   1      43.494  21.976  23.835  1.00  0.00     0.345 HD
ATOM     20  H   UNL A   1      44.484  23.030  23.010  1.00  0.00     0.345 HD
ENDBRANCH   7  17
ENDBRANCH   4   7
ENDBRANCH   2   3
ENDBRANCH   1   2
BRANCH   1  21
ATOM     21  C   UNL A   1      40.402  20.021  26.268  1.00  0.00     0.023 C 
BRANCH  21  22
ATOM     22  C   UNL A   1      40.181  21.506  26.532  1.00  0.00     0.116 C 
BRANCH  22  23
ATOM     23  N   UNL A   1      38.979  22.021  25.889  1.00  0.00    -0.352 N 
ATOM     24  C   UNL A   1      38.410  23.268  25.979  1.00  0.00     0.251 C 
ATOM     25  H   UNL A   1      38.507  21.383  25.306  1.00  0.00     0.163 HD
ATOM     26  O   UNL A   1      37.308  23.488  25.487  1.00  0.00    -0.269 OA
BRANCH  24  27
ATOM     27  C   UNL A   1      39.122  24.336  26.705  1.00  0.00     0.039 A 
ATOM     28  C   UNL A   1      39.976  25.184  25.997  1.00  0.00     0.014 A 
ATOM     29  C   UNL A   1      38.904  24.526  28.071  1.00  0.00     0.014 A 
ATOM     30  C   UNL A   1      40.537  26.288  26.640  1.00  0.00     0.010 A 
ATOM     31  C   UNL A   1      39.407  25.663  28.693  1.00  0.00     0.010 A 
ATOM     32  C   UNL A   1      40.213  26.563  27.979  1.00  0.00    -0.014 A 
BRANCH  32  33
ATOM     33  C   UNL A   1      40.660  27.810  28.644  1.00  0.00     0.031 A 
ATOM     34  C   UNL A   1      42.065  27.928  29.156  1.00  0.00     0.074 A 
ATOM     35  C   UNL A   1      39.768  28.792  28.875  1.00  0.00     0.049 A 
ATOM     36  N   UNL A   1      42.609  28.880  29.871  1.00  0.00    -0.248 NA
ATOM     37  C   UNL A   1      42.974  26.815  28.843  1.00  0.00     0.031 C 
ATOM     38  C   UNL A   1      38.365  28.775  28.458  1.00  0.00     0.029 A 
ATOM     39  N   UNL A   1      39.903  29.988  29.536  1.00  0.00    -0.354 N 
ATOM     40  C   UNL A   1      43.915  28.476  30.103  1.00  0.00     0.074 A 
ATOM     41  C   UNL A   1      44.069  27.170  29.496  1.00  0.00     0.031 C 
ATOM     42  C   UNL A   1      37.774  29.912  28.858  1.00  0.00     0.029 A 
ATOM     43  C   UNL A   1      38.740  30.715  29.600  1.00  0.00     0.049 A 
ATOM     44  H   UNL A   1      40.753  30.295  29.927  1.00  0.00     0.167 HD
ATOM     45  C   UNL A   1      44.902  29.144  30.746  1.00  0.00     0.037 A 
ATOM     46  C   UNL A   1      38.477  31.889  30.205  1.00  0.00     0.037 A 
ATOM     47  C   UNL A   1      44.744  30.449  31.334  1.00  0.00     0.049 A 
ATOM     48  C   UNL A   1      39.576  32.586  30.960  1.00  0.00     0.074 A 
ATOM     49  C   UNL A   1      45.700  31.241  31.945  1.00  0.00     0.029 A 
ATOM     50  N   UNL A   1      43.546  31.147  31.394  1.00  0.00    -0.354 N 
ATOM     51  N   UNL A   1      40.828  32.229  31.114  1.00  0.00    -0.248 NA
ATOM     52  C   UNL A   1      39.223  33.843  31.632  1.00  0.00     0.031 C 
ATOM     53  C   UNL A   1      45.069  32.397  32.421  1.00  0.00     0.029 A 
ATOM     54  C   UNL A   1      43.730  32.344  32.066  1.00  0.00     0.049 A 
ATOM     55  H   UNL A   1      42.692  30.836  31.016  1.00  0.00     0.167 HD
ATOM     56  C   UNL A   1      41.416  33.222  31.884  1.00  0.00     0.074 A 
ATOM     57  C   UNL A   1      40.386  34.206  32.153  1.00  0.00     0.031 C 
ATOM     58  C   UNL A   1      42.692  33.309  32.331  1.00  0.00     0.037 A 
BRANCH  45  59
ATOM     59  C   UNL A   1      46.240  28.472  30.846  1.00  0.00     0.064 A 
ATOM     60  C   UNL A   1      47.205  28.598  29.834  1.00  0.00     0.173 A 
ATOM     61  C   UNL A   1      46.571  27.708  31.975  1.00  0.00     0.173 A 
ATOM     62  F   UNL A   1      46.933  29.309  28.728  1.00  0.00    -0.203 F 
ATOM     63  C   UNL A   1      48.436  27.958  29.933  1.00  0.00     0.198 A 
ATOM     64  C   UNL A   1      47.816  27.094  32.084  1.00  0.00     0.198 A 
ATOM     65  F   UNL A   1      45.689  27.559  32.974  1.00  0.00    -0.203 F 
ATOM     66  F   UNL A   1      49.319  28.048  28.928  1.00  0.00    -0.200 F 
ATOM     67  C   UNL A   1      48.743  27.210  31.059  1.00  0.00     0.200 A 
ATOM     68  F   UNL A   1      48.117  26.381  33.179  1.00  0.00    -0.200 F 
ATOM     69  F   UNL A   1      49.930  26.594  31.154  1.00  0.00    -0.200 F 
ENDBRANCH  45  59
BRANCH  46  70
ATOM     70  C   UNL A   1      37.118  32.481  30.114  1.00  0.00     0.064 A 
ATOM     71  C   UNL A   1      36.187  32.293  31.145  1.00  0.00     0.173 A 
ATOM     72  C   UNL A   1      36.726  33.253  29.012  1.00  0.00     0.173 A 
ATOM     73  F   UNL A   1      36.509  31.543  32.209  1.00  0.00    -0.203 F 
ATOM     74  C   UNL A   1      34.911  32.846  31.070  1.00  0.00     0.198 A 
ATOM     75  C   UNL A   1      35.458  33.828  28.950  1.00  0.00     0.198 A 
ATOM     76  F   UNL A   1      37.582  33.466  28.001  1.00  0.00    -0.203 F 
ATOM     77  F   UNL A   1      34.028  32.623  32.053  1.00  0.00    -0.200 F 
ATOM     78  C   UNL A   1      34.550  33.620  29.978  1.00  0.00     0.200 A 
ATOM     79  F   UNL A   1      35.118  34.587  27.899  1.00  0.00    -0.200 F 
ATOM     80  F   UNL A   1      33.325  34.160  29.911  1.00  0.00    -0.200 F 
ENDBRANCH  46  70
BRANCH  58  81
ATOM     81  C   UNL A   1      43.053  34.512  33.151  1.00  0.00     0.064 A 
ATOM     82  C   UNL A   1      43.389  35.732  32.548  1.00  0.00     0.173 A 
ATOM     83  C   UNL A   1      43.010  34.459  34.553  1.00  0.00     0.173 A 
ATOM     84  F   UNL A   1      43.462  35.826  31.212  1.00  0.00    -0.203 F 
ATOM     85  C   UNL A   1      43.680  36.854  33.319  1.00  0.00     0.198 A 
ATOM     86  C   UNL A   1      43.275  35.590  35.320  1.00  0.00     0.198 A 
ATOM     87  F   UNL A   1      42.690  33.316  35.176  1.00  0.00    -0.203 F 
ATOM     88  F   UNL A   1      44.033  38.001  32.723  1.00  0.00    -0.200 F 
ATOM     89  C   UNL A   1      43.613  36.785  34.703  1.00  0.00     0.200 A 
ATOM     90  F   UNL A   1      43.197  35.524  36.655  1.00  0.00    -0.200 F 
ATOM     91  F   UNL A   1      43.880  37.871  35.443  1.00  0.00    -0.200 F 
ENDBRANCH  58  81
ENDBRANCH  32  33
ENDBRANCH  24  27
ENDBRANCH  22  23
ENDBRANCH  21  22
ENDBRANCH   1  21
TORSDOF 14
ENDMDL
MODEL 2
REMARK VINA RESULT:     -10.1      5.164      9.684
REMARK SMILES C[C@]([NH3+])(Cc1ccccc1Br)C(=O)NCCCCNC(=O)c1ccc(-c2c3nc(c(-c4c(F)c(F)c(F)c(F)c4F)c4ccc([nH]4)c(-c4c(F)c(F)c(F)c(F)c4F)c4nc(c(-c5c(F)c(F)c(F)c(F)c5F)c5ccc2[nH]5)C=C4)C=C3)cc1
REMARK SMILES IDX 16 1 15 2 14 3 12 4 13 5 2 7 1 8 4 9 5 10 6 11 10 12 7 13
REMARK SMILES IDX 9 14 11 15 8 16 3 17 17 21 18 22 19 23 20 24 21 26 22 27
REMARK SMILES IDX 23 28 84 29 24 30 83 31 25 32 26 33 27 34 77 35 28 36 82 37
REMARK SMILES IDX 76 38 78 39 29 40 81 41 75 42 74 43 30 45 62 46 42 47 61 48
REMARK SMILES IDX 43 49 46 50 60 51 79 52 44 53 45 54 59 56 80 57 47 58 31 59
REMARK SMILES IDX 32 60 40 61 33 62 34 63 38 64 41 65 35 66 36 67 39 68 37 69
REMARK SMILES IDX 63 70 64 71 72 72 65 73 66 74 70 75 73 76 67 77 68 78 71 79
REMARK SMILES IDX 69 80 48 81 49 82 57 83 50 84 51 85 55 86 58 87 52 88 53 89
REMARK SMILES IDX 56 90 54 91
REMARK H PARENT 14 6 3 18 3 19 3 20 19 25 78 44 46 55
REMARK Flexibility Score: inf
ROOT
ATOM      1  C   UNL A   1      32.104  30.200  26.610  1.00  0.00     0.023 C 
ENDROOT
BRANCH   1   2
ATOM      2  C   UNL A   1      31.804  29.693  25.202  1.00  0.00     0.116 C 
BRANCH   2   3
ATOM      3  N   UNL A   1      32.989  29.567  24.373  1.00  0.00    -0.351 N 
ATOM      4  C   UNL A   1      33.375  28.627  23.462  1.00  0.00     0.281 C 
ATOM      5  O   UNL A   1      34.355  28.929  22.769  1.00  0.00    -0.268 OA
ATOM      6  H   UNL A   1      33.637  30.299  24.490  1.00  0.00     0.163 HD
BRANCH   4   7
ATOM      7  C   UNL A   1      32.601  27.281  23.258  1.00  0.00     0.175 C 
ATOM      8  C   UNL A   1      31.214  27.576  22.656  1.00  0.00     0.090 C 
BRANCH   7   9
ATOM      9  C   UNL A   1      32.509  26.448  24.569  1.00  0.00     0.115 C 
BRANCH   9  10
ATOM     10  C   UNL A   1      33.309  25.153  24.596  1.00  0.00    -0.027 A 
ATOM     11  C   UNL A   1      34.634  25.186  25.071  1.00  0.00     0.005 A 
ATOM     12  C   UNL A   1      32.803  23.916  24.156  1.00  0.00     0.021 A 
ATOM     13  C   UNL A   1      35.425  24.036  25.111  1.00  0.00     0.000 A 
ATOM     14  C   UNL A   1      33.604  22.767  24.186  1.00  0.00     0.016 A 
ATOM     15  Br  UNL A   1      31.025  23.696  23.513  1.00  0.00    -0.051 Br
ATOM     16  C   UNL A   1      34.910  22.826  24.665  1.00  0.00     0.001 A 
ENDBRANCH   9  10
ENDBRANCH   7   9
BRANCH   7  17
ATOM     17  N   UNL A   1      33.314  26.470  22.235  1.00  0.00    -0.345 N 
ATOM     18  H   UNL A   1      34.048  25.922  22.685  1.00  0.00     0.345 HD
ATOM     19  H   UNL A   1      33.730  27.089  21.540  1.00  0.00     0.345 HD
ATOM     20  H   UNL A   1      32.653  25.842  21.779  1.00  0.00     0.345 HD
ENDBRANCH   7  17
ENDBRANCH   4   7
ENDBRANCH   2   3
ENDBRANCH   1   2
BRANCH   1  21
ATOM     21  C   UNL A   1      31.755  31.666  26.859  1.00  0.00     0.023 C 
BRANCH  21  22
ATOM     22  C   UNL A   1      32.909  32.522  27.371  1.00  0.00     0.116 C 
BRANCH  22  23
ATOM     23  N   UNL A   1      32.522  33.907  27.606  1.00  0.00    -0.352 N 
ATOM     24  C   UNL A   1      33.023  34.809  28.514  1.00  0.00     0.251 C 
ATOM     25  H   UNL A   1      31.797  34.246  27.033  1.00  0.00     0.163 HD
ATOM     26  O   UNL A   1      32.477  35.894  28.682  1.00  0.00    -0.269 OA
BRANCH  24  27
ATOM     27  C   UNL A   1      34.208  34.445  29.312  1.00  0.00     0.039 A 
ATOM     28  C   UNL A   1      34.027  33.876  30.574  1.00  0.00     0.014 A 
ATOM     29  C   UNL A   1      35.492  34.621  28.790  1.00  0.00     0.014 A 
ATOM     30  C   UNL A   1      35.132  33.390  31.275  1.00  0.00     0.010 A 
ATOM     31  C   UNL A   1      36.583  34.076  29.456  1.00  0.00     0.010 A 
ATOM     32  C   UNL A   1      36.410  33.440  30.695  1.00  0.00    -0.014 A 
BRANCH  32  33
ATOM     33  C   UNL A   1      37.579  32.791  31.338  1.00  0.00     0.031 A 
ATOM     34  C   UNL A   1      38.253  31.627  30.673  1.00  0.00     0.074 A 
ATOM     35  C   UNL A   1      37.962  33.188  32.566  1.00  0.00     0.049 A 
ATOM     36  N   UNL A   1      39.202  30.850  31.128  1.00  0.00    -0.248 NA
ATOM     37  C   UNL A   1      37.778  31.274  29.327  1.00  0.00     0.031 C 
ATOM     38  C   UNL A   1      37.359  34.283  33.327  1.00  0.00     0.029 A 
ATOM     39  N   UNL A   1      38.939  32.703  33.400  1.00  0.00    -0.354 N 
ATOM     40  C   UNL A   1      39.429  29.911  30.132  1.00  0.00     0.074 A 
ATOM     41  C   UNL A   1      38.485  30.184  29.070  1.00  0.00     0.031 C 
ATOM     42  C   UNL A   1      37.989  34.397  34.507  1.00  0.00     0.029 A 
ATOM     43  C   UNL A   1      39.006  33.355  34.606  1.00  0.00     0.049 A 
ATOM     44  H   UNL A   1      39.536  31.958  33.155  1.00  0.00     0.167 HD
ATOM     45  C   UNL A   1      40.357  28.925  30.100  1.00  0.00     0.037 A 
ATOM     46  C   UNL A   1      39.785  33.125  35.680  1.00  0.00     0.037 A 
ATOM     47  C   UNL A   1      41.302  28.670  31.155  1.00  0.00     0.049 A 
ATOM     48  C   UNL A   1      40.770  31.989  35.640  1.00  0.00     0.074 A 
ATOM     49  C   UNL A   1      42.328  27.742  31.189  1.00  0.00     0.029 A 
ATOM     50  N   UNL A   1      41.327  29.340  32.370  1.00  0.00    -0.354 N 
ATOM     51  N   UNL A   1      41.026  31.151  34.666  1.00  0.00    -0.248 NA
ATOM     52  C   UNL A   1      41.567  31.762  36.853  1.00  0.00     0.031 C 
ATOM     53  C   UNL A   1      42.941  27.815  32.445  1.00  0.00     0.029 A 
ATOM     54  C   UNL A   1      42.327  28.820  33.177  1.00  0.00     0.049 A 
ATOM     55  H   UNL A   1      40.723  30.076  32.622  1.00  0.00     0.167 HD
ATOM     56  C   UNL A   1      42.023  30.309  35.138  1.00  0.00     0.074 A 
ATOM     57  C   UNL A   1      42.337  30.748  36.483  1.00  0.00     0.031 C 
ATOM     58  C   UNL A   1      42.621  29.264  34.516  1.00  0.00     0.037 A 
BRANCH  45  59
ATOM     59  C   UNL A   1      40.391  28.050  28.882  1.00  0.00     0.064 A 
ATOM     60  C   UNL A   1      39.675  26.844  28.822  1.00  0.00     0.173 A 
ATOM     61  C   UNL A   1      41.132  28.429  27.752  1.00  0.00     0.173 A 
ATOM     62  F   UNL A   1      38.961  26.431  29.880  1.00  0.00    -0.203 F 
ATOM     63  C   UNL A   1      39.727  26.034  27.692  1.00  0.00     0.198 A 
ATOM     64  C   UNL A   1      41.157  27.630  26.611  1.00  0.00     0.198 A 
ATOM     65  F   UNL A   1      41.829  29.574  27.753  1.00  0.00    -0.203 F 
ATOM     66  F   UNL A   1      39.080  24.860  27.680  1.00  0.00    -0.200 F 
ATOM     67  C   UNL A   1      40.464  26.430  26.585  1.00  0.00     0.200 A 
ATOM     68  F   UNL A   1      41.859  28.020  25.537  1.00  0.00    -0.200 F 
ATOM     69  F   UNL A   1      40.512  25.650  25.497  1.00  0.00    -0.200 F 
ENDBRANCH  45  59
BRANCH  46  70
ATOM     70  C   UNL A   1      39.670  33.995  36.878  1.00  0.00     0.064 A 
ATOM     71  C   UNL A   1      40.367  35.209  36.949  1.00  0.00     0.173 A 
ATOM     72  C   UNL A   1      38.857  33.644  37.965  1.00  0.00     0.173 A 
ATOM     73  F   UNL A   1      41.173  35.577  35.943  1.00  0.00    -0.203 F 
ATOM     74  C   UNL A   1      40.262  36.034  38.067  1.00  0.00     0.198 A 
ATOM     75  C   UNL A   1      38.733  34.482  39.072  1.00  0.00     0.198 A 
ATOM     76  F   UNL A   1      38.166  32.494  37.944  1.00  0.00    -0.203 F 
ATOM     77  F   UNL A   1      40.966  37.173  38.124  1.00  0.00    -0.200 F 
ATOM     78  C   UNL A   1      39.440  35.674  39.124  1.00  0.00     0.200 A 
ATOM     79  F   UNL A   1      37.926  34.137  40.084  1.00  0.00    -0.200 F 
ATOM     80  F   UNL A   1      39.333  36.472  40.195  1.00  0.00    -0.200 F 
ENDBRANCH  46  70
BRANCH  58  81
ATOM     81  C   UNL A   1      43.682  28.526  35.276  1.00  0.00     0.064 A 
ATOM     82  C   UNL A   1      45.022  28.936  35.244  1.00  0.00     0.173 A 
ATOM     83  C   UNL A   1      43.347  27.432  36.090  1.00  0.00     0.173 A 
ATOM     84  F   UNL A   1      45.394  29.964  34.466  1.00  0.00    -0.203 F 
ATOM     85  C   UNL A   1      45.992  28.269  35.988  1.00  0.00     0.198 A 
ATOM     86  C   UNL A   1      44.314  26.786  36.854  1.00  0.00     0.198 A 
ATOM     87  F   UNL A   1      42.077  27.005  36.158  1.00  0.00    -0.203 F 
ATOM     88  F   UNL A   1      47.273  28.656  35.914  1.00  0.00    -0.200 F 
ATOM     89  C   UNL A   1      45.636  27.203  36.800  1.00  0.00     0.200 A 
ATOM     90  F   UNL A   1      43.966  25.764  37.646  1.00  0.00    -0.200 F 
ATOM     91  F   UNL A   1      46.569  26.572  37.526  1.00  0.00    -0.200 F 
ENDBRANCH  58  81
ENDBRANCH  32  33
ENDBRANCH  24  27
ENDBRANCH  22  23
ENDBRANCH  21  22
ENDBRANCH   1  21
TORSDOF 14
ENDMDL
MODEL 3
REMARK VINA RESULT:     -10.1      4.849      8.584
REMARK SMILES C[C@]([NH3+])(Cc1ccccc1Br)C(=O)NCCCCNC(=O)c1ccc(-c2c3nc(c(-c4c(F)c(F)c(F)c(F)c4F)c4ccc([nH]4)c(-c4c(F)c(F)c(F)c(F)c4F)c4nc(c(-c5c(F)c(F)c(F)c(F)c5F)c5ccc2[nH]5)C=C4)C=C3)cc1
REMARK SMILES IDX 16 1 15 2 14 3 12 4 13 5 2 7 1 8 4 9 5 10 6 11 10 12 7 13
REMARK SMILES IDX 9 14 11 15 8 16 3 17 17 21 18 22 19 23 20 24 21 26 22 27
REMARK SMILES IDX 23 28 84 29 24 30 83 31 25 32 26 33 27 34 77 35 28 36 82 37
REMARK SMILES IDX 76 38 78 39 29 40 81 41 75 42 74 43 30 45 62 46 42 47 61 48
REMARK SMILES IDX 43 49 46 50 60 51 79 52 44 53 45 54 59 56 80 57 47 58 31 59
REMARK SMILES IDX 32 60 40 61 33 62 34 63 38 64 41 65 35 66 36 67 39 68 37 69
REMARK SMILES IDX 63 70 64 71 72 72 65 73 66 74 70 75 73 76 67 77 68 78 71 79
REMARK SMILES IDX 69 80 48 81 49 82 57 83 50 84 51 85 55 86 58 87 52 88 53 89
REMARK SMILES IDX 56 90 54 91
REMARK H PARENT 14 6 3 18 3 19 3 20 19 25 78 44 46 55
REMARK Flexibility Score: inf
ROOT
ATOM      1  C   UNL A   1      31.685  29.049  23.902  1.00  0.00     0.023 C 
ENDROOT
BRANCH   1   2
ATOM      2  C   UNL A   1      31.380  27.652  23.369  1.00  0.00     0.116 C 
BRANCH   2   3
ATOM      3  N   UNL A   1      32.411  27.138  22.485  1.00  0.00    -0.351 N 
ATOM      4  C   UNL A   1      32.844  25.870  22.221  1.00  0.00     0.281 C 
ATOM      5  O   UNL A   1      33.603  25.760  21.251  1.00  0.00    -0.268 OA
ATOM      6  H   UNL A   1      32.887  27.836  21.979  1.00  0.00     0.163 HD
BRANCH   4   7
ATOM      7  C   UNL A   1      32.372  24.627  23.048  1.00  0.00     0.175 C 
ATOM      8  C   UNL A   1      32.704  24.847  24.536  1.00  0.00     0.090 C 
BRANCH   7   9
ATOM      9  C   UNL A   1      32.965  23.295  22.503  1.00  0.00     0.115 C 
BRANCH   9  10
ATOM     10  C   UNL A   1      34.127  22.710  23.293  1.00  0.00    -0.027 A 
ATOM     11  C   UNL A   1      35.415  23.245  23.102  1.00  0.00     0.005 A 
ATOM     12  C   UNL A   1      33.991  21.644  24.203  1.00  0.00     0.021 A 
ATOM     13  C   UNL A   1      36.524  22.745  23.787  1.00  0.00     0.000 A 
ATOM     14  C   UNL A   1      35.108  21.137  24.879  1.00  0.00     0.016 A 
ATOM     15  Br  UNL A   1      32.317  20.829  24.598  1.00  0.00    -0.051 Br
ATOM     16  C   UNL A   1      36.371  21.688  24.674  1.00  0.00     0.001 A 
ENDBRANCH   9  10
ENDBRANCH   7   9
BRANCH   7  17
ATOM     17  N   UNL A   1      30.888  24.543  22.980  1.00  0.00    -0.345 N 
ATOM     18  H   UNL A   1      30.611  24.123  22.093  1.00  0.00     0.345 HD
ATOM     19  H   UNL A   1      30.491  25.480  23.050  1.00  0.00     0.345 HD
ATOM     20  H   UNL A   1      30.545  23.970  23.750  1.00  0.00     0.345 HD
ENDBRANCH   7  17
ENDBRANCH   4   7
ENDBRANCH   2   3
ENDBRANCH   1   2
BRANCH   1  21
ATOM     21  C   UNL A   1      32.968  29.164  24.723  1.00  0.00     0.023 C 
BRANCH  21  22
ATOM     22  C   UNL A   1      32.757  29.424  26.210  1.00  0.00     0.116 C 
BRANCH  22  23
ATOM     23  N   UNL A   1      32.481  30.825  26.504  1.00  0.00    -0.352 N 
ATOM     24  C   UNL A   1      33.214  31.719  27.245  1.00  0.00     0.251 C 
ATOM     25  H   UNL A   1      31.649  31.180  26.116  1.00  0.00     0.163 HD
ATOM     26  O   UNL A   1      32.758  32.825  27.518  1.00  0.00    -0.269 OA
BRANCH  24  27
ATOM     27  C   UNL A   1      34.546  31.326  27.740  1.00  0.00     0.039 A 
ATOM     28  C   UNL A   1      35.527  32.307  27.901  1.00  0.00     0.014 A 
ATOM     29  C   UNL A   1      34.804  29.999  28.092  1.00  0.00     0.014 A 
ATOM     30  C   UNL A   1      36.738  31.975  28.509  1.00  0.00     0.010 A 
ATOM     31  C   UNL A   1      35.982  29.684  28.758  1.00  0.00     0.010 A 
ATOM     32  C   UNL A   1      36.951  30.672  28.989  1.00  0.00    -0.014 A 
BRANCH  32  33
ATOM     33  C   UNL A   1      38.156  30.325  29.781  1.00  0.00     0.031 A 
ATOM     34  C   UNL A   1      39.158  29.350  29.238  1.00  0.00     0.074 A 
ATOM     35  C   UNL A   1      38.289  30.813  31.029  1.00  0.00     0.049 A 
ATOM     36  N   UNL A   1      40.205  28.826  29.824  1.00  0.00    -0.248 NA
ATOM     37  C   UNL A   1      38.941  28.883  27.860  1.00  0.00     0.031 C 
ATOM     38  C   UNL A   1      37.361  31.740  31.678  1.00  0.00     0.029 A 
ATOM     39  N   UNL A   1      39.249  30.582  31.983  1.00  0.00    -0.354 N 
ATOM     40  C   UNL A   1      40.761  27.960  28.894  1.00  0.00     0.074 A 
ATOM     41  C   UNL A   1      39.910  27.990  27.723  1.00  0.00     0.031 C 
ATOM     42  C   UNL A   1      37.803  32.010  32.916  1.00  0.00     0.029 A 
ATOM     43  C   UNL A   1      39.018  31.241  33.165  1.00  0.00     0.049 A 
ATOM     44  H   UNL A   1      40.028  29.999  31.834  1.00  0.00     0.167 HD
ATOM     45  C   UNL A   1      41.892  27.223  29.000  1.00  0.00     0.037 A 
ATOM     46  C   UNL A   1      39.699  31.213  34.327  1.00  0.00     0.037 A 
ATOM     47  C   UNL A   1      42.741  27.209  30.163  1.00  0.00     0.049 A 
ATOM     48  C   UNL A   1      40.922  30.344  34.438  1.00  0.00     0.074 A 
ATOM     49  C   UNL A   1      43.945  26.553  30.345  1.00  0.00     0.029 A 
ATOM     50  N   UNL A   1      42.465  27.876  31.348  1.00  0.00    -0.354 N 
ATOM     51  N   UNL A   1      41.480  29.583  33.529  1.00  0.00    -0.248 NA
ATOM     52  C   UNL A   1      41.603  30.324  35.740  1.00  0.00     0.031 C 
ATOM     53  C   UNL A   1      44.373  26.781  31.658  1.00  0.00     0.029 A 
ATOM     54  C   UNL A   1      43.458  27.616  32.280  1.00  0.00     0.049 A 
ATOM     55  H   UNL A   1      41.680  28.450  31.505  1.00  0.00     0.167 HD
ATOM     56  C   UNL A   1      42.585  29.007  34.140  1.00  0.00     0.074 A 
ATOM     57  C   UNL A   1      42.627  29.519  35.495  1.00  0.00     0.031 C 
ATOM     58  C   UNL A   1      43.481  28.129  33.626  1.00  0.00     0.037 A 
BRANCH  45  59
ATOM     59  C   UNL A   1      42.274  26.370  27.826  1.00  0.00     0.064 A 
ATOM     60  C   UNL A   1      43.208  26.805  26.873  1.00  0.00     0.173 A 
ATOM     61  C   UNL A   1      41.716  25.094  27.661  1.00  0.00     0.173 A 
ATOM     62  F   UNL A   1      43.762  28.023  26.979  1.00  0.00    -0.203 F 
ATOM     63  C   UNL A   1      43.542  26.011  25.781  1.00  0.00     0.198 A 
ATOM     64  C   UNL A   1      42.076  24.288  26.583  1.00  0.00     0.198 A 
ATOM     65  F   UNL A   1      40.823  24.626  28.546  1.00  0.00    -0.203 F 
ATOM     66  F   UNL A   1      44.394  26.471  24.854  1.00  0.00    -0.200 F 
ATOM     67  C   UNL A   1      42.980  24.751  25.639  1.00  0.00     0.200 A 
ATOM     68  F   UNL A   1      41.541  23.066  26.454  1.00  0.00    -0.200 F 
ATOM     69  F   UNL A   1      43.304  23.986  24.588  1.00  0.00    -0.200 F 
ENDBRANCH  45  59
BRANCH  46  70
ATOM     70  C   UNL A   1      39.243  32.041  35.472  1.00  0.00     0.064 A 
ATOM     71  C   UNL A   1      38.437  31.488  36.477  1.00  0.00     0.173 A 
ATOM     72  C   UNL A   1      39.609  33.389  35.596  1.00  0.00     0.173 A 
ATOM     73  F   UNL A   1      38.043  30.210  36.390  1.00  0.00    -0.203 F 
ATOM     74  C   UNL A   1      38.007  32.255  37.557  1.00  0.00     0.198 A 
ATOM     75  C   UNL A   1      39.199  34.148  36.690  1.00  0.00     0.198 A 
ATOM     76  F   UNL A   1      40.382  33.964  34.663  1.00  0.00    -0.203 F 
ATOM     77  F   UNL A   1      37.209  31.712  38.486  1.00  0.00    -0.200 F 
ATOM     78  C   UNL A   1      38.394  33.582  37.668  1.00  0.00     0.200 A 
ATOM     79  F   UNL A   1      39.588  35.426  36.800  1.00  0.00    -0.200 F 
ATOM     80  F   UNL A   1      37.988  34.317  38.711  1.00  0.00    -0.200 F 
ENDBRANCH  46  70
BRANCH  58  81
ATOM     81  C   UNL A   1      44.590  27.672  34.527  1.00  0.00     0.064 A 
ATOM     82  C   UNL A   1      45.779  28.403  34.650  1.00  0.00     0.173 A 
ATOM     83  C   UNL A   1      44.439  26.521  35.316  1.00  0.00     0.173 A 
ATOM     84  F   UNL A   1      45.976  29.500  33.902  1.00  0.00    -0.203 F 
ATOM     85  C   UNL A   1      46.784  27.993  35.521  1.00  0.00     0.198 A 
ATOM     86  C   UNL A   1      45.435  26.129  36.206  1.00  0.00     0.198 A 
ATOM     87  F   UNL A   1      43.318  25.789  35.236  1.00  0.00    -0.203 F 
ATOM     88  F   UNL A   1      47.927  28.688  35.597  1.00  0.00    -0.200 F 
ATOM     89  C   UNL A   1      46.607  26.863  36.306  1.00  0.00     0.200 A 
ATOM     90  F   UNL A   1      45.257  25.044  36.971  1.00  0.00    -0.200 F 
ATOM     91  F   UNL A   1      47.570  26.477  37.154  1.00  0.00    -0.200 F 
ENDBRANCH  58  81
ENDBRANCH  32  33
ENDBRANCH  24  27
ENDBRANCH  22  23
ENDBRANCH  21  22
ENDBRANCH   1  21
TORSDOF 14
ENDMDL
