MODEL 1
REMARK VINA RESULT:     -12.2      0.000      0.000
REMARK SMILES CCC[C@](C)(C(=O)NCCCCNC(=O)c1ccc(-c2c3nc(c(-c4c(F)c(F)c(F)c(F)c4F)c4ccc([nH]4)c(-c4c(F)c(F)c(F)c(F)c4F)c4nc(c(-c5c(F)c(F)c(F)c(F)c5F)c5ccc2[nH]5)C=C4)C=C3)cc1)[C@@H]1CCO[C@]2(CCSC2)C1
REMARK SMILES IDX 10 1 9 2 8 3 6 4 7 5 4 7 5 8 3 9 2 10 1 11 79 12 80 13 88 14
REMARK SMILES IDX 81 15 83 16 82 17 84 18 87 19 85 20 86 21 11 22 12 23 13 24
REMARK SMILES IDX 14 25 15 27 16 28 17 29 78 30 18 31 77 32 19 33 20 34 21 35
REMARK SMILES IDX 71 36 22 37 76 38 70 39 72 40 23 41 75 42 69 43 68 44 24 46
REMARK SMILES IDX 56 47 36 48 55 49 37 50 40 51 54 52 73 53 38 54 39 55 53 57
REMARK SMILES IDX 74 58 41 59 25 60 26 61 34 62 27 63 28 64 32 65 35 66 29 67
REMARK SMILES IDX 30 68 33 69 31 70 57 71 58 72 66 73 59 74 60 75 64 76 67 77
REMARK SMILES IDX 61 78 62 79 65 80 63 81 42 82 43 83 51 84 44 85 45 86 49 87
REMARK SMILES IDX 52 88 46 89 47 90 50 91 48 92
REMARK H PARENT 8 6 13 26 72 45 40 56
REMARK Flexibility Score: inf
ROOT
ATOM      1  C   UNL A   1      31.689  28.952  23.403  1.00  0.00     0.023 C 
ENDROOT
BRANCH   1   2
ATOM      2  C   UNL A   1      31.079  27.756  22.682  1.00  0.00     0.116 C 
BRANCH   2   3
ATOM      3  N   UNL A   1      31.925  27.099  21.702  1.00  0.00    -0.356 N 
ATOM      4  C   UNL A   1      32.569  25.883  21.728  1.00  0.00     0.226 C 
ATOM      5  O   UNL A   1      33.250  25.642  20.728  1.00  0.00    -0.274 OA
ATOM      6  H   UNL A   1      32.063  27.612  20.874  1.00  0.00     0.163 HD
BRANCH   4   7
ATOM      7  C   UNL A   1      32.565  24.928  22.996  1.00  0.00     0.049 C 
ATOM      8  C   UNL A   1      33.445  25.732  23.996  1.00  0.00     0.022 C 
BRANCH   7   9
ATOM      9  C   UNL A   1      31.102  24.730  23.474  1.00  0.00     0.016 C 
BRANCH   9  10
ATOM     10  C   UNL A   1      30.751  24.612  24.948  1.00  0.00    -0.002 C 
ATOM     11  C   UNL A   1      29.966  25.707  25.638  1.00  0.00     0.004 C 
ENDBRANCH   9  10
ENDBRANCH   7   9
BRANCH   7  12
ATOM     12  C   UNL A   1      33.320  23.510  22.722  1.00  0.00     0.009 C 
ATOM     13  C   UNL A   1      32.519  22.200  22.863  1.00  0.00     0.033 C 
ATOM     14  C   UNL A   1      34.774  23.288  23.310  1.00  0.00     0.041 C 
ATOM     15  C   UNL A   1      32.777  21.457  24.150  1.00  0.00     0.161 C 
ATOM     16  C   UNL A   1      35.029  22.185  24.418  1.00  0.00     0.078 C 
ATOM     17  O   UNL A   1      34.147  21.077  24.198  1.00  0.00    -0.374 OA
ATOM     18  C   UNL A   1      34.967  22.506  25.938  1.00  0.00     0.047 C 
ATOM     19  C   UNL A   1      36.481  21.653  24.300  1.00  0.00     0.105 C 
ATOM     20  C   UNL A   1      36.200  23.284  26.390  1.00  0.00     0.072 C 
ATOM     21  S   UNL A   1      37.526  22.769  25.281  1.00  0.00    -0.159 SA
ENDBRANCH   7  12
ENDBRANCH   4   7
ENDBRANCH   2   3
ENDBRANCH   1   2
BRANCH   1  22
ATOM     22  C   UNL A   1      31.704  28.878  24.928  1.00  0.00     0.023 C 
BRANCH  22  23
ATOM     23  C   UNL A   1      32.860  29.596  25.620  1.00  0.00     0.116 C 
BRANCH  23  24
ATOM     24  N   UNL A   1      32.476  30.842  26.275  1.00  0.00    -0.352 N 
ATOM     25  C   UNL A   1      33.158  31.597  27.203  1.00  0.00     0.251 C 
ATOM     26  H   UNL A   1      31.596  31.199  26.012  1.00  0.00     0.163 HD
ATOM     27  O   UNL A   1      32.631  32.579  27.720  1.00  0.00    -0.269 OA
BRANCH  25  28
ATOM     28  C   UNL A   1      34.515  31.189  27.616  1.00  0.00     0.039 A 
ATOM     29  C   UNL A   1      35.517  32.156  27.708  1.00  0.00     0.014 A 
ATOM     30  C   UNL A   1      34.769  29.869  27.993  1.00  0.00     0.014 A 
ATOM     31  C   UNL A   1      36.738  31.827  28.303  1.00  0.00     0.010 A 
ATOM     32  C   UNL A   1      35.945  29.568  28.667  1.00  0.00     0.010 A 
ATOM     33  C   UNL A   1      36.932  30.549  28.851  1.00  0.00    -0.014 A 
BRANCH  33  34
ATOM     34  C   UNL A   1      38.136  30.222  29.660  1.00  0.00     0.031 A 
ATOM     35  C   UNL A   1      39.148  29.242  29.142  1.00  0.00     0.074 A 
ATOM     36  C   UNL A   1      38.258  30.727  30.904  1.00  0.00     0.049 A 
ATOM     37  N   UNL A   1      40.192  28.733  29.745  1.00  0.00    -0.248 NA
ATOM     38  C   UNL A   1      38.941  28.740  27.774  1.00  0.00     0.031 C 
ATOM     39  C   UNL A   1      37.313  31.644  31.545  1.00  0.00     0.029 A 
ATOM     40  N   UNL A   1      39.220  30.524  31.864  1.00  0.00    -0.354 N 
ATOM     41  C   UNL A   1      40.753  27.842  28.840  1.00  0.00     0.074 A 
ATOM     42  C   UNL A   1      39.904  27.837  27.668  1.00  0.00     0.031 C 
ATOM     43  C   UNL A   1      37.749  31.939  32.780  1.00  0.00     0.029 A 
ATOM     44  C   UNL A   1      38.979  31.196  33.039  1.00  0.00     0.049 A 
ATOM     45  H   UNL A   1      40.008  29.951  31.724  1.00  0.00     0.167 HD
ATOM     46  C   UNL A   1      41.886  27.112  28.967  1.00  0.00     0.037 A 
ATOM     47  C   UNL A   1      39.662  31.200  34.200  1.00  0.00     0.037 A 
ATOM     48  C   UNL A   1      42.743  27.143  30.122  1.00  0.00     0.049 A 
ATOM     49  C   UNL A   1      40.910  30.367  34.320  1.00  0.00     0.074 A 
ATOM     50  C   UNL A   1      43.954  26.503  30.314  1.00  0.00     0.029 A 
ATOM     51  N   UNL A   1      42.474  27.850  31.285  1.00  0.00    -0.354 N 
ATOM     52  N   UNL A   1      41.475  29.591  33.427  1.00  0.00    -0.248 NA
ATOM     53  C   UNL A   1      41.615  30.408  35.608  1.00  0.00     0.031 C 
ATOM     54  C   UNL A   1      44.393  26.779  31.612  1.00  0.00     0.029 A 
ATOM     55  C   UNL A   1      43.482  27.634  32.211  1.00  0.00     0.049 A 
ATOM     56  H   UNL A   1      41.685  28.420  31.432  1.00  0.00     0.167 HD
ATOM     57  C   UNL A   1      42.610  29.071  34.034  1.00  0.00     0.074 A 
ATOM     58  C   UNL A   1      42.664  29.633  35.367  1.00  0.00     0.031 C 
ATOM     59  C   UNL A   1      43.522  28.204  33.534  1.00  0.00     0.037 A 
BRANCH  46  60
ATOM     60  C   UNL A   1      42.270  26.219  27.822  1.00  0.00     0.064 A 
ATOM     61  C   UNL A   1      41.684  24.958  27.645  1.00  0.00     0.173 A 
ATOM     62  C   UNL A   1      43.204  26.649  26.868  1.00  0.00     0.173 A 
ATOM     63  F   UNL A   1      40.794  24.495  28.536  1.00  0.00    -0.203 F 
ATOM     64  C   UNL A   1      42.039  24.147  26.571  1.00  0.00     0.198 A 
ATOM     65  C   UNL A   1      43.534  25.848  25.777  1.00  0.00     0.198 A 
ATOM     66  F   UNL A   1      43.791  27.850  26.987  1.00  0.00    -0.203 F 
ATOM     67  F   UNL A   1      41.501  22.925  26.449  1.00  0.00    -0.200 F 
ATOM     68  C   UNL A   1      42.956  24.596  25.633  1.00  0.00     0.200 A 
ATOM     69  F   UNL A   1      44.411  26.289  24.865  1.00  0.00    -0.200 F 
ATOM     70  F   UNL A   1      43.290  23.818  24.594  1.00  0.00    -0.200 F 
ENDBRANCH  46  60
BRANCH  47  71
ATOM     71  C   UNL A   1      39.185  32.023  35.344  1.00  0.00     0.064 A 
ATOM     72  C   UNL A   1      39.519  33.381  35.442  1.00  0.00     0.173 A 
ATOM     73  C   UNL A   1      38.398  31.470  36.365  1.00  0.00     0.173 A 
ATOM     74  F   UNL A   1      40.288  33.949  34.502  1.00  0.00    -0.203 F 
ATOM     75  C   UNL A   1      39.101  34.149  36.526  1.00  0.00     0.198 A 
ATOM     76  C   UNL A   1      37.956  32.247  37.435  1.00  0.00     0.198 A 
ATOM     77  F   UNL A   1      38.047  30.177  36.319  1.00  0.00    -0.203 F 
ATOM     78  F   UNL A   1      39.475  35.432  36.618  1.00  0.00    -0.200 F 
ATOM     79  C   UNL A   1      38.316  33.584  37.519  1.00  0.00     0.200 A 
ATOM     80  F   UNL A   1      37.185  31.700  38.384  1.00  0.00    -0.200 F 
ATOM     81  F   UNL A   1      37.912  34.324  38.560  1.00  0.00    -0.200 F 
ENDBRANCH  47  71
BRANCH  59  82
ATOM     82  C   UNL A   1      44.672  27.823  34.419  1.00  0.00     0.064 A 
ATOM     83  C   UNL A   1      44.608  26.705  35.264  1.00  0.00     0.173 A 
ATOM     84  C   UNL A   1      45.872  28.549  34.379  1.00  0.00     0.173 A 
ATOM     85  F   UNL A   1      43.477  25.989  35.350  1.00  0.00    -0.203 F 
ATOM     86  C   UNL A   1      45.698  26.337  36.047  1.00  0.00     0.198 A 
ATOM     87  C   UNL A   1      46.970  28.159  35.140  1.00  0.00     0.198 A 
ATOM     88  F   UNL A   1      45.987  29.622  33.583  1.00  0.00    -0.203 F 
ATOM     89  F   UNL A   1      45.602  25.287  36.874  1.00  0.00    -0.200 F 
ATOM     90  C   UNL A   1      46.881  27.057  35.977  1.00  0.00     0.200 A 
ATOM     91  F   UNL A   1      48.117  28.849  35.061  1.00  0.00    -0.200 F 
ATOM     92  F   UNL A   1      47.934  26.693  36.720  1.00  0.00    -0.200 F 
ENDBRANCH  59  82
ENDBRANCH  33  34
ENDBRANCH  25  28
ENDBRANCH  23  24
ENDBRANCH  22  23
ENDBRANCH   1  22
TORSDOF 14
ENDMDL
MODEL 2
REMARK VINA RESULT:     -12.1      1.966      3.699
REMARK SMILES CCC[C@](C)(C(=O)NCCCCNC(=O)c1ccc(-c2c3nc(c(-c4c(F)c(F)c(F)c(F)c4F)c4ccc([nH]4)c(-c4c(F)c(F)c(F)c(F)c4F)c4nc(c(-c5c(F)c(F)c(F)c(F)c5F)c5ccc2[nH]5)C=C4)C=C3)cc1)[C@@H]1CCO[C@]2(CCSC2)C1
REMARK SMILES IDX 10 1 9 2 8 3 6 4 7 5 4 7 5 8 3 9 2 10 1 11 79 12 80 13 88 14
REMARK SMILES IDX 81 15 83 16 82 17 84 18 87 19 85 20 86 21 11 22 12 23 13 24
REMARK SMILES IDX 14 25 15 27 16 28 17 29 78 30 18 31 77 32 19 33 20 34 21 35
REMARK SMILES IDX 71 36 22 37 76 38 70 39 72 40 23 41 75 42 69 43 68 44 24 46
REMARK SMILES IDX 56 47 36 48 55 49 37 50 40 51 54 52 73 53 38 54 39 55 53 57
REMARK SMILES IDX 74 58 41 59 25 60 26 61 34 62 27 63 28 64 32 65 35 66 29 67
REMARK SMILES IDX 30 68 33 69 31 70 57 71 58 72 66 73 59 74 60 75 64 76 67 77
REMARK SMILES IDX 61 78 62 79 65 80 63 81 42 82 43 83 51 84 44 85 45 86 49 87
REMARK SMILES IDX 52 88 46 89 47 90 50 91 48 92
REMARK H PARENT 8 6 13 26 72 45 40 56
REMARK Flexibility Score: inf
ROOT
ATOM      1  C   UNL A   1      34.822  30.450  27.752  1.00  0.00     0.023 C 
ENDROOT
BRANCH   1   2
ATOM      2  C   UNL A   1      34.223  29.348  26.886  1.00  0.00     0.116 C 
BRANCH   2   3
ATOM      3  N   UNL A   1      33.089  28.636  27.449  1.00  0.00    -0.356 N 
ATOM      4  C   UNL A   1      32.079  27.919  26.850  1.00  0.00     0.226 C 
ATOM      5  O   UNL A   1      31.239  27.466  27.631  1.00  0.00    -0.274 OA
ATOM      6  H   UNL A   1      33.033  28.672  28.431  1.00  0.00     0.163 HD
BRANCH   4   7
ATOM      7  C   UNL A   1      31.915  27.804  25.275  1.00  0.00     0.049 C 
ATOM      8  C   UNL A   1      30.833  26.693  25.155  1.00  0.00     0.022 C 
BRANCH   7   9
ATOM      9  C   UNL A   1      31.462  29.179  24.714  1.00  0.00     0.016 C 
BRANCH   9  10
ATOM     10  C   UNL A   1      30.240  29.314  23.821  1.00  0.00    -0.002 C 
ATOM     11  C   UNL A   1      30.400  29.580  22.339  1.00  0.00     0.004 C 
ENDBRANCH   9  10
ENDBRANCH   7   9
BRANCH   7  12
ATOM     12  C   UNL A   1      33.258  27.251  24.537  1.00  0.00     0.009 C 
ATOM     13  C   UNL A   1      33.620  27.797  23.142  1.00  0.00     0.033 C 
ATOM     14  C   UNL A   1      33.572  25.699  24.578  1.00  0.00     0.041 C 
ATOM     15  C   UNL A   1      33.280  26.863  22.008  1.00  0.00     0.161 C 
ATOM     16  C   UNL A   1      33.570  24.846  23.243  1.00  0.00     0.078 C 
ATOM     17  O   UNL A   1      34.028  25.663  22.157  1.00  0.00    -0.374 OA
ATOM     18  C   UNL A   1      32.301  24.105  22.735  1.00  0.00     0.047 C 
ATOM     19  C   UNL A   1      34.557  23.658  23.380  1.00  0.00     0.105 C 
ATOM     20  C   UNL A   1      32.021  22.855  23.565  1.00  0.00     0.072 C 
ATOM     21  S   UNL A   1      33.633  22.301  24.156  1.00  0.00    -0.159 SA
ENDBRANCH   7  12
ENDBRANCH   4   7
ENDBRANCH   2   3
ENDBRANCH   1   2
BRANCH   1  22
ATOM     22  C   UNL A   1      34.359  31.871  27.443  1.00  0.00     0.023 C 
BRANCH  22  23
ATOM     23  C   UNL A   1      32.867  32.140  27.618  1.00  0.00     0.116 C 
BRANCH  23  24
ATOM     24  N   UNL A   1      32.521  33.557  27.657  1.00  0.00    -0.352 N 
ATOM     25  C   UNL A   1      33.066  34.578  28.403  1.00  0.00     0.251 C 
ATOM     26  H   UNL A   1      31.786  33.824  27.058  1.00  0.00     0.163 HD
ATOM     27  O   UNL A   1      32.577  35.704  28.374  1.00  0.00    -0.269 OA
BRANCH  25  28
ATOM     28  C   UNL A   1      34.217  34.299  29.284  1.00  0.00     0.039 A 
ATOM     29  C   UNL A   1      33.997  33.676  30.514  1.00  0.00     0.014 A 
ATOM     30  C   UNL A   1      35.516  34.574  28.854  1.00  0.00     0.014 A 
ATOM     31  C   UNL A   1      35.086  33.211  31.254  1.00  0.00     0.010 A 
ATOM     32  C   UNL A   1      36.592  34.030  29.543  1.00  0.00     0.010 A 
ATOM     33  C   UNL A   1      36.388  33.322  30.738  1.00  0.00    -0.014 A 
BRANCH  33  34
ATOM     34  C   UNL A   1      37.547  32.669  31.400  1.00  0.00     0.031 A 
ATOM     35  C   UNL A   1      38.228  31.501  30.746  1.00  0.00     0.074 A 
ATOM     36  C   UNL A   1      37.914  33.060  32.637  1.00  0.00     0.049 A 
ATOM     37  N   UNL A   1      39.168  30.721  31.216  1.00  0.00    -0.248 NA
ATOM     38  C   UNL A   1      37.768  31.140  29.396  1.00  0.00     0.031 C 
ATOM     39  C   UNL A   1      37.294  34.143  33.403  1.00  0.00     0.029 A 
ATOM     40  N   UNL A   1      38.886  32.577  33.480  1.00  0.00    -0.354 N 
ATOM     41  C   UNL A   1      39.398  29.771  30.231  1.00  0.00     0.074 A 
ATOM     42  C   UNL A   1      38.463  30.037  29.160  1.00  0.00     0.031 C 
ATOM     43  C   UNL A   1      37.910  34.255  34.591  1.00  0.00     0.029 A 
ATOM     44  C   UNL A   1      38.937  33.222  34.693  1.00  0.00     0.049 A 
ATOM     45  H   UNL A   1      39.489  31.838  33.238  1.00  0.00     0.167 HD
ATOM     46  C   UNL A   1      40.322  28.782  30.212  1.00  0.00     0.037 A 
ATOM     47  C   UNL A   1      39.711  32.996  35.771  1.00  0.00     0.037 A 
ATOM     48  C   UNL A   1      41.270  28.540  31.267  1.00  0.00     0.049 A 
ATOM     49  C   UNL A   1      40.719  31.879  35.730  1.00  0.00     0.074 A 
ATOM     50  C   UNL A   1      42.298  27.615  31.306  1.00  0.00     0.029 A 
ATOM     51  N   UNL A   1      41.301  29.227  32.472  1.00  0.00    -0.354 N 
ATOM     52  N   UNL A   1      40.983  31.040  34.759  1.00  0.00    -0.248 NA
ATOM     53  C   UNL A   1      41.537  31.677  36.934  1.00  0.00     0.031 C 
ATOM     54  C   UNL A   1      42.918  27.705  32.556  1.00  0.00     0.029 A 
ATOM     55  C   UNL A   1      42.311  28.722  33.275  1.00  0.00     0.049 A 
ATOM     56  H   UNL A   1      40.696  29.963  32.720  1.00  0.00     0.167 HD
ATOM     57  C   UNL A   1      42.008  30.226  35.223  1.00  0.00     0.074 A 
ATOM     58  C   UNL A   1      42.332  30.685  36.557  1.00  0.00     0.031 C 
ATOM     59  C   UNL A   1      42.623  29.192  34.601  1.00  0.00     0.037 A 
BRANCH  46  60
ATOM     60  C   UNL A   1      40.357  27.886  29.008  1.00  0.00     0.064 A 
ATOM     61  C   UNL A   1      41.124  28.204  27.877  1.00  0.00     0.173 A 
ATOM     62  C   UNL A   1      39.650  26.674  29.002  1.00  0.00     0.173 A 
ATOM     63  F   UNL A   1      41.810  29.356  27.827  1.00  0.00    -0.203 F 
ATOM     64  C   UNL A   1      41.159  27.356  26.773  1.00  0.00     0.198 A 
ATOM     65  C   UNL A   1      39.712  25.814  27.909  1.00  0.00     0.198 A 
ATOM     66  F   UNL A   1      38.905  26.320  30.060  1.00  0.00    -0.203 F 
ATOM     67  F   UNL A   1      41.860  27.703  25.685  1.00  0.00    -0.200 F 
ATOM     68  C   UNL A   1      40.460  26.158  26.794  1.00  0.00     0.200 A 
ATOM     69  F   UNL A   1      39.047  24.651  27.935  1.00  0.00    -0.200 F 
ATOM     70  F   UNL A   1      40.502  25.338  25.734  1.00  0.00    -0.200 F 
ENDBRANCH  46  60
BRANCH  47  71
ATOM     71  C   UNL A   1      39.569  33.847  36.984  1.00  0.00     0.064 A 
ATOM     72  C   UNL A   1      38.774  33.435  38.063  1.00  0.00     0.173 A 
ATOM     73  C   UNL A   1      40.215  35.087  37.087  1.00  0.00     0.173 A 
ATOM     74  F   UNL A   1      38.118  32.266  38.002  1.00  0.00    -0.203 F 
ATOM     75  C   UNL A   1      38.613  34.240  39.188  1.00  0.00     0.198 A 
ATOM     76  C   UNL A   1      40.077  35.879  38.226  1.00  0.00     0.198 A 
ATOM     77  F   UNL A   1      40.991  35.527  36.086  1.00  0.00    -0.203 F 
ATOM     78  F   UNL A   1      37.809  33.843  40.183  1.00  0.00    -0.200 F 
ATOM     79  C   UNL A   1      39.269  35.459  39.272  1.00  0.00     0.200 A 
ATOM     80  F   UNL A   1      40.725  37.049  38.308  1.00  0.00    -0.200 F 
ATOM     81  F   UNL A   1      39.117  36.231  40.356  1.00  0.00    -0.200 F 
ENDBRANCH  47  71
BRANCH  59  82
ATOM     82  C   UNL A   1      43.724  28.494  35.344  1.00  0.00     0.064 A 
ATOM     83  C   UNL A   1      43.464  27.403  36.186  1.00  0.00     0.173 A 
ATOM     84  C   UNL A   1      45.060  28.885  35.166  1.00  0.00     0.173 A 
ATOM     85  F   UNL A   1      42.202  27.003  36.401  1.00  0.00    -0.203 F 
ATOM     86  C   UNL A   1      44.501  26.737  36.834  1.00  0.00     0.198 A 
ATOM     87  C   UNL A   1      46.096  28.197  35.792  1.00  0.00     0.198 A 
ATOM     88  F   UNL A   1      45.362  29.918  34.367  1.00  0.00    -0.203 F 
ATOM     89  F   UNL A   1      44.226  25.721  37.663  1.00  0.00    -0.200 F 
ATOM     90  C   UNL A   1      45.816  27.128  36.628  1.00  0.00     0.200 A 
ATOM     91  F   UNL A   1      47.367  28.567  35.581  1.00  0.00    -0.200 F 
ATOM     92  F   UNL A   1      46.813  26.476  37.242  1.00  0.00    -0.200 F 
ENDBRANCH  59  82
ENDBRANCH  33  34
ENDBRANCH  25  28
ENDBRANCH  23  24
ENDBRANCH  22  23
ENDBRANCH   1  22
TORSDOF 14
ENDMDL
MODEL 3
REMARK VINA RESULT:     -12.1      4.873     10.147
REMARK SMILES CCC[C@](C)(C(=O)NCCCCNC(=O)c1ccc(-c2c3nc(c(-c4c(F)c(F)c(F)c(F)c4F)c4ccc([nH]4)c(-c4c(F)c(F)c(F)c(F)c4F)c4nc(c(-c5c(F)c(F)c(F)c(F)c5F)c5ccc2[nH]5)C=C4)C=C3)cc1)[C@@H]1CCO[C@]2(CCSC2)C1
REMARK SMILES IDX 10 1 9 2 8 3 6 4 7 5 4 7 5 8 3 9 2 10 1 11 79 12 80 13 88 14
REMARK SMILES IDX 81 15 83 16 82 17 84 18 87 19 85 20 86 21 11 22 12 23 13 24
REMARK SMILES IDX 14 25 15 27 16 28 17 29 78 30 18 31 77 32 19 33 20 34 21 35
REMARK SMILES IDX 71 36 22 37 76 38 70 39 72 40 23 41 75 42 69 43 68 44 24 46
REMARK SMILES IDX 56 47 36 48 55 49 37 50 40 51 54 52 73 53 38 54 39 55 53 57
REMARK SMILES IDX 74 58 41 59 25 60 26 61 34 62 27 63 28 64 32 65 35 66 29 67
REMARK SMILES IDX 30 68 33 69 31 70 57 71 58 72 66 73 59 74 60 75 64 76 67 77
REMARK SMILES IDX 61 78 62 79 65 80 63 81 42 82 43 83 51 84 44 85 45 86 49 87
REMARK SMILES IDX 52 88 46 89 47 90 50 91 48 92
REMARK H PARENT 8 6 13 26 72 45 40 56
REMARK Flexibility Score: inf
ROOT
ATOM      1  C   UNL A   1      36.534  21.346  25.622  1.00  0.00     0.023 C 
ENDROOT
BRANCH   1   2
ATOM      2  C   UNL A   1      36.175  22.801  25.344  1.00  0.00     0.116 C 
BRANCH   2   3
ATOM      3  N   UNL A   1      35.706  23.101  24.003  1.00  0.00    -0.356 N 
ATOM      4  C   UNL A   1      34.451  23.032  23.444  1.00  0.00     0.226 C 
ATOM      5  O   UNL A   1      34.406  23.326  22.246  1.00  0.00    -0.274 OA
ATOM      6  H   UNL A   1      36.409  23.406  23.385  1.00  0.00     0.163 HD
BRANCH   4   7
ATOM      7  C   UNL A   1      33.184  22.479  24.224  1.00  0.00     0.049 C 
ATOM      8  C   UNL A   1      32.039  22.783  23.215  1.00  0.00     0.022 C 
BRANCH   7   9
ATOM      9  C   UNL A   1      33.384  20.965  24.502  1.00  0.00     0.016 C 
BRANCH   9  10
ATOM     10  C   UNL A   1      32.484  19.912  23.877  1.00  0.00    -0.002 C 
ATOM     11  C   UNL A   1      32.915  18.461  23.839  1.00  0.00     0.004 C 
ENDBRANCH   9  10
ENDBRANCH   7   9
BRANCH   7  12
ATOM     12  C   UNL A   1      32.863  23.317  25.584  1.00  0.00     0.009 C 
ATOM     13  C   UNL A   1      31.868  22.729  26.604  1.00  0.00     0.033 C 
ATOM     14  C   UNL A   1      32.631  24.881  25.485  1.00  0.00     0.041 C 
ATOM     15  C   UNL A   1      30.496  23.352  26.555  1.00  0.00     0.161 C 
ATOM     16  C   UNL A   1      31.218  25.505  25.836  1.00  0.00     0.078 C 
ATOM     17  O   UNL A   1      30.603  24.733  26.876  1.00  0.00    -0.374 OA
ATOM     18  C   UNL A   1      30.126  25.743  24.756  1.00  0.00     0.047 C 
ATOM     19  C   UNL A   1      31.403  26.947  26.375  1.00  0.00     0.105 C 
ATOM     20  C   UNL A   1      30.467  26.944  23.878  1.00  0.00     0.072 C 
ATOM     21  S   UNL A   1      31.440  28.043  24.927  1.00  0.00    -0.159 SA
ENDBRANCH   7  12
ENDBRANCH   4   7
ENDBRANCH   2   3
ENDBRANCH   1   2
BRANCH   1  22
ATOM     22  C   UNL A   1      37.836  20.848  25.001  1.00  0.00     0.023 C 
BRANCH  22  23
ATOM     23  C   UNL A   1      39.076  20.941  25.886  1.00  0.00     0.116 C 
BRANCH  23  24
ATOM     24  N   UNL A   1      39.877  19.721  25.915  1.00  0.00    -0.352 N 
ATOM     25  C   UNL A   1      41.228  19.557  26.124  1.00  0.00     0.251 C 
ATOM     26  H   UNL A   1      39.374  18.888  25.763  1.00  0.00     0.163 HD
ATOM     27  O   UNL A   1      41.747  18.449  26.017  1.00  0.00    -0.269 OA
BRANCH  25  28
ATOM     28  C   UNL A   1      42.064  20.734  26.428  1.00  0.00     0.039 A 
ATOM     29  C   UNL A   1      42.570  21.499  25.376  1.00  0.00     0.014 A 
ATOM     30  C   UNL A   1      42.271  21.128  27.751  1.00  0.00     0.014 A 
ATOM     31  C   UNL A   1      43.173  22.729  25.647  1.00  0.00     0.010 A 
ATOM     32  C   UNL A   1      42.785  22.392  28.013  1.00  0.00     0.010 A 
ATOM     33  C   UNL A   1      43.220  23.216  26.964  1.00  0.00    -0.014 A 
BRANCH  33  34
ATOM     34  C   UNL A   1      43.674  24.598  27.268  1.00  0.00     0.031 A 
ATOM     35  C   UNL A   1      42.690  25.626  27.748  1.00  0.00     0.074 A 
ATOM     36  C   UNL A   1      44.949  24.952  27.007  1.00  0.00     0.049 A 
ATOM     37  N   UNL A   1      42.862  26.908  27.946  1.00  0.00    -0.248 NA
ATOM     38  C   UNL A   1      41.320  25.156  28.009  1.00  0.00     0.031 C 
ATOM     39  C   UNL A   1      45.987  24.062  26.484  1.00  0.00     0.029 A 
ATOM     40  N   UNL A   1      45.586  26.163  27.128  1.00  0.00    -0.354 N 
ATOM     41  C   UNL A   1      41.623  27.398  28.335  1.00  0.00     0.074 A 
ATOM     42  C   UNL A   1      40.695  26.289  28.293  1.00  0.00     0.031 C 
ATOM     43  C   UNL A   1      47.132  24.749  26.346  1.00  0.00     0.029 A 
ATOM     44  C   UNL A   1      46.900  26.140  26.725  1.00  0.00     0.049 A 
ATOM     45  H   UNL A   1      45.143  26.973  27.470  1.00  0.00     0.167 HD
ATOM     46  C   UNL A   1      41.295  28.655  28.716  1.00  0.00     0.037 A 
ATOM     47  C   UNL A   1      47.811  27.129  26.653  1.00  0.00     0.037 A 
ATOM     48  C   UNL A   1      42.228  29.749  28.785  1.00  0.00     0.049 A 
ATOM     49  C   UNL A   1      47.416  28.521  27.067  1.00  0.00     0.074 A 
ATOM     50  C   UNL A   1      42.011  31.038  29.235  1.00  0.00     0.029 A 
ATOM     51  N   UNL A   1      43.555  29.680  28.385  1.00  0.00    -0.354 N 
ATOM     52  N   UNL A   1      46.262  28.955  27.513  1.00  0.00    -0.248 NA
ATOM     53  C   UNL A   1      48.448  29.562  26.968  1.00  0.00     0.031 C 
ATOM     54  C   UNL A   1      43.192  31.766  29.060  1.00  0.00     0.029 A 
ATOM     55  C   UNL A   1      44.160  30.916  28.549  1.00  0.00     0.049 A 
ATOM     56  H   UNL A   1      44.000  28.874  28.038  1.00  0.00     0.167 HD
ATOM     57  C   UNL A   1      46.434  30.308  27.767  1.00  0.00     0.074 A 
ATOM     58  C   UNL A   1      47.809  30.622  27.444  1.00  0.00     0.031 C 
ATOM     59  C   UNL A   1      45.532  31.211  28.225  1.00  0.00     0.037 A 
BRANCH  46  60
ATOM     60  C   UNL A   1      39.866  28.917  29.094  1.00  0.00     0.064 A 
ATOM     61  C   UNL A   1      38.916  29.322  28.145  1.00  0.00     0.173 A 
ATOM     62  C   UNL A   1      39.432  28.719  30.414  1.00  0.00     0.173 A 
ATOM     63  F   UNL A   1      39.282  29.536  26.872  1.00  0.00    -0.203 F 
ATOM     64  C   UNL A   1      37.591  29.546  28.508  1.00  0.00     0.198 A 
ATOM     65  C   UNL A   1      38.099  28.915  30.767  1.00  0.00     0.198 A 
ATOM     66  F   UNL A   1      40.299  28.327  31.360  1.00  0.00    -0.203 F 
ATOM     67  F   UNL A   1      36.712  29.980  27.593  1.00  0.00    -0.200 F 
ATOM     68  C   UNL A   1      37.182  29.334  29.816  1.00  0.00     0.200 A 
ATOM     69  F   UNL A   1      37.703  28.697  32.028  1.00  0.00    -0.200 F 
ATOM     70  F   UNL A   1      35.903  29.542  30.161  1.00  0.00    -0.200 F 
ENDBRANCH  46  60
BRANCH  47  71
ATOM     71  C   UNL A   1      49.190  26.842  26.173  1.00  0.00     0.064 A 
ATOM     72  C   UNL A   1      49.529  27.000  24.822  1.00  0.00     0.173 A 
ATOM     73  C   UNL A   1      50.192  26.398  27.049  1.00  0.00     0.173 A 
ATOM     74  F   UNL A   1      48.599  27.401  23.942  1.00  0.00    -0.203 F 
ATOM     75  C   UNL A   1      50.810  26.703  24.362  1.00  0.00     0.198 A 
ATOM     76  C   UNL A   1      51.481  26.130  26.592  1.00  0.00     0.198 A 
ATOM     77  F   UNL A   1      49.922  26.234  28.352  1.00  0.00    -0.203 F 
ATOM     78  F   UNL A   1      51.092  26.817  23.057  1.00  0.00    -0.200 F 
ATOM     79  C   UNL A   1      51.787  26.274  25.247  1.00  0.00     0.200 A 
ATOM     80  F   UNL A   1      52.425  25.731  27.454  1.00  0.00    -0.200 F 
ATOM     81  F   UNL A   1      53.019  25.993  24.804  1.00  0.00    -0.200 F 
ENDBRANCH  47  71
BRANCH  59  82
ATOM     82  C   UNL A   1      46.006  32.621  28.426  1.00  0.00     0.064 A 
ATOM     83  C   UNL A   1      45.885  33.585  27.415  1.00  0.00     0.173 A 
ATOM     84  C   UNL A   1      46.531  33.025  29.662  1.00  0.00     0.173 A 
ATOM     85  F   UNL A   1      45.404  33.243  26.210  1.00  0.00    -0.203 F 
ATOM     86  C   UNL A   1      46.288  34.900  27.630  1.00  0.00     0.198 A 
ATOM     87  C   UNL A   1      46.903  34.347  29.883  1.00  0.00     0.198 A 
ATOM     88  F   UNL A   1      46.662  32.142  30.663  1.00  0.00    -0.203 F 
ATOM     89  F   UNL A   1      46.198  35.797  26.638  1.00  0.00    -0.200 F 
ATOM     90  C   UNL A   1      46.786  35.283  28.867  1.00  0.00     0.200 A 
ATOM     91  F   UNL A   1      47.372  34.718  31.084  1.00  0.00    -0.200 F 
ATOM     92  F   UNL A   1      47.159  36.552  29.077  1.00  0.00    -0.200 F 
ENDBRANCH  59  82
ENDBRANCH  33  34
ENDBRANCH  25  28
ENDBRANCH  23  24
ENDBRANCH  22  23
ENDBRANCH   1  22
TORSDOF 14
ENDMDL
