MODEL 1
REMARK VINA RESULT:      -9.4      0.000      0.000
REMARK SMILES CC[C@@H](Oc1ccccc1/C=C1/SC(=S)N(c2ccc(NC(C)=O)cc2)C1=O)C(=O)NCCCCNC(=O)c1ccc(-c2c3nc(c(-c4c(F)c(F)c(F)c(F)c4F)c4ccc([nH]4)c(-c4c(F)c(F)c(F)c(F)c4F)c4nc(c(-c5c(F)c(F)c(F)c(F)c5F)c5ccc2[nH]5)C=C4)C=C3)cc1
REMARK SMILES IDX 32 1 31 2 29 3 30 4 3 6 2 7 1 8 4 9 5 10 6 11 10 12 7 13
REMARK SMILES IDX 9 14 8 15 11 16 12 17 13 18 27 19 14 20 16 21 28 22 15 23
REMARK SMILES IDX 17 24 18 25 26 26 19 27 25 28 20 29 21 30 22 31 23 33 24 34
REMARK SMILES IDX 33 35 34 36 35 37 36 38 37 39 38 41 39 42 40 43 101 44 41 45
REMARK SMILES IDX 100 46 42 47 43 48 44 49 94 50 45 51 99 52 93 53 95 54 46 55
REMARK SMILES IDX 98 56 92 57 91 58 47 60 79 61 59 62 78 63 60 64 63 65 77 66
REMARK SMILES IDX 96 67 61 68 62 69 76 71 97 72 64 73 48 74 49 75 57 76 50 77
REMARK SMILES IDX 51 78 55 79 58 80 52 81 53 82 56 83 54 84 80 85 81 86 89 87
REMARK SMILES IDX 82 88 83 89 87 90 90 91 84 92 85 93 88 94 86 95 65 96 66 97
REMARK SMILES IDX 74 98 67 99 68 100 72 101 75 102 69 103 70 104 73 105 71 106
REMARK H PARENT 31 5 21 32 36 40 95 59 63 70
REMARK Flexibility Score: inf
ROOT
ATOM      1  C   UNL A   1      44.811  23.759  26.640  1.00  0.00     0.116 C 
ENDROOT
BRANCH   1   2
ATOM      2  N   UNL A   1      44.340  24.312  27.894  1.00  0.00    -0.353 N 
ATOM      3  C   UNL A   1      43.062  24.554  28.324  1.00  0.00     0.261 C 
ATOM      4  O   UNL A   1      42.916  24.830  29.520  1.00  0.00    -0.271 OA
ATOM      5  H   UNL A   1      45.047  24.549  28.537  1.00  0.00     0.163 HD
BRANCH   3   6
ATOM      6  C   UNL A   1      41.855  24.615  27.356  1.00  0.00     0.261 C 
BRANCH   6   7
ATOM      7  C   UNL A   1      41.189  23.227  27.351  1.00  0.00     0.052 C 
ATOM      8  C   UNL A   1      39.669  23.313  27.285  1.00  0.00     0.008 C 
ENDBRANCH   6   7
BRANCH   6   9
ATOM      9  O   UNL A   1      40.915  25.620  27.739  1.00  0.00    -0.480 OA
BRANCH   9  10
ATOM     10  C   UNL A   1      41.147  26.865  27.213  1.00  0.00     0.127 A 
ATOM     11  C   UNL A   1      41.514  26.978  25.873  1.00  0.00     0.047 A 
ATOM     12  C   UNL A   1      41.209  27.989  28.059  1.00  0.00     0.018 A 
ATOM     13  C   UNL A   1      41.898  28.220  25.359  1.00  0.00     0.004 A 
ATOM     14  C   UNL A   1      41.565  29.234  27.527  1.00  0.00     0.012 A 
ATOM     15  C   UNL A   1      41.913  29.347  26.181  1.00  0.00     0.001 A 
BRANCH  12  16
ATOM     16  C   UNL A   1      40.961  27.899  29.501  1.00  0.00     0.033 C 
ATOM     17  C   UNL A   1      40.060  28.644  30.152  1.00  0.00     0.081 C 
ATOM     18  S   UNL A   1      39.870  28.597  31.863  1.00  0.00    -0.054 SA
ATOM     19  C   UNL A   1      39.114  29.629  29.554  1.00  0.00     0.270 C 
ATOM     20  C   UNL A   1      38.702  29.916  31.864  1.00  0.00     0.152 C 
ATOM     21  N   UNL A   1      38.452  30.311  30.563  1.00  0.00    -0.261 N 
ATOM     22  O   UNL A   1      38.917  29.759  28.353  1.00  0.00    -0.268 OA
ATOM     23  S   UNL A   1      38.143  30.574  33.292  1.00  0.00    -0.051 S 
BRANCH  21  24
ATOM     24  C   UNL A   1      37.496  31.284  30.189  1.00  0.00     0.051 A 
ATOM     25  C   UNL A   1      36.154  30.931  30.066  1.00  0.00     0.029 A 
ATOM     26  C   UNL A   1      37.907  32.571  29.832  1.00  0.00     0.029 A 
ATOM     27  C   UNL A   1      35.226  31.869  29.603  1.00  0.00     0.028 A 
ATOM     28  C   UNL A   1      36.969  33.522  29.426  1.00  0.00     0.028 A 
ATOM     29  C   UNL A   1      35.622  33.173  29.300  1.00  0.00     0.041 A 
BRANCH  29  30
ATOM     30  N   UNL A   1      34.728  34.185  28.899  1.00  0.00    -0.326 N 
ATOM     31  C   UNL A   1      33.818  34.847  29.698  1.00  0.00     0.221 C 
ATOM     32  H   UNL A   1      34.757  34.448  27.951  1.00  0.00     0.169 HD
ATOM     33  C   UNL A   1      33.181  36.024  29.004  1.00  0.00     0.114 C 
ATOM     34  O   UNL A   1      33.491  34.549  30.842  1.00  0.00    -0.275 OA
ENDBRANCH  29  30
ENDBRANCH  21  24
ENDBRANCH  12  16
ENDBRANCH   9  10
ENDBRANCH   6   9
ENDBRANCH   3   6
ENDBRANCH   1   2
BRANCH   1  35
ATOM     35  C   UNL A   1      46.312  23.936  26.406  1.00  0.00     0.023 C 
BRANCH  35  36
ATOM     36  C   UNL A   1      46.724  24.240  24.961  1.00  0.00     0.023 C 
BRANCH  36  37
ATOM     37  C   UNL A   1      47.896  25.210  24.773  1.00  0.00     0.116 C 
BRANCH  37  38
ATOM     38  N   UNL A   1      47.605  26.384  23.964  1.00  0.00    -0.352 N 
ATOM     39  C   UNL A   1      47.071  27.600  24.335  1.00  0.00     0.251 C 
ATOM     40  H   UNL A   1      47.824  26.297  23.009  1.00  0.00     0.163 HD
ATOM     41  O   UNL A   1      46.922  28.486  23.499  1.00  0.00    -0.269 OA
BRANCH  39  42
ATOM     42  C   UNL A   1      46.573  27.827  25.710  1.00  0.00     0.039 A 
ATOM     43  C   UNL A   1      47.401  28.541  26.585  1.00  0.00     0.014 A 
ATOM     44  C   UNL A   1      45.304  27.428  26.128  1.00  0.00     0.014 A 
ATOM     45  C   UNL A   1      46.904  28.988  27.808  1.00  0.00     0.010 A 
ATOM     46  C   UNL A   1      44.780  27.931  27.317  1.00  0.00     0.010 A 
ATOM     47  C   UNL A   1      45.561  28.760  28.138  1.00  0.00    -0.014 A 
BRANCH  47  48
ATOM     48  C   UNL A   1      44.922  29.494  29.257  1.00  0.00     0.031 A 
ATOM     49  C   UNL A   1      44.609  30.954  29.145  1.00  0.00     0.074 A 
ATOM     50  C   UNL A   1      44.721  28.841  30.419  1.00  0.00     0.049 A 
ATOM     51  N   UNL A   1      44.124  31.766  30.050  1.00  0.00    -0.248 NA
ATOM     52  C   UNL A   1      44.906  31.597  27.857  1.00  0.00     0.031 C 
ATOM     53  C   UNL A   1      45.053  27.434  30.666  1.00  0.00     0.029 A 
ATOM     54  N   UNL A   1      44.203  29.269  31.616  1.00  0.00    -0.354 N 
ATOM     55  C   UNL A   1      44.064  33.013  29.448  1.00  0.00     0.074 A 
ATOM     56  C   UNL A   1      44.603  32.863  28.112  1.00  0.00     0.031 C 
ATOM     57  C   UNL A   1      44.712  27.112  31.923  1.00  0.00     0.029 A 
ATOM     58  C   UNL A   1      44.172  28.294  32.583  1.00  0.00     0.049 A 
ATOM     59  H   UNL A   1      43.885  30.189  31.766  1.00  0.00     0.167 HD
ATOM     60  C   UNL A   1      43.585  34.171  29.959  1.00  0.00     0.037 A 
ATOM     61  C   UNL A   1      43.760  28.349  33.863  1.00  0.00     0.037 A 
ATOM     62  C   UNL A   1      43.033  34.306  31.283  1.00  0.00     0.049 A 
ATOM     63  C   UNL A   1      43.216  29.644  34.397  1.00  0.00     0.074 A 
ATOM     64  C   UNL A   1      42.467  35.423  31.874  1.00  0.00     0.029 A 
ATOM     65  N   UNL A   1      42.981  33.287  32.223  1.00  0.00    -0.354 N 
ATOM     66  N   UNL A   1      43.093  30.800  33.790  1.00  0.00    -0.248 NA
ATOM     67  C   UNL A   1      42.749  29.644  35.790  1.00  0.00     0.031 C 
ATOM     68  C   UNL A   1      42.106  35.090  33.183  1.00  0.00     0.029 A 
ATOM     69  C   UNL A   1      42.408  33.754  33.396  1.00  0.00     0.049 A 
ATOM     70  H   UNL A   1      43.303  32.368  32.079  1.00  0.00     0.167 HD
ATOM     71  C   UNL A   1      42.512  31.655  34.715  1.00  0.00     0.074 A 
ATOM     72  C   UNL A   1      42.294  30.881  35.920  1.00  0.00     0.031 C 
ATOM     73  C   UNL A   1      42.191  32.965  34.580  1.00  0.00     0.037 A 
BRANCH  60  74
ATOM     74  C   UNL A   1      43.629  35.388  29.083  1.00  0.00     0.064 A 
ATOM     75  C   UNL A   1      42.507  35.806  28.354  1.00  0.00     0.173 A 
ATOM     76  C   UNL A   1      44.791  36.170  29.005  1.00  0.00     0.173 A 
ATOM     77  F   UNL A   1      41.376  35.085  28.384  1.00  0.00    -0.203 F 
ATOM     78  C   UNL A   1      42.553  36.948  27.559  1.00  0.00     0.198 A 
ATOM     79  C   UNL A   1      44.826  37.327  28.231  1.00  0.00     0.198 A 
ATOM     80  F   UNL A   1      45.891  35.816  29.686  1.00  0.00    -0.203 F 
ATOM     81  F   UNL A   1      41.481  37.304  26.838  1.00  0.00    -0.200 F 
ATOM     82  C   UNL A   1      43.709  37.712  27.504  1.00  0.00     0.200 A 
ATOM     83  F   UNL A   1      45.941  38.068  28.185  1.00  0.00    -0.200 F 
ATOM     84  F   UNL A   1      43.750  38.813  26.743  1.00  0.00    -0.200 F 
ENDBRANCH  60  74
BRANCH  61  85
ATOM     85  C   UNL A   1      43.818  27.135  34.718  1.00  0.00     0.064 A 
ATOM     86  C   UNL A   1      45.012  26.756  35.347  1.00  0.00     0.173 A 
ATOM     87  C   UNL A   1      42.690  26.329  34.921  1.00  0.00     0.173 A 
ATOM     88  F   UNL A   1      46.123  27.487  35.168  1.00  0.00    -0.203 F 
ATOM     89  C   UNL A   1      45.082  25.605  36.127  1.00  0.00     0.198 A 
ATOM     90  C   UNL A   1      42.753  25.191  35.723  1.00  0.00     0.198 A 
ATOM     91  F   UNL A   1      41.521  26.651  34.348  1.00  0.00    -0.203 F 
ATOM     92  F   UNL A   1      46.247  25.241  36.679  1.00  0.00    -0.200 F 
ATOM     93  C   UNL A   1      43.952  24.825  36.319  1.00  0.00     0.200 A 
ATOM     94  F   UNL A   1      41.655  24.447  35.917  1.00  0.00    -0.200 F 
ATOM     95  F   UNL A   1      44.018  23.717  37.069  1.00  0.00    -0.200 F 
ENDBRANCH  61  85
BRANCH  73  96
ATOM     96  C   UNL A   1      41.543  33.632  35.756  1.00  0.00     0.064 A 
ATOM     97  C   UNL A   1      42.301  34.285  36.738  1.00  0.00     0.173 A 
ATOM     98  C   UNL A   1      40.146  33.647  35.880  1.00  0.00     0.173 A 
ATOM     99  F   UNL A   1      43.641  34.281  36.669  1.00  0.00    -0.203 F 
ATOM    100  C   UNL A   1      41.683  34.913  37.815  1.00  0.00     0.198 A 
ATOM    101  C   UNL A   1      39.531  34.298  36.945  1.00  0.00     0.198 A 
ATOM    102  F   UNL A   1      39.379  33.039  34.965  1.00  0.00    -0.203 F 
ATOM    103  F   UNL A   1      42.428  35.494  38.766  1.00  0.00    -0.200 F 
ATOM    104  C   UNL A   1      40.300  34.925  37.915  1.00  0.00     0.200 A 
ATOM    105  F   UNL A   1      38.194  34.318  37.035  1.00  0.00    -0.200 F 
ATOM    106  F   UNL A   1      39.707  35.535  38.951  1.00  0.00    -0.200 F 
ENDBRANCH  73  96
ENDBRANCH  47  48
ENDBRANCH  39  42
ENDBRANCH  37  38
ENDBRANCH  36  37
ENDBRANCH  35  36
ENDBRANCH   1  35
TORSDOF 17
ENDMDL
MODEL 2
REMARK VINA RESULT:      -9.0      6.368     12.245
REMARK SMILES CC[C@@H](Oc1ccccc1/C=C1/SC(=S)N(c2ccc(NC(C)=O)cc2)C1=O)C(=O)NCCCCNC(=O)c1ccc(-c2c3nc(c(-c4c(F)c(F)c(F)c(F)c4F)c4ccc([nH]4)c(-c4c(F)c(F)c(F)c(F)c4F)c4nc(c(-c5c(F)c(F)c(F)c(F)c5F)c5ccc2[nH]5)C=C4)C=C3)cc1
REMARK SMILES IDX 32 1 31 2 29 3 30 4 3 6 2 7 1 8 4 9 5 10 6 11 10 12 7 13
REMARK SMILES IDX 9 14 8 15 11 16 12 17 13 18 27 19 14 20 16 21 28 22 15 23
REMARK SMILES IDX 17 24 18 25 26 26 19 27 25 28 20 29 21 30 22 31 23 33 24 34
REMARK SMILES IDX 33 35 34 36 35 37 36 38 37 39 38 41 39 42 40 43 101 44 41 45
REMARK SMILES IDX 100 46 42 47 43 48 44 49 94 50 45 51 99 52 93 53 95 54 46 55
REMARK SMILES IDX 98 56 92 57 91 58 47 60 79 61 59 62 78 63 60 64 63 65 77 66
REMARK SMILES IDX 96 67 61 68 62 69 76 71 97 72 64 73 48 74 49 75 57 76 50 77
REMARK SMILES IDX 51 78 55 79 58 80 52 81 53 82 56 83 54 84 80 85 81 86 89 87
REMARK SMILES IDX 82 88 83 89 87 90 90 91 84 92 85 93 88 94 86 95 65 96 66 97
REMARK SMILES IDX 74 98 67 99 68 100 72 101 75 102 69 103 70 104 73 105 71 106
REMARK H PARENT 31 5 21 32 36 40 95 59 63 70
REMARK Flexibility Score: inf
ROOT
ATOM      1  C   UNL A   1      51.873  23.169  36.562  1.00  0.00     0.116 C 
ENDROOT
BRANCH   1   2
ATOM      2  N   UNL A   1      51.831  21.755  36.879  1.00  0.00    -0.353 N 
ATOM      3  C   UNL A   1      51.222  20.723  36.215  1.00  0.00     0.261 C 
ATOM      4  O   UNL A   1      51.515  19.577  36.574  1.00  0.00    -0.271 OA
ATOM      5  H   UNL A   1      52.314  21.497  37.696  1.00  0.00     0.163 HD
BRANCH   3   6
ATOM      6  C   UNL A   1      50.120  20.951  35.152  1.00  0.00     0.261 C 
BRANCH   6   7
ATOM      7  C   UNL A   1      50.689  20.520  33.788  1.00  0.00     0.052 C 
ATOM      8  C   UNL A   1      52.108  21.030  33.564  1.00  0.00     0.008 C 
ENDBRANCH   6   7
BRANCH   6   9
ATOM      9  O   UNL A   1      48.930  20.217  35.452  1.00  0.00    -0.480 OA
BRANCH   9  10
ATOM     10  C   UNL A   1      47.813  20.983  35.666  1.00  0.00     0.127 A 
ATOM     11  C   UNL A   1      47.034  21.367  34.575  1.00  0.00     0.047 A 
ATOM     12  C   UNL A   1      47.570  21.537  36.937  1.00  0.00     0.018 A 
ATOM     13  C   UNL A   1      45.980  22.267  34.756  1.00  0.00     0.004 A 
ATOM     14  C   UNL A   1      46.492  22.414  37.113  1.00  0.00     0.012 A 
ATOM     15  C   UNL A   1      45.703  22.781  36.023  1.00  0.00     0.001 A 
BRANCH  12  16
ATOM     16  C   UNL A   1      48.438  21.270  38.087  1.00  0.00     0.033 C 
ATOM     17  C   UNL A   1      48.135  20.410  39.068  1.00  0.00     0.081 C 
ATOM     18  S   UNL A   1      49.121  20.201  40.464  1.00  0.00    -0.054 SA
ATOM     19  C   UNL A   1      46.933  19.533  39.149  1.00  0.00     0.270 C 
ATOM     20  C   UNL A   1      47.965  19.116  41.234  1.00  0.00     0.152 C 
ATOM     21  N   UNL A   1      46.896  18.904  40.384  1.00  0.00    -0.261 N 
ATOM     22  O   UNL A   1      46.140  19.356  38.232  1.00  0.00    -0.268 OA
ATOM     23  S   UNL A   1      48.190  18.585  42.800  1.00  0.00    -0.051 S 
BRANCH  21  24
ATOM     24  C   UNL A   1      45.828  18.014  40.644  1.00  0.00     0.051 A 
ATOM     25  C   UNL A   1      44.848  18.354  41.573  1.00  0.00     0.029 A 
ATOM     26  C   UNL A   1      45.813  16.746  40.057  1.00  0.00     0.029 A 
ATOM     27  C   UNL A   1      43.847  17.435  41.899  1.00  0.00     0.028 A 
ATOM     28  C   UNL A   1      44.780  15.852  40.341  1.00  0.00     0.028 A 
ATOM     29  C   UNL A   1      43.794  16.188  41.272  1.00  0.00     0.041 A 
BRANCH  29  30
ATOM     30  N   UNL A   1      42.773  15.244  41.501  1.00  0.00    -0.326 N 
ATOM     31  C   UNL A   1      42.195  14.410  40.565  1.00  0.00     0.221 C 
ATOM     32  H   UNL A   1      42.440  15.171  42.425  1.00  0.00     0.169 HD
ATOM     33  C   UNL A   1      41.299  13.369  41.186  1.00  0.00     0.114 C 
ATOM     34  O   UNL A   1      42.326  14.470  39.347  1.00  0.00    -0.275 OA
ENDBRANCH  29  30
ENDBRANCH  21  24
ENDBRANCH  12  16
ENDBRANCH   9  10
ENDBRANCH   6   9
ENDBRANCH   3   6
ENDBRANCH   1   2
BRANCH   1  35
ATOM     35  C   UNL A   1      50.705  23.971  37.136  1.00  0.00     0.023 C 
BRANCH  35  36
ATOM     36  C   UNL A   1      50.412  25.304  36.438  1.00  0.00     0.023 C 
BRANCH  36  37
ATOM     37  C   UNL A   1      48.937  25.642  36.197  1.00  0.00     0.116 C 
BRANCH  37  38
ATOM     38  N   UNL A   1      48.165  25.938  37.394  1.00  0.00    -0.352 N 
ATOM     39  C   UNL A   1      46.853  26.346  37.519  1.00  0.00     0.251 C 
ATOM     40  H   UNL A   1      48.652  25.832  38.242  1.00  0.00     0.163 HD
ATOM     41  O   UNL A   1      46.369  26.524  38.632  1.00  0.00    -0.269 OA
BRANCH  39  42
ATOM     42  C   UNL A   1      46.040  26.673  36.327  1.00  0.00     0.039 A 
ATOM     43  C   UNL A   1      44.942  25.848  36.050  1.00  0.00     0.014 A 
ATOM     44  C   UNL A   1      46.281  27.796  35.535  1.00  0.00     0.014 A 
ATOM     45  C   UNL A   1      44.007  26.231  35.090  1.00  0.00     0.010 A 
ATOM     46  C   UNL A   1      45.313  28.217  34.625  1.00  0.00     0.010 A 
ATOM     47  C   UNL A   1      44.144  27.464  34.436  1.00  0.00    -0.014 A 
BRANCH  47  48
ATOM     48  C   UNL A   1      43.014  28.043  33.669  1.00  0.00     0.031 A 
ATOM     49  C   UNL A   1      42.849  27.765  32.207  1.00  0.00     0.074 A 
ATOM     50  C   UNL A   1      42.194  28.911  34.296  1.00  0.00     0.049 A 
ATOM     51  N   UNL A   1      41.967  28.248  31.371  1.00  0.00    -0.248 NA
ATOM     52  C   UNL A   1      43.818  26.845  31.596  1.00  0.00     0.031 C 
ATOM     53  C   UNL A   1      42.303  29.311  35.702  1.00  0.00     0.029 A 
ATOM     54  N   UNL A   1      41.115  29.624  33.835  1.00  0.00    -0.354 N 
ATOM     55  C   UNL A   1      42.276  27.700  30.135  1.00  0.00     0.074 A 
ATOM     56  C   UNL A   1      43.456  26.881  30.320  1.00  0.00     0.031 C 
ATOM     57  C   UNL A   1      41.322  30.178  35.992  1.00  0.00     0.029 A 
ATOM     58  C   UNL A   1      40.537  30.424  34.790  1.00  0.00     0.049 A 
ATOM     59  H   UNL A   1      40.789  29.566  32.908  1.00  0.00     0.167 HD
ATOM     60  C   UNL A   1      41.623  27.855  28.960  1.00  0.00     0.037 A 
ATOM     61  C   UNL A   1      39.492  31.268  34.702  1.00  0.00     0.037 A 
ATOM     62  C   UNL A   1      40.440  28.658  28.790  1.00  0.00     0.049 A 
ATOM     63  C   UNL A   1      38.776  31.404  33.388  1.00  0.00     0.074 A 
ATOM     64  C   UNL A   1      39.670  28.832  27.652  1.00  0.00     0.029 A 
ATOM     65  N   UNL A   1      39.856  29.425  29.787  1.00  0.00    -0.354 N 
ATOM     66  N   UNL A   1      39.032  30.819  32.243  1.00  0.00    -0.248 NA
ATOM     67  C   UNL A   1      37.622  32.314  33.353  1.00  0.00     0.031 C 
ATOM     68  C   UNL A   1      38.642  29.732  27.953  1.00  0.00     0.029 A 
ATOM     69  C   UNL A   1      38.746  30.088  29.288  1.00  0.00     0.049 A 
ATOM     70  H   UNL A   1      40.183  29.490  30.714  1.00  0.00     0.167 HD
ATOM     71  C   UNL A   1      38.060  31.267  31.361  1.00  0.00     0.074 A 
ATOM     72  C   UNL A   1      37.199  32.162  32.106  1.00  0.00     0.031 C 
ATOM     73  C   UNL A   1      37.897  30.966  30.050  1.00  0.00     0.037 A 
BRANCH  60  74
ATOM     74  C   UNL A   1      42.169  27.136  27.762  1.00  0.00     0.064 A 
ATOM     75  C   UNL A   1      43.107  27.739  26.911  1.00  0.00     0.173 A 
ATOM     76  C   UNL A   1      41.784  25.816  27.484  1.00  0.00     0.173 A 
ATOM     77  F   UNL A   1      43.498  29.004  27.126  1.00  0.00    -0.203 F 
ATOM     78  C   UNL A   1      43.623  27.055  25.813  1.00  0.00     0.198 A 
ATOM     79  C   UNL A   1      42.322  25.126  26.401  1.00  0.00     0.198 A 
ATOM     80  F   UNL A   1      40.893  25.192  28.269  1.00  0.00    -0.203 F 
ATOM     81  F   UNL A   1      44.486  27.666  24.990  1.00  0.00    -0.200 F 
ATOM     82  C   UNL A   1      43.236  25.747  25.564  1.00  0.00     0.200 A 
ATOM     83  F   UNL A   1      41.953  23.859  26.166  1.00  0.00    -0.200 F 
ATOM     84  F   UNL A   1      43.737  25.089  24.510  1.00  0.00    -0.200 F 
ENDBRANCH  60  74
BRANCH  61  85
ATOM     85  C   UNL A   1      39.043  32.025  35.899  1.00  0.00     0.064 A 
ATOM     86  C   UNL A   1      38.175  31.443  36.834  1.00  0.00     0.173 A 
ATOM     87  C   UNL A   1      39.464  33.342  36.132  1.00  0.00     0.173 A 
ATOM     88  F   UNL A   1      37.731  30.192  36.645  1.00  0.00    -0.203 F 
ATOM     89  C   UNL A   1      37.728  32.156  37.943  1.00  0.00     0.198 A 
ATOM     90  C   UNL A   1      39.037  34.046  37.255  1.00  0.00     0.198 A 
ATOM     91  F   UNL A   1      40.300  33.942  35.271  1.00  0.00    -0.203 F 
ATOM     92  F   UNL A   1      36.863  31.592  38.796  1.00  0.00    -0.200 F 
ATOM     93  C   UNL A   1      38.162  33.456  38.156  1.00  0.00     0.200 A 
ATOM     94  F   UNL A   1      39.470  35.297  37.465  1.00  0.00    -0.200 F 
ATOM     95  F   UNL A   1      37.732  34.143  39.223  1.00  0.00    -0.200 F 
ENDBRANCH  61  85
BRANCH  73  96
ATOM     96  C   UNL A   1      36.727  31.588  29.349  1.00  0.00     0.064 A 
ATOM     97  C   UNL A   1      36.706  32.952  29.025  1.00  0.00     0.173 A 
ATOM     98  C   UNL A   1      35.631  30.801  28.965  1.00  0.00     0.173 A 
ATOM     99  F   UNL A   1      37.725  33.747  29.387  1.00  0.00    -0.203 F 
ATOM    100  C   UNL A   1      35.618  33.511  28.361  1.00  0.00     0.198 A 
ATOM    101  C   UNL A   1      34.557  31.359  28.278  1.00  0.00     0.198 A 
ATOM    102  F   UNL A   1      35.606  29.491  29.250  1.00  0.00    -0.203 F 
ATOM    103  F   UNL A   1      35.600  34.825  28.100  1.00  0.00    -0.200 F 
ATOM    104  C   UNL A   1      34.549  32.714  27.982  1.00  0.00     0.200 A 
ATOM    105  F   UNL A   1      33.528  30.585  27.904  1.00  0.00    -0.200 F 
ATOM    106  F   UNL A   1      33.505  33.253  27.338  1.00  0.00    -0.200 F 
ENDBRANCH  73  96
ENDBRANCH  47  48
ENDBRANCH  39  42
ENDBRANCH  37  38
ENDBRANCH  36  37
ENDBRANCH  35  36
ENDBRANCH   1  35
TORSDOF 17
ENDMDL
MODEL 3
REMARK VINA RESULT:      -9.0      3.811      7.403
REMARK SMILES CC[C@@H](Oc1ccccc1/C=C1/SC(=S)N(c2ccc(NC(C)=O)cc2)C1=O)C(=O)NCCCCNC(=O)c1ccc(-c2c3nc(c(-c4c(F)c(F)c(F)c(F)c4F)c4ccc([nH]4)c(-c4c(F)c(F)c(F)c(F)c4F)c4nc(c(-c5c(F)c(F)c(F)c(F)c5F)c5ccc2[nH]5)C=C4)C=C3)cc1
REMARK SMILES IDX 32 1 31 2 29 3 30 4 3 6 2 7 1 8 4 9 5 10 6 11 10 12 7 13
REMARK SMILES IDX 9 14 8 15 11 16 12 17 13 18 27 19 14 20 16 21 28 22 15 23
REMARK SMILES IDX 17 24 18 25 26 26 19 27 25 28 20 29 21 30 22 31 23 33 24 34
REMARK SMILES IDX 33 35 34 36 35 37 36 38 37 39 38 41 39 42 40 43 101 44 41 45
REMARK SMILES IDX 100 46 42 47 43 48 44 49 94 50 45 51 99 52 93 53 95 54 46 55
REMARK SMILES IDX 98 56 92 57 91 58 47 60 79 61 59 62 78 63 60 64 63 65 77 66
REMARK SMILES IDX 96 67 61 68 62 69 76 71 97 72 64 73 48 74 49 75 57 76 50 77
REMARK SMILES IDX 51 78 55 79 58 80 52 81 53 82 56 83 54 84 80 85 81 86 89 87
REMARK SMILES IDX 82 88 83 89 87 90 90 91 84 92 85 93 88 94 86 95 65 96 66 97
REMARK SMILES IDX 74 98 67 99 68 100 72 101 75 102 69 103 70 104 73 105 71 106
REMARK H PARENT 31 5 21 32 36 40 95 59 63 70
REMARK Flexibility Score: inf
ROOT
ATOM      1  C   UNL A   1      45.030  22.938  27.113  1.00  0.00     0.116 C 
ENDROOT
BRANCH   1   2
ATOM      2  N   UNL A   1      44.438  22.958  28.436  1.00  0.00    -0.353 N 
ATOM      3  C   UNL A   1      43.121  23.006  28.809  1.00  0.00     0.261 C 
ATOM      4  O   UNL A   1      42.868  22.796  30.001  1.00  0.00    -0.271 OA
ATOM      5  H   UNL A   1      45.081  22.933  29.181  1.00  0.00     0.163 HD
BRANCH   3   6
ATOM      6  C   UNL A   1      41.994  23.428  27.835  1.00  0.00     0.261 C 
BRANCH   6   7
ATOM      7  C   UNL A   1      40.840  22.421  27.990  1.00  0.00     0.052 C 
ATOM      8  C   UNL A   1      39.917  22.404  26.778  1.00  0.00     0.008 C 
ENDBRANCH   6   7
BRANCH   6   9
ATOM      9  O   UNL A   1      41.536  24.757  28.093  1.00  0.00    -0.480 OA
BRANCH   9  10
ATOM     10  C   UNL A   1      42.106  25.731  27.313  1.00  0.00     0.127 A 
ATOM     11  C   UNL A   1      42.316  25.479  25.958  1.00  0.00     0.047 A 
ATOM     12  C   UNL A   1      42.651  26.883  27.910  1.00  0.00     0.018 A 
ATOM     13  C   UNL A   1      43.028  26.397  25.183  1.00  0.00     0.004 A 
ATOM     14  C   UNL A   1      43.336  27.812  27.117  1.00  0.00     0.012 A 
ATOM     15  C   UNL A   1      43.527  27.566  25.758  1.00  0.00     0.001 A 
BRANCH  12  16
ATOM     16  C   UNL A   1      42.573  27.131  29.352  1.00  0.00     0.033 C 
ATOM     17  C   UNL A   1      41.599  27.840  29.937  1.00  0.00     0.081 C 
ATOM     18  S   UNL A   1      41.595  28.210  31.619  1.00  0.00    -0.054 SA
ATOM     19  C   UNL A   1      40.406  28.438  29.274  1.00  0.00     0.270 C 
ATOM     20  C   UNL A   1      40.172  29.241  31.484  1.00  0.00     0.152 C 
ATOM     21  N   UNL A   1      39.714  29.226  30.180  1.00  0.00    -0.261 N 
ATOM     22  O   UNL A   1      40.067  28.209  28.119  1.00  0.00    -0.268 OA
ATOM     23  S   UNL A   1      39.628  30.135  32.784  1.00  0.00    -0.051 S 
BRANCH  21  24
ATOM     24  C   UNL A   1      38.536  29.870  29.736  1.00  0.00     0.051 A 
ATOM     25  C   UNL A   1      37.335  29.168  29.686  1.00  0.00     0.029 A 
ATOM     26  C   UNL A   1      38.595  31.174  29.238  1.00  0.00     0.029 A 
ATOM     27  C   UNL A   1      36.193  29.777  29.156  1.00  0.00     0.028 A 
ATOM     28  C   UNL A   1      37.441  31.799  28.763  1.00  0.00     0.028 A 
ATOM     29  C   UNL A   1      36.232  31.100  28.711  1.00  0.00     0.041 A 
BRANCH  29  30
ATOM     30  N   UNL A   1      35.104  31.795  28.233  1.00  0.00    -0.326 N 
ATOM     31  C   UNL A   1      34.413  32.795  28.887  1.00  0.00     0.221 C 
ATOM     32  H   UNL A   1      34.776  31.542  27.340  1.00  0.00     0.169 HD
ATOM     33  C   UNL A   1      33.401  33.478  28.003  1.00  0.00     0.114 C 
ATOM     34  O   UNL A   1      34.534  33.125  30.062  1.00  0.00    -0.275 OA
ENDBRANCH  29  30
ENDBRANCH  21  24
ENDBRANCH  12  16
ENDBRANCH   9  10
ENDBRANCH   6   9
ENDBRANCH   3   6
ENDBRANCH   1   2
BRANCH   1  35
ATOM     35  C   UNL A   1      45.787  24.216  26.751  1.00  0.00     0.023 C 
BRANCH  35  36
ATOM     36  C   UNL A   1      45.907  25.255  27.872  1.00  0.00     0.023 C 
BRANCH  36  37
ATOM     37  C   UNL A   1      47.301  25.452  28.477  1.00  0.00     0.116 C 
BRANCH  37  38
ATOM     38  N   UNL A   1      48.360  25.726  27.518  1.00  0.00    -0.352 N 
ATOM     39  C   UNL A   1      48.766  26.925  26.971  1.00  0.00     0.251 C 
ATOM     40  H   UNL A   1      48.863  24.936  27.215  1.00  0.00     0.163 HD
ATOM     41  O   UNL A   1      49.708  26.954  26.186  1.00  0.00    -0.269 OA
BRANCH  39  42
ATOM     42  C   UNL A   1      48.018  28.175  27.233  1.00  0.00     0.039 A 
ATOM     43  C   UNL A   1      48.255  28.823  28.452  1.00  0.00     0.014 A 
ATOM     44  C   UNL A   1      47.164  28.753  26.295  1.00  0.00     0.014 A 
ATOM     45  C   UNL A   1      47.766  30.111  28.664  1.00  0.00     0.010 A 
ATOM     46  C   UNL A   1      46.733  30.067  26.473  1.00  0.00     0.010 A 
ATOM     47  C   UNL A   1      47.078  30.772  27.636  1.00  0.00    -0.014 A 
BRANCH  47  48
ATOM     48  C   UNL A   1      46.841  32.234  27.705  1.00  0.00     0.031 A 
ATOM     49  C   UNL A   1      47.907  33.210  27.315  1.00  0.00     0.074 A 
ATOM     50  C   UNL A   1      45.675  32.669  28.224  1.00  0.00     0.049 A 
ATOM     51  N   UNL A   1      47.895  34.517  27.386  1.00  0.00    -0.248 NA
ATOM     52  C   UNL A   1      49.165  32.646  26.804  1.00  0.00     0.031 C 
ATOM     53  C   UNL A   1      44.590  31.808  28.703  1.00  0.00     0.029 A 
ATOM     54  N   UNL A   1      45.208  33.940  28.451  1.00  0.00    -0.354 N 
ATOM     55  C   UNL A   1      49.141  34.932  26.938  1.00  0.00     0.074 A 
ATOM     56  C   UNL A   1      49.901  33.737  26.638  1.00  0.00     0.031 C 
ATOM     57  C   UNL A   1      43.580  32.572  29.145  1.00  0.00     0.029 A 
ATOM     58  C   UNL A   1      43.956  33.974  29.016  1.00  0.00     0.049 A 
ATOM     59  H   UNL A   1      45.723  34.750  28.229  1.00  0.00     0.167 HD
ATOM     60  C   UNL A   1      49.597  36.196  26.776  1.00  0.00     0.037 A 
ATOM     61  C   UNL A   1      43.199  35.021  29.393  1.00  0.00     0.037 A 
ATOM     62  C   UNL A   1      48.826  37.379  27.060  1.00  0.00     0.049 A 
ATOM     63  C   UNL A   1      43.726  36.412  29.184  1.00  0.00     0.074 A 
ATOM     64  C   UNL A   1      49.177  38.705  26.873  1.00  0.00     0.029 A 
ATOM     65  N   UNL A   1      47.545  37.377  27.594  1.00  0.00    -0.354 N 
ATOM     66  N   UNL A   1      44.877  36.793  28.686  1.00  0.00    -0.248 NA
ATOM     67  C   UNL A   1      42.847  37.521  29.583  1.00  0.00     0.031 C 
ATOM     68  C   UNL A   1      48.124  39.505  27.327  1.00  0.00     0.029 A 
ATOM     69  C   UNL A   1      47.099  38.679  27.759  1.00  0.00     0.049 A 
ATOM     70  H   UNL A   1      47.029  36.570  27.822  1.00  0.00     0.167 HD
ATOM     71  C   UNL A   1      44.852  38.180  28.688  1.00  0.00     0.074 A 
ATOM     72  C   UNL A   1      43.565  38.574  29.223  1.00  0.00     0.031 C 
ATOM     73  C   UNL A   1      45.811  39.049  28.285  1.00  0.00     0.037 A 
BRANCH  60  74
ATOM     74  C   UNL A   1      50.996  36.369  26.262  1.00  0.00     0.064 A 
ATOM     75  C   UNL A   1      51.257  36.539  24.895  1.00  0.00     0.173 A 
ATOM     76  C   UNL A   1      52.082  36.408  27.148  1.00  0.00     0.173 A 
ATOM     77  F   UNL A   1      50.253  36.495  24.006  1.00  0.00    -0.203 F 
ATOM     78  C   UNL A   1      52.557  36.718  24.430  1.00  0.00     0.198 A 
ATOM     79  C   UNL A   1      53.379  36.615  26.683  1.00  0.00     0.198 A 
ATOM     80  F   UNL A   1      51.887  36.255  28.466  1.00  0.00    -0.203 F 
ATOM     81  F   UNL A   1      52.786  36.836  23.115  1.00  0.00    -0.200 F 
ATOM     82  C   UNL A   1      53.615  36.764  25.325  1.00  0.00     0.200 A 
ATOM     83  F   UNL A   1      54.399  36.667  27.549  1.00  0.00    -0.200 F 
ATOM     84  F   UNL A   1      54.865  36.942  24.876  1.00  0.00    -0.200 F 
ENDBRANCH  60  74
BRANCH  61  85
ATOM     85  C   UNL A   1      41.853  34.794  29.980  1.00  0.00     0.064 A 
ATOM     86  C   UNL A   1      41.710  34.407  31.320  1.00  0.00     0.173 A 
ATOM     87  C   UNL A   1      40.687  34.952  29.219  1.00  0.00     0.173 A 
ATOM     88  F   UNL A   1      42.797  34.225  32.084  1.00  0.00    -0.203 F 
ATOM     89  C   UNL A   1      40.453  34.165  31.870  1.00  0.00     0.198 A 
ATOM     90  C   UNL A   1      39.428  34.736  29.776  1.00  0.00     0.198 A 
ATOM     91  F   UNL A   1      40.769  35.328  27.934  1.00  0.00    -0.203 F 
ATOM     92  F   UNL A   1      40.347  33.752  33.140  1.00  0.00    -0.200 F 
ATOM     93  C   UNL A   1      39.313  34.334  31.099  1.00  0.00     0.200 A 
ATOM     94  F   UNL A   1      38.328  34.913  29.032  1.00  0.00    -0.200 F 
ATOM     95  F   UNL A   1      38.103  34.101  31.628  1.00  0.00    -0.200 F 
ENDBRANCH  61  85
BRANCH  73  96
ATOM     96  C   UNL A   1      45.489  40.510  28.381  1.00  0.00     0.064 A 
ATOM     97  C   UNL A   1      45.735  41.240  29.552  1.00  0.00     0.173 A 
ATOM     98  C   UNL A   1      44.963  41.194  27.274  1.00  0.00     0.173 A 
ATOM     99  F   UNL A   1      46.221  40.624  30.641  1.00  0.00    -0.203 F 
ATOM    100  C   UNL A   1      45.444  42.599  29.620  1.00  0.00     0.198 A 
ATOM    101  C   UNL A   1      44.698  42.558  27.338  1.00  0.00     0.198 A 
ATOM    102  F   UNL A   1      44.714  40.540  26.131  1.00  0.00    -0.203 F 
ATOM    103  F   UNL A   1      45.646  43.268  30.763  1.00  0.00    -0.200 F 
ATOM    104  C   UNL A   1      44.933  43.258  28.512  1.00  0.00     0.200 A 
ATOM    105  F   UNL A   1      44.214  43.196  26.263  1.00  0.00    -0.200 F 
ATOM    106  F   UNL A   1      44.659  44.568  28.578  1.00  0.00    -0.200 F 
ENDBRANCH  73  96
ENDBRANCH  47  48
ENDBRANCH  39  42
ENDBRANCH  37  38
ENDBRANCH  36  37
ENDBRANCH  35  36
ENDBRANCH   1  35
TORSDOF 17
ENDMDL
