MODEL 1
REMARK VINA RESULT:     -13.8      0.000      0.000
REMARK SMILES Cc1cc(-n2nc(C)c(C(=O)NCCCCNC(=O)c3ccc(-c4c5nc(c(-c6c(F)c(F)c(F)c(F)c6F)c6ccc([nH]6)c(-c6c(F)c(F)c(F)c(F)c6F)c6nc(c(-c7c(F)c(F)c(F)c(F)c7F)c7ccc4[nH]7)C=C6)C=C5)cc3)c2Cl)nc(C)n1
REMARK SMILES IDX 15 1 14 2 13 3 12 4 10 5 11 6 9 8 5 9 6 10 83 11 7 12 84 13
REMARK SMILES IDX 8 14 4 15 1 16 2 17 3 18 88 19 86 20 85 21 87 22 16 23 17 24
REMARK SMILES IDX 18 25 19 27 20 28 21 29 82 30 22 31 81 32 23 33 24 34 25 35
REMARK SMILES IDX 75 36 26 37 80 38 74 39 76 40 27 41 79 42 73 43 72 44 28 46
REMARK SMILES IDX 60 47 40 48 59 49 41 50 44 51 58 52 77 53 42 54 43 55 57 57
REMARK SMILES IDX 78 58 45 59 29 60 30 61 38 62 31 63 32 64 36 65 39 66 33 67
REMARK SMILES IDX 34 68 37 69 35 70 61 71 62 72 70 73 63 74 64 75 68 76 71 77
REMARK SMILES IDX 65 78 66 79 69 80 67 81 46 82 47 83 55 84 48 85 49 86 53 87
REMARK SMILES IDX 56 88 50 89 51 90 54 91 52 92
REMARK H PARENT 12 7 17 26 76 45 44 56
REMARK Flexibility Score: inf
ROOT
ATOM      1  C   UNL A   1      32.578  29.556  27.013  1.00  0.00     0.023 C 
ENDROOT
BRANCH   1   2
ATOM      2  C   UNL A   1      32.572  28.086  27.441  1.00  0.00     0.023 C 
BRANCH   2   3
ATOM      3  C   UNL A   1      32.218  27.032  26.389  1.00  0.00     0.116 C 
BRANCH   3   4
ATOM      4  N   UNL A   1      31.211  26.057  26.789  1.00  0.00    -0.352 N 
ATOM      5  C   UNL A   1      31.186  24.681  26.626  1.00  0.00     0.256 C 
ATOM      6  O   UNL A   1      30.231  24.060  27.080  1.00  0.00    -0.269 OA
ATOM      7  H   UNL A   1      30.426  26.435  27.245  1.00  0.00     0.163 HD
BRANCH   5   8
ATOM      8  C   UNL A   1      32.213  24.032  25.832  1.00  0.00     0.100 A 
ATOM      9  N   UNL A   1      34.140  23.141  25.203  1.00  0.00    -0.203 N 
ATOM     10  N   UNL A   1      33.556  23.561  24.040  1.00  0.00    -0.170 NA
ATOM     11  C   UNL A   1      33.221  23.185  26.235  1.00  0.00     0.147 A 
ATOM     12  C   UNL A   1      32.340  23.989  24.416  1.00  0.00     0.074 A 
ATOM     13  Cl  UNL A   1      33.448  22.383  27.729  1.00  0.00    -0.061 Cl
ATOM     14  C   UNL A   1      31.335  24.331  23.374  1.00  0.00     0.070 C 
BRANCH   9  15
ATOM     15  C   UNL A   1      35.538  22.847  25.266  1.00  0.00     0.159 A 
ATOM     16  C   UNL A   1      38.694  24.329  26.636  1.00  0.00     0.067 C 
ATOM     17  C   UNL A   1      37.711  23.427  25.949  1.00  0.00     0.043 A 
ATOM     18  C   UNL A   1      36.405  23.824  25.728  1.00  0.00     0.072 A 
ATOM     19  N   UNL A   1      38.146  22.182  25.665  1.00  0.00    -0.238 NA
ATOM     20  C   UNL A   1      37.247  21.315  25.175  1.00  0.00     0.128 A 
ATOM     21  N   UNL A   1      35.949  21.591  24.997  1.00  0.00    -0.214 NA
ATOM     22  C   UNL A   1      37.698  19.930  24.838  1.00  0.00     0.090 C 
ENDBRANCH   9  15
ENDBRANCH   5   8
ENDBRANCH   3   4
ENDBRANCH   2   3
ENDBRANCH   1   2
BRANCH   1  23
ATOM     23  C   UNL A   1      33.936  30.246  27.039  1.00  0.00     0.116 C 
BRANCH  23  24
ATOM     24  N   UNL A   1      33.955  31.483  27.813  1.00  0.00    -0.352 N 
ATOM     25  C   UNL A   1      34.863  31.853  28.789  1.00  0.00     0.251 C 
ATOM     26  H   UNL A   1      33.238  32.129  27.618  1.00  0.00     0.163 HD
ATOM     27  O   UNL A   1      34.591  32.718  29.606  1.00  0.00    -0.269 OA
BRANCH  25  28
ATOM     28  C   UNL A   1      36.177  31.182  28.832  1.00  0.00     0.039 A 
ATOM     29  C   UNL A   1      37.335  31.903  29.139  1.00  0.00     0.014 A 
ATOM     30  C   UNL A   1      36.240  29.816  28.555  1.00  0.00     0.014 A 
ATOM     31  C   UNL A   1      38.545  31.222  29.241  1.00  0.00     0.010 A 
ATOM     32  C   UNL A   1      37.412  29.126  28.760  1.00  0.00     0.010 A 
ATOM     33  C   UNL A   1      38.571  29.829  29.069  1.00  0.00    -0.014 A 
BRANCH  33  34
ATOM     34  C   UNL A   1      39.799  29.084  29.315  1.00  0.00     0.031 A 
ATOM     35  C   UNL A   1      40.139  28.902  30.748  1.00  0.00     0.074 A 
ATOM     36  C   UNL A   1      40.480  28.439  28.347  1.00  0.00     0.049 A 
ATOM     37  N   UNL A   1      41.117  29.441  31.396  1.00  0.00    -0.248 NA
ATOM     38  C   UNL A   1      39.223  28.123  31.594  1.00  0.00     0.031 C 
ATOM     39  C   UNL A   1      40.102  28.263  26.942  1.00  0.00     0.029 A 
ATOM     40  N   UNL A   1      41.631  27.716  28.447  1.00  0.00    -0.354 N 
ATOM     41  C   UNL A   1      41.063  28.916  32.685  1.00  0.00     0.074 A 
ATOM     42  C   UNL A   1      39.788  28.259  32.796  1.00  0.00     0.031 C 
ATOM     43  C   UNL A   1      40.887  27.320  26.377  1.00  0.00     0.029 A 
ATOM     44  C   UNL A   1      41.924  26.954  27.325  1.00  0.00     0.049 A 
ATOM     45  H   UNL A   1      42.206  27.733  29.247  1.00  0.00     0.167 HD
ATOM     46  C   UNL A   1      42.189  28.847  33.449  1.00  0.00     0.037 A 
ATOM     47  C   UNL A   1      42.944  26.074  27.189  1.00  0.00     0.037 A 
ATOM     48  C   UNL A   1      43.234  29.669  32.889  1.00  0.00     0.049 A 
ATOM     49  C   UNL A   1      43.980  26.464  28.172  1.00  0.00     0.074 A 
ATOM     50  C   UNL A   1      43.431  31.017  32.672  1.00  0.00     0.029 A 
ATOM     51  N   UNL A   1      44.147  29.010  32.110  1.00  0.00    -0.354 N 
ATOM     52  N   UNL A   1      44.667  27.571  28.106  1.00  0.00    -0.248 NA
ATOM     53  C   UNL A   1      44.020  25.780  29.457  1.00  0.00     0.031 C 
ATOM     54  C   UNL A   1      44.217  31.099  31.482  1.00  0.00     0.029 A 
ATOM     55  C   UNL A   1      44.502  29.801  31.053  1.00  0.00     0.049 A 
ATOM     56  H   UNL A   1      44.494  28.105  32.284  1.00  0.00     0.167 HD
ATOM     57  C   UNL A   1      44.848  27.943  29.426  1.00  0.00     0.074 A 
ATOM     58  C   UNL A   1      44.587  26.735  30.198  1.00  0.00     0.031 C 
ATOM     59  C   UNL A   1      44.898  29.263  29.771  1.00  0.00     0.037 A 
BRANCH  46  60
ATOM     60  C   UNL A   1      42.526  27.715  34.403  1.00  0.00     0.064 A 
ATOM     61  C   UNL A   1      43.031  26.508  33.866  1.00  0.00     0.173 A 
ATOM     62  C   UNL A   1      42.066  27.633  35.734  1.00  0.00     0.173 A 
ATOM     63  F   UNL A   1      43.489  26.458  32.606  1.00  0.00    -0.203 F 
ATOM     64  C   UNL A   1      42.975  25.301  34.569  1.00  0.00     0.198 A 
ATOM     65  C   UNL A   1      42.062  26.436  36.452  1.00  0.00     0.198 A 
ATOM     66  F   UNL A   1      41.496  28.667  36.360  1.00  0.00    -0.203 F 
ATOM     67  F   UNL A   1      43.330  24.160  33.963  1.00  0.00    -0.200 F 
ATOM     68  C   UNL A   1      42.480  25.265  35.858  1.00  0.00     0.200 A 
ATOM     69  F   UNL A   1      41.562  26.418  37.695  1.00  0.00    -0.200 F 
ATOM     70  F   UNL A   1      42.358  24.101  36.511  1.00  0.00    -0.200 F 
ENDBRANCH  46  60
BRANCH  47  71
ATOM     71  C   UNL A   1      42.982  24.784  26.463  1.00  0.00     0.064 A 
ATOM     72  C   UNL A   1      43.783  24.628  25.318  1.00  0.00     0.173 A 
ATOM     73  C   UNL A   1      42.488  23.602  27.046  1.00  0.00     0.173 A 
ATOM     74  F   UNL A   1      44.319  25.703  24.718  1.00  0.00    -0.203 F 
ATOM     75  C   UNL A   1      44.117  23.365  24.821  1.00  0.00     0.198 A 
ATOM     76  C   UNL A   1      42.816  22.341  26.544  1.00  0.00     0.198 A 
ATOM     77  F   UNL A   1      41.763  23.642  28.173  1.00  0.00    -0.203 F 
ATOM     78  F   UNL A   1      44.952  23.257  23.778  1.00  0.00    -0.200 F 
ATOM     79  C   UNL A   1      43.647  22.222  25.446  1.00  0.00     0.200 A 
ATOM     80  F   UNL A   1      42.383  21.241  27.177  1.00  0.00    -0.200 F 
ATOM     81  F   UNL A   1      44.031  21.011  25.018  1.00  0.00    -0.200 F 
ENDBRANCH  47  71
BRANCH  59  82
ATOM     82  C   UNL A   1      45.186  30.253  28.679  1.00  0.00     0.064 A 
ATOM     83  C   UNL A   1      44.208  30.861  27.875  1.00  0.00     0.173 A 
ATOM     84  C   UNL A   1      46.509  30.691  28.532  1.00  0.00     0.173 A 
ATOM     85  F   UNL A   1      42.913  30.555  28.011  1.00  0.00    -0.203 F 
ATOM     86  C   UNL A   1      44.549  31.840  26.943  1.00  0.00     0.198 A 
ATOM     87  C   UNL A   1      46.842  31.696  27.629  1.00  0.00     0.198 A 
ATOM     88  F   UNL A   1      47.478  30.175  29.306  1.00  0.00    -0.203 F 
ATOM     89  F   UNL A   1      43.601  32.400  26.178  1.00  0.00    -0.200 F 
ATOM     90  C   UNL A   1      45.864  32.264  26.830  1.00  0.00     0.200 A 
ATOM     91  F   UNL A   1      48.106  32.132  27.555  1.00  0.00    -0.200 F 
ATOM     92  F   UNL A   1      46.185  33.237  25.966  1.00  0.00    -0.200 F 
ENDBRANCH  59  82
ENDBRANCH  33  34
ENDBRANCH  25  28
ENDBRANCH  23  24
ENDBRANCH   1  23
TORSDOF 12
ENDMDL
MODEL 2
REMARK VINA RESULT:     -13.6      3.090      8.644
REMARK SMILES Cc1cc(-n2nc(C)c(C(=O)NCCCCNC(=O)c3ccc(-c4c5nc(c(-c6c(F)c(F)c(F)c(F)c6F)c6ccc([nH]6)c(-c6c(F)c(F)c(F)c(F)c6F)c6nc(c(-c7c(F)c(F)c(F)c(F)c7F)c7ccc4[nH]7)C=C6)C=C5)cc3)c2Cl)nc(C)n1
REMARK SMILES IDX 15 1 14 2 13 3 12 4 10 5 11 6 9 8 5 9 6 10 83 11 7 12 84 13
REMARK SMILES IDX 8 14 4 15 1 16 2 17 3 18 88 19 86 20 85 21 87 22 16 23 17 24
REMARK SMILES IDX 18 25 19 27 20 28 21 29 82 30 22 31 81 32 23 33 24 34 25 35
REMARK SMILES IDX 75 36 26 37 80 38 74 39 76 40 27 41 79 42 73 43 72 44 28 46
REMARK SMILES IDX 60 47 40 48 59 49 41 50 44 51 58 52 77 53 42 54 43 55 57 57
REMARK SMILES IDX 78 58 45 59 29 60 30 61 38 62 31 63 32 64 36 65 39 66 33 67
REMARK SMILES IDX 34 68 37 69 35 70 61 71 62 72 70 73 63 74 64 75 68 76 71 77
REMARK SMILES IDX 65 78 66 79 69 80 67 81 46 82 47 83 55 84 48 85 49 86 53 87
REMARK SMILES IDX 56 88 50 89 51 90 54 91 52 92
REMARK H PARENT 12 7 17 26 76 45 44 56
REMARK Flexibility Score: inf
ROOT
ATOM      1  C   UNL A   1      36.905  22.880  24.389  1.00  0.00     0.023 C 
ENDROOT
BRANCH   1   2
ATOM      2  C   UNL A   1      35.400  22.665  24.199  1.00  0.00     0.023 C 
BRANCH   2   3
ATOM      3  C   UNL A   1      34.508  23.902  24.064  1.00  0.00     0.116 C 
BRANCH   3   4
ATOM      4  N   UNL A   1      34.153  24.277  22.701  1.00  0.00    -0.352 N 
ATOM      5  C   UNL A   1      33.424  25.358  22.233  1.00  0.00     0.256 C 
ATOM      6  O   UNL A   1      33.280  25.481  21.021  1.00  0.00    -0.269 OA
ATOM      7  H   UNL A   1      34.484  23.667  22.003  1.00  0.00     0.163 HD
BRANCH   5   8
ATOM      8  C   UNL A   1      32.757  26.237  23.176  1.00  0.00     0.100 A 
ATOM      9  N   UNL A   1      32.386  27.817  24.683  1.00  0.00    -0.203 N 
ATOM     10  N   UNL A   1      31.392  26.900  24.888  1.00  0.00    -0.170 NA
ATOM     11  C   UNL A   1      33.036  27.548  23.492  1.00  0.00     0.147 A 
ATOM     12  C   UNL A   1      31.552  26.010  23.897  1.00  0.00     0.074 A 
ATOM     13  Cl  UNL A   1      34.055  28.673  22.705  1.00  0.00    -0.061 Cl
ATOM     14  C   UNL A   1      30.510  24.970  23.678  1.00  0.00     0.070 C 
BRANCH   9  15
ATOM     15  C   UNL A   1      32.712  28.792  25.677  1.00  0.00     0.159 A 
ATOM     16  C   UNL A   1      35.583  29.746  27.885  1.00  0.00     0.067 C 
ATOM     17  C   UNL A   1      34.245  29.701  27.209  1.00  0.00     0.043 A 
ATOM     18  C   UNL A   1      33.883  28.639  26.402  1.00  0.00     0.072 A 
ATOM     19  N   UNL A   1      33.473  30.799  27.348  1.00  0.00    -0.238 NA
ATOM     20  C   UNL A   1      32.332  30.840  26.643  1.00  0.00     0.128 A 
ATOM     21  N   UNL A   1      31.938  29.891  25.785  1.00  0.00    -0.214 NA
ATOM     22  C   UNL A   1      31.447  32.037  26.782  1.00  0.00     0.090 C 
ENDBRANCH   9  15
ENDBRANCH   5   8
ENDBRANCH   3   4
ENDBRANCH   2   3
ENDBRANCH   1   2
BRANCH   1  23
ATOM     23  C   UNL A   1      37.392  22.897  25.832  1.00  0.00     0.116 C 
BRANCH  23  24
ATOM     24  N   UNL A   1      38.463  21.944  26.104  1.00  0.00    -0.352 N 
ATOM     25  C   UNL A   1      39.738  22.218  26.567  1.00  0.00     0.251 C 
ATOM     26  H   UNL A   1      38.254  20.997  25.940  1.00  0.00     0.163 HD
ATOM     27  O   UNL A   1      40.646  21.416  26.420  1.00  0.00    -0.269 OA
BRANCH  25  28
ATOM     28  C   UNL A   1      39.990  23.505  27.244  1.00  0.00     0.039 A 
ATOM     29  C   UNL A   1      41.172  23.713  27.960  1.00  0.00     0.014 A 
ATOM     30  C   UNL A   1      39.022  24.507  27.160  1.00  0.00     0.014 A 
ATOM     31  C   UNL A   1      41.407  24.964  28.525  1.00  0.00     0.010 A 
ATOM     32  C   UNL A   1      39.299  25.772  27.623  1.00  0.00     0.010 A 
ATOM     33  C   UNL A   1      40.473  25.994  28.334  1.00  0.00    -0.014 A 
BRANCH  33  34
ATOM     34  C   UNL A   1      40.770  27.345  28.793  1.00  0.00     0.031 A 
ATOM     35  C   UNL A   1      41.977  27.958  28.183  1.00  0.00     0.074 A 
ATOM     36  C   UNL A   1      39.928  28.070  29.557  1.00  0.00     0.049 A 
ATOM     37  N   UNL A   1      43.099  28.224  28.763  1.00  0.00    -0.248 NA
ATOM     38  C   UNL A   1      41.985  28.199  26.732  1.00  0.00     0.031 C 
ATOM     39  C   UNL A   1      38.567  27.723  29.978  1.00  0.00     0.029 A 
ATOM     40  N   UNL A   1      40.089  29.331  30.048  1.00  0.00    -0.354 N 
ATOM     41  C   UNL A   1      43.891  28.850  27.804  1.00  0.00     0.074 A 
ATOM     42  C   UNL A   1      43.228  28.647  26.543  1.00  0.00     0.031 C 
ATOM     43  C   UNL A   1      37.955  28.820  30.475  1.00  0.00     0.029 A 
ATOM     44  C   UNL A   1      38.929  29.892  30.565  1.00  0.00     0.049 A 
ATOM     45  H   UNL A   1      40.953  29.803  30.037  1.00  0.00     0.167 HD
ATOM     46  C   UNL A   1      44.882  29.705  28.181  1.00  0.00     0.037 A 
ATOM     47  C   UNL A   1      38.779  31.156  31.025  1.00  0.00     0.037 A 
ATOM     48  C   UNL A   1      45.173  29.559  29.586  1.00  0.00     0.049 A 
ATOM     49  C   UNL A   1      40.128  31.637  31.403  1.00  0.00     0.074 A 
ATOM     50  C   UNL A   1      45.681  28.568  30.400  1.00  0.00     0.029 A 
ATOM     51  N   UNL A   1      44.561  30.465  30.411  1.00  0.00    -0.354 N 
ATOM     52  N   UNL A   1      40.823  31.151  32.394  1.00  0.00    -0.248 NA
ATOM     53  C   UNL A   1      40.878  32.443  30.450  1.00  0.00     0.031 C 
ATOM     54  C   UNL A   1      45.028  28.736  31.658  1.00  0.00     0.029 A 
ATOM     55  C   UNL A   1      44.186  29.847  31.572  1.00  0.00     0.049 A 
ATOM     56  H   UNL A   1      44.413  31.416  30.200  1.00  0.00     0.167 HD
ATOM     57  C   UNL A   1      42.134  31.211  31.956  1.00  0.00     0.074 A 
ATOM     58  C   UNL A   1      42.119  32.159  30.850  1.00  0.00     0.031 C 
ATOM     59  C   UNL A   1      43.035  30.262  32.343  1.00  0.00     0.037 A 
BRANCH  46  60
ATOM     60  C   UNL A   1      45.263  30.976  27.443  1.00  0.00     0.064 A 
ATOM     61  C   UNL A   1      46.604  31.136  27.023  1.00  0.00     0.173 A 
ATOM     62  C   UNL A   1      44.487  32.154  27.435  1.00  0.00     0.173 A 
ATOM     63  F   UNL A   1      47.442  30.089  26.996  1.00  0.00    -0.203 F 
ATOM     64  C   UNL A   1      47.145  32.391  26.728  1.00  0.00     0.198 A 
ATOM     65  C   UNL A   1      45.019  33.397  27.087  1.00  0.00     0.198 A 
ATOM     66  F   UNL A   1      43.224  32.183  27.870  1.00  0.00    -0.203 F 
ATOM     67  F   UNL A   1      48.457  32.509  26.478  1.00  0.00    -0.200 F 
ATOM     68  C   UNL A   1      46.354  33.522  26.771  1.00  0.00     0.200 A 
ATOM     69  F   UNL A   1      44.239  34.485  27.153  1.00  0.00    -0.200 F 
ATOM     70  F   UNL A   1      46.883  34.735  26.559  1.00  0.00    -0.200 F 
ENDBRANCH  46  60
BRANCH  47  71
ATOM     71  C   UNL A   1      37.611  32.062  30.923  1.00  0.00     0.064 A 
ATOM     72  C   UNL A   1      37.258  32.642  29.692  1.00  0.00     0.173 A 
ATOM     73  C   UNL A   1      36.646  32.127  31.946  1.00  0.00     0.173 A 
ATOM     74  F   UNL A   1      38.109  32.595  28.656  1.00  0.00    -0.203 F 
ATOM     75  C   UNL A   1      35.995  33.201  29.479  1.00  0.00     0.198 A 
ATOM     76  C   UNL A   1      35.388  32.693  31.734  1.00  0.00     0.198 A 
ATOM     77  F   UNL A   1      36.866  31.553  33.137  1.00  0.00    -0.203 F 
ATOM     78  F   UNL A   1      35.667  33.667  28.267  1.00  0.00    -0.200 F 
ATOM     79  C   UNL A   1      35.055  33.210  30.496  1.00  0.00     0.200 A 
ATOM     80  F   UNL A   1      34.474  32.667  32.715  1.00  0.00    -0.200 F 
ATOM     81  F   UNL A   1      33.818  33.675  30.269  1.00  0.00    -0.200 F 
ENDBRANCH  47  71
BRANCH  59  82
ATOM     82  C   UNL A   1      42.700  29.442  33.554  1.00  0.00     0.064 A 
ATOM     83  C   UNL A   1      41.997  28.226  33.526  1.00  0.00     0.173 A 
ATOM     84  C   UNL A   1      43.227  29.855  34.786  1.00  0.00     0.173 A 
ATOM     85  F   UNL A   1      41.533  27.723  32.376  1.00  0.00    -0.203 F 
ATOM     86  C   UNL A   1      41.805  27.477  34.686  1.00  0.00     0.198 A 
ATOM     87  C   UNL A   1      43.067  29.087  35.935  1.00  0.00     0.198 A 
ATOM     88  F   UNL A   1      43.944  30.988  34.863  1.00  0.00    -0.203 F 
ATOM     89  F   UNL A   1      41.122  26.324  34.637  1.00  0.00    -0.200 F 
ATOM     90  C   UNL A   1      42.350  27.904  35.887  1.00  0.00     0.200 A 
ATOM     91  F   UNL A   1      43.633  29.483  37.083  1.00  0.00    -0.200 F 
ATOM     92  F   UNL A   1      42.204  27.162  36.993  1.00  0.00    -0.200 F 
ENDBRANCH  59  82
ENDBRANCH  33  34
ENDBRANCH  25  28
ENDBRANCH  23  24
ENDBRANCH   1  23
TORSDOF 12
ENDMDL
MODEL 3
REMARK VINA RESULT:     -13.4      0.819      1.375
REMARK SMILES Cc1cc(-n2nc(C)c(C(=O)NCCCCNC(=O)c3ccc(-c4c5nc(c(-c6c(F)c(F)c(F)c(F)c6F)c6ccc([nH]6)c(-c6c(F)c(F)c(F)c(F)c6F)c6nc(c(-c7c(F)c(F)c(F)c(F)c7F)c7ccc4[nH]7)C=C6)C=C5)cc3)c2Cl)nc(C)n1
REMARK SMILES IDX 15 1 14 2 13 3 12 4 10 5 11 6 9 8 5 9 6 10 83 11 7 12 84 13
REMARK SMILES IDX 8 14 4 15 1 16 2 17 3 18 88 19 86 20 85 21 87 22 16 23 17 24
REMARK SMILES IDX 18 25 19 27 20 28 21 29 82 30 22 31 81 32 23 33 24 34 25 35
REMARK SMILES IDX 75 36 26 37 80 38 74 39 76 40 27 41 79 42 73 43 72 44 28 46
REMARK SMILES IDX 60 47 40 48 59 49 41 50 44 51 58 52 77 53 42 54 43 55 57 57
REMARK SMILES IDX 78 58 45 59 29 60 30 61 38 62 31 63 32 64 36 65 39 66 33 67
REMARK SMILES IDX 34 68 37 69 35 70 61 71 62 72 70 73 63 74 64 75 68 76 71 77
REMARK SMILES IDX 65 78 66 79 69 80 67 81 46 82 47 83 55 84 48 85 49 86 53 87
REMARK SMILES IDX 56 88 50 89 51 90 54 91 52 92
REMARK H PARENT 12 7 17 26 76 45 44 56
REMARK Flexibility Score: inf
ROOT
ATOM      1  C   UNL A   1      32.732  30.353  26.805  1.00  0.00     0.023 C 
ENDROOT
BRANCH   1   2
ATOM      2  C   UNL A   1      32.609  29.034  26.039  1.00  0.00     0.023 C 
BRANCH   2   3
ATOM      3  C   UNL A   1      32.659  27.729  26.838  1.00  0.00     0.116 C 
BRANCH   3   4
ATOM      4  N   UNL A   1      31.429  26.948  26.848  1.00  0.00    -0.352 N 
ATOM      5  C   UNL A   1      31.170  25.685  26.340  1.00  0.00     0.256 C 
ATOM      6  O   UNL A   1      30.048  25.215  26.498  1.00  0.00    -0.269 OA
ATOM      7  H   UNL A   1      30.663  27.386  27.282  1.00  0.00     0.163 HD
BRANCH   5   8
ATOM      8  C   UNL A   1      32.177  25.009  25.544  1.00  0.00     0.100 A 
ATOM      9  N   UNL A   1      33.987  23.875  24.958  1.00  0.00    -0.203 N 
ATOM     10  N   UNL A   1      33.688  24.640  23.865  1.00  0.00    -0.170 NA
ATOM     11  C   UNL A   1      32.935  23.901  25.854  1.00  0.00     0.147 A 
ATOM     12  C   UNL A   1      32.525  25.232  24.183  1.00  0.00     0.074 A 
ATOM     13  Cl  UNL A   1      32.764  22.780  27.134  1.00  0.00    -0.061 Cl
ATOM     14  C   UNL A   1      31.784  25.988  23.138  1.00  0.00     0.070 C 
BRANCH   9  15
ATOM     15  C   UNL A   1      35.279  23.281  25.116  1.00  0.00     0.159 A 
ATOM     16  C   UNL A   1      38.634  24.124  26.552  1.00  0.00     0.067 C 
ATOM     17  C   UNL A   1      37.499  23.413  25.875  1.00  0.00     0.043 A 
ATOM     18  C   UNL A   1      36.327  24.073  25.558  1.00  0.00     0.072 A 
ATOM     19  N   UNL A   1      37.651  22.085  25.699  1.00  0.00    -0.238 NA
ATOM     20  C   UNL A   1      36.598  21.405  25.220  1.00  0.00     0.128 A 
ATOM     21  N   UNL A   1      35.404  21.949  24.954  1.00  0.00    -0.214 NA
ATOM     22  C   UNL A   1      36.735  19.932  25.001  1.00  0.00     0.090 C 
ENDBRANCH   9  15
ENDBRANCH   5   8
ENDBRANCH   3   4
ENDBRANCH   2   3
ENDBRANCH   1   2
BRANCH   1  23
ATOM     23  C   UNL A   1      34.132  30.707  27.291  1.00  0.00     0.116 C 
BRANCH  23  24
ATOM     24  N   UNL A   1      34.155  31.738  28.323  1.00  0.00    -0.352 N 
ATOM     25  C   UNL A   1      35.027  31.839  29.393  1.00  0.00     0.251 C 
ATOM     26  H   UNL A   1      33.473  32.442  28.250  1.00  0.00     0.163 HD
ATOM     27  O   UNL A   1      34.745  32.511  30.372  1.00  0.00    -0.269 OA
BRANCH  25  28
ATOM     28  C   UNL A   1      36.313  31.117  29.337  1.00  0.00     0.039 A 
ATOM     29  C   UNL A   1      37.523  31.817  29.345  1.00  0.00     0.014 A 
ATOM     30  C   UNL A   1      36.295  29.723  29.269  1.00  0.00     0.014 A 
ATOM     31  C   UNL A   1      38.716  31.098  29.364  1.00  0.00     0.010 A 
ATOM     32  C   UNL A   1      37.467  29.014  29.396  1.00  0.00     0.010 A 
ATOM     33  C   UNL A   1      38.678  29.696  29.409  1.00  0.00    -0.014 A 
BRANCH  33  34
ATOM     34  C   UNL A   1      39.909  28.935  29.576  1.00  0.00     0.031 A 
ATOM     35  C   UNL A   1      40.347  28.760  30.983  1.00  0.00     0.074 A 
ATOM     36  C   UNL A   1      40.513  28.273  28.568  1.00  0.00     0.049 A 
ATOM     37  N   UNL A   1      41.375  29.289  31.556  1.00  0.00    -0.248 NA
ATOM     38  C   UNL A   1      39.481  28.000  31.898  1.00  0.00     0.031 C 
ATOM     39  C   UNL A   1      40.035  28.091  27.194  1.00  0.00     0.029 A 
ATOM     40  N   UNL A   1      41.658  27.534  28.594  1.00  0.00    -0.354 N 
ATOM     41  C   UNL A   1      41.403  28.776  32.850  1.00  0.00     0.074 A 
ATOM     42  C   UNL A   1      40.130  28.138  33.056  1.00  0.00     0.031 C 
ATOM     43  C   UNL A   1      40.766  27.132  26.584  1.00  0.00     0.029 A 
ATOM     44  C   UNL A   1      41.861  26.759  27.461  1.00  0.00     0.049 A 
ATOM     45  H   UNL A   1      42.287  27.549  29.351  1.00  0.00     0.167 HD
ATOM     46  C   UNL A   1      42.579  28.696  33.534  1.00  0.00     0.037 A 
ATOM     47  C   UNL A   1      42.856  25.864  27.262  1.00  0.00     0.037 A 
ATOM     48  C   UNL A   1      43.594  29.499  32.896  1.00  0.00     0.049 A 
ATOM     49  C   UNL A   1      43.964  26.246  28.167  1.00  0.00     0.074 A 
ATOM     50  C   UNL A   1      43.794  30.842  32.654  1.00  0.00     0.029 A 
ATOM     51  N   UNL A   1      44.441  28.820  32.061  1.00  0.00    -0.354 N 
ATOM     52  N   UNL A   1      44.660  27.342  28.044  1.00  0.00    -0.248 NA
ATOM     53  C   UNL A   1      44.084  25.572  29.452  1.00  0.00     0.031 C 
ATOM     54  C   UNL A   1      44.496  30.903  31.411  1.00  0.00     0.029 A 
ATOM     55  C   UNL A   1      44.733  29.598  30.974  1.00  0.00     0.049 A 
ATOM     56  H   UNL A   1      44.787  27.912  32.218  1.00  0.00     0.167 HD
ATOM     57  C   UNL A   1      44.938  27.722  29.344  1.00  0.00     0.074 A 
ATOM     58  C   UNL A   1      44.715  26.524  30.143  1.00  0.00     0.031 C 
ATOM     59  C   UNL A   1      45.030  29.044  29.673  1.00  0.00     0.037 A 
BRANCH  46  60
ATOM     60  C   UNL A   1      42.966  27.567  34.473  1.00  0.00     0.064 A 
ATOM     61  C   UNL A   1      43.216  27.874  35.830  1.00  0.00     0.173 A 
ATOM     62  C   UNL A   1      43.427  26.303  34.048  1.00  0.00     0.173 A 
ATOM     63  F   UNL A   1      42.833  29.050  36.348  1.00  0.00    -0.203 F 
ATOM     64  C   UNL A   1      43.963  27.029  36.657  1.00  0.00     0.198 A 
ATOM     65  C   UNL A   1      44.125  25.439  34.894  1.00  0.00     0.198 A 
ATOM     66  F   UNL A   1      43.330  25.893  32.780  1.00  0.00    -0.203 F 
ATOM     67  F   UNL A   1      44.298  27.431  37.891  1.00  0.00    -0.200 F 
ATOM     68  C   UNL A   1      44.425  25.817  36.184  1.00  0.00     0.200 A 
ATOM     69  F   UNL A   1      44.580  24.275  34.411  1.00  0.00    -0.200 F 
ATOM     70  F   UNL A   1      45.200  25.036  36.949  1.00  0.00    -0.200 F 
ENDBRANCH  46  60
BRANCH  47  71
ATOM     71  C   UNL A   1      42.826  24.567  26.546  1.00  0.00     0.064 A 
ATOM     72  C   UNL A   1      43.555  24.386  25.358  1.00  0.00     0.173 A 
ATOM     73  C   UNL A   1      42.344  23.400  27.168  1.00  0.00     0.173 A 
ATOM     74  F   UNL A   1      44.076  25.444  24.718  1.00  0.00    -0.203 F 
ATOM     75  C   UNL A   1      43.834  23.113  24.853  1.00  0.00     0.198 A 
ATOM     76  C   UNL A   1      42.616  22.129  26.659  1.00  0.00     0.198 A 
ATOM     77  F   UNL A   1      41.687  23.464  28.336  1.00  0.00    -0.203 F 
ATOM     78  F   UNL A   1      44.603  22.979  23.765  1.00  0.00    -0.200 F 
ATOM     79  C   UNL A   1      43.378  21.985  25.515  1.00  0.00     0.200 A 
ATOM     80  F   UNL A   1      42.199  21.043  27.326  1.00  0.00    -0.200 F 
ATOM     81  F   UNL A   1      43.712  20.762  25.077  1.00  0.00    -0.200 F 
ENDBRANCH  47  71
BRANCH  59  82
ATOM     82  C   UNL A   1      45.255  30.021  28.555  1.00  0.00     0.064 A 
ATOM     83  C   UNL A   1      44.233  30.619  27.800  1.00  0.00     0.173 A 
ATOM     84  C   UNL A   1      46.567  30.458  28.328  1.00  0.00     0.173 A 
ATOM     85  F   UNL A   1      42.948  30.314  28.013  1.00  0.00    -0.203 F 
ATOM     86  C   UNL A   1      44.519  31.587  26.839  1.00  0.00     0.198 A 
ATOM     87  C   UNL A   1      46.847  31.452  27.396  1.00  0.00     0.198 A 
ATOM     88  F   UNL A   1      47.579  29.952  29.052  1.00  0.00    -0.203 F 
ATOM     89  F   UNL A   1      43.529  32.137  26.122  1.00  0.00    -0.200 F 
ATOM     90  C   UNL A   1      45.825  32.011  26.646  1.00  0.00     0.200 A 
ATOM     91  F   UNL A   1      48.105  31.888  27.246  1.00  0.00    -0.200 F 
ATOM     92  F   UNL A   1      46.096  32.973  25.755  1.00  0.00    -0.200 F 
ENDBRANCH  59  82
ENDBRANCH  33  34
ENDBRANCH  25  28
ENDBRANCH  23  24
ENDBRANCH   1  23
TORSDOF 12
ENDMDL
