MODEL 1
REMARK VINA RESULT:     -12.0      0.000      0.000
REMARK SMILES CC[C@@H](C(=O)NCCCCNC(=O)c1ccc(-c2c3nc(c(-c4c(F)c(F)c(F)c(F)c4F)c4ccc([nH]4)c(-c4c(F)c(F)c(F)c(F)c4F)c4nc(c(-c5c(F)c(F)c(F)c(F)c5F)c5ccc2[nH]5)C=C4)C=C3)cc1)n1c(SCc2cccc(C(F)(F)F)c2)nc2ccncc21
REMARK SMILES IDX 7 1 6 2 4 3 5 4 3 6 2 7 1 8 77 9 78 10 97 11 91 12 92 13
REMARK SMILES IDX 96 14 93 15 95 16 94 17 79 18 80 19 81 20 82 21 90 22 83 23
REMARK SMILES IDX 85 24 84 25 86 26 87 27 88 28 89 29 8 30 9 31 10 32 11 33
REMARK SMILES IDX 12 34 13 36 14 37 15 38 76 39 16 40 75 41 17 42 18 43 19 44
REMARK SMILES IDX 69 45 20 46 74 47 68 48 70 49 21 50 73 51 67 52 66 53 22 55
REMARK SMILES IDX 54 56 34 57 53 58 35 59 38 60 52 61 71 62 36 63 37 64 51 66
REMARK SMILES IDX 72 67 39 68 23 69 24 70 32 71 25 72 26 73 30 74 33 75 27 76
REMARK SMILES IDX 28 77 31 78 29 79 55 80 56 81 64 82 57 83 58 84 62 85 65 86
REMARK SMILES IDX 59 87 60 88 63 89 61 90 40 91 41 92 49 93 42 94 43 95 47 96
REMARK SMILES IDX 50 97 44 98 45 99 48 100 46 101
REMARK H PARENT 6 5 11 35 70 54 38 65
REMARK Flexibility Score: inf
ROOT
ATOM      1  C   UNL A   1      38.205  23.546  26.069  1.00  0.00     0.116 C 
ENDROOT
BRANCH   1   2
ATOM      2  N   UNL A   1      37.761  23.316  24.709  1.00  0.00    -0.354 N 
ATOM      3  C   UNL A   1      36.514  23.378  24.149  1.00  0.00     0.243 C 
ATOM      4  O   UNL A   1      36.458  23.159  22.938  1.00  0.00    -0.273 OA
ATOM      5  H   UNL A   1      38.480  23.076  24.080  1.00  0.00     0.163 HD
BRANCH   3   6
ATOM      6  C   UNL A   1      35.275  23.733  24.987  1.00  0.00     0.178 C 
BRANCH   6   7
ATOM      7  C   UNL A   1      34.694  22.578  25.846  1.00  0.00     0.032 C 
ATOM      8  C   UNL A   1      34.221  22.897  27.248  1.00  0.00     0.006 C 
ENDBRANCH   6   7
BRANCH   6   9
ATOM      9  N   UNL A   1      34.188  24.284  24.135  1.00  0.00    -0.305 N 
ATOM     10  C   UNL A   1      33.763  23.749  22.932  1.00  0.00     0.170 A 
ATOM     11  C   UNL A   1      33.908  25.646  24.064  1.00  0.00     0.088 A 
ATOM     12  N   UNL A   1      33.647  24.693  22.020  1.00  0.00    -0.222 NA
ATOM     13  C   UNL A   1      33.683  25.877  22.713  1.00  0.00     0.093 A 
ATOM     14  C   UNL A   1      33.918  26.683  24.989  1.00  0.00     0.139 A 
ATOM     15  C   UNL A   1      33.505  27.183  22.258  1.00  0.00     0.051 A 
ATOM     16  N   UNL A   1      33.729  27.949  24.551  1.00  0.00    -0.262 NA
ATOM     17  C   UNL A   1      33.533  28.169  23.231  1.00  0.00     0.113 A 
BRANCH  10  18
ATOM     18  S   UNL A   1      32.833  22.287  22.767  1.00  0.00    -0.083 SA
BRANCH  18  19
ATOM     19  C   UNL A   1      31.114  22.636  23.124  1.00  0.00     0.113 C 
BRANCH  19  20
ATOM     20  C   UNL A   1      30.816  23.815  24.013  1.00  0.00    -0.037 A 
ATOM     21  C   UNL A   1      30.968  23.777  25.403  1.00  0.00     0.004 A 
ATOM     22  C   UNL A   1      30.319  24.991  23.432  1.00  0.00     0.017 A 
ATOM     23  C   UNL A   1      30.708  24.912  26.174  1.00  0.00     0.001 A 
ATOM     24  C   UNL A   1      30.114  26.158  24.182  1.00  0.00     0.056 A 
ATOM     25  C   UNL A   1      30.309  26.104  25.566  1.00  0.00     0.013 A 
BRANCH  24  26
ATOM     26  C   UNL A   1      29.755  27.454  23.502  1.00  0.00     0.416 C 
ATOM     27  F   UNL A   1      28.417  27.676  23.428  1.00  0.00    -0.166 F 
ATOM     28  F   UNL A   1      30.290  28.532  24.141  1.00  0.00    -0.166 F 
ATOM     29  F   UNL A   1      30.223  27.531  22.219  1.00  0.00    -0.166 F 
ENDBRANCH  24  26
ENDBRANCH  19  20
ENDBRANCH  18  19
ENDBRANCH  10  18
ENDBRANCH   6   9
ENDBRANCH   3   6
ENDBRANCH   1   2
BRANCH   1  30
ATOM     30  C   UNL A   1      39.327  22.598  26.492  1.00  0.00     0.023 C 
BRANCH  30  31
ATOM     31  C   UNL A   1      39.399  21.293  25.715  1.00  0.00     0.023 C 
BRANCH  31  32
ATOM     32  C   UNL A   1      39.716  20.067  26.554  1.00  0.00     0.116 C 
BRANCH  32  33
ATOM     33  N   UNL A   1      40.791  19.250  26.013  1.00  0.00    -0.352 N 
ATOM     34  C   UNL A   1      42.126  19.559  25.848  1.00  0.00     0.251 C 
ATOM     35  H   UNL A   1      40.530  18.347  25.723  1.00  0.00     0.163 HD
ATOM     36  O   UNL A   1      42.873  18.786  25.278  1.00  0.00    -0.269 OA
BRANCH  34  37
ATOM     37  C   UNL A   1      42.633  20.864  26.333  1.00  0.00     0.039 A 
ATOM     38  C   UNL A   1      43.033  21.819  25.397  1.00  0.00     0.014 A 
ATOM     39  C   UNL A   1      42.671  21.158  27.698  1.00  0.00     0.014 A 
ATOM     40  C   UNL A   1      43.396  23.097  25.830  1.00  0.00     0.010 A 
ATOM     41  C   UNL A   1      42.925  22.458  28.117  1.00  0.00     0.010 A 
ATOM     42  C   UNL A   1      43.300  23.440  27.190  1.00  0.00    -0.014 A 
BRANCH  42  43
ATOM     43  C   UNL A   1      43.597  24.820  27.653  1.00  0.00     0.031 A 
ATOM     44  C   UNL A   1      45.023  25.285  27.780  1.00  0.00     0.074 A 
ATOM     45  C   UNL A   1      42.586  25.636  28.009  1.00  0.00     0.049 A 
ATOM     46  N   UNL A   1      45.482  26.448  28.169  1.00  0.00    -0.248 NA
ATOM     47  C   UNL A   1      46.073  24.306  27.461  1.00  0.00     0.031 C 
ATOM     48  C   UNL A   1      41.167  25.274  28.006  1.00  0.00     0.029 A 
ATOM     49  N   UNL A   1      42.595  26.938  28.438  1.00  0.00    -0.354 N 
ATOM     50  C   UNL A   1      46.866  26.332  28.151  1.00  0.00     0.074 A 
ATOM     51  C   UNL A   1      47.172  24.968  27.787  1.00  0.00     0.031 C 
ATOM     52  C   UNL A   1      40.440  26.343  28.372  1.00  0.00     0.029 A 
ATOM     53  C   UNL A   1      41.341  27.453  28.663  1.00  0.00     0.049 A 
ATOM     54  H   UNL A   1      43.422  27.456  28.574  1.00  0.00     0.167 HD
ATOM     55  C   UNL A   1      47.800  27.286  28.383  1.00  0.00     0.037 A 
ATOM     56  C   UNL A   1      40.963  28.687  29.047  1.00  0.00     0.037 A 
ATOM     57  C   UNL A   1      47.490  28.651  28.719  1.00  0.00     0.049 A 
ATOM     58  C   UNL A   1      42.017  29.737  29.271  1.00  0.00     0.074 A 
ATOM     59  C   UNL A   1      48.358  29.710  28.917  1.00  0.00     0.029 A 
ATOM     60  N   UNL A   1      46.207  29.144  28.907  1.00  0.00    -0.354 N 
ATOM     61  N   UNL A   1      43.321  29.638  29.168  1.00  0.00    -0.248 NA
ATOM     62  C   UNL A   1      41.545  31.076  29.645  1.00  0.00     0.031 C 
ATOM     63  C   UNL A   1      47.601  30.835  29.269  1.00  0.00     0.029 A 
ATOM     64  C   UNL A   1      46.260  30.490  29.234  1.00  0.00     0.049 A 
ATOM     65  H   UNL A   1      45.381  28.616  28.820  1.00  0.00     0.167 HD
ATOM     66  C   UNL A   1      43.822  30.905  29.435  1.00  0.00     0.074 A 
ATOM     67  C   UNL A   1      42.678  31.760  29.681  1.00  0.00     0.031 C 
ATOM     68  C   UNL A   1      45.110  31.326  29.473  1.00  0.00     0.037 A 
BRANCH  55  69
ATOM     69  C   UNL A   1      49.243  26.884  28.266  1.00  0.00     0.064 A 
ATOM     70  C   UNL A   1      49.903  26.862  27.026  1.00  0.00     0.173 A 
ATOM     71  C   UNL A   1      49.982  26.534  29.405  1.00  0.00     0.173 A 
ATOM     72  F   UNL A   1      49.239  27.173  25.901  1.00  0.00    -0.203 F 
ATOM     73  C   UNL A   1      51.235  26.471  26.928  1.00  0.00     0.198 A 
ATOM     74  C   UNL A   1      51.325  26.176  29.308  1.00  0.00     0.198 A 
ATOM     75  F   UNL A   1      49.404  26.541  30.615  1.00  0.00    -0.203 F 
ATOM     76  F   UNL A   1      51.824  26.399  25.726  1.00  0.00    -0.200 F 
ATOM     77  C   UNL A   1      51.947  26.135  28.069  1.00  0.00     0.200 A 
ATOM     78  F   UNL A   1      52.015  25.864  30.413  1.00  0.00    -0.200 F 
ATOM     79  F   UNL A   1      53.231  25.762  27.974  1.00  0.00    -0.200 F 
ENDBRANCH  55  69
BRANCH  56  80
ATOM     80  C   UNL A   1      39.519  29.012  29.192  1.00  0.00     0.064 A 
ATOM     81  C   UNL A   1      38.762  29.427  28.086  1.00  0.00     0.173 A 
ATOM     82  C   UNL A   1      38.868  28.922  30.430  1.00  0.00     0.173 A 
ATOM     83  F   UNL A   1      39.343  29.548  26.884  1.00  0.00    -0.203 F 
ATOM     84  C   UNL A   1      37.416  29.765  28.221  1.00  0.00     0.198 A 
ATOM     85  C   UNL A   1      37.515  29.230  30.556  1.00  0.00     0.198 A 
ATOM     86  F   UNL A   1      39.544  28.521  31.516  1.00  0.00    -0.203 F 
ATOM     87  F   UNL A   1      36.731  30.208  27.158  1.00  0.00    -0.200 F 
ATOM     88  C   UNL A   1      36.793  29.661  29.454  1.00  0.00     0.200 A 
ATOM     89  F   UNL A   1      36.912  29.112  31.747  1.00  0.00    -0.200 F 
ATOM     90  F   UNL A   1      35.498  29.982  29.581  1.00  0.00    -0.200 F 
ENDBRANCH  56  80
BRANCH  68  91
ATOM     91  C   UNL A   1      45.346  32.782  29.754  1.00  0.00     0.064 A 
ATOM     92  C   UNL A   1      45.547  33.260  31.057  1.00  0.00     0.173 A 
ATOM     93  C   UNL A   1      45.379  33.710  28.702  1.00  0.00     0.173 A 
ATOM     94  F   UNL A   1      45.512  32.416  32.100  1.00  0.00    -0.203 F 
ATOM     95  C   UNL A   1      45.729  34.619  31.300  1.00  0.00     0.198 A 
ATOM     96  C   UNL A   1      45.597  35.063  28.945  1.00  0.00     0.198 A 
ATOM     97  F   UNL A   1      45.203  33.304  27.435  1.00  0.00    -0.203 F 
ATOM     98  F   UNL A   1      45.852  35.061  32.560  1.00  0.00    -0.200 F 
ATOM     99  C   UNL A   1      45.759  35.518  30.244  1.00  0.00     0.200 A 
ATOM    100  F   UNL A   1      45.642  35.927  27.922  1.00  0.00    -0.200 F 
ATOM    101  F   UNL A   1      45.933  36.825  30.481  1.00  0.00    -0.200 F 
ENDBRANCH  68  91
ENDBRANCH  42  43
ENDBRANCH  34  37
ENDBRANCH  32  33
ENDBRANCH  31  32
ENDBRANCH  30  31
ENDBRANCH   1  30
TORSDOF 17
ENDMDL
MODEL 2
REMARK VINA RESULT:     -11.9      4.745      9.689
REMARK SMILES CC[C@@H](C(=O)NCCCCNC(=O)c1ccc(-c2c3nc(c(-c4c(F)c(F)c(F)c(F)c4F)c4ccc([nH]4)c(-c4c(F)c(F)c(F)c(F)c4F)c4nc(c(-c5c(F)c(F)c(F)c(F)c5F)c5ccc2[nH]5)C=C4)C=C3)cc1)n1c(SCc2cccc(C(F)(F)F)c2)nc2ccncc21
REMARK SMILES IDX 7 1 6 2 4 3 5 4 3 6 2 7 1 8 77 9 78 10 97 11 91 12 92 13
REMARK SMILES IDX 96 14 93 15 95 16 94 17 79 18 80 19 81 20 82 21 90 22 83 23
REMARK SMILES IDX 85 24 84 25 86 26 87 27 88 28 89 29 8 30 9 31 10 32 11 33
REMARK SMILES IDX 12 34 13 36 14 37 15 38 76 39 16 40 75 41 17 42 18 43 19 44
REMARK SMILES IDX 69 45 20 46 74 47 68 48 70 49 21 50 73 51 67 52 66 53 22 55
REMARK SMILES IDX 54 56 34 57 53 58 35 59 38 60 52 61 71 62 36 63 37 64 51 66
REMARK SMILES IDX 72 67 39 68 23 69 24 70 32 71 25 72 26 73 30 74 33 75 27 76
REMARK SMILES IDX 28 77 31 78 29 79 55 80 56 81 64 82 57 83 58 84 62 85 65 86
REMARK SMILES IDX 59 87 60 88 63 89 61 90 40 91 41 92 49 93 42 94 43 95 47 96
REMARK SMILES IDX 50 97 44 98 45 99 48 100 46 101
REMARK H PARENT 6 5 11 35 70 54 38 65
REMARK Flexibility Score: inf
ROOT
ATOM      1  C   UNL A   1      31.203  26.181  26.293  1.00  0.00     0.116 C 
ENDROOT
BRANCH   1   2
ATOM      2  N   UNL A   1      32.091  25.189  26.863  1.00  0.00    -0.354 N 
ATOM      3  C   UNL A   1      32.258  23.861  26.573  1.00  0.00     0.243 C 
ATOM      4  O   UNL A   1      33.130  23.277  27.218  1.00  0.00    -0.273 OA
ATOM      5  H   UNL A   1      32.675  25.527  27.580  1.00  0.00     0.163 HD
BRANCH   3   6
ATOM      6  C   UNL A   1      31.424  23.167  25.485  1.00  0.00     0.178 C 
BRANCH   6   7
ATOM      7  C   UNL A   1      30.279  22.253  25.999  1.00  0.00     0.032 C 
ATOM      8  C   UNL A   1      29.528  22.678  27.243  1.00  0.00     0.006 C 
ENDBRANCH   6   7
BRANCH   6   9
ATOM      9  N   UNL A   1      32.286  22.375  24.568  1.00  0.00    -0.305 N 
ATOM     10  C   UNL A   1      32.538  22.679  23.241  1.00  0.00     0.170 A 
ATOM     11  C   UNL A   1      32.420  20.993  24.672  1.00  0.00     0.088 A 
ATOM     12  N   UNL A   1      32.400  21.608  22.487  1.00  0.00    -0.222 NA
ATOM     13  C   UNL A   1      32.378  20.548  23.356  1.00  0.00     0.093 A 
ATOM     14  C   UNL A   1      32.477  20.107  25.740  1.00  0.00     0.139 A 
ATOM     15  C   UNL A   1      32.349  19.178  23.094  1.00  0.00     0.051 A 
ATOM     16  N   UNL A   1      32.466  18.778  25.486  1.00  0.00    -0.262 NA
ATOM     17  C   UNL A   1      32.402  18.351  24.204  1.00  0.00     0.113 A 
BRANCH  10  18
ATOM     18  S   UNL A   1      33.556  23.981  22.696  1.00  0.00    -0.083 SA
BRANCH  18  19
ATOM     19  C   UNL A   1      34.588  24.532  24.052  1.00  0.00     0.113 C 
BRANCH  19  20
ATOM     20  C   UNL A   1      35.712  23.626  24.481  1.00  0.00    -0.037 A 
ATOM     21  C   UNL A   1      35.871  22.326  23.989  1.00  0.00     0.004 A 
ATOM     22  C   UNL A   1      36.617  24.084  25.450  1.00  0.00     0.017 A 
ATOM     23  C   UNL A   1      36.953  21.544  24.398  1.00  0.00     0.001 A 
ATOM     24  C   UNL A   1      37.742  23.338  25.824  1.00  0.00     0.056 A 
ATOM     25  C   UNL A   1      37.898  22.054  25.290  1.00  0.00     0.013 A 
BRANCH  24  26
ATOM     26  C   UNL A   1      38.791  23.930  26.730  1.00  0.00     0.416 C 
ATOM     27  F   UNL A   1      39.656  23.012  27.232  1.00  0.00    -0.166 F 
ATOM     28  F   UNL A   1      39.548  24.866  26.091  1.00  0.00    -0.166 F 
ATOM     29  F   UNL A   1      38.258  24.578  27.810  1.00  0.00    -0.166 F 
ENDBRANCH  24  26
ENDBRANCH  19  20
ENDBRANCH  18  19
ENDBRANCH  10  18
ENDBRANCH   6   9
ENDBRANCH   3   6
ENDBRANCH   1   2
BRANCH   1  30
ATOM     30  C   UNL A   1      31.937  27.200  25.424  1.00  0.00     0.023 C 
BRANCH  30  31
ATOM     31  C   UNL A   1      31.718  28.656  25.807  1.00  0.00     0.023 C 
BRANCH  31  32
ATOM     32  C   UNL A   1      32.975  29.403  26.222  1.00  0.00     0.116 C 
BRANCH  32  33
ATOM     33  N   UNL A   1      32.739  30.796  26.569  1.00  0.00    -0.352 N 
ATOM     34  C   UNL A   1      33.500  31.644  27.346  1.00  0.00     0.251 C 
ATOM     35  H   UNL A   1      31.918  31.190  26.195  1.00  0.00     0.163 HD
ATOM     36  O   UNL A   1      33.097  32.760  27.620  1.00  0.00    -0.269 OA
BRANCH  34  37
ATOM     37  C   UNL A   1      34.796  31.168  27.883  1.00  0.00     0.039 A 
ATOM     38  C   UNL A   1      35.856  32.072  27.979  1.00  0.00     0.014 A 
ATOM     39  C   UNL A   1      34.951  29.854  28.331  1.00  0.00     0.014 A 
ATOM     40  C   UNL A   1      37.044  31.675  28.597  1.00  0.00     0.010 A 
ATOM     41  C   UNL A   1      36.089  29.496  29.042  1.00  0.00     0.010 A 
ATOM     42  C   UNL A   1      37.154  30.398  29.175  1.00  0.00    -0.014 A 
BRANCH  42  43
ATOM     43  C   UNL A   1      38.378  29.995  29.912  1.00  0.00     0.031 A 
ATOM     44  C   UNL A   1      38.624  30.502  31.307  1.00  0.00     0.074 A 
ATOM     45  C   UNL A   1      39.294  29.214  29.306  1.00  0.00     0.049 A 
ATOM     46  N   UNL A   1      39.632  30.266  32.108  1.00  0.00    -0.248 NA
ATOM     47  C   UNL A   1      37.622  31.424  31.865  1.00  0.00     0.031 C 
ATOM     48  C   UNL A   1      39.209  28.723  27.928  1.00  0.00     0.029 A 
ATOM     49  N   UNL A   1      40.475  28.693  29.770  1.00  0.00    -0.354 N 
ATOM     50  C   UNL A   1      39.390  31.017  33.251  1.00  0.00     0.074 A 
ATOM     51  C   UNL A   1      38.181  31.773  33.013  1.00  0.00     0.031 C 
ATOM     52  C   UNL A   1      40.268  27.937  27.676  1.00  0.00     0.029 A 
ATOM     53  C   UNL A   1      41.121  27.893  28.859  1.00  0.00     0.049 A 
ATOM     54  H   UNL A   1      40.827  28.876  30.672  1.00  0.00     0.167 HD
ATOM     55  C   UNL A   1      40.091  31.047  34.410  1.00  0.00     0.037 A 
ATOM     56  C   UNL A   1      42.265  27.193  28.973  1.00  0.00     0.037 A 
ATOM     57  C   UNL A   1      41.279  30.272  34.653  1.00  0.00     0.049 A 
ATOM     58  C   UNL A   1      43.010  27.220  30.279  1.00  0.00     0.074 A 
ATOM     59  C   UNL A   1      42.032  30.184  35.809  1.00  0.00     0.029 A 
ATOM     60  N   UNL A   1      41.886  29.448  33.716  1.00  0.00    -0.354 N 
ATOM     61  N   UNL A   1      42.725  27.867  31.384  1.00  0.00    -0.248 NA
ATOM     62  C   UNL A   1      44.228  26.402  30.361  1.00  0.00     0.031 C 
ATOM     63  C   UNL A   1      43.122  29.341  35.559  1.00  0.00     0.029 A 
ATOM     64  C   UNL A   1      43.015  28.859  34.265  1.00  0.00     0.049 A 
ATOM     65  H   UNL A   1      41.563  29.301  32.798  1.00  0.00     0.167 HD
ATOM     66  C   UNL A   1      43.708  27.513  32.299  1.00  0.00     0.074 A 
ATOM     67  C   UNL A   1      44.583  26.575  31.625  1.00  0.00     0.031 C 
ATOM     68  C   UNL A   1      43.873  27.925  33.580  1.00  0.00     0.037 A 
BRANCH  55  69
ATOM     69  C   UNL A   1      39.579  31.940  35.505  1.00  0.00     0.064 A 
ATOM     70  C   UNL A   1      38.630  31.490  36.438  1.00  0.00     0.173 A 
ATOM     71  C   UNL A   1      40.053  33.253  35.638  1.00  0.00     0.173 A 
ATOM     72  F   UNL A   1      38.131  30.247  36.348  1.00  0.00    -0.203 F 
ATOM     73  C   UNL A   1      38.150  32.333  37.437  1.00  0.00     0.198 A 
ATOM     74  C   UNL A   1      39.596  34.082  36.659  1.00  0.00     0.198 A 
ATOM     75  F   UNL A   1      40.962  33.733  34.777  1.00  0.00    -0.203 F 
ATOM     76  F   UNL A   1      37.199  31.899  38.276  1.00  0.00    -0.200 F 
ATOM     77  C   UNL A   1      38.638  33.624  37.552  1.00  0.00     0.200 A 
ATOM     78  F   UNL A   1      40.078  35.326  36.777  1.00  0.00    -0.200 F 
ATOM     79  F   UNL A   1      38.178  34.433  38.516  1.00  0.00    -0.200 F 
ENDBRANCH  55  69
BRANCH  56  80
ATOM     80  C   UNL A   1      42.747  26.364  27.836  1.00  0.00     0.064 A 
ATOM     81  C   UNL A   1      42.382  25.013  27.727  1.00  0.00     0.173 A 
ATOM     82  C   UNL A   1      43.581  26.895  26.843  1.00  0.00     0.173 A 
ATOM     83  F   UNL A   1      41.601  24.453  28.661  1.00  0.00    -0.203 F 
ATOM     84  C   UNL A   1      42.856  24.221  26.682  1.00  0.00     0.198 A 
ATOM     85  C   UNL A   1      44.029  26.110  25.783  1.00  0.00     0.198 A 
ATOM     86  F   UNL A   1      43.951  28.183  26.896  1.00  0.00    -0.203 F 
ATOM     87  F   UNL A   1      42.534  22.921  26.631  1.00  0.00    -0.200 F 
ATOM     88  C   UNL A   1      43.674  24.772  25.709  1.00  0.00     0.200 A 
ATOM     89  F   UNL A   1      44.807  26.650  24.834  1.00  0.00    -0.200 F 
ATOM     90  F   UNL A   1      44.127  24.011  24.702  1.00  0.00    -0.200 F 
ENDBRANCH  56  80
BRANCH  68  91
ATOM     91  C   UNL A   1      45.020  27.332  34.346  1.00  0.00     0.064 A 
ATOM     92  C   UNL A   1      44.886  26.142  35.076  1.00  0.00     0.173 A 
ATOM     93  C   UNL A   1      46.274  27.961  34.343  1.00  0.00     0.173 A 
ATOM     94  F   UNL A   1      43.704  25.507  35.122  1.00  0.00    -0.203 F 
ATOM     95  C   UNL A   1      45.952  25.627  35.808  1.00  0.00     0.198 A 
ATOM     96  C   UNL A   1      47.348  27.426  35.047  1.00  0.00     0.198 A 
ATOM     97  F   UNL A   1      46.460  29.097  33.652  1.00  0.00    -0.203 F 
ATOM     98  F   UNL A   1      45.781  24.525  36.552  1.00  0.00    -0.200 F 
ATOM     99  C   UNL A   1      47.183  26.267  35.789  1.00  0.00     0.200 A 
ATOM    100  F   UNL A   1      48.540  28.036  35.015  1.00  0.00    -0.200 F 
ATOM    101  F   UNL A   1      48.207  25.770  36.497  1.00  0.00    -0.200 F 
ENDBRANCH  68  91
ENDBRANCH  42  43
ENDBRANCH  34  37
ENDBRANCH  32  33
ENDBRANCH  31  32
ENDBRANCH  30  31
ENDBRANCH   1  30
TORSDOF 17
ENDMDL
MODEL 3
REMARK VINA RESULT:     -11.9      2.205      3.738
REMARK SMILES CC[C@@H](C(=O)NCCCCNC(=O)c1ccc(-c2c3nc(c(-c4c(F)c(F)c(F)c(F)c4F)c4ccc([nH]4)c(-c4c(F)c(F)c(F)c(F)c4F)c4nc(c(-c5c(F)c(F)c(F)c(F)c5F)c5ccc2[nH]5)C=C4)C=C3)cc1)n1c(SCc2cccc(C(F)(F)F)c2)nc2ccncc21
REMARK SMILES IDX 7 1 6 2 4 3 5 4 3 6 2 7 1 8 77 9 78 10 97 11 91 12 92 13
REMARK SMILES IDX 96 14 93 15 95 16 94 17 79 18 80 19 81 20 82 21 90 22 83 23
REMARK SMILES IDX 85 24 84 25 86 26 87 27 88 28 89 29 8 30 9 31 10 32 11 33
REMARK SMILES IDX 12 34 13 36 14 37 15 38 76 39 16 40 75 41 17 42 18 43 19 44
REMARK SMILES IDX 69 45 20 46 74 47 68 48 70 49 21 50 73 51 67 52 66 53 22 55
REMARK SMILES IDX 54 56 34 57 53 58 35 59 38 60 52 61 71 62 36 63 37 64 51 66
REMARK SMILES IDX 72 67 39 68 23 69 24 70 32 71 25 72 26 73 30 74 33 75 27 76
REMARK SMILES IDX 28 77 31 78 29 79 55 80 56 81 64 82 57 83 58 84 62 85 65 86
REMARK SMILES IDX 59 87 60 88 63 89 61 90 40 91 41 92 49 93 42 94 43 95 47 96
REMARK SMILES IDX 50 97 44 98 45 99 48 100 46 101
REMARK H PARENT 6 5 11 35 70 54 38 65
REMARK Flexibility Score: inf
ROOT
ATOM      1  C   UNL A   1      35.642  22.651  23.671  1.00  0.00     0.116 C 
ENDROOT
BRANCH   1   2
ATOM      2  N   UNL A   1      35.270  24.011  24.006  1.00  0.00    -0.354 N 
ATOM      3  C   UNL A   1      34.132  24.723  23.739  1.00  0.00     0.243 C 
ATOM      4  O   UNL A   1      34.096  25.868  24.191  1.00  0.00    -0.273 OA
ATOM      5  H   UNL A   1      35.952  24.508  24.514  1.00  0.00     0.163 HD
BRANCH   3   6
ATOM      6  C   UNL A   1      32.966  24.104  22.950  1.00  0.00     0.178 C 
BRANCH   6   7
ATOM      7  C   UNL A   1      31.994  25.117  22.287  1.00  0.00     0.032 C 
ATOM      8  C   UNL A   1      32.434  25.799  21.009  1.00  0.00     0.006 C 
ENDBRANCH   6   7
BRANCH   6   9
ATOM      9  N   UNL A   1      32.174  23.174  23.799  1.00  0.00    -0.305 N 
ATOM     10  C   UNL A   1      31.909  23.346  25.146  1.00  0.00     0.170 A 
ATOM     11  C   UNL A   1      32.147  21.799  23.580  1.00  0.00     0.088 A 
ATOM     12  N   UNL A   1      32.135  22.230  25.809  1.00  0.00    -0.222 NA
ATOM     13  C   UNL A   1      32.233  21.251  24.854  1.00  0.00     0.093 A 
ATOM     14  C   UNL A   1      32.151  21.003  22.442  1.00  0.00     0.139 A 
ATOM     15  C   UNL A   1      32.370  19.870  25.001  1.00  0.00     0.051 A 
ATOM     16  N   UNL A   1      32.267  19.663  22.584  1.00  0.00    -0.262 NA
ATOM     17  C   UNL A   1      32.373  19.136  23.825  1.00  0.00     0.113 A 
BRANCH  10  18
ATOM     18  S   UNL A   1      30.798  24.515  25.799  1.00  0.00    -0.083 SA
BRANCH  18  19
ATOM     19  C   UNL A   1      31.710  25.743  26.730  1.00  0.00     0.113 C 
BRANCH  19  20
ATOM     20  C   UNL A   1      31.601  27.176  26.281  1.00  0.00    -0.037 A 
ATOM     21  C   UNL A   1      31.946  28.257  27.098  1.00  0.00     0.004 A 
ATOM     22  C   UNL A   1      31.089  27.447  25.003  1.00  0.00     0.017 A 
ATOM     23  C   UNL A   1      31.856  29.565  26.616  1.00  0.00     0.001 A 
ATOM     24  C   UNL A   1      31.052  28.747  24.481  1.00  0.00     0.056 A 
ATOM     25  C   UNL A   1      31.437  29.808  25.307  1.00  0.00     0.013 A 
BRANCH  24  26
ATOM     26  C   UNL A   1      30.668  28.987  23.043  1.00  0.00     0.416 C 
ATOM     27  F   UNL A   1      29.788  30.008  22.880  1.00  0.00    -0.166 F 
ATOM     28  F   UNL A   1      31.749  29.281  22.268  1.00  0.00    -0.166 F 
ATOM     29  F   UNL A   1      30.093  27.894  22.456  1.00  0.00    -0.166 F 
ENDBRANCH  24  26
ENDBRANCH  19  20
ENDBRANCH  18  19
ENDBRANCH  10  18
ENDBRANCH   6   9
ENDBRANCH   3   6
ENDBRANCH   1   2
BRANCH   1  30
ATOM     30  C   UNL A   1      35.762  21.752  24.901  1.00  0.00     0.023 C 
BRANCH  30  31
ATOM     31  C   UNL A   1      36.978  20.840  24.919  1.00  0.00     0.023 C 
BRANCH  31  32
ATOM     32  C   UNL A   1      38.252  21.484  25.440  1.00  0.00     0.116 C 
BRANCH  32  33
ATOM     33  N   UNL A   1      39.181  20.540  26.042  1.00  0.00    -0.352 N 
ATOM     34  C   UNL A   1      40.307  20.785  26.800  1.00  0.00     0.251 C 
ATOM     35  H   UNL A   1      38.978  19.590  25.884  1.00  0.00     0.163 HD
ATOM     36  O   UNL A   1      41.035  19.870  27.140  1.00  0.00    -0.269 OA
BRANCH  34  37
ATOM     37  C   UNL A   1      40.648  22.180  27.163  1.00  0.00     0.039 A 
ATOM     38  C   UNL A   1      41.546  22.403  28.209  1.00  0.00     0.014 A 
ATOM     39  C   UNL A   1      40.123  23.258  26.448  1.00  0.00     0.014 A 
ATOM     40  C   UNL A   1      41.975  23.704  28.483  1.00  0.00     0.010 A 
ATOM     41  C   UNL A   1      40.632  24.535  26.648  1.00  0.00     0.010 A 
ATOM     42  C   UNL A   1      41.556  24.775  27.674  1.00  0.00    -0.014 A 
BRANCH  42  43
ATOM     43  C   UNL A   1      42.073  26.149  27.898  1.00  0.00     0.031 A 
ATOM     44  C   UNL A   1      43.421  26.549  27.359  1.00  0.00     0.074 A 
ATOM     45  C   UNL A   1      41.354  27.020  28.632  1.00  0.00     0.049 A 
ATOM     46  N   UNL A   1      44.043  27.697  27.455  1.00  0.00    -0.248 NA
ATOM     47  C   UNL A   1      44.186  25.513  26.648  1.00  0.00     0.031 C 
ATOM     48  C   UNL A   1      40.071  26.727  29.275  1.00  0.00     0.029 A 
ATOM     49  N   UNL A   1      41.595  28.330  28.958  1.00  0.00    -0.354 N 
ATOM     50  C   UNL A   1      45.269  27.514  26.830  1.00  0.00     0.074 A 
ATOM     51  C   UNL A   1      45.336  26.129  26.424  1.00  0.00     0.031 C 
ATOM     52  C   UNL A   1      39.619  27.838  29.880  1.00  0.00     0.029 A 
ATOM     53  C   UNL A   1      40.591  28.910  29.695  1.00  0.00     0.049 A 
ATOM     54  H   UNL A   1      42.413  28.811  28.691  1.00  0.00     0.167 HD
ATOM     55  C   UNL A   1      46.239  28.428  26.582  1.00  0.00     0.037 A 
ATOM     56  C   UNL A   1      40.464  30.169  30.154  1.00  0.00     0.037 A 
ATOM     57  C   UNL A   1      46.156  29.813  26.963  1.00  0.00     0.049 A 
ATOM     58  C   UNL A   1      41.541  31.172  29.843  1.00  0.00     0.074 A 
ATOM     59  C   UNL A   1      47.055  30.834  26.712  1.00  0.00     0.029 A 
ATOM     60  N   UNL A   1      45.108  30.371  27.681  1.00  0.00    -0.354 N 
ATOM     61  N   UNL A   1      42.658  31.009  29.176  1.00  0.00    -0.248 NA
ATOM     62  C   UNL A   1      41.329  32.540  30.332  1.00  0.00     0.031 C 
ATOM     63  C   UNL A   1      46.572  32.001  27.316  1.00  0.00     0.029 A 
ATOM     64  C   UNL A   1      45.345  31.720  27.894  1.00  0.00     0.049 A 
ATOM     65  H   UNL A   1      44.313  29.881  27.992  1.00  0.00     0.167 HD
ATOM     66  C   UNL A   1      43.267  32.256  29.139  1.00  0.00     0.074 A 
ATOM     67  C   UNL A   1      42.382  33.170  29.832  1.00  0.00     0.031 C 
ATOM     68  C   UNL A   1      44.450  32.615  28.584  1.00  0.00     0.037 A 
BRANCH  55  69
ATOM     69  C   UNL A   1      47.465  27.954  25.854  1.00  0.00     0.064 A 
ATOM     70  C   UNL A   1      47.480  27.808  24.457  1.00  0.00     0.173 A 
ATOM     71  C   UNL A   1      48.644  27.661  26.553  1.00  0.00     0.173 A 
ATOM     72  F   UNL A   1      46.375  28.061  23.739  1.00  0.00    -0.203 F 
ATOM     73  C   UNL A   1      48.617  27.351  23.795  1.00  0.00     0.198 A 
ATOM     74  C   UNL A   1      49.790  27.237  25.884  1.00  0.00     0.198 A 
ATOM     75  F   UNL A   1      48.687  27.786  27.888  1.00  0.00    -0.203 F 
ATOM     76  F   UNL A   1      48.586  27.161  22.468  1.00  0.00    -0.200 F 
ATOM     77  C   UNL A   1      49.773  27.073  24.507  1.00  0.00     0.200 A 
ATOM     78  F   UNL A   1      50.910  26.981  26.574  1.00  0.00    -0.200 F 
ATOM     79  F   UNL A   1      50.867  26.638  23.869  1.00  0.00    -0.200 F 
ENDBRANCH  55  69
BRANCH  56  80
ATOM     80  C   UNL A   1      39.247  30.566  30.912  1.00  0.00     0.064 A 
ATOM     81  C   UNL A   1      39.181  30.401  32.303  1.00  0.00     0.173 A 
ATOM     82  C   UNL A   1      38.128  31.110  30.267  1.00  0.00     0.173 A 
ATOM     83  F   UNL A   1      40.219  29.867  32.964  1.00  0.00    -0.203 F 
ATOM     84  C   UNL A   1      38.032  30.740  33.016  1.00  0.00     0.198 A 
ATOM     85  C   UNL A   1      36.991  31.478  30.985  1.00  0.00     0.198 A 
ATOM     86  F   UNL A   1      38.143  31.297  28.940  1.00  0.00    -0.203 F 
ATOM     87  F   UNL A   1      37.979  30.524  34.337  1.00  0.00    -0.200 F 
ATOM     88  C   UNL A   1      36.941  31.284  32.357  1.00  0.00     0.200 A 
ATOM     89  F   UNL A   1      35.944  32.018  30.347  1.00  0.00    -0.200 F 
ATOM     90  F   UNL A   1      35.838  31.613  33.043  1.00  0.00    -0.200 F 
ENDBRANCH  56  80
BRANCH  68  91
ATOM     91  C   UNL A   1      44.834  34.065  28.669  1.00  0.00     0.064 A 
ATOM     92  C   UNL A   1      44.447  34.991  27.689  1.00  0.00     0.173 A 
ATOM     93  C   UNL A   1      45.594  34.533  29.752  1.00  0.00     0.173 A 
ATOM     94  F   UNL A   1      43.731  34.592  26.627  1.00  0.00    -0.203 F 
ATOM     95  C   UNL A   1      44.843  36.323  27.769  1.00  0.00     0.198 A 
ATOM     96  C   UNL A   1      45.958  35.873  29.846  1.00  0.00     0.198 A 
ATOM     97  F   UNL A   1      45.982  33.691  30.722  1.00  0.00    -0.203 F 
ATOM     98  F   UNL A   1      44.518  37.176  26.787  1.00  0.00    -0.200 F 
ATOM     99  C   UNL A   1      45.593  36.764  28.850  1.00  0.00     0.200 A 
ATOM    100  F   UNL A   1      46.669  36.299  30.899  1.00  0.00    -0.200 F 
ATOM    101  F   UNL A   1      45.975  38.047  28.923  1.00  0.00    -0.200 F 
ENDBRANCH  68  91
ENDBRANCH  42  43
ENDBRANCH  34  37
ENDBRANCH  32  33
ENDBRANCH  31  32
ENDBRANCH  30  31
ENDBRANCH   1  30
TORSDOF 17
ENDMDL
