MODEL 1
REMARK VINA RESULT:     -14.5      0.000      0.000
REMARK SMILES O=C(NCCCCNC(=O)[C@@H]1CS[C@H](c2ncc(-c3ccccc3)s2)[NH2+]1)c1ccc(-c2c3nc(c(-c4c(F)c(F)c(F)c(F)c4F)c4ccc([nH]4)c(-c4c(F)c(F)c(F)c(F)c4F)c4nc(c(-c5c(F)c(F)c(F)c(F)c5F)c5ccc2[nH]5)C=C4)C=C3)cc1
REMARK SMILES IDX 5 1 4 2 3 3 1 4 2 5 27 7 28 8 89 9 29 10 88 11 30 12 31 13
REMARK SMILES IDX 32 14 82 15 33 16 87 17 81 18 83 19 34 20 86 21 80 22 79 23
REMARK SMILES IDX 35 25 67 26 47 27 66 28 48 29 51 30 65 31 84 32 49 33 50 34
REMARK SMILES IDX 64 36 85 37 52 38 36 39 37 40 45 41 38 42 39 43 43 44 46 45
REMARK SMILES IDX 40 46 41 47 44 48 42 49 68 50 69 51 77 52 70 53 71 54 75 55
REMARK SMILES IDX 78 56 72 57 73 58 76 59 74 60 53 61 54 62 62 63 55 64 56 65
REMARK SMILES IDX 60 66 63 67 57 68 58 69 61 70 59 71 6 72 7 73 8 74 9 75
REMARK SMILES IDX 10 77 11 78 12 79 26 80 13 81 14 82 15 85 16 86 25 87 17 88
REMARK SMILES IDX 18 89 19 90 20 91 24 92 21 93 23 94 22 95
REMARK H PARENT 3 6 83 24 51 35 8 76 26 83 26 84
REMARK Flexibility Score: inf
ROOT
ATOM      1  C   UNL A   1      40.780  20.698  26.182  1.00  0.00     0.023 C 
ENDROOT
BRANCH   1   2
ATOM      2  C   UNL A   1      42.250  21.094  26.451  1.00  0.00     0.116 C 
BRANCH   2   3
ATOM      3  N   UNL A   1      42.911  21.823  25.396  1.00  0.00    -0.352 N 
ATOM      4  O   UNL A   1      43.837  23.515  24.252  1.00  0.00    -0.269 OA
ATOM      5  C   UNL A   1      43.157  23.159  25.210  1.00  0.00     0.251 C 
ATOM      6  H   UNL A   1      43.248  21.251  24.669  1.00  0.00     0.163 HD
BRANCH   5   7
ATOM      7  C   UNL A   1      42.690  24.191  26.161  1.00  0.00     0.039 A 
ATOM      8  C   UNL A   1      42.990  25.526  25.890  1.00  0.00     0.014 A 
ATOM      9  C   UNL A   1      41.884  23.883  27.256  1.00  0.00     0.014 A 
ATOM     10  C   UNL A   1      42.634  26.529  26.804  1.00  0.00     0.010 A 
ATOM     11  C   UNL A   1      41.442  24.911  28.111  1.00  0.00     0.010 A 
ATOM     12  C   UNL A   1      41.866  26.246  27.945  1.00  0.00    -0.014 A 
BRANCH  12  13
ATOM     13  C   UNL A   1      41.556  27.292  28.990  1.00  0.00     0.031 A 
ATOM     14  C   UNL A   1      42.381  27.375  30.264  1.00  0.00     0.074 A 
ATOM     15  C   UNL A   1      40.557  28.190  28.844  1.00  0.00     0.049 A 
ATOM     16  N   UNL A   1      42.146  28.027  31.380  1.00  0.00    -0.248 NA
ATOM     17  C   UNL A   1      43.642  26.619  30.284  1.00  0.00     0.031 C 
ATOM     18  C   UNL A   1      39.704  28.336  27.668  1.00  0.00     0.029 A 
ATOM     19  N   UNL A   1      40.077  29.151  29.715  1.00  0.00    -0.354 N 
ATOM     20  C   UNL A   1      43.188  27.707  32.247  1.00  0.00     0.074 A 
ATOM     21  C   UNL A   1      44.057  26.799  31.529  1.00  0.00     0.031 C 
ATOM     22  C   UNL A   1      38.825  29.327  27.876  1.00  0.00     0.029 A 
ATOM     23  C   UNL A   1      38.961  29.805  29.247  1.00  0.00     0.049 A 
ATOM     24  H   UNL A   1      40.494  29.348  30.584  1.00  0.00     0.167 HD
ATOM     25  C   UNL A   1      43.403  28.121  33.522  1.00  0.00     0.037 A 
ATOM     26  C   UNL A   1      38.084  30.629  29.856  1.00  0.00     0.037 A 
ATOM     27  C   UNL A   1      42.566  29.057  34.233  1.00  0.00     0.049 A 
ATOM     28  C   UNL A   1      38.267  30.997  31.300  1.00  0.00     0.074 A 
ATOM     29  C   UNL A   1      42.724  29.550  35.518  1.00  0.00     0.029 A 
ATOM     30  N   UNL A   1      41.414  29.638  33.726  1.00  0.00    -0.354 N 
ATOM     31  N   UNL A   1      39.216  30.639  32.129  1.00  0.00    -0.248 NA
ATOM     32  C   UNL A   1      37.249  31.872  31.901  1.00  0.00     0.031 C 
ATOM     33  C   UNL A   1      41.626  30.362  35.818  1.00  0.00     0.029 A 
ATOM     34  C   UNL A   1      40.831  30.452  34.688  1.00  0.00     0.049 A 
ATOM     35  H   UNL A   1      41.061  29.494  32.819  1.00  0.00     0.167 HD
ATOM     36  C   UNL A   1      38.930  31.267  33.333  1.00  0.00     0.074 A 
ATOM     37  C   UNL A   1      37.717  32.029  33.131  1.00  0.00     0.031 C 
ATOM     38  C   UNL A   1      39.627  31.220  34.495  1.00  0.00     0.037 A 
BRANCH  25  39
ATOM     39  C   UNL A   1      44.564  27.519  34.274  1.00  0.00     0.064 A 
ATOM     40  C   UNL A   1      45.833  28.114  34.310  1.00  0.00     0.173 A 
ATOM     41  C   UNL A   1      44.381  26.334  35.011  1.00  0.00     0.173 A 
ATOM     42  F   UNL A   1      46.071  29.241  33.625  1.00  0.00    -0.203 F 
ATOM     43  C   UNL A   1      46.883  27.526  35.017  1.00  0.00     0.198 A 
ATOM     44  C   UNL A   1      45.419  25.774  35.749  1.00  0.00     0.198 A 
ATOM     45  F   UNL A   1      43.185  25.726  35.028  1.00  0.00    -0.203 F 
ATOM     46  F   UNL A   1      48.103  28.080  34.984  1.00  0.00    -0.200 F 
ATOM     47  C   UNL A   1      46.673  26.362  35.742  1.00  0.00     0.200 A 
ATOM     48  F   UNL A   1      45.206  24.661  36.466  1.00  0.00    -0.200 F 
ATOM     49  F   UNL A   1      47.682  25.804  36.424  1.00  0.00    -0.200 F 
ENDBRANCH  25  39
BRANCH  26  50
ATOM     50  C   UNL A   1      36.897  31.104  29.092  1.00  0.00     0.064 A 
ATOM     51  C   UNL A   1      35.803  30.265  28.847  1.00  0.00     0.173 A 
ATOM     52  C   UNL A   1      36.815  32.432  28.641  1.00  0.00     0.173 A 
ATOM     53  F   UNL A   1      35.847  28.979  29.228  1.00  0.00    -0.203 F 
ATOM     54  C   UNL A   1      34.668  30.739  28.191  1.00  0.00     0.198 A 
ATOM     55  C   UNL A   1      35.666  32.914  28.020  1.00  0.00     0.198 A 
ATOM     56  F   UNL A   1      37.838  33.275  28.846  1.00  0.00    -0.203 F 
ATOM     57  F   UNL A   1      33.645  29.909  27.945  1.00  0.00    -0.200 F 
ATOM     58  C   UNL A   1      34.594  32.066  27.793  1.00  0.00     0.200 A 
ATOM     59  F   UNL A   1      35.592  34.202  27.660  1.00  0.00    -0.200 F 
ATOM     60  F   UNL A   1      33.489  32.527  27.193  1.00  0.00    -0.200 F 
ENDBRANCH  26  50
BRANCH  38  61
ATOM     61  C   UNL A   1      39.146  32.072  35.637  1.00  0.00     0.064 A 
ATOM     62  C   UNL A   1      38.287  31.578  36.629  1.00  0.00     0.173 A 
ATOM     63  C   UNL A   1      39.600  33.395  35.766  1.00  0.00     0.173 A 
ATOM     64  F   UNL A   1      37.810  30.326  36.548  1.00  0.00    -0.203 F 
ATOM     65  C   UNL A   1      37.886  32.381  37.695  1.00  0.00     0.198 A 
ATOM     66  C   UNL A   1      39.223  34.184  36.849  1.00  0.00     0.198 A 
ATOM     67  F   UNL A   1      40.425  33.918  34.847  1.00  0.00    -0.203 F 
ATOM     68  F   UNL A   1      37.029  31.902  38.609  1.00  0.00    -0.200 F 
ATOM     69  C   UNL A   1      38.362  33.679  37.810  1.00  0.00     0.200 A 
ATOM     70  F   UNL A   1      39.698  35.431  36.965  1.00  0.00    -0.200 F 
ATOM     71  F   UNL A   1      37.986  34.445  38.844  1.00  0.00    -0.200 F 
ENDBRANCH  38  61
ENDBRANCH  12  13
ENDBRANCH   5   7
ENDBRANCH   2   3
ENDBRANCH   1   2
BRANCH   1  72
ATOM     72  C   UNL A   1      39.431  21.810  26.150  1.00  0.00     0.023 C 
BRANCH  72  73
ATOM     73  C   UNL A   1      37.306  21.815  25.462  1.00  0.00     0.116 C 
BRANCH  73  74
ATOM     74  N   UNL A   1      35.986  22.630  25.880  1.00  0.00    -0.351 N 
ATOM     75  C   UNL A   1      34.695  22.379  26.219  1.00  0.00     0.279 C 
ATOM     76  H   UNL A   1      36.166  23.599  25.894  1.00  0.00     0.163 HD
ATOM     77  O   UNL A   1      34.021  23.362  26.554  1.00  0.00    -0.268 OA
BRANCH  75  78
ATOM     78  C   UNL A   1      34.039  20.992  26.192  1.00  0.00     0.284 C 
ATOM     79  C   UNL A   1      34.454  20.132  25.001  1.00  0.00     0.151 C 
ATOM     80  N   UNL A   1      32.556  21.071  26.342  1.00  0.00    -0.319 N 
ATOM     81  S   UNL A   1      32.901  19.672  24.191  1.00  0.00    -0.085 SA
ATOM     82  C   UNL A   1      31.991  21.013  24.996  1.00  0.00     0.303 C 
ATOM     83  H   UNL A   1      32.295  21.948  26.795  1.00  0.00     0.348 HD
ATOM     84  H   UNL A   1      32.206  20.307  26.920  1.00  0.00     0.348 HD
BRANCH  82  85
ATOM     85  C   UNL A   1      32.176  22.305  24.256  1.00  0.00     0.162 A 
ATOM     86  N   UNL A   1      33.159  22.762  22.988  1.00  0.00    -0.242 NA
ATOM     87  S   UNL A   1      31.033  24.133  25.110  1.00  0.00    -0.112 S 
ATOM     88  C   UNL A   1      33.217  24.615  22.620  1.00  0.00     0.132 A 
ATOM     89  C   UNL A   1      32.187  25.533  23.692  1.00  0.00     0.055 A 
BRANCH  89  90
ATOM     90  C   UNL A   1      32.149  26.958  24.114  1.00  0.00    -0.007 A 
ATOM     91  C   UNL A   1      30.988  27.733  24.003  1.00  0.00     0.009 A 
ATOM     92  C   UNL A   1      33.274  27.592  24.627  1.00  0.00     0.009 A 
ATOM     93  C   UNL A   1      30.988  29.095  24.351  1.00  0.00     0.001 A 
ATOM     94  C   UNL A   1      33.289  28.945  24.973  1.00  0.00     0.001 A 
ATOM     95  C   UNL A   1      32.144  29.704  24.828  1.00  0.00     0.000 A 
ENDBRANCH  89  90
ENDBRANCH  82  85
ENDBRANCH  75  78
ENDBRANCH  73  74
ENDBRANCH  72  73
ENDBRANCH   1  72
TORSDOF 13
ENDMDL
MODEL 2
REMARK VINA RESULT:     -14.5      2.704      7.561
REMARK SMILES O=C(NCCCCNC(=O)[C@@H]1CS[C@H](c2ncc(-c3ccccc3)s2)[NH2+]1)c1ccc(-c2c3nc(c(-c4c(F)c(F)c(F)c(F)c4F)c4ccc([nH]4)c(-c4c(F)c(F)c(F)c(F)c4F)c4nc(c(-c5c(F)c(F)c(F)c(F)c5F)c5ccc2[nH]5)C=C4)C=C3)cc1
REMARK SMILES IDX 5 1 4 2 3 3 1 4 2 5 27 7 28 8 89 9 29 10 88 11 30 12 31 13
REMARK SMILES IDX 32 14 82 15 33 16 87 17 81 18 83 19 34 20 86 21 80 22 79 23
REMARK SMILES IDX 35 25 67 26 47 27 66 28 48 29 51 30 65 31 84 32 49 33 50 34
REMARK SMILES IDX 64 36 85 37 52 38 36 39 37 40 45 41 38 42 39 43 43 44 46 45
REMARK SMILES IDX 40 46 41 47 44 48 42 49 68 50 69 51 77 52 70 53 71 54 75 55
REMARK SMILES IDX 78 56 72 57 73 58 76 59 74 60 53 61 54 62 62 63 55 64 56 65
REMARK SMILES IDX 60 66 63 67 57 68 58 69 61 70 59 71 6 72 7 73 8 74 9 75
REMARK SMILES IDX 10 77 11 78 12 79 26 80 13 81 14 82 15 85 16 86 25 87 17 88
REMARK SMILES IDX 18 89 19 90 20 91 24 92 21 93 23 94 22 95
REMARK H PARENT 3 6 83 24 51 35 8 76 26 83 26 84
REMARK Flexibility Score: inf
ROOT
ATOM      1  C   UNL A   1      33.458  28.593  24.797  1.00  0.00     0.023 C 
ENDROOT
BRANCH   1   2
ATOM      2  C   UNL A   1      32.644  28.842  26.088  1.00  0.00     0.116 C 
BRANCH   2   3
ATOM      3  N   UNL A   1      32.333  30.219  26.381  1.00  0.00    -0.352 N 
ATOM      4  O   UNL A   1      32.570  32.342  27.066  1.00  0.00    -0.269 OA
ATOM      5  C   UNL A   1      33.029  31.204  27.035  1.00  0.00     0.251 C 
ATOM      6  H   UNL A   1      31.452  30.507  26.050  1.00  0.00     0.163 HD
BRANCH   5   7
ATOM      7  C   UNL A   1      34.352  30.964  27.652  1.00  0.00     0.039 A 
ATOM      8  C   UNL A   1      34.692  29.656  27.998  1.00  0.00     0.014 A 
ATOM      9  C   UNL A   1      35.296  31.977  27.805  1.00  0.00     0.014 A 
ATOM     10  C   UNL A   1      35.903  29.394  28.657  1.00  0.00     0.010 A 
ATOM     11  C   UNL A   1      36.552  31.683  28.371  1.00  0.00     0.010 A 
ATOM     12  C   UNL A   1      36.857  30.402  28.875  1.00  0.00    -0.014 A 
BRANCH  12  13
ATOM     13  C   UNL A   1      38.121  30.162  29.667  1.00  0.00     0.031 A 
ATOM     14  C   UNL A   1      39.208  29.250  29.122  1.00  0.00     0.074 A 
ATOM     15  C   UNL A   1      38.346  30.740  30.868  1.00  0.00     0.049 A 
ATOM     16  N   UNL A   1      40.249  28.725  29.727  1.00  0.00    -0.248 NA
ATOM     17  C   UNL A   1      39.107  28.878  27.703  1.00  0.00     0.031 C 
ATOM     18  C   UNL A   1      37.473  31.707  31.528  1.00  0.00     0.029 A 
ATOM     19  N   UNL A   1      39.386  30.576  31.763  1.00  0.00    -0.354 N 
ATOM     20  C   UNL A   1      40.881  27.917  28.785  1.00  0.00     0.074 A 
ATOM     21  C   UNL A   1      40.105  28.017  27.568  1.00  0.00     0.031 C 
ATOM     22  C   UNL A   1      38.013  32.065  32.701  1.00  0.00     0.029 A 
ATOM     23  C   UNL A   1      39.204  31.258  32.943  1.00  0.00     0.049 A 
ATOM     24  H   UNL A   1      40.180  30.027  31.573  1.00  0.00     0.167 HD
ATOM     25  C   UNL A   1      41.998  27.156  28.918  1.00  0.00     0.037 A 
ATOM     26  C   UNL A   1      39.853  31.196  34.124  1.00  0.00     0.037 A 
ATOM     27  C   UNL A   1      42.802  27.080  30.113  1.00  0.00     0.049 A 
ATOM     28  C   UNL A   1      41.023  30.269  34.298  1.00  0.00     0.074 A 
ATOM     29  C   UNL A   1      43.963  26.354  30.327  1.00  0.00     0.029 A 
ATOM     30  N   UNL A   1      42.532  27.747  31.298  1.00  0.00    -0.354 N 
ATOM     31  N   UNL A   1      41.571  29.462  33.425  1.00  0.00    -0.248 NA
ATOM     32  C   UNL A   1      41.654  30.233  35.625  1.00  0.00     0.031 C 
ATOM     33  C   UNL A   1      44.347  26.515  31.661  1.00  0.00     0.029 A 
ATOM     34  C   UNL A   1      43.481  27.417  32.256  1.00  0.00     0.049 A 
ATOM     35  H   UNL A   1      41.777  28.364  31.439  1.00  0.00     0.167 HD
ATOM     36  C   UNL A   1      42.629  28.848  34.083  1.00  0.00     0.074 A 
ATOM     37  C   UNL A   1      42.645  29.373  35.431  1.00  0.00     0.031 C 
ATOM     38  C   UNL A   1      43.510  27.940  33.599  1.00  0.00     0.037 A 
BRANCH  25  39
ATOM     39  C   UNL A   1      42.398  26.280  27.757  1.00  0.00     0.064 A 
ATOM     40  C   UNL A   1      43.403  26.640  26.848  1.00  0.00     0.173 A 
ATOM     41  C   UNL A   1      41.781  25.028  27.580  1.00  0.00     0.173 A 
ATOM     42  F   UNL A   1      44.025  27.823  26.961  1.00  0.00    -0.203 F 
ATOM     43  C   UNL A   1      43.746  25.803  25.785  1.00  0.00     0.198 A 
ATOM     44  C   UNL A   1      42.154  24.177  26.544  1.00  0.00     0.198 A 
ATOM     45  F   UNL A   1      40.823  24.620  28.426  1.00  0.00    -0.203 F 
ATOM     46  F   UNL A   1      44.665  26.198  24.893  1.00  0.00    -0.200 F 
ATOM     47  C   UNL A   1      43.127  24.570  25.639  1.00  0.00     0.200 A 
ATOM     48  F   UNL A   1      41.570  22.977  26.420  1.00  0.00    -0.200 F 
ATOM     49  F   UNL A   1      43.463  23.766  24.621  1.00  0.00    -0.200 F 
ENDBRANCH  25  39
BRANCH  26  50
ATOM     50  C   UNL A   1      39.344  32.003  35.267  1.00  0.00     0.064 A 
ATOM     51  C   UNL A   1      38.536  31.435  36.260  1.00  0.00     0.173 A 
ATOM     52  C   UNL A   1      39.705  33.353  35.413  1.00  0.00     0.173 A 
ATOM     53  F   UNL A   1      38.137  30.159  36.149  1.00  0.00    -0.203 F 
ATOM     54  C   UNL A   1      38.121  32.181  37.361  1.00  0.00     0.198 A 
ATOM     55  C   UNL A   1      39.321  34.086  36.532  1.00  0.00     0.198 A 
ATOM     56  F   UNL A   1      40.473  33.946  34.486  1.00  0.00    -0.203 F 
ATOM     57  F   UNL A   1      37.328  31.622  38.285  1.00  0.00    -0.200 F 
ATOM     58  C   UNL A   1      38.527  33.500  37.505  1.00  0.00     0.200 A 
ATOM     59  F   UNL A   1      39.736  35.351  36.676  1.00  0.00    -0.200 F 
ATOM     60  F   UNL A   1      38.154  34.205  38.581  1.00  0.00    -0.200 F 
ENDBRANCH  26  50
BRANCH  38  61
ATOM     61  C   UNL A   1      44.627  27.494  34.502  1.00  0.00     0.064 A 
ATOM     62  C   UNL A   1      44.534  26.342  35.296  1.00  0.00     0.173 A 
ATOM     63  C   UNL A   1      45.835  28.210  34.530  1.00  0.00     0.173 A 
ATOM     64  F   UNL A   1      43.397  25.629  35.321  1.00  0.00    -0.203 F 
ATOM     65  C   UNL A   1      45.598  25.935  36.097  1.00  0.00     0.198 A 
ATOM     66  C   UNL A   1      46.909  27.782  35.306  1.00  0.00     0.198 A 
ATOM     67  F   UNL A   1      45.981  29.318  33.788  1.00  0.00    -0.203 F 
ATOM     68  F   UNL A   1      45.471  24.855  36.882  1.00  0.00    -0.200 F 
ATOM     69  C   UNL A   1      46.788  26.649  36.094  1.00  0.00     0.200 A 
ATOM     70  F   UNL A   1      48.061  28.465  35.287  1.00  0.00    -0.200 F 
ATOM     71  F   UNL A   1      47.816  26.247  36.854  1.00  0.00    -0.200 F 
ENDBRANCH  38  61
ENDBRANCH  12  13
ENDBRANCH   5   7
ENDBRANCH   2   3
ENDBRANCH   1   2
BRANCH   1  72
ATOM     72  C   UNL A   1      33.832  27.017  24.136  1.00  0.00     0.023 C 
BRANCH  72  73
ATOM     73  C   UNL A   1      34.399  24.996  24.899  1.00  0.00     0.116 C 
BRANCH  73  74
ATOM     74  N   UNL A   1      34.119  24.181  26.256  1.00  0.00    -0.351 N 
ATOM     75  C   UNL A   1      33.825  22.913  26.644  1.00  0.00     0.279 C 
ATOM     76  H   UNL A   1      34.176  24.779  27.037  1.00  0.00     0.163 HD
ATOM     77  O   UNL A   1      33.767  22.720  27.866  1.00  0.00    -0.268 OA
BRANCH  75  78
ATOM     78  C   UNL A   1      33.550  21.747  25.684  1.00  0.00     0.284 C 
ATOM     79  C   UNL A   1      34.004  22.004  24.250  1.00  0.00     0.151 C 
ATOM     80  N   UNL A   1      32.133  21.287  25.756  1.00  0.00    -0.319 N 
ATOM     81  S   UNL A   1      32.525  21.746  23.237  1.00  0.00    -0.085 SA
ATOM     82  C   UNL A   1      31.422  21.939  24.658  1.00  0.00     0.303 C 
ATOM     83  H   UNL A   1      31.721  21.555  26.650  1.00  0.00     0.348 HD
ATOM     84  H   UNL A   1      32.074  20.272  25.678  1.00  0.00     0.348 HD
BRANCH  82  85
ATOM     85  C   UNL A   1      31.164  23.389  24.943  1.00  0.00     0.162 A 
ATOM     86  N   UNL A   1      30.810  24.232  26.338  1.00  0.00    -0.242 NA
ATOM     87  S   UNL A   1      31.027  24.775  23.088  1.00  0.00    -0.112 S 
ATOM     88  C   UNL A   1      30.277  26.030  26.100  1.00  0.00     0.132 A 
ATOM     89  C   UNL A   1      30.271  26.498  24.417  1.00  0.00     0.055 A 
BRANCH  89  90
ATOM     90  C   UNL A   1      29.594  27.577  23.650  1.00  0.00    -0.007 A 
ATOM     91  C   UNL A   1      30.308  28.622  23.051  1.00  0.00     0.009 A 
ATOM     92  C   UNL A   1      28.211  27.604  23.504  1.00  0.00     0.009 A 
ATOM     93  C   UNL A   1      29.644  29.664  22.382  1.00  0.00     0.001 A 
ATOM     94  C   UNL A   1      27.540  28.635  22.846  1.00  0.00     0.001 A 
ATOM     95  C   UNL A   1      28.258  29.676  22.287  1.00  0.00     0.000 A 
ENDBRANCH  89  90
ENDBRANCH  82  85
ENDBRANCH  75  78
ENDBRANCH  73  74
ENDBRANCH  72  73
ENDBRANCH   1  72
TORSDOF 13
ENDMDL
MODEL 3
REMARK VINA RESULT:     -14.4      3.440      8.855
REMARK SMILES O=C(NCCCCNC(=O)[C@@H]1CS[C@H](c2ncc(-c3ccccc3)s2)[NH2+]1)c1ccc(-c2c3nc(c(-c4c(F)c(F)c(F)c(F)c4F)c4ccc([nH]4)c(-c4c(F)c(F)c(F)c(F)c4F)c4nc(c(-c5c(F)c(F)c(F)c(F)c5F)c5ccc2[nH]5)C=C4)C=C3)cc1
REMARK SMILES IDX 5 1 4 2 3 3 1 4 2 5 27 7 28 8 89 9 29 10 88 11 30 12 31 13
REMARK SMILES IDX 32 14 82 15 33 16 87 17 81 18 83 19 34 20 86 21 80 22 79 23
REMARK SMILES IDX 35 25 67 26 47 27 66 28 48 29 51 30 65 31 84 32 49 33 50 34
REMARK SMILES IDX 64 36 85 37 52 38 36 39 37 40 45 41 38 42 39 43 43 44 46 45
REMARK SMILES IDX 40 46 41 47 44 48 42 49 68 50 69 51 77 52 70 53 71 54 75 55
REMARK SMILES IDX 78 56 72 57 73 58 76 59 74 60 53 61 54 62 62 63 55 64 56 65
REMARK SMILES IDX 60 66 63 67 57 68 58 69 61 70 59 71 6 72 7 73 8 74 9 75
REMARK SMILES IDX 10 77 11 78 12 79 26 80 13 81 14 82 15 85 16 86 25 87 17 88
REMARK SMILES IDX 18 89 19 90 20 91 24 92 21 93 23 94 22 95
REMARK H PARENT 3 6 83 24 51 35 8 76 26 83 26 84
REMARK Flexibility Score: inf
ROOT
ATOM      1  C   UNL A   1      31.479  31.875  26.534  1.00  0.00     0.023 C 
ENDROOT
BRANCH   1   2
ATOM      2  C   UNL A   1      32.663  32.623  27.189  1.00  0.00     0.116 C 
BRANCH   2   3
ATOM      3  N   UNL A   1      32.377  33.945  27.685  1.00  0.00    -0.352 N 
ATOM      4  O   UNL A   1      32.608  35.893  28.774  1.00  0.00    -0.269 OA
ATOM      5  C   UNL A   1      33.014  34.747  28.598  1.00  0.00     0.251 C 
ATOM      6  H   UNL A   1      31.569  34.350  27.294  1.00  0.00     0.163 HD
BRANCH   5   7
ATOM      7  C   UNL A   1      34.218  34.307  29.336  1.00  0.00     0.039 A 
ATOM      8  C   UNL A   1      35.468  34.568  28.777  1.00  0.00     0.014 A 
ATOM      9  C   UNL A   1      34.145  33.735  30.604  1.00  0.00     0.014 A 
ATOM     10  C   UNL A   1      36.633  34.099  29.403  1.00  0.00     0.010 A 
ATOM     11  C   UNL A   1      35.327  33.363  31.273  1.00  0.00     0.010 A 
ATOM     12  C   UNL A   1      36.592  33.471  30.659  1.00  0.00    -0.014 A 
BRANCH  12  13
ATOM     13  C   UNL A   1      37.819  32.873  31.304  1.00  0.00     0.031 A 
ATOM     14  C   UNL A   1      38.517  31.679  30.673  1.00  0.00     0.074 A 
ATOM     15  C   UNL A   1      38.351  33.364  32.446  1.00  0.00     0.049 A 
ATOM     16  N   UNL A   1      39.427  30.874  31.172  1.00  0.00    -0.248 NA
ATOM     17  C   UNL A   1      38.135  31.347  29.292  1.00  0.00     0.031 C 
ATOM     18  C   UNL A   1      37.888  34.548  33.164  1.00  0.00     0.029 A 
ATOM     19  N   UNL A   1      39.402  32.906  33.218  1.00  0.00    -0.354 N 
ATOM     20  C   UNL A   1      39.674  29.911  30.196  1.00  0.00     0.074 A 
ATOM     21  C   UNL A   1      38.814  30.230  29.076  1.00  0.00     0.031 C 
ATOM     22  C   UNL A   1      38.651  34.736  34.250  1.00  0.00     0.029 A 
ATOM     23  C   UNL A   1      39.576  33.616  34.383  1.00  0.00     0.049 A 
ATOM     24  H   UNL A   1      39.971  32.146  32.958  1.00  0.00     0.167 HD
ATOM     25  C   UNL A   1      40.528  28.856  30.226  1.00  0.00     0.037 A 
ATOM     26  C   UNL A   1      40.321  33.371  35.480  1.00  0.00     0.037 A 
ATOM     27  C   UNL A   1      41.417  28.552  31.320  1.00  0.00     0.049 A 
ATOM     28  C   UNL A   1      41.182  32.142  35.552  1.00  0.00     0.074 A 
ATOM     29  C   UNL A   1      42.334  27.517  31.425  1.00  0.00     0.029 A 
ATOM     30  N   UNL A   1      41.504  29.275  32.501  1.00  0.00    -0.354 N 
ATOM     31  N   UNL A   1      41.358  31.205  34.654  1.00  0.00    -0.248 NA
ATOM     32  C   UNL A   1      41.936  31.927  36.796  1.00  0.00     0.031 C 
ATOM     33  C   UNL A   1      42.912  27.565  32.697  1.00  0.00     0.029 A 
ATOM     34  C   UNL A   1      42.427  28.684  33.353  1.00  0.00     0.049 A 
ATOM     35  H   UNL A   1      40.985  30.086  32.705  1.00  0.00     0.167 HD
ATOM     36  C   UNL A   1      42.264  30.311  35.207  1.00  0.00     0.074 A 
ATOM     37  C   UNL A   1      42.601  30.814  36.521  1.00  0.00     0.031 C 
ATOM     38  C   UNL A   1      42.775  29.181  34.660  1.00  0.00     0.037 A 
BRANCH  25  39
ATOM     39  C   UNL A   1      40.506  27.896  29.063  1.00  0.00     0.064 A 
ATOM     40  C   UNL A   1      39.682  26.762  29.033  1.00  0.00     0.173 A 
ATOM     41  C   UNL A   1      41.305  28.149  27.933  1.00  0.00     0.173 A 
ATOM     42  F   UNL A   1      38.901  26.466  30.081  1.00  0.00    -0.203 F 
ATOM     43  C   UNL A   1      39.689  25.897  27.938  1.00  0.00     0.198 A 
ATOM     44  C   UNL A   1      41.279  27.306  26.825  1.00  0.00     0.198 A 
ATOM     45  F   UNL A   1      42.104  29.226  27.896  1.00  0.00    -0.203 F 
ATOM     46  F   UNL A   1      38.940  24.785  27.960  1.00  0.00    -0.200 F 
ATOM     47  C   UNL A   1      40.481  26.174  26.833  1.00  0.00     0.200 A 
ATOM     48  F   UNL A   1      42.028  27.589  25.751  1.00  0.00    -0.200 F 
ATOM     49  F   UNL A   1      40.481  25.343  25.781  1.00  0.00    -0.200 F 
ENDBRANCH  25  39
BRANCH  26  50
ATOM     50  C   UNL A   1      40.216  34.297  36.641  1.00  0.00     0.064 A 
ATOM     51  C   UNL A   1      39.292  34.077  37.670  1.00  0.00     0.173 A 
ATOM     52  C   UNL A   1      41.082  35.396  36.766  1.00  0.00     0.173 A 
ATOM     53  F   UNL A   1      38.420  33.061  37.580  1.00  0.00    -0.203 F 
ATOM     54  C   UNL A   1      39.248  34.911  38.786  1.00  0.00     0.198 A 
ATOM     55  C   UNL A   1      41.063  36.205  37.899  1.00  0.00     0.198 A 
ATOM     56  F   UNL A   1      41.983  35.654  35.806  1.00  0.00    -0.203 F 
ATOM     57  F   UNL A   1      38.337  34.694  39.745  1.00  0.00    -0.200 F 
ATOM     58  C   UNL A   1      40.144  35.963  38.907  1.00  0.00     0.200 A 
ATOM     59  F   UNL A   1      41.946  37.205  38.021  1.00  0.00    -0.200 F 
ATOM     60  F   UNL A   1      40.121  36.743  39.996  1.00  0.00    -0.200 F 
ENDBRANCH  26  50
BRANCH  38  61
ATOM     61  C   UNL A   1      43.817  28.430  35.442  1.00  0.00     0.064 A 
ATOM     62  C   UNL A   1      45.189  28.673  35.288  1.00  0.00     0.173 A 
ATOM     63  C   UNL A   1      43.425  27.486  36.405  1.00  0.00     0.173 A 
ATOM     64  F   UNL A   1      45.621  29.553  34.371  1.00  0.00    -0.203 F 
ATOM     65  C   UNL A   1      46.130  27.985  36.052  1.00  0.00     0.198 A 
ATOM     66  C   UNL A   1      44.365  26.825  37.191  1.00  0.00     0.198 A 
ATOM     67  F   UNL A   1      42.125  27.217  36.598  1.00  0.00    -0.203 F 
ATOM     68  F   UNL A   1      47.438  28.200  35.856  1.00  0.00    -0.200 F 
ATOM     69  C   UNL A   1      45.717  27.069  37.010  1.00  0.00     0.200 A 
ATOM     70  F   UNL A   1      43.962  25.954  38.126  1.00  0.00    -0.200 F 
ATOM     71  F   UNL A   1      46.623  26.420  37.754  1.00  0.00    -0.200 F 
ENDBRANCH  38  61
ENDBRANCH  12  13
ENDBRANCH   5   7
ENDBRANCH   2   3
ENDBRANCH   1   2
BRANCH   1  72
ATOM     72  C   UNL A   1      31.532  30.227  25.951  1.00  0.00     0.023 C 
BRANCH  72  73
ATOM     73  C   UNL A   1      32.198  28.229  26.697  1.00  0.00     0.116 C 
BRANCH  73  74
ATOM     74  N   UNL A   1      31.505  26.785  26.831  1.00  0.00    -0.351 N 
ATOM     75  C   UNL A   1      31.705  25.512  26.403  1.00  0.00     0.279 C 
ATOM     76  H   UNL A   1      30.694  26.841  27.389  1.00  0.00     0.163 HD
ATOM     77  O   UNL A   1      30.916  24.663  26.839  1.00  0.00    -0.268 OA
BRANCH  75  78
ATOM     78  C   UNL A   1      32.807  25.083  25.425  1.00  0.00     0.284 C 
ATOM     79  C   UNL A   1      33.761  26.207  25.032  1.00  0.00     0.151 C 
ATOM     80  N   UNL A   1      32.253  24.370  24.237  1.00  0.00    -0.319 N 
ATOM     81  S   UNL A   1      33.701  26.263  23.223  1.00  0.00    -0.085 SA
ATOM     82  C   UNL A   1      32.134  25.359  23.168  1.00  0.00     0.303 C 
ATOM     83  H   UNL A   1      31.337  23.978  24.457  1.00  0.00     0.348 HD
ATOM     84  H   UNL A   1      32.860  23.600  23.956  1.00  0.00     0.348 HD
BRANCH  82  85
ATOM     85  C   UNL A   1      30.974  26.285  23.391  1.00  0.00     0.162 A 
ATOM     86  N   UNL A   1      29.372  26.033  23.778  1.00  0.00    -0.242 NA
ATOM     87  S   UNL A   1      31.367  28.526  22.939  1.00  0.00    -0.112 S 
ATOM     88  C   UNL A   1      28.246  27.546  23.650  1.00  0.00     0.132 A 
ATOM     89  C   UNL A   1      29.118  28.976  23.153  1.00  0.00     0.055 A 
BRANCH  89  90
ATOM     90  C   UNL A   1      28.716  30.264  22.530  1.00  0.00    -0.007 A 
ATOM     91  C   UNL A   1      28.235  30.334  21.217  1.00  0.00     0.009 A 
ATOM     92  C   UNL A   1      28.813  31.465  23.222  1.00  0.00     0.009 A 
ATOM     93  C   UNL A   1      27.917  31.568  20.625  1.00  0.00     0.001 A 
ATOM     94  C   UNL A   1      28.505  32.698  22.645  1.00  0.00     0.001 A 
ATOM     95  C   UNL A   1      28.061  32.753  21.338  1.00  0.00     0.000 A 
ENDBRANCH  89  90
ENDBRANCH  82  85
ENDBRANCH  75  78
ENDBRANCH  73  74
ENDBRANCH  72  73
ENDBRANCH   1  72
TORSDOF 13
ENDMDL
