MODEL 1
REMARK VINA RESULT:     -11.1      0.000      0.000
REMARK SMILES O=C(CCNC(=O)C1CCCCC1)NCCCCNC(=O)c1ccc(-c2c3nc(c(-c4c(F)c(F)c(F)c(F)c4F)c4ccc([nH]4)c(-c4c(F)c(F)c(F)c(F)c4F)c4nc(c(-c5c(F)c(F)c(F)c(F)c5F)c5ccc2[nH]5)C=C4)C=C3)cc1
REMARK SMILES IDX 16 1 15 2 14 3 1 4 2 5 3 7 4 8 5 9 6 10 7 12 8 13 9 14 13 15
REMARK SMILES IDX 10 16 12 17 11 18 17 19 18 20 19 21 20 22 21 24 22 25 23 26
REMARK SMILES IDX 84 27 24 28 83 29 25 30 26 31 27 32 77 33 28 34 82 35 76 36
REMARK SMILES IDX 78 37 29 38 81 39 75 40 74 41 30 43 62 44 42 45 61 46 43 47
REMARK SMILES IDX 46 48 60 49 79 50 44 51 45 52 59 54 80 55 47 56 31 57 32 58
REMARK SMILES IDX 40 59 33 60 34 61 38 62 41 63 35 64 36 65 39 66 37 67 63 68
REMARK SMILES IDX 64 69 72 70 65 71 66 72 70 73 73 74 67 75 68 76 71 77 69 78
REMARK SMILES IDX 48 79 49 80 57 81 50 82 51 83 55 84 58 85 52 86 53 87 56 88
REMARK SMILES IDX 54 89
REMARK H PARENT 14 6 5 11 19 23 78 42 46 53
REMARK Flexibility Score: inf
ROOT
ATOM      1  C   UNL A   1      33.324  34.627  28.892  1.00  0.00     0.023 C 
ENDROOT
BRANCH   1   2
ATOM      2  C   UNL A   1      33.121  36.139  28.941  1.00  0.00     0.116 C 
BRANCH   2   3
ATOM      3  N   UNL A   1      33.714  36.745  30.117  1.00  0.00    -0.356 N 
ATOM      4  O   UNL A   1      31.847  36.575  31.449  1.00  0.00    -0.275 OA
ATOM      5  C   UNL A   1      33.026  36.880  31.302  1.00  0.00     0.221 C 
ATOM      6  H   UNL A   1      34.642  37.071  30.067  1.00  0.00     0.163 HD
BRANCH   5   7
ATOM      7  C   UNL A   1      33.859  37.415  32.444  1.00  0.00     0.121 C 
BRANCH   7   8
ATOM      8  C   UNL A   1      34.641  36.290  33.120  1.00  0.00     0.125 C 
BRANCH   8   9
ATOM      9  N   UNL A   1      33.840  35.080  33.224  1.00  0.00    -0.355 N 
ATOM     10  C   UNL A   1      34.197  33.767  33.214  1.00  0.00     0.223 C 
ATOM     11  H   UNL A   1      32.872  35.239  33.319  1.00  0.00     0.163 HD
ATOM     12  O   UNL A   1      33.272  32.955  33.141  1.00  0.00    -0.275 OA
BRANCH  10  13
ATOM     13  C   UNL A   1      35.663  33.339  33.367  1.00  0.00     0.078 C 
ATOM     14  C   UNL A   1      36.084  33.476  34.846  1.00  0.00     0.013 C 
ATOM     15  C   UNL A   1      35.963  31.912  32.889  1.00  0.00     0.013 C 
ATOM     16  C   UNL A   1      37.536  33.072  35.092  1.00  0.00     0.001 C 
ATOM     17  C   UNL A   1      37.432  31.544  33.099  1.00  0.00     0.001 C 
ATOM     18  C   UNL A   1      37.835  31.675  34.560  1.00  0.00     0.000 C 
ENDBRANCH  10  13
ENDBRANCH   8   9
ENDBRANCH   7   8
ENDBRANCH   5   7
ENDBRANCH   2   3
ENDBRANCH   1   2
BRANCH   1  19
ATOM     19  C   UNL A   1      34.727  34.142  29.269  1.00  0.00     0.023 C 
BRANCH  19  20
ATOM     20  C   UNL A   1      34.827  32.677  29.688  1.00  0.00     0.116 C 
BRANCH  20  21
ATOM     21  N   UNL A   1      34.138  31.780  28.775  1.00  0.00    -0.352 N 
ATOM     22  C   UNL A   1      34.601  30.658  28.129  1.00  0.00     0.251 C 
ATOM     23  H   UNL A   1      33.198  32.008  28.593  1.00  0.00     0.163 HD
ATOM     24  O   UNL A   1      33.908  30.113  27.276  1.00  0.00    -0.269 OA
BRANCH  22  25
ATOM     25  C   UNL A   1      35.948  30.119  28.430  1.00  0.00     0.039 A 
ATOM     26  C   UNL A   1      36.950  30.233  27.462  1.00  0.00     0.014 A 
ATOM     27  C   UNL A   1      36.226  29.496  29.649  1.00  0.00     0.014 A 
ATOM     28  C   UNL A   1      38.245  29.791  27.745  1.00  0.00     0.010 A 
ATOM     29  C   UNL A   1      37.534  29.125  29.959  1.00  0.00     0.010 A 
ATOM     30  C   UNL A   1      38.559  29.270  29.011  1.00  0.00    -0.014 A 
BRANCH  30  31
ATOM     31  C   UNL A   1      39.952  28.887  29.364  1.00  0.00     0.031 A 
ATOM     32  C   UNL A   1      40.806  29.802  30.199  1.00  0.00     0.074 A 
ATOM     33  C   UNL A   1      40.472  27.742  28.879  1.00  0.00     0.049 A 
ATOM     34  N   UNL A   1      42.059  29.670  30.555  1.00  0.00    -0.248 NA
ATOM     35  C   UNL A   1      40.174  31.040  30.679  1.00  0.00     0.031 C 
ATOM     36  C   UNL A   1      39.764  26.788  28.023  1.00  0.00     0.029 A 
ATOM     37  N   UNL A   1      41.721  27.190  29.025  1.00  0.00    -0.354 N 
ATOM     38  C   UNL A   1      42.368  30.812  31.283  1.00  0.00     0.074 A 
ATOM     39  C   UNL A   1      41.187  31.648  31.277  1.00  0.00     0.031 C 
ATOM     40  C   UNL A   1      40.579  25.759  27.741  1.00  0.00     0.029 A 
ATOM     41  C   UNL A   1      41.881  26.000  28.357  1.00  0.00     0.049 A 
ATOM     42  H   UNL A   1      42.435  27.607  29.559  1.00  0.00     0.167 HD
ATOM     43  C   UNL A   1      43.524  31.124  31.916  1.00  0.00     0.037 A 
ATOM     44  C   UNL A   1      42.958  25.199  28.243  1.00  0.00     0.037 A 
ATOM     45  C   UNL A   1      44.692  30.281  31.937  1.00  0.00     0.049 A 
ATOM     46  C   UNL A   1      44.237  25.583  28.939  1.00  0.00     0.074 A 
ATOM     47  C   UNL A   1      45.887  30.481  32.605  1.00  0.00     0.029 A 
ATOM     48  N   UNL A   1      44.814  29.081  31.253  1.00  0.00    -0.354 N 
ATOM     49  N   UNL A   1      44.492  26.627  29.689  1.00  0.00    -0.248 NA
ATOM     50  C   UNL A   1      45.378  24.671  28.775  1.00  0.00     0.031 C 
ATOM     51  C   UNL A   1      46.754  29.433  32.277  1.00  0.00     0.029 A 
ATOM     52  C   UNL A   1      46.075  28.545  31.457  1.00  0.00     0.049 A 
ATOM     53  H   UNL A   1      44.107  28.671  30.702  1.00  0.00     0.167 HD
ATOM     54  C   UNL A   1      45.807  26.481  30.112  1.00  0.00     0.074 A 
ATOM     55  C   UNL A   1      46.291  25.239  29.548  1.00  0.00     0.031 C 
ATOM     56  C   UNL A   1      46.545  27.303  30.899  1.00  0.00     0.037 A 
BRANCH  43  57
ATOM     57  C   UNL A   1      43.591  32.440  32.640  1.00  0.00     0.064 A 
ATOM     58  C   UNL A   1      43.222  32.560  33.988  1.00  0.00     0.173 A 
ATOM     59  C   UNL A   1      44.074  33.585  31.989  1.00  0.00     0.173 A 
ATOM     60  F   UNL A   1      42.746  31.499  34.657  1.00  0.00    -0.203 F 
ATOM     61  C   UNL A   1      43.306  33.784  34.649  1.00  0.00     0.198 A 
ATOM     62  C   UNL A   1      44.189  34.800  32.662  1.00  0.00     0.198 A 
ATOM     63  F   UNL A   1      44.449  33.526  30.703  1.00  0.00    -0.203 F 
ATOM     64  F   UNL A   1      42.902  33.884  35.923  1.00  0.00    -0.200 F 
ATOM     65  C   UNL A   1      43.797  34.900  33.989  1.00  0.00     0.200 A 
ATOM     66  F   UNL A   1      44.679  35.873  32.027  1.00  0.00    -0.200 F 
ATOM     67  F   UNL A   1      43.888  36.073  34.629  1.00  0.00    -0.200 F 
ENDBRANCH  43  57
BRANCH  44  68
ATOM     68  C   UNL A   1      42.872  23.941  27.454  1.00  0.00     0.064 A 
ATOM     69  C   UNL A   1      42.493  22.736  28.063  1.00  0.00     0.173 A 
ATOM     70  C   UNL A   1      43.183  23.910  26.088  1.00  0.00     0.173 A 
ATOM     71  F   UNL A   1      42.206  22.709  29.373  1.00  0.00    -0.203 F 
ATOM     72  C   UNL A   1      42.453  21.545  27.340  1.00  0.00     0.198 A 
ATOM     73  C   UNL A   1      43.112  22.725  25.359  1.00  0.00     0.198 A 
ATOM     74  F   UNL A   1      43.549  25.035  25.456  1.00  0.00    -0.203 F 
ATOM     75  F   UNL A   1      42.140  20.399  27.960  1.00  0.00    -0.200 F 
ATOM     76  C   UNL A   1      42.757  21.542  25.988  1.00  0.00     0.200 A 
ATOM     77  F   UNL A   1      43.393  22.729  24.048  1.00  0.00    -0.200 F 
ATOM     78  F   UNL A   1      42.719  20.396  25.293  1.00  0.00    -0.200 F 
ENDBRANCH  44  68
BRANCH  56  79
ATOM     79  C   UNL A   1      47.942  26.864  31.236  1.00  0.00     0.064 A 
ATOM     80  C   UNL A   1      49.054  27.308  30.506  1.00  0.00     0.173 A 
ATOM     81  C   UNL A   1      48.172  26.019  32.333  1.00  0.00     0.173 A 
ATOM     82  F   UNL A   1      48.887  28.106  29.440  1.00  0.00    -0.203 F 
ATOM     83  C   UNL A   1      50.342  26.898  30.842  1.00  0.00     0.198 A 
ATOM     84  C   UNL A   1      49.464  25.639  32.687  1.00  0.00     0.198 A 
ATOM     85  F   UNL A   1      47.145  25.571  33.070  1.00  0.00    -0.203 F 
ATOM     86  F   UNL A   1      51.384  27.291  30.097  1.00  0.00    -0.200 F 
ATOM     87  C   UNL A   1      50.547  26.071  31.937  1.00  0.00     0.200 A 
ATOM     88  F   UNL A   1      49.661  24.854  33.756  1.00  0.00    -0.200 F 
ATOM     89  F   UNL A   1      51.787  25.685  32.265  1.00  0.00    -0.200 F 
ENDBRANCH  56  79
ENDBRANCH  30  31
ENDBRANCH  22  25
ENDBRANCH  20  21
ENDBRANCH  19  20
ENDBRANCH   1  19
TORSDOF 14
ENDMDL
MODEL 2
REMARK VINA RESULT:     -10.9      4.071     11.840
REMARK SMILES O=C(CCNC(=O)C1CCCCC1)NCCCCNC(=O)c1ccc(-c2c3nc(c(-c4c(F)c(F)c(F)c(F)c4F)c4ccc([nH]4)c(-c4c(F)c(F)c(F)c(F)c4F)c4nc(c(-c5c(F)c(F)c(F)c(F)c5F)c5ccc2[nH]5)C=C4)C=C3)cc1
REMARK SMILES IDX 16 1 15 2 14 3 1 4 2 5 3 7 4 8 5 9 6 10 7 12 8 13 9 14 13 15
REMARK SMILES IDX 10 16 12 17 11 18 17 19 18 20 19 21 20 22 21 24 22 25 23 26
REMARK SMILES IDX 84 27 24 28 83 29 25 30 26 31 27 32 77 33 28 34 82 35 76 36
REMARK SMILES IDX 78 37 29 38 81 39 75 40 74 41 30 43 62 44 42 45 61 46 43 47
REMARK SMILES IDX 46 48 60 49 79 50 44 51 45 52 59 54 80 55 47 56 31 57 32 58
REMARK SMILES IDX 40 59 33 60 34 61 38 62 41 63 35 64 36 65 39 66 37 67 63 68
REMARK SMILES IDX 64 69 72 70 65 71 66 72 70 73 73 74 67 75 68 76 71 77 69 78
REMARK SMILES IDX 48 79 49 80 57 81 50 82 51 83 55 84 58 85 52 86 53 87 56 88
REMARK SMILES IDX 54 89
REMARK H PARENT 14 6 5 11 19 23 78 42 46 53
REMARK Flexibility Score: inf
ROOT
ATOM      1  C   UNL A   1      41.683  19.817  26.197  1.00  0.00     0.023 C 
ENDROOT
BRANCH   1   2
ATOM      2  C   UNL A   1      42.554  18.575  26.029  1.00  0.00     0.116 C 
BRANCH   2   3
ATOM      3  N   UNL A   1      43.969  18.863  26.154  1.00  0.00    -0.356 N 
ATOM      4  O   UNL A   1      44.519  18.341  23.983  1.00  0.00    -0.275 OA
ATOM      5  C   UNL A   1      44.839  18.755  25.092  1.00  0.00     0.221 C 
ATOM      6  H   UNL A   1      44.320  19.147  27.029  1.00  0.00     0.163 HD
BRANCH   5   7
ATOM      7  C   UNL A   1      46.244  19.225  25.393  1.00  0.00     0.121 C 
BRANCH   7   8
ATOM      8  C   UNL A   1      46.581  20.479  24.589  1.00  0.00     0.125 C 
BRANCH   8   9
ATOM      9  N   UNL A   1      45.382  21.090  24.037  1.00  0.00    -0.355 N 
ATOM     10  C   UNL A   1      44.764  22.268  24.326  1.00  0.00     0.223 C 
ATOM     11  H   UNL A   1      44.941  20.561  23.333  1.00  0.00     0.163 HD
ATOM     12  O   UNL A   1      43.655  22.437  23.814  1.00  0.00    -0.275 OA
BRANCH  10  13
ATOM     13  C   UNL A   1      45.456  23.344  25.174  1.00  0.00     0.078 C 
ATOM     14  C   UNL A   1      44.667  24.666  25.065  1.00  0.00     0.013 C 
ATOM     15  C   UNL A   1      45.624  22.978  26.655  1.00  0.00     0.013 C 
ATOM     16  C   UNL A   1      45.289  25.799  25.879  1.00  0.00     0.001 C 
ATOM     17  C   UNL A   1      46.291  24.105  27.442  1.00  0.00     0.001 C 
ATOM     18  C   UNL A   1      45.503  25.402  27.335  1.00  0.00     0.000 C 
ENDBRANCH  10  13
ENDBRANCH   8   9
ENDBRANCH   7   8
ENDBRANCH   5   7
ENDBRANCH   2   3
ENDBRANCH   1   2
BRANCH   1  19
ATOM     19  C   UNL A   1      42.332  20.975  26.960  1.00  0.00     0.023 C 
BRANCH  19  20
ATOM     20  C   UNL A   1      41.791  22.364  26.634  1.00  0.00     0.116 C 
BRANCH  20  21
ATOM     21  N   UNL A   1      40.430  22.336  26.126  1.00  0.00    -0.352 N 
ATOM     22  C   UNL A   1      39.410  23.243  26.293  1.00  0.00     0.251 C 
ATOM     23  H   UNL A   1      40.203  21.549  25.579  1.00  0.00     0.163 HD
ATOM     24  O   UNL A   1      38.278  22.969  25.906  1.00  0.00    -0.269 OA
BRANCH  22  25
ATOM     25  C   UNL A   1      39.659  24.538  26.966  1.00  0.00     0.039 A 
ATOM     26  C   UNL A   1      39.243  24.698  28.292  1.00  0.00     0.014 A 
ATOM     27  C   UNL A   1      40.287  25.595  26.302  1.00  0.00     0.014 A 
ATOM     28  C   UNL A   1      39.522  25.887  28.971  1.00  0.00     0.010 A 
ATOM     29  C   UNL A   1      40.633  26.750  27.003  1.00  0.00     0.010 A 
ATOM     30  C   UNL A   1      40.256  26.909  28.346  1.00  0.00    -0.014 A 
BRANCH  30  31
ATOM     31  C   UNL A   1      40.650  28.138  29.084  1.00  0.00     0.031 A 
ATOM     32  C   UNL A   1      42.041  28.284  29.635  1.00  0.00     0.074 A 
ATOM     33  C   UNL A   1      39.733  29.099  29.314  1.00  0.00     0.049 A 
ATOM     34  N   UNL A   1      42.550  29.252  30.357  1.00  0.00    -0.248 NA
ATOM     35  C   UNL A   1      42.981  27.187  29.356  1.00  0.00     0.031 C 
ATOM     36  C   UNL A   1      38.338  29.061  28.871  1.00  0.00     0.029 A 
ATOM     37  N   UNL A   1      39.833  30.292  29.988  1.00  0.00    -0.354 N 
ATOM     38  C   UNL A   1      43.858  28.872  30.631  1.00  0.00     0.074 A 
ATOM     39  C   UNL A   1      44.051  27.565  30.040  1.00  0.00     0.031 C 
ATOM     40  C   UNL A   1      37.720  30.186  29.263  1.00  0.00     0.029 A 
ATOM     41  C   UNL A   1      38.659  31.006  30.023  1.00  0.00     0.049 A 
ATOM     42  H   UNL A   1      40.666  30.606  30.408  1.00  0.00     0.167 HD
ATOM     43  C   UNL A   1      44.816  29.560  31.297  1.00  0.00     0.037 A 
ATOM     44  C   UNL A   1      38.369  32.183  30.611  1.00  0.00     0.037 A 
ATOM     45  C   UNL A   1      44.628  30.869  31.868  1.00  0.00     0.049 A 
ATOM     46  C   UNL A   1      39.448  32.914  31.365  1.00  0.00     0.074 A 
ATOM     47  C   UNL A   1      45.557  31.673  32.504  1.00  0.00     0.029 A 
ATOM     48  N   UNL A   1      43.426  31.562  31.879  1.00  0.00    -0.354 N 
ATOM     49  N   UNL A   1      40.702  32.581  31.550  1.00  0.00    -0.248 NA
ATOM     50  C   UNL A   1      39.069  34.192  31.987  1.00  0.00     0.031 C 
ATOM     51  C   UNL A   1      44.904  32.826  32.953  1.00  0.00     0.029 A 
ATOM     52  C   UNL A   1      43.583  32.771  32.538  1.00  0.00     0.049 A 
ATOM     53  H   UNL A   1      42.586  31.241  31.477  1.00  0.00     0.167 HD
ATOM     54  C   UNL A   1      41.269  33.619  32.279  1.00  0.00     0.074 A 
ATOM     55  C   UNL A   1      40.225  34.600  32.488  1.00  0.00     0.031 C 
ATOM     56  C   UNL A   1      42.540  33.746  32.732  1.00  0.00     0.037 A 
BRANCH  43  57
ATOM     57  C   UNL A   1      46.163  28.909  31.453  1.00  0.00     0.064 A 
ATOM     58  C   UNL A   1      47.180  29.082  30.502  1.00  0.00     0.173 A 
ATOM     59  C   UNL A   1      46.454  28.142  32.591  1.00  0.00     0.173 A 
ATOM     60  F   UNL A   1      46.953  29.799  29.392  1.00  0.00    -0.203 F 
ATOM     61  C   UNL A   1      48.428  28.486  30.670  1.00  0.00     0.198 A 
ATOM     62  C   UNL A   1      47.713  27.575  32.773  1.00  0.00     0.198 A 
ATOM     63  F   UNL A   1      45.521  27.951  33.536  1.00  0.00    -0.203 F 
ATOM     64  F   UNL A   1      49.367  28.625  29.725  1.00  0.00    -0.200 F 
ATOM     65  C   UNL A   1      48.696  27.741  31.809  1.00  0.00     0.200 A 
ATOM     66  F   UNL A   1      47.975  26.869  33.881  1.00  0.00    -0.200 F 
ATOM     67  F   UNL A   1      49.900  27.178  31.974  1.00  0.00    -0.200 F 
ENDBRANCH  43  57
BRANCH  44  68
ATOM     68  C   UNL A   1      37.001  32.757  30.496  1.00  0.00     0.064 A 
ATOM     69  C   UNL A   1      36.631  33.512  29.375  1.00  0.00     0.173 A 
ATOM     70  C   UNL A   1      36.046  32.581  31.507  1.00  0.00     0.173 A 
ATOM     71  F   UNL A   1      37.517  33.727  28.391  1.00  0.00    -0.203 F 
ATOM     72  C   UNL A   1      35.367  34.090  29.280  1.00  0.00     0.198 A 
ATOM     73  C   UNL A   1      34.771  33.134  31.397  1.00  0.00     0.198 A 
ATOM     74  F   UNL A   1      36.347  31.865  32.600  1.00  0.00    -0.203 F 
ATOM     75  F   UNL A   1      35.059  34.853  28.222  1.00  0.00    -0.200 F 
ATOM     76  C   UNL A   1      34.436  33.896  30.289  1.00  0.00     0.200 A 
ATOM     77  F   UNL A   1      33.869  32.930  32.368  1.00  0.00    -0.200 F 
ATOM     78  F   UNL A   1      33.220  34.452  30.198  1.00  0.00    -0.200 F 
ENDBRANCH  44  68
BRANCH  56  79
ATOM     79  C   UNL A   1      42.890  35.013  33.461  1.00  0.00     0.064 A 
ATOM     80  C   UNL A   1      43.268  36.179  32.780  1.00  0.00     0.173 A 
ATOM     81  C   UNL A   1      42.807  35.069  34.862  1.00  0.00     0.173 A 
ATOM     82  F   UNL A   1      43.377  36.174  31.442  1.00  0.00    -0.203 F 
ATOM     83  C   UNL A   1      43.579  37.346  33.474  1.00  0.00     0.198 A 
ATOM     84  C   UNL A   1      43.085  36.247  35.549  1.00  0.00     0.198 A 
ATOM     85  F   UNL A   1      42.444  33.985  35.562  1.00  0.00    -0.203 F 
ATOM     86  F   UNL A   1      43.989  38.431  32.805  1.00  0.00    -0.200 F 
ATOM     87  C   UNL A   1      43.479  37.381  34.857  1.00  0.00     0.200 A 
ATOM     88  F   UNL A   1      42.971  36.284  36.885  1.00  0.00    -0.200 F 
ATOM     89  F   UNL A   1      43.769  38.506  35.523  1.00  0.00    -0.200 F 
ENDBRANCH  56  79
ENDBRANCH  30  31
ENDBRANCH  22  25
ENDBRANCH  20  21
ENDBRANCH  19  20
ENDBRANCH   1  19
TORSDOF 14
ENDMDL
MODEL 3
REMARK VINA RESULT:     -10.8      4.278     10.390
REMARK SMILES O=C(CCNC(=O)C1CCCCC1)NCCCCNC(=O)c1ccc(-c2c3nc(c(-c4c(F)c(F)c(F)c(F)c4F)c4ccc([nH]4)c(-c4c(F)c(F)c(F)c(F)c4F)c4nc(c(-c5c(F)c(F)c(F)c(F)c5F)c5ccc2[nH]5)C=C4)C=C3)cc1
REMARK SMILES IDX 16 1 15 2 14 3 1 4 2 5 3 7 4 8 5 9 6 10 7 12 8 13 9 14 13 15
REMARK SMILES IDX 10 16 12 17 11 18 17 19 18 20 19 21 20 22 21 24 22 25 23 26
REMARK SMILES IDX 84 27 24 28 83 29 25 30 26 31 27 32 77 33 28 34 82 35 76 36
REMARK SMILES IDX 78 37 29 38 81 39 75 40 74 41 30 43 62 44 42 45 61 46 43 47
REMARK SMILES IDX 46 48 60 49 79 50 44 51 45 52 59 54 80 55 47 56 31 57 32 58
REMARK SMILES IDX 40 59 33 60 34 61 38 62 41 63 35 64 36 65 39 66 37 67 63 68
REMARK SMILES IDX 64 69 72 70 65 71 66 72 70 73 73 74 67 75 68 76 71 77 69 78
REMARK SMILES IDX 48 79 49 80 57 81 50 82 51 83 55 84 58 85 52 86 53 87 56 88
REMARK SMILES IDX 54 89
REMARK H PARENT 14 6 5 11 19 23 78 42 46 53
REMARK Flexibility Score: inf
ROOT
ATOM      1  C   UNL A   1      31.545  30.631  26.664  1.00  0.00     0.023 C 
ENDROOT
BRANCH   1   2
ATOM      2  C   UNL A   1      32.683  30.039  25.835  1.00  0.00     0.116 C 
BRANCH   2   3
ATOM      3  N   UNL A   1      32.275  29.703  24.486  1.00  0.00    -0.356 N 
ATOM      4  O   UNL A   1      31.044  27.846  25.058  1.00  0.00    -0.275 OA
ATOM      5  C   UNL A   1      31.446  28.638  24.212  1.00  0.00     0.221 C 
ATOM      6  H   UNL A   1      32.602  30.254  23.739  1.00  0.00     0.163 HD
BRANCH   5   7
ATOM      7  C   UNL A   1      31.033  28.532  22.761  1.00  0.00     0.121 C 
BRANCH   7   8
ATOM      8  C   UNL A   1      30.624  27.101  22.416  1.00  0.00     0.125 C 
BRANCH   8   9
ATOM      9  N   UNL A   1      31.514  26.524  21.421  1.00  0.00    -0.355 N 
ATOM     10  C   UNL A   1      32.624  25.749  21.556  1.00  0.00     0.223 C 
ATOM     11  H   UNL A   1      31.269  26.728  20.489  1.00  0.00     0.163 HD
ATOM     12  O   UNL A   1      33.278  25.557  20.528  1.00  0.00    -0.275 OA
BRANCH  10  13
ATOM     13  C   UNL A   1      32.982  25.095  22.898  1.00  0.00     0.078 C 
ATOM     14  C   UNL A   1      33.686  23.746  22.638  1.00  0.00     0.013 C 
ATOM     15  C   UNL A   1      33.865  25.957  23.810  1.00  0.00     0.013 C 
ATOM     16  C   UNL A   1      34.077  23.022  23.924  1.00  0.00     0.001 C 
ATOM     17  C   UNL A   1      34.205  25.232  25.113  1.00  0.00     0.001 C 
ATOM     18  C   UNL A   1      34.905  23.907  24.846  1.00  0.00     0.000 C 
ENDBRANCH  10  13
ENDBRANCH   8   9
ENDBRANCH   7   8
ENDBRANCH   5   7
ENDBRANCH   2   3
ENDBRANCH   1   2
BRANCH   1  19
ATOM     19  C   UNL A   1      31.475  32.160  26.683  1.00  0.00     0.023 C 
BRANCH  19  20
ATOM     20  C   UNL A   1      32.704  32.868  27.247  1.00  0.00     0.116 C 
BRANCH  20  21
ATOM     21  N   UNL A   1      32.429  34.235  27.661  1.00  0.00    -0.352 N 
ATOM     22  C   UNL A   1      33.006  34.983  28.660  1.00  0.00     0.251 C 
ATOM     23  H   UNL A   1      31.726  34.694  27.148  1.00  0.00     0.163 HD
ATOM     24  O   UNL A   1      32.533  36.077  28.956  1.00  0.00    -0.269 OA
BRANCH  22  25
ATOM     25  C   UNL A   1      34.175  34.467  29.407  1.00  0.00     0.039 A 
ATOM     26  C   UNL A   1      33.966  33.864  30.651  1.00  0.00     0.014 A 
ATOM     27  C   UNL A   1      35.472  34.580  28.899  1.00  0.00     0.014 A 
ATOM     28  C   UNL A   1      35.044  33.311  31.348  1.00  0.00     0.010 A 
ATOM     29  C   UNL A   1      36.534  33.962  29.556  1.00  0.00     0.010 A 
ATOM     30  C   UNL A   1      36.333  33.318  30.788  1.00  0.00    -0.014 A 
BRANCH  30  31
ATOM     31  C   UNL A   1      37.473  32.648  31.466  1.00  0.00     0.031 A 
ATOM     32  C   UNL A   1      38.168  31.482  30.818  1.00  0.00     0.074 A 
ATOM     33  C   UNL A   1      37.843  33.047  32.700  1.00  0.00     0.049 A 
ATOM     34  N   UNL A   1      39.137  30.732  31.281  1.00  0.00    -0.248 NA
ATOM     35  C   UNL A   1      37.698  31.095  29.479  1.00  0.00     0.031 C 
ATOM     36  C   UNL A   1      37.223  34.136  33.457  1.00  0.00     0.029 A 
ATOM     37  N   UNL A   1      38.823  32.577  33.539  1.00  0.00    -0.354 N 
ATOM     38  C   UNL A   1      39.378  29.777  30.301  1.00  0.00     0.074 A 
ATOM     39  C   UNL A   1      38.423  30.012  29.239  1.00  0.00     0.031 C 
ATOM     40  C   UNL A   1      37.851  34.266  34.636  1.00  0.00     0.029 A 
ATOM     41  C   UNL A   1      38.887  33.243  34.740  1.00  0.00     0.049 A 
ATOM     42  H   UNL A   1      39.423  31.832  33.304  1.00  0.00     0.167 HD
ATOM     43  C   UNL A   1      40.323  28.807  30.280  1.00  0.00     0.037 A 
ATOM     44  C   UNL A   1      39.684  33.045  35.808  1.00  0.00     0.037 A 
ATOM     45  C   UNL A   1      41.285  28.587  31.329  1.00  0.00     0.049 A 
ATOM     46  C   UNL A   1      40.710  31.944  35.765  1.00  0.00     0.074 A 
ATOM     47  C   UNL A   1      42.323  27.673  31.370  1.00  0.00     0.029 A 
ATOM     48  N   UNL A   1      41.322  29.286  32.527  1.00  0.00    -0.354 N 
ATOM     49  N   UNL A   1      40.981  31.098  34.802  1.00  0.00    -0.248 NA
ATOM     50  C   UNL A   1      41.548  31.774  36.962  1.00  0.00     0.031 C 
ATOM     51  C   UNL A   1      42.950  27.776  32.616  1.00  0.00     0.029 A 
ATOM     52  C   UNL A   1      42.345  28.801  33.327  1.00  0.00     0.049 A 
ATOM     53  H   UNL A   1      40.711  30.018  32.773  1.00  0.00     0.167 HD
ATOM     54  C   UNL A   1      42.037  30.321  35.260  1.00  0.00     0.074 A 
ATOM     55  C   UNL A   1      42.369  30.807  36.583  1.00  0.00     0.031 C 
ATOM     56  C   UNL A   1      42.674  29.298  34.639  1.00  0.00     0.037 A 
BRANCH  43  57
ATOM     57  C   UNL A   1      40.365  27.898  29.083  1.00  0.00     0.064 A 
ATOM     58  C   UNL A   1      39.630  26.704  29.037  1.00  0.00     0.173 A 
ATOM     59  C   UNL A   1      41.114  28.250  27.950  1.00  0.00     0.173 A 
ATOM     60  F   UNL A   1      38.903  26.316  30.095  1.00  0.00    -0.203 F 
ATOM     61  C   UNL A   1      39.667  25.882  27.913  1.00  0.00     0.198 A 
ATOM     62  C   UNL A   1      41.122  27.443  26.815  1.00  0.00     0.198 A 
ATOM     63  F   UNL A   1      41.829  29.385  27.936  1.00  0.00    -0.203 F 
ATOM     64  F   UNL A   1      38.995  24.723  27.912  1.00  0.00    -0.200 F 
ATOM     65  C   UNL A   1      40.406  26.256  26.801  1.00  0.00     0.200 A 
ATOM     66  F   UNL A   1      41.824  27.813  25.735  1.00  0.00    -0.200 F 
ATOM     67  F   UNL A   1      40.431  25.469  25.716  1.00  0.00    -0.200 F 
ENDBRANCH  43  57
BRANCH  44  68
ATOM     68  C   UNL A   1      39.559  33.920  37.004  1.00  0.00     0.064 A 
ATOM     69  C   UNL A   1      38.803  33.516  38.113  1.00  0.00     0.173 A 
ATOM     70  C   UNL A   1      40.172  35.179  37.058  1.00  0.00     0.173 A 
ATOM     71  F   UNL A   1      38.178  32.329  38.101  1.00  0.00    -0.203 F 
ATOM     72  C   UNL A   1      38.644  34.348  39.219  1.00  0.00     0.198 A 
ATOM     73  C   UNL A   1      40.039  35.998  38.178  1.00  0.00     0.198 A 
ATOM     74  F   UNL A   1      40.909  35.613  36.025  1.00  0.00    -0.203 F 
ATOM     75  F   UNL A   1      37.870  33.960  40.242  1.00  0.00    -0.200 F 
ATOM     76  C   UNL A   1      39.267  35.587  39.253  1.00  0.00     0.200 A 
ATOM     77  F   UNL A   1      40.656  37.188  38.212  1.00  0.00    -0.200 F 
ATOM     78  F   UNL A   1      39.114  36.388  40.316  1.00  0.00    -0.200 F 
ENDBRANCH  44  68
BRANCH  56  79
ATOM     79  C   UNL A   1      43.828  28.662  35.362  1.00  0.00     0.064 A 
ATOM     80  C   UNL A   1      43.653  27.558  36.209  1.00  0.00     0.173 A 
ATOM     81  C   UNL A   1      45.134  29.142  35.170  1.00  0.00     0.173 A 
ATOM     82  F   UNL A   1      42.423  27.071  36.438  1.00  0.00    -0.203 F 
ATOM     83  C   UNL A   1      44.737  26.977  36.862  1.00  0.00     0.198 A 
ATOM     84  C   UNL A   1      46.219  28.536  35.797  1.00  0.00     0.198 A 
ATOM     85  F   UNL A   1      45.358  30.189  34.364  1.00  0.00    -0.203 F 
ATOM     86  F   UNL A   1      44.538  25.959  37.709  1.00  0.00    -0.200 F 
ATOM     87  C   UNL A   1      46.020  27.461  36.649  1.00  0.00     0.200 A 
ATOM     88  F   UNL A   1      47.459  28.993  35.576  1.00  0.00    -0.200 F 
ATOM     89  F   UNL A   1      47.062  26.895  37.270  1.00  0.00    -0.200 F 
ENDBRANCH  56  79
ENDBRANCH  30  31
ENDBRANCH  22  25
ENDBRANCH  20  21
ENDBRANCH  19  20
ENDBRANCH   1  19
TORSDOF 14
ENDMDL
