MODEL 1
REMARK VINA RESULT:     -13.9      0.000      0.000
REMARK SMILES CCN1C(=O)c2cccc3cc(S(=O)(=O)NCC(=O)NCCCCNC(=O)c4ccc(-c5c6nc(c(-c7c(F)c(F)c(F)c(F)c7F)c7ccc([nH]7)c(-c7c(F)c(F)c(F)c(F)c7F)c7nc(c(-c8c(F)c(F)c(F)c(F)c8F)c8ccc5[nH]8)C=C7)C=C6)cc4)cc(c23)C1=O
REMARK SMILES IDX 21 1 20 2 18 3 19 4 17 6 16 7 13 9 14 10 15 11 12 12 3 13
REMARK SMILES IDX 4 14 94 15 5 16 6 17 92 18 95 19 7 20 93 21 91 22 8 23 10 24
REMARK SMILES IDX 9 25 11 26 2 27 1 28 22 29 23 30 24 31 25 32 26 33 27 35
REMARK SMILES IDX 28 36 29 37 90 38 30 39 89 40 31 41 32 42 33 43 83 44 34 45
REMARK SMILES IDX 88 46 82 47 84 48 35 49 87 50 81 51 80 52 36 54 68 55 48 56
REMARK SMILES IDX 67 57 49 58 52 59 66 60 85 61 50 62 51 63 65 65 86 66 53 67
REMARK SMILES IDX 37 68 38 69 46 70 39 71 40 72 44 73 47 74 41 75 42 76 45 77
REMARK SMILES IDX 43 78 69 79 70 80 78 81 71 82 72 83 76 84 79 85 73 86 74 87
REMARK SMILES IDX 77 88 75 89 54 90 55 91 63 92 56 93 57 94 61 95 64 96 58 97
REMARK SMILES IDX 59 98 62 99 60 100
REMARK H PARENT 20 5 16 8 25 34 84 53 52 64
REMARK Flexibility Score: inf
ROOT
ATOM      1  C   UNL A   1      31.694  27.219  25.263  1.00  0.00     0.116 C 
ENDROOT
BRANCH   1   2
ATOM      2  N   UNL A   1      30.373  27.109  24.680  1.00  0.00    -0.355 N 
ATOM      3  C   UNL A   1      29.964  27.508  23.440  1.00  0.00     0.235 C 
ATOM      4  O   UNL A   1      28.759  27.644  23.225  1.00  0.00    -0.274 OA
ATOM      5  H   UNL A   1      29.683  26.696  25.248  1.00  0.00     0.163 HD
BRANCH   3   6
ATOM      6  C   UNL A   1      30.981  27.703  22.333  1.00  0.00     0.198 C 
BRANCH   6   7
ATOM      7  N   UNL A   1      31.329  26.524  21.529  1.00  0.00    -0.202 NA
ATOM      8  H   UNL A   1      30.869  25.729  21.969  1.00  0.00     0.141 HD
BRANCH   7   9
ATOM      9  S   UNL A   1      32.928  26.072  21.284  1.00  0.00     0.241 S 
ATOM     10  O   UNL A   1      33.750  27.194  21.674  1.00  0.00    -0.207 OA
ATOM     11  O   UNL A   1      33.007  25.504  19.964  1.00  0.00    -0.207 OA
BRANCH   9  12
ATOM     12  C   UNL A   1      33.205  24.753  22.442  1.00  0.00     0.083 A 
ATOM     13  N   UNL A   1      32.695  20.083  23.763  1.00  0.00    -0.275 N 
ATOM     14  C   UNL A   1      33.555  20.246  24.850  1.00  0.00     0.261 C 
ATOM     15  C   UNL A   1      32.400  21.082  22.834  1.00  0.00     0.261 C 
ATOM     16  O   UNL A   1      33.849  19.352  25.640  1.00  0.00    -0.269 OA
ATOM     17  C   UNL A   1      34.141  21.591  25.050  1.00  0.00     0.049 A 
ATOM     18  C   UNL A   1      32.965  22.430  23.081  1.00  0.00     0.050 A 
ATOM     19  O   UNL A   1      31.723  20.919  21.823  1.00  0.00    -0.269 OA
ATOM     20  C   UNL A   1      35.007  21.814  26.129  1.00  0.00     0.014 A 
ATOM     21  C   UNL A   1      33.817  22.631  24.172  1.00  0.00     0.007 A 
ATOM     22  C   UNL A   1      32.658  23.488  22.211  1.00  0.00     0.036 A 
ATOM     23  C   UNL A   1      35.558  23.075  26.335  1.00  0.00     0.001 A 
ATOM     24  C   UNL A   1      34.368  23.918  24.395  1.00  0.00    -0.015 A 
ATOM     25  C   UNL A   1      35.238  24.122  25.473  1.00  0.00     0.009 A 
ATOM     26  C   UNL A   1      34.044  24.974  23.534  1.00  0.00     0.030 A 
BRANCH  13  27
ATOM     27  C   UNL A   1      32.056  18.774  23.597  1.00  0.00     0.126 C 
ATOM     28  C   UNL A   1      32.919  17.776  22.840  1.00  0.00     0.028 C 
ENDBRANCH  13  27
ENDBRANCH   9  12
ENDBRANCH   7   9
ENDBRANCH   6   7
ENDBRANCH   3   6
ENDBRANCH   1   2
BRANCH   1  29
ATOM     29  C   UNL A   1      31.590  27.333  26.782  1.00  0.00     0.023 C 
BRANCH  29  30
ATOM     30  C   UNL A   1      31.741  28.746  27.314  1.00  0.00     0.023 C 
BRANCH  30  31
ATOM     31  C   UNL A   1      32.721  29.600  26.527  1.00  0.00     0.116 C 
BRANCH  31  32
ATOM     32  N   UNL A   1      32.608  31.030  26.782  1.00  0.00    -0.352 N 
ATOM     33  C   UNL A   1      33.496  31.854  27.433  1.00  0.00     0.251 C 
ATOM     34  H   UNL A   1      31.791  31.463  26.444  1.00  0.00     0.163 HD
ATOM     35  O   UNL A   1      33.201  33.009  27.716  1.00  0.00    -0.269 OA
BRANCH  33  36
ATOM     36  C   UNL A   1      34.801  31.318  27.863  1.00  0.00     0.039 A 
ATOM     37  C   UNL A   1      35.858  32.216  28.013  1.00  0.00     0.014 A 
ATOM     38  C   UNL A   1      34.961  29.970  28.192  1.00  0.00     0.014 A 
ATOM     39  C   UNL A   1      37.046  31.780  28.590  1.00  0.00     0.010 A 
ATOM     40  C   UNL A   1      36.098  29.567  28.876  1.00  0.00     0.010 A 
ATOM     41  C   UNL A   1      37.151  30.468  29.079  1.00  0.00    -0.014 A 
BRANCH  41  42
ATOM     42  C   UNL A   1      38.359  30.041  29.820  1.00  0.00     0.031 A 
ATOM     43  C   UNL A   1      38.590  30.511  31.225  1.00  0.00     0.074 A 
ATOM     44  C   UNL A   1      39.271  29.273  29.195  1.00  0.00     0.049 A 
ATOM     45  N   UNL A   1      39.572  30.224  32.040  1.00  0.00    -0.248 NA
ATOM     46  C   UNL A   1      37.613  31.463  31.776  1.00  0.00     0.031 C 
ATOM     47  C   UNL A   1      39.206  28.850  27.793  1.00  0.00     0.029 A 
ATOM     48  N   UNL A   1      40.430  28.707  29.657  1.00  0.00    -0.354 N 
ATOM     49  C   UNL A   1      39.342  30.977  33.184  1.00  0.00     0.074 A 
ATOM     50  C   UNL A   1      38.169  31.784  32.933  1.00  0.00     0.031 C 
ATOM     51  C   UNL A   1      40.254  28.057  27.523  1.00  0.00     0.029 A 
ATOM     52  C   UNL A   1      41.073  27.932  28.723  1.00  0.00     0.049 A 
ATOM     53  H   UNL A   1      40.771  28.844  30.570  1.00  0.00     0.167 HD
ATOM     54  C   UNL A   1      40.029  30.968  34.349  1.00  0.00     0.037 A 
ATOM     55  C   UNL A   1      42.187  27.187  28.835  1.00  0.00     0.037 A 
ATOM     56  C   UNL A   1      41.166  30.124  34.601  1.00  0.00     0.049 A 
ATOM     57  C   UNL A   1      42.877  27.114  30.168  1.00  0.00     0.074 A 
ATOM     58  C   UNL A   1      41.880  29.959  35.773  1.00  0.00     0.029 A 
ATOM     59  N   UNL A   1      41.754  29.297  33.652  1.00  0.00    -0.354 N 
ATOM     60  N   UNL A   1      42.589  27.744  31.282  1.00  0.00    -0.248 NA
ATOM     61  C   UNL A   1      44.030  26.211  30.267  1.00  0.00     0.031 C 
ATOM     62  C   UNL A   1      42.924  29.060  35.524  1.00  0.00     0.029 A 
ATOM     63  C   UNL A   1      42.834  28.632  34.209  1.00  0.00     0.049 A 
ATOM     64  H   UNL A   1      41.449  29.199  32.721  1.00  0.00     0.167 HD
ATOM     65  C   UNL A   1      43.516  27.308  32.217  1.00  0.00     0.074 A 
ATOM     66  C   UNL A   1      44.356  26.336  31.546  1.00  0.00     0.031 C 
ATOM     67  C   UNL A   1      43.664  27.681  33.513  1.00  0.00     0.037 A 
BRANCH  54  68
ATOM     68  C   UNL A   1      39.557  31.894  35.433  1.00  0.00     0.064 A 
ATOM     69  C   UNL A   1      38.592  31.498  36.373  1.00  0.00     0.173 A 
ATOM     70  C   UNL A   1      40.068  33.195  35.527  1.00  0.00     0.173 A 
ATOM     71  F   UNL A   1      38.057  30.269  36.316  1.00  0.00    -0.203 F 
ATOM     72  C   UNL A   1      38.125  32.385  37.340  1.00  0.00     0.198 A 
ATOM     73  C   UNL A   1      39.624  34.071  36.516  1.00  0.00     0.198 A 
ATOM     74  F   UNL A   1      40.991  33.626  34.655  1.00  0.00    -0.203 F 
ATOM     75  F   UNL A   1      37.154  32.006  38.183  1.00  0.00    -0.200 F 
ATOM     76  C   UNL A   1      38.645  33.669  37.414  1.00  0.00     0.200 A 
ATOM     77  F   UNL A   1      40.132  35.307  36.592  1.00  0.00    -0.200 F 
ATOM     78  F   UNL A   1      38.193  34.523  38.342  1.00  0.00    -0.200 F 
ENDBRANCH  54  68
BRANCH  55  79
ATOM     79  C   UNL A   1      42.672  26.408  27.667  1.00  0.00     0.064 A 
ATOM     80  C   UNL A   1      42.166  25.131  27.391  1.00  0.00     0.173 A 
ATOM     81  C   UNL A   1      43.626  26.937  26.786  1.00  0.00     0.173 A 
ATOM     82  F   UNL A   1      41.261  24.578  28.213  1.00  0.00    -0.203 F 
ATOM     83  C   UNL A   1      42.607  24.405  26.287  1.00  0.00     0.198 A 
ATOM     84  C   UNL A   1      44.048  26.220  25.668  1.00  0.00     0.198 A 
ATOM     85  F   UNL A   1      44.132  28.160  27.000  1.00  0.00    -0.203 F 
ATOM     86  F   UNL A   1      42.131  23.171  26.065  1.00  0.00    -0.200 F 
ATOM     87  C   UNL A   1      43.542  24.952  25.422  1.00  0.00     0.200 A 
ATOM     88  F   UNL A   1      44.941  26.759  24.827  1.00  0.00    -0.200 F 
ATOM     89  F   UNL A   1      43.960  24.257  24.355  1.00  0.00    -0.200 F 
ENDBRANCH  55  79
BRANCH  67  90
ATOM     90  C   UNL A   1      44.776  27.029  34.280  1.00  0.00     0.064 A 
ATOM     91  C   UNL A   1      46.051  27.611  34.354  1.00  0.00     0.173 A 
ATOM     92  C   UNL A   1      44.562  25.821  34.958  1.00  0.00     0.173 A 
ATOM     93  F   UNL A   1      46.308  28.759  33.710  1.00  0.00    -0.203 F 
ATOM     94  C   UNL A   1      47.080  26.987  35.052  1.00  0.00     0.198 A 
ATOM     95  C   UNL A   1      45.586  25.215  35.679  1.00  0.00     0.198 A 
ATOM     96  F   UNL A   1      43.359  25.229  34.923  1.00  0.00    -0.203 F 
ATOM     97  F   UNL A   1      48.305  27.532  35.064  1.00  0.00    -0.200 F 
ATOM     98  C   UNL A   1      46.846  25.793  35.718  1.00  0.00     0.200 A 
ATOM     99  F   UNL A   1      45.355  24.068  36.332  1.00  0.00    -0.200 F 
ATOM    100  F   UNL A   1      47.839  25.193  36.388  1.00  0.00    -0.200 F 
ENDBRANCH  67  90
ENDBRANCH  41  42
ENDBRANCH  33  36
ENDBRANCH  31  32
ENDBRANCH  30  31
ENDBRANCH  29  30
ENDBRANCH   1  29
TORSDOF 15
ENDMDL
MODEL 2
REMARK VINA RESULT:     -13.3      1.214      2.094
REMARK SMILES CCN1C(=O)c2cccc3cc(S(=O)(=O)NCC(=O)NCCCCNC(=O)c4ccc(-c5c6nc(c(-c7c(F)c(F)c(F)c(F)c7F)c7ccc([nH]7)c(-c7c(F)c(F)c(F)c(F)c7F)c7nc(c(-c8c(F)c(F)c(F)c(F)c8F)c8ccc5[nH]8)C=C7)C=C6)cc4)cc(c23)C1=O
REMARK SMILES IDX 21 1 20 2 18 3 19 4 17 6 16 7 13 9 14 10 15 11 12 12 3 13
REMARK SMILES IDX 4 14 94 15 5 16 6 17 92 18 95 19 7 20 93 21 91 22 8 23 10 24
REMARK SMILES IDX 9 25 11 26 2 27 1 28 22 29 23 30 24 31 25 32 26 33 27 35
REMARK SMILES IDX 28 36 29 37 90 38 30 39 89 40 31 41 32 42 33 43 83 44 34 45
REMARK SMILES IDX 88 46 82 47 84 48 35 49 87 50 81 51 80 52 36 54 68 55 48 56
REMARK SMILES IDX 67 57 49 58 52 59 66 60 85 61 50 62 51 63 65 65 86 66 53 67
REMARK SMILES IDX 37 68 38 69 46 70 39 71 40 72 44 73 47 74 41 75 42 76 45 77
REMARK SMILES IDX 43 78 69 79 70 80 78 81 71 82 72 83 76 84 79 85 73 86 74 87
REMARK SMILES IDX 77 88 75 89 54 90 55 91 63 92 56 93 57 94 61 95 64 96 58 97
REMARK SMILES IDX 59 98 62 99 60 100
REMARK H PARENT 20 5 16 8 25 34 84 53 52 64
REMARK Flexibility Score: inf
ROOT
ATOM      1  C   UNL A   1      31.418  28.261  25.352  1.00  0.00     0.116 C 
ENDROOT
BRANCH   1   2
ATOM      2  N   UNL A   1      30.671  27.086  24.952  1.00  0.00    -0.355 N 
ATOM      3  C   UNL A   1      30.181  26.781  23.714  1.00  0.00     0.235 C 
ATOM      4  O   UNL A   1      29.301  25.924  23.617  1.00  0.00    -0.274 OA
ATOM      5  H   UNL A   1      30.493  26.425  25.660  1.00  0.00     0.163 HD
BRANCH   3   6
ATOM      6  C   UNL A   1      30.771  27.438  22.483  1.00  0.00     0.198 C 
BRANCH   6   7
ATOM      7  N   UNL A   1      31.286  26.550  21.433  1.00  0.00    -0.202 NA
ATOM      8  H   UNL A   1      30.720  25.704  21.467  1.00  0.00     0.141 HD
BRANCH   7   9
ATOM      9  S   UNL A   1      32.889  26.049  21.419  1.00  0.00     0.241 S 
ATOM     10  O   UNL A   1      33.681  27.147  21.921  1.00  0.00    -0.207 OA
ATOM     11  O   UNL A   1      33.138  25.471  20.124  1.00  0.00    -0.207 OA
BRANCH   9  12
ATOM     12  C   UNL A   1      32.957  24.728  22.606  1.00  0.00     0.083 A 
ATOM     13  N   UNL A   1      32.413  20.016  23.753  1.00  0.00    -0.275 N 
ATOM     14  C   UNL A   1      32.980  20.208  25.015  1.00  0.00     0.261 C 
ATOM     15  C   UNL A   1      32.291  21.013  22.784  1.00  0.00     0.261 C 
ATOM     16  O   UNL A   1      33.128  19.318  25.849  1.00  0.00    -0.269 OA
ATOM     17  C   UNL A   1      33.425  21.580  25.352  1.00  0.00     0.049 A 
ATOM     18  C   UNL A   1      32.705  22.385  23.162  1.00  0.00     0.050 A 
ATOM     19  O   UNL A   1      31.886  20.830  21.640  1.00  0.00    -0.269 OA
ATOM     20  C   UNL A   1      33.995  21.831  26.607  1.00  0.00     0.014 A 
ATOM     21  C   UNL A   1      33.260  22.614  24.426  1.00  0.00     0.007 A 
ATOM     22  C   UNL A   1      32.554  23.438  22.247  1.00  0.00     0.036 A 
ATOM     23  C   UNL A   1      34.409  23.117  26.942  1.00  0.00     0.001 A 
ATOM     24  C   UNL A   1      33.668  23.926  24.777  1.00  0.00    -0.015 A 
ATOM     25  C   UNL A   1      34.244  24.160  26.032  1.00  0.00     0.009 A 
ATOM     26  C   UNL A   1      33.498  24.976  23.867  1.00  0.00     0.030 A 
BRANCH  13  27
ATOM     27  C   UNL A   1      31.908  18.677  23.437  1.00  0.00     0.126 C 
ATOM     28  C   UNL A   1      32.985  17.734  22.925  1.00  0.00     0.028 C 
ENDBRANCH  13  27
ENDBRANCH   9  12
ENDBRANCH   7   9
ENDBRANCH   6   7
ENDBRANCH   3   6
ENDBRANCH   1   2
BRANCH   1  29
ATOM     29  C   UNL A   1      32.139  28.000  26.673  1.00  0.00     0.023 C 
BRANCH  29  30
ATOM     30  C   UNL A   1      33.625  27.730  26.532  1.00  0.00     0.023 C 
BRANCH  30  31
ATOM     31  C   UNL A   1      34.438  28.948  26.126  1.00  0.00     0.116 C 
BRANCH  31  32
ATOM     32  N   UNL A   1      33.811  30.222  26.458  1.00  0.00    -0.352 N 
ATOM     33  C   UNL A   1      34.160  31.112  27.447  1.00  0.00     0.251 C 
ATOM     34  H   UNL A   1      33.041  30.478  25.902  1.00  0.00     0.163 HD
ATOM     35  O   UNL A   1      33.448  32.072  27.716  1.00  0.00    -0.269 OA
BRANCH  33  36
ATOM     36  C   UNL A   1      35.375  30.870  28.245  1.00  0.00     0.039 A 
ATOM     37  C   UNL A   1      35.370  29.795  29.133  1.00  0.00     0.014 A 
ATOM     38  C   UNL A   1      36.529  31.636  28.063  1.00  0.00     0.014 A 
ATOM     39  C   UNL A   1      36.554  29.425  29.764  1.00  0.00     0.010 A 
ATOM     40  C   UNL A   1      37.730  31.195  28.595  1.00  0.00     0.010 A 
ATOM     41  C   UNL A   1      37.753  30.087  29.453  1.00  0.00    -0.014 A 
BRANCH  41  42
ATOM     42  C   UNL A   1      39.037  29.608  30.011  1.00  0.00     0.031 A 
ATOM     43  C   UNL A   1      39.562  30.175  31.296  1.00  0.00     0.074 A 
ATOM     44  C   UNL A   1      39.750  28.698  29.320  1.00  0.00     0.049 A 
ATOM     45  N   UNL A   1      40.650  29.864  31.950  1.00  0.00    -0.248 NA
ATOM     46  C   UNL A   1      38.788  31.267  31.905  1.00  0.00     0.031 C 
ATOM     47  C   UNL A   1      39.392  28.160  28.005  1.00  0.00     0.029 A 
ATOM     48  N   UNL A   1      40.924  28.061  29.629  1.00  0.00    -0.354 N 
ATOM     49  C   UNL A   1      40.700  30.736  33.030  1.00  0.00     0.074 A 
ATOM     50  C   UNL A   1      39.573  31.632  32.906  1.00  0.00     0.031 C 
ATOM     51  C   UNL A   1      40.301  27.244  27.641  1.00  0.00     0.029 A 
ATOM     52  C   UNL A   1      41.315  27.144  28.684  1.00  0.00     0.049 A 
ATOM     53  H   UNL A   1      41.437  28.244  30.448  1.00  0.00     0.167 HD
ATOM     54  C   UNL A   1      41.588  30.761  34.051  1.00  0.00     0.037 A 
ATOM     55  C   UNL A   1      42.365  26.303  28.677  1.00  0.00     0.037 A 
ATOM     56  C   UNL A   1      42.677  29.832  34.187  1.00  0.00     0.049 A 
ATOM     57  C   UNL A   1      43.281  26.280  29.868  1.00  0.00     0.074 A 
ATOM     58  C   UNL A   1      43.579  29.702  35.226  1.00  0.00     0.029 A 
ATOM     59  N   UNL A   1      43.009  28.869  33.243  1.00  0.00    -0.354 N 
ATOM     60  N   UNL A   1      43.257  27.033  30.941  1.00  0.00    -0.248 NA
ATOM     61  C   UNL A   1      44.353  25.278  29.858  1.00  0.00     0.031 C 
ATOM     62  C   UNL A   1      44.481  28.683  34.894  1.00  0.00     0.029 A 
ATOM     63  C   UNL A   1      44.114  28.150  33.668  1.00  0.00     0.049 A 
ATOM     64  H   UNL A   1      42.529  28.719  32.396  1.00  0.00     0.167 HD
ATOM     65  C   UNL A   1      44.302  26.591  31.740  1.00  0.00     0.074 A 
ATOM     66  C   UNL A   1      44.919  25.482  31.039  1.00  0.00     0.031 C 
ATOM     67  C   UNL A   1      44.718  27.061  32.942  1.00  0.00     0.037 A 
BRANCH  54  68
ATOM     68  C   UNL A   1      41.403  31.824  35.096  1.00  0.00     0.064 A 
ATOM     69  C   UNL A   1      40.454  31.693  36.122  1.00  0.00     0.173 A 
ATOM     70  C   UNL A   1      42.179  32.991  35.067  1.00  0.00     0.173 A 
ATOM     71  F   UNL A   1      39.673  30.604  36.184  1.00  0.00    -0.203 F 
ATOM     72  C   UNL A   1      40.258  32.710  37.053  1.00  0.00     0.198 A 
ATOM     73  C   UNL A   1      42.004  33.993  36.019  1.00  0.00     0.198 A 
ATOM     74  F   UNL A   1      43.101  33.169  34.109  1.00  0.00    -0.203 F 
ATOM     75  F   UNL A   1      39.298  32.591  37.981  1.00  0.00    -0.200 F 
ATOM     76  C   UNL A   1      41.036  33.856  37.004  1.00  0.00     0.200 A 
ATOM     77  F   UNL A   1      42.762  35.096  35.976  1.00  0.00    -0.200 F 
ATOM     78  F   UNL A   1      40.845  34.836  37.898  1.00  0.00    -0.200 F 
ENDBRANCH  54  68
BRANCH  55  79
ATOM     79  C   UNL A   1      42.558  25.378  27.532  1.00  0.00     0.064 A 
ATOM     80  C   UNL A   1      43.506  25.649  26.536  1.00  0.00     0.173 A 
ATOM     81  C   UNL A   1      41.822  24.189  27.424  1.00  0.00     0.173 A 
ATOM     82  F   UNL A   1      44.225  26.780  26.589  1.00  0.00    -0.203 F 
ATOM     83  C   UNL A   1      43.701  24.775  25.469  1.00  0.00     0.198 A 
ATOM     84  C   UNL A   1      42.033  23.304  26.370  1.00  0.00     0.198 A 
ATOM     85  F   UNL A   1      40.910  23.879  28.357  1.00  0.00    -0.203 F 
ATOM     86  F   UNL A   1      44.591  25.076  24.513  1.00  0.00    -0.200 F 
ATOM     87  C   UNL A   1      42.970  23.600  25.390  1.00  0.00     0.200 A 
ATOM     88  F   UNL A   1      41.336  22.162  26.305  1.00  0.00    -0.200 F 
ATOM     89  F   UNL A   1      43.163  22.755  24.368  1.00  0.00    -0.200 F 
ENDBRANCH  55  79
BRANCH  67  90
ATOM     90  C   UNL A   1      45.895  26.371  33.567  1.00  0.00     0.064 A 
ATOM     91  C   UNL A   1      45.733  25.226  34.361  1.00  0.00     0.173 A 
ATOM     92  C   UNL A   1      47.196  26.850  33.356  1.00  0.00     0.173 A 
ATOM     93  F   UNL A   1      44.507  24.739  34.601  1.00  0.00    -0.203 F 
ATOM     94  C   UNL A   1      46.830  24.606  34.951  1.00  0.00     0.198 A 
ATOM     95  C   UNL A   1      48.293  26.210  33.924  1.00  0.00     0.198 A 
ATOM     96  F   UNL A   1      47.403  27.938  32.599  1.00  0.00    -0.203 F 
ATOM     97  F   UNL A   1      46.648  23.547  35.752  1.00  0.00    -0.200 F 
ATOM     98  C   UNL A   1      48.109  25.095  34.728  1.00  0.00     0.200 A 
ATOM     99  F   UNL A   1      49.529  26.676  33.699  1.00  0.00    -0.200 F 
ATOM    100  F   UNL A   1      49.164  24.498  35.299  1.00  0.00    -0.200 F 
ENDBRANCH  67  90
ENDBRANCH  41  42
ENDBRANCH  33  36
ENDBRANCH  31  32
ENDBRANCH  30  31
ENDBRANCH  29  30
ENDBRANCH   1  29
TORSDOF 15
ENDMDL
MODEL 3
REMARK VINA RESULT:     -13.2      4.453     10.159
REMARK SMILES CCN1C(=O)c2cccc3cc(S(=O)(=O)NCC(=O)NCCCCNC(=O)c4ccc(-c5c6nc(c(-c7c(F)c(F)c(F)c(F)c7F)c7ccc([nH]7)c(-c7c(F)c(F)c(F)c(F)c7F)c7nc(c(-c8c(F)c(F)c(F)c(F)c8F)c8ccc5[nH]8)C=C7)C=C6)cc4)cc(c23)C1=O
REMARK SMILES IDX 21 1 20 2 18 3 19 4 17 6 16 7 13 9 14 10 15 11 12 12 3 13
REMARK SMILES IDX 4 14 94 15 5 16 6 17 92 18 95 19 7 20 93 21 91 22 8 23 10 24
REMARK SMILES IDX 9 25 11 26 2 27 1 28 22 29 23 30 24 31 25 32 26 33 27 35
REMARK SMILES IDX 28 36 29 37 90 38 30 39 89 40 31 41 32 42 33 43 83 44 34 45
REMARK SMILES IDX 88 46 82 47 84 48 35 49 87 50 81 51 80 52 36 54 68 55 48 56
REMARK SMILES IDX 67 57 49 58 52 59 66 60 85 61 50 62 51 63 65 65 86 66 53 67
REMARK SMILES IDX 37 68 38 69 46 70 39 71 40 72 44 73 47 74 41 75 42 76 45 77
REMARK SMILES IDX 43 78 69 79 70 80 78 81 71 82 72 83 76 84 79 85 73 86 74 87
REMARK SMILES IDX 77 88 75 89 54 90 55 91 63 92 56 93 57 94 61 95 64 96 58 97
REMARK SMILES IDX 59 98 62 99 60 100
REMARK H PARENT 20 5 16 8 25 34 84 53 52 64
REMARK Flexibility Score: inf
ROOT
ATOM      1  C   UNL A   1      35.213  20.809  25.243  1.00  0.00     0.116 C 
ENDROOT
BRANCH   1   2
ATOM      2  N   UNL A   1      34.387  21.525  24.293  1.00  0.00    -0.355 N 
ATOM      3  C   UNL A   1      33.025  21.520  24.189  1.00  0.00     0.235 C 
ATOM      4  O   UNL A   1      32.507  21.911  23.142  1.00  0.00    -0.274 OA
ATOM      5  H   UNL A   1      34.866  22.085  23.640  1.00  0.00     0.163 HD
BRANCH   3   6
ATOM      6  C   UNL A   1      32.177  21.111  25.375  1.00  0.00     0.198 C 
BRANCH   6   7
ATOM      7  N   UNL A   1      31.003  21.940  25.677  1.00  0.00    -0.202 NA
ATOM      8  H   UNL A   1      30.763  22.425  24.813  1.00  0.00     0.141 HD
BRANCH   7   9
ATOM      9  S   UNL A   1      31.043  23.110  26.881  1.00  0.00     0.241 S 
ATOM     10  O   UNL A   1      32.252  22.895  27.641  1.00  0.00    -0.207 OA
ATOM     11  O   UNL A   1      29.749  23.110  27.511  1.00  0.00    -0.207 OA
BRANCH   9  12
ATOM     12  C   UNL A   1      31.203  24.649  26.009  1.00  0.00     0.083 A 
ATOM     13  N   UNL A   1      29.275  28.206  23.281  1.00  0.00    -0.275 N 
ATOM     14  C   UNL A   1      30.421  28.992  23.408  1.00  0.00     0.261 C 
ATOM     15  C   UNL A   1      29.092  26.972  23.904  1.00  0.00     0.261 C 
ATOM     16  O   UNL A   1      30.562  30.100  22.896  1.00  0.00    -0.269 OA
ATOM     17  C   UNL A   1      31.532  28.438  24.217  1.00  0.00     0.049 A 
ATOM     18  C   UNL A   1      30.234  26.421  24.673  1.00  0.00     0.050 A 
ATOM     19  O   UNL A   1      28.051  26.321  23.877  1.00  0.00    -0.269 OA
ATOM     20  C   UNL A   1      32.709  29.181  24.373  1.00  0.00     0.014 A 
ATOM     21  C   UNL A   1      31.404  27.175  24.804  1.00  0.00     0.007 A 
ATOM     22  C   UNL A   1      30.127  25.157  25.275  1.00  0.00     0.036 A 
ATOM     23  C   UNL A   1      33.765  28.669  25.122  1.00  0.00     0.001 A 
ATOM     24  C   UNL A   1      32.488  26.650  25.553  1.00  0.00    -0.015 A 
ATOM     25  C   UNL A   1      33.655  27.409  25.708  1.00  0.00     0.009 A 
ATOM     26  C   UNL A   1      32.382  25.383  26.137  1.00  0.00     0.030 A 
BRANCH  13  27
ATOM     27  C   UNL A   1      28.198  28.716  22.427  1.00  0.00     0.126 C 
ATOM     28  C   UNL A   1      27.278  29.695  23.139  1.00  0.00     0.028 C 
ENDBRANCH  13  27
ENDBRANCH   9  12
ENDBRANCH   7   9
ENDBRANCH   6   7
ENDBRANCH   3   6
ENDBRANCH   1   2
BRANCH   1  29
ATOM     29  C   UNL A   1      36.583  21.474  25.355  1.00  0.00     0.023 C 
BRANCH  29  30
ATOM     30  C   UNL A   1      37.747  20.573  24.987  1.00  0.00     0.023 C 
BRANCH  30  31
ATOM     31  C   UNL A   1      38.967  20.748  25.877  1.00  0.00     0.116 C 
BRANCH  31  32
ATOM     32  N   UNL A   1      39.856  19.595  25.906  1.00  0.00    -0.352 N 
ATOM     33  C   UNL A   1      41.219  19.572  26.093  1.00  0.00     0.251 C 
ATOM     34  H   UNL A   1      39.427  18.718  25.778  1.00  0.00     0.163 HD
ATOM     35  O   UNL A   1      41.864  18.542  25.937  1.00  0.00    -0.269 OA
BRANCH  33  36
ATOM     36  C   UNL A   1      41.927  20.823  26.417  1.00  0.00     0.039 A 
ATOM     37  C   UNL A   1      42.192  21.713  25.376  1.00  0.00     0.014 A 
ATOM     38  C   UNL A   1      42.252  21.155  27.735  1.00  0.00     0.014 A 
ATOM     39  C   UNL A   1      42.690  22.978  25.669  1.00  0.00     0.010 A 
ATOM     40  C   UNL A   1      42.631  22.454  28.036  1.00  0.00     0.010 A 
ATOM     41  C   UNL A   1      42.856  23.376  27.006  1.00  0.00    -0.014 A 
BRANCH  41  42
ATOM     42  C   UNL A   1      43.249  24.766  27.328  1.00  0.00     0.031 A 
ATOM     43  C   UNL A   1      44.640  25.247  27.037  1.00  0.00     0.074 A 
ATOM     44  C   UNL A   1      42.358  25.572  27.936  1.00  0.00     0.049 A 
ATOM     45  N   UNL A   1      45.159  26.432  27.225  1.00  0.00    -0.248 NA
ATOM     46  C   UNL A   1      45.587  24.255  26.506  1.00  0.00     0.031 C 
ATOM     47  C   UNL A   1      41.015  25.177  28.370  1.00  0.00     0.029 A 
ATOM     48  N   UNL A   1      42.445  26.893  28.293  1.00  0.00    -0.354 N 
ATOM     49  C   UNL A   1      46.493  26.319  26.858  1.00  0.00     0.074 A 
ATOM     50  C   UNL A   1      46.721  24.936  26.503  1.00  0.00     0.031 C 
ATOM     51  C   UNL A   1      40.390  26.243  28.892  1.00  0.00     0.029 A 
ATOM     52  C   UNL A   1      41.292  27.388  28.850  1.00  0.00     0.049 A 
ATOM     53  H   UNL A   1      43.257  27.433  28.163  1.00  0.00     0.167 HD
ATOM     54  C   UNL A   1      47.433  27.290  26.790  1.00  0.00     0.037 A 
ATOM     55  C   UNL A   1      40.993  28.634  29.259  1.00  0.00     0.037 A 
ATOM     56  C   UNL A   1      47.178  28.671  27.101  1.00  0.00     0.049 A 
ATOM     57  C   UNL A   1      42.019  29.717  29.082  1.00  0.00     0.074 A 
ATOM     58  C   UNL A   1      48.025  29.757  26.976  1.00  0.00     0.029 A 
ATOM     59  N   UNL A   1      45.976  29.155  27.601  1.00  0.00    -0.354 N 
ATOM     60  N   UNL A   1      43.247  29.626  28.628  1.00  0.00    -0.248 NA
ATOM     61  C   UNL A   1      41.613  31.079  29.450  1.00  0.00     0.031 C 
ATOM     62  C   UNL A   1      47.347  30.892  27.436  1.00  0.00     0.029 A 
ATOM     63  C   UNL A   1      46.064  30.521  27.806  1.00  0.00     0.049 A 
ATOM     64  H   UNL A   1      45.179  28.606  27.783  1.00  0.00     0.167 HD
ATOM     65  C   UNL A   1      43.757  30.915  28.646  1.00  0.00     0.074 A 
ATOM     66  C   UNL A   1      42.693  31.776  29.127  1.00  0.00     0.031 C 
ATOM     67  C   UNL A   1      44.994  31.351  28.302  1.00  0.00     0.037 A 
BRANCH  54  68
ATOM     68  C   UNL A   1      48.812  26.884  26.357  1.00  0.00     0.064 A 
ATOM     69  C   UNL A   1      49.764  26.410  27.273  1.00  0.00     0.173 A 
ATOM     70  C   UNL A   1      49.189  26.978  25.010  1.00  0.00     0.173 A 
ATOM     71  F   UNL A   1      49.460  26.319  28.577  1.00  0.00    -0.203 F 
ATOM     72  C   UNL A   1      51.055  26.087  26.865  1.00  0.00     0.198 A 
ATOM     73  C   UNL A   1      50.471  26.622  24.598  1.00  0.00     0.198 A 
ATOM     74  F   UNL A   1      48.319  27.424  24.092  1.00  0.00    -0.203 F 
ATOM     75  F   UNL A   1      51.967  25.702  27.769  1.00  0.00    -0.200 F 
ATOM     76  C   UNL A   1      51.406  26.188  25.527  1.00  0.00     0.200 A 
ATOM     77  F   UNL A   1      50.808  26.712  23.305  1.00  0.00    -0.200 F 
ATOM     78  F   UNL A   1      52.650  25.880  25.135  1.00  0.00    -0.200 F 
ENDBRANCH  54  68
BRANCH  55  79
ATOM     79  C   UNL A   1      39.646  28.924  29.812  1.00  0.00     0.064 A 
ATOM     80  C   UNL A   1      39.399  28.845  31.189  1.00  0.00     0.173 A 
ATOM     81  C   UNL A   1      38.587  29.315  28.981  1.00  0.00     0.173 A 
ATOM     82  F   UNL A   1      40.378  28.462  32.023  1.00  0.00    -0.203 F 
ATOM     83  C   UNL A   1      38.141  29.132  31.713  1.00  0.00     0.198 A 
ATOM     84  C   UNL A   1      37.335  29.625  29.507  1.00  0.00     0.198 A 
ATOM     85  F   UNL A   1      38.776  29.416  27.657  1.00  0.00    -0.203 F 
ATOM     86  F   UNL A   1      37.923  29.015  33.031  1.00  0.00    -0.200 F 
ATOM     87  C   UNL A   1      37.111  29.528  30.873  1.00  0.00     0.200 A 
ATOM     88  F   UNL A   1      36.348  30.023  28.694  1.00  0.00    -0.200 F 
ATOM     89  F   UNL A   1      35.903  29.813  31.378  1.00  0.00    -0.200 F 
ENDBRANCH  55  79
BRANCH  67  90
ATOM     90  C   UNL A   1      45.254  32.822  28.435  1.00  0.00     0.064 A 
ATOM     91  C   UNL A   1      44.942  33.715  27.399  1.00  0.00     0.173 A 
ATOM     92  C   UNL A   1      45.805  33.345  29.614  1.00  0.00     0.173 A 
ATOM     93  F   UNL A   1      44.427  33.260  26.247  1.00  0.00    -0.203 F 
ATOM     94  C   UNL A   1      45.206  35.076  27.526  1.00  0.00     0.198 A 
ATOM     95  C   UNL A   1      46.039  34.710  29.748  1.00  0.00     0.198 A 
ATOM     96  F   UNL A   1      46.113  32.533  30.635  1.00  0.00    -0.203 F 
ATOM     97  F   UNL A   1      44.952  35.904  26.503  1.00  0.00    -0.200 F 
ATOM     98  C   UNL A   1      45.749  35.573  28.701  1.00  0.00     0.200 A 
ATOM     99  F   UNL A   1      46.553  35.191  30.888  1.00  0.00    -0.200 F 
ATOM    100  F   UNL A   1      46.004  36.883  28.821  1.00  0.00    -0.200 F 
ENDBRANCH  67  90
ENDBRANCH  41  42
ENDBRANCH  33  36
ENDBRANCH  31  32
ENDBRANCH  30  31
ENDBRANCH  29  30
ENDBRANCH   1  29
TORSDOF 15
ENDMDL
