MODEL 1
REMARK VINA RESULT:     -11.7      0.000      0.000
REMARK SMILES O=C(/C=C/c1cc(F)cc(C[N@@H+]2CCC[C@H]2CO)c1)NCCCCNC(=O)c1ccc(-c2c3nc(c(-c4c(F)c(F)c(F)c(F)c4F)c4ccc([nH]4)c(-c4c(F)c(F)c(F)c(F)c4F)c4nc(c(-c5c(F)c(F)c(F)c(F)c5F)c5ccc2[nH]5)C=C4)C=C3)cc1
REMARK SMILES IDX 21 1 20 2 1 3 2 4 3 6 4 7 5 8 6 9 19 10 7 11 10 12 8 13 9 14
REMARK SMILES IDX 11 15 12 16 13 17 16 18 14 20 15 21 17 22 18 23 22 25 23 26
REMARK SMILES IDX 24 27 25 28 26 29 27 31 28 32 29 33 90 34 30 35 89 36 31 37
REMARK SMILES IDX 32 38 33 39 83 40 34 41 88 42 82 43 84 44 35 45 87 46 81 47
REMARK SMILES IDX 80 48 36 50 68 51 48 52 67 53 49 54 52 55 66 56 85 57 50 58
REMARK SMILES IDX 51 59 65 61 86 62 53 63 37 64 38 65 46 66 39 67 40 68 44 69
REMARK SMILES IDX 47 70 41 71 42 72 45 73 43 74 69 75 70 76 78 77 71 78 72 79
REMARK SMILES IDX 76 80 79 81 73 82 74 83 77 84 75 85 54 86 55 87 63 88 56 89
REMARK SMILES IDX 57 90 61 91 64 92 58 93 59 94 62 95 60 96
REMARK H PARENT 20 5 12 19 18 24 25 30 84 49 52 60
REMARK Flexibility Score: inf
ROOT
ATOM      1  C   UNL A   1      34.674  32.434  29.552  1.00  0.00     0.116 C 
ENDROOT
BRANCH   1   2
ATOM      2  N   UNL A   1      34.062  31.570  28.563  1.00  0.00    -0.353 N 
ATOM      3  O   UNL A   1      36.009  30.546  27.899  1.00  0.00    -0.270 OA
ATOM      4  C   UNL A   1      34.798  30.696  27.803  1.00  0.00     0.243 C 
ATOM      5  H   UNL A   1      33.086  31.610  28.432  1.00  0.00     0.163 HD
BRANCH   4   6
ATOM      6  C   UNL A   1      34.024  29.837  26.870  1.00  0.00     0.072 C 
ATOM      7  C   UNL A   1      32.764  30.066  26.469  1.00  0.00     0.014 C 
BRANCH   7   8
ATOM      8  C   UNL A   1      32.042  29.173  25.552  1.00  0.00    -0.022 A 
ATOM      9  C   UNL A   1      31.773  27.843  25.890  1.00  0.00     0.047 A 
ATOM     10  C   UNL A   1      31.542  29.685  24.342  1.00  0.00     0.018 A 
ATOM     11  C   UNL A   1      30.988  27.065  25.050  1.00  0.00     0.124 A 
ATOM     12  C   UNL A   1      30.774  28.888  23.475  1.00  0.00     0.010 A 
ATOM     13  F   UNL A   1      30.727  25.794  25.383  1.00  0.00    -0.207 F 
ATOM     14  C   UNL A   1      30.466  27.580  23.872  1.00  0.00     0.048 A 
BRANCH  12  15
ATOM     15  C   UNL A   1      30.275  29.433  22.154  1.00  0.00     0.299 C 
BRANCH  15  16
ATOM     16  N   UNL A   1      28.837  29.691  22.014  1.00  0.00    -0.327 N 
ATOM     17  C   UNL A   1      28.467  30.877  21.245  1.00  0.00     0.263 C 
ATOM     18  C   UNL A   1      28.065  29.729  23.265  1.00  0.00     0.210 C 
ATOM     19  H   UNL A   1      28.583  28.856  21.486  1.00  0.00     0.348 HD
ATOM     20  C   UNL A   1      28.137  31.954  22.263  1.00  0.00     0.068 C 
ATOM     21  C   UNL A   1      27.683  31.197  23.501  1.00  0.00     0.073 C 
BRANCH  18  22
ATOM     22  C   UNL A   1      26.807  28.842  23.127  1.00  0.00     0.220 C 
BRANCH  22  23
ATOM     23  O   UNL A   1      26.984  27.584  23.775  1.00  0.00    -0.390 OA
ATOM     24  H   UNL A   1      26.409  27.539  24.555  1.00  0.00     0.210 HD
ENDBRANCH  22  23
ENDBRANCH  18  22
ENDBRANCH  15  16
ENDBRANCH  12  15
ENDBRANCH   7   8
ENDBRANCH   4   6
ENDBRANCH   1   2
BRANCH   1  25
ATOM     25  C   UNL A   1      34.817  33.874  29.059  1.00  0.00     0.023 C 
BRANCH  25  26
ATOM     26  C   UNL A   1      33.501  34.644  28.917  1.00  0.00     0.023 C 
BRANCH  26  27
ATOM     27  C   UNL A   1      33.488  36.047  29.519  1.00  0.00     0.116 C 
BRANCH  27  28
ATOM     28  N   UNL A   1      32.523  36.197  30.596  1.00  0.00    -0.352 N 
ATOM     29  C   UNL A   1      32.570  35.732  31.889  1.00  0.00     0.251 C 
ATOM     30  H   UNL A   1      31.716  36.711  30.365  1.00  0.00     0.163 HD
ATOM     31  O   UNL A   1      31.589  35.848  32.617  1.00  0.00    -0.269 OA
BRANCH  29  32
ATOM     32  C   UNL A   1      33.785  35.059  32.403  1.00  0.00     0.039 A 
ATOM     33  C   UNL A   1      33.670  33.758  32.904  1.00  0.00     0.014 A 
ATOM     34  C   UNL A   1      35.027  35.697  32.405  1.00  0.00     0.014 A 
ATOM     35  C   UNL A   1      34.810  33.075  33.336  1.00  0.00     0.010 A 
ATOM     36  C   UNL A   1      36.174  34.990  32.767  1.00  0.00     0.010 A 
ATOM     37  C   UNL A   1      36.078  33.669  33.232  1.00  0.00    -0.014 A 
BRANCH  37  38
ATOM     38  C   UNL A   1      37.313  32.918  33.585  1.00  0.00     0.031 A 
ATOM     39  C   UNL A   1      38.031  33.194  34.877  1.00  0.00     0.074 A 
ATOM     40  C   UNL A   1      37.820  32.023  32.714  1.00  0.00     0.049 A 
ATOM     41  N   UNL A   1      39.156  32.691  35.321  1.00  0.00    -0.248 NA
ATOM     42  C   UNL A   1      37.418  34.180  35.781  1.00  0.00     0.031 C 
ATOM     43  C   UNL A   1      37.238  31.688  31.414  1.00  0.00     0.029 A 
ATOM     44  N   UNL A   1      38.944  31.236  32.785  1.00  0.00    -0.354 N 
ATOM     45  C   UNL A   1      39.387  33.304  36.545  1.00  0.00     0.074 A 
ATOM     46  C   UNL A   1      38.316  34.254  36.753  1.00  0.00     0.031 C 
ATOM     47  C   UNL A   1      37.989  30.744  30.826  1.00  0.00     0.029 A 
ATOM     48  C   UNL A   1      39.132  30.439  31.682  1.00  0.00     0.049 A 
ATOM     49  H   UNL A   1      39.557  31.243  33.555  1.00  0.00     0.167 HD
ATOM     50  C   UNL A   1      40.389  33.075  37.427  1.00  0.00     0.037 A 
ATOM     51  C   UNL A   1      40.114  29.566  31.387  1.00  0.00     0.037 A 
ATOM     52  C   UNL A   1      41.439  32.109  37.231  1.00  0.00     0.049 A 
ATOM     53  C   UNL A   1      41.231  29.351  32.372  1.00  0.00     0.074 A 
ATOM     54  C   UNL A   1      42.466  31.771  38.096  1.00  0.00     0.029 A 
ATOM     55  N   UNL A   1      41.597  31.328  36.097  1.00  0.00    -0.354 N 
ATOM     56  N   UNL A   1      41.411  29.900  33.548  1.00  0.00    -0.248 NA
ATOM     57  C   UNL A   1      42.282  28.396  31.992  1.00  0.00     0.031 C 
ATOM     58  C   UNL A   1      43.277  30.827  37.462  1.00  0.00     0.029 A 
ATOM     59  C   UNL A   1      42.721  30.529  36.229  1.00  0.00     0.049 A 
ATOM     60  H   UNL A   1      41.000  31.340  35.315  1.00  0.00     0.167 HD
ATOM     61  C   UNL A   1      42.573  29.340  34.060  1.00  0.00     0.074 A 
ATOM     62  C   UNL A   1      43.053  28.397  33.071  1.00  0.00     0.031 C 
ATOM     63  C   UNL A   1      43.186  29.586  35.243  1.00  0.00     0.037 A 
BRANCH  50  64
ATOM     64  C   UNL A   1      40.403  33.869  38.701  1.00  0.00     0.064 A 
ATOM     65  C   UNL A   1      41.203  35.016  38.817  1.00  0.00     0.173 A 
ATOM     66  C   UNL A   1      39.696  33.445  39.837  1.00  0.00     0.173 A 
ATOM     67  F   UNL A   1      41.904  35.461  37.763  1.00  0.00    -0.203 F 
ATOM     68  C   UNL A   1      41.310  35.697  40.027  1.00  0.00     0.198 A 
ATOM     69  C   UNL A   1      39.782  34.146  41.037  1.00  0.00     0.198 A 
ATOM     70  F   UNL A   1      38.910  32.360  39.776  1.00  0.00    -0.203 F 
ATOM     71  F   UNL A   1      42.113  36.766  40.124  1.00  0.00    -0.200 F 
ATOM     72  C   UNL A   1      40.598  35.263  41.135  1.00  0.00     0.200 A 
ATOM     73  F   UNL A   1      39.075  33.739  42.100  1.00  0.00    -0.200 F 
ATOM     74  F   UNL A   1      40.697  35.923  42.298  1.00  0.00    -0.200 F 
ENDBRANCH  50  64
BRANCH  51  75
ATOM     75  C   UNL A   1      40.066  28.806  30.109  1.00  0.00     0.064 A 
ATOM     76  C   UNL A   1      39.456  27.546  30.028  1.00  0.00     0.173 A 
ATOM     77  C   UNL A   1      40.658  29.320  28.947  1.00  0.00     0.173 A 
ATOM     78  F   UNL A   1      38.879  27.007  31.112  1.00  0.00    -0.203 F 
ATOM     79  C   UNL A   1      39.456  26.821  28.838  1.00  0.00     0.198 A 
ATOM     80  C   UNL A   1      40.631  28.606  27.750  1.00  0.00     0.198 A 
ATOM     81  F   UNL A   1      41.236  30.530  28.968  1.00  0.00    -0.203 F 
ATOM     82  F   UNL A   1      38.898  25.603  28.798  1.00  0.00    -0.200 F 
ATOM     83  C   UNL A   1      40.039  27.354  27.699  1.00  0.00     0.200 A 
ATOM     84  F   UNL A   1      41.173  29.137  26.644  1.00  0.00    -0.200 F 
ATOM     85  F   UNL A   1      40.028  26.661  26.552  1.00  0.00    -0.200 F 
ENDBRANCH  51  75
BRANCH  63  86
ATOM     86  C   UNL A   1      44.432  28.812  35.563  1.00  0.00     0.064 A 
ATOM     87  C   UNL A   1      44.353  27.605  36.275  1.00  0.00     0.173 A 
ATOM     88  C   UNL A   1      45.706  29.307  35.250  1.00  0.00     0.173 A 
ATOM     89  F   UNL A   1      43.159  27.092  36.607  1.00  0.00    -0.203 F 
ATOM     90  C   UNL A   1      45.503  26.934  36.680  1.00  0.00     0.198 A 
ATOM     91  C   UNL A   1      46.854  28.617  35.630  1.00  0.00     0.198 A 
ATOM     92  F   UNL A   1      45.835  30.451  34.561  1.00  0.00    -0.203 F 
ATOM     93  F   UNL A   1      45.403  25.806  37.396  1.00  0.00    -0.200 F 
ATOM     94  C   UNL A   1      46.753  27.439  36.354  1.00  0.00     0.200 A 
ATOM     95  F   UNL A   1      48.061  29.094  35.293  1.00  0.00    -0.200 F 
ATOM     96  F   UNL A   1      47.860  26.789  36.739  1.00  0.00    -0.200 F 
ENDBRANCH  63  86
ENDBRANCH  37  38
ENDBRANCH  29  32
ENDBRANCH  27  28
ENDBRANCH  26  27
ENDBRANCH  25  26
ENDBRANCH   1  25
TORSDOF 16
ENDMDL
MODEL 2
REMARK VINA RESULT:     -11.6      6.419     12.451
REMARK SMILES O=C(/C=C/c1cc(F)cc(C[N@@H+]2CCC[C@H]2CO)c1)NCCCCNC(=O)c1ccc(-c2c3nc(c(-c4c(F)c(F)c(F)c(F)c4F)c4ccc([nH]4)c(-c4c(F)c(F)c(F)c(F)c4F)c4nc(c(-c5c(F)c(F)c(F)c(F)c5F)c5ccc2[nH]5)C=C4)C=C3)cc1
REMARK SMILES IDX 21 1 20 2 1 3 2 4 3 6 4 7 5 8 6 9 19 10 7 11 10 12 8 13 9 14
REMARK SMILES IDX 11 15 12 16 13 17 16 18 14 20 15 21 17 22 18 23 22 25 23 26
REMARK SMILES IDX 24 27 25 28 26 29 27 31 28 32 29 33 90 34 30 35 89 36 31 37
REMARK SMILES IDX 32 38 33 39 83 40 34 41 88 42 82 43 84 44 35 45 87 46 81 47
REMARK SMILES IDX 80 48 36 50 68 51 48 52 67 53 49 54 52 55 66 56 85 57 50 58
REMARK SMILES IDX 51 59 65 61 86 62 53 63 37 64 38 65 46 66 39 67 40 68 44 69
REMARK SMILES IDX 47 70 41 71 42 72 45 73 43 74 69 75 70 76 78 77 71 78 72 79
REMARK SMILES IDX 76 80 79 81 73 82 74 83 77 84 75 85 54 86 55 87 63 88 56 89
REMARK SMILES IDX 57 90 61 91 64 92 58 93 59 94 62 95 60 96
REMARK H PARENT 20 5 12 19 18 24 25 30 84 49 52 60
REMARK Flexibility Score: inf
ROOT
ATOM      1  C   UNL A   1      45.988  21.474  25.061  1.00  0.00     0.116 C 
ENDROOT
BRANCH   1   2
ATOM      2  N   UNL A   1      45.543  22.785  25.491  1.00  0.00    -0.353 N 
ATOM      3  O   UNL A   1      46.719  23.968  23.909  1.00  0.00    -0.270 OA
ATOM      4  C   UNL A   1      45.965  23.936  24.874  1.00  0.00     0.243 C 
ATOM      5  H   UNL A   1      44.918  22.852  26.249  1.00  0.00     0.163 HD
BRANCH   4   6
ATOM      6  C   UNL A   1      45.381  25.200  25.390  1.00  0.00     0.072 C 
ATOM      7  C   UNL A   1      44.211  25.730  25.002  1.00  0.00     0.014 C 
BRANCH   7   8
ATOM      8  C   UNL A   1      43.686  26.993  25.540  1.00  0.00    -0.022 A 
ATOM      9  C   UNL A   1      42.360  27.382  25.326  1.00  0.00     0.047 A 
ATOM     10  C   UNL A   1      44.509  27.790  26.354  1.00  0.00     0.018 A 
ATOM     11  C   UNL A   1      41.869  28.523  25.947  1.00  0.00     0.124 A 
ATOM     12  C   UNL A   1      44.022  28.964  26.957  1.00  0.00     0.010 A 
ATOM     13  F   UNL A   1      40.596  28.887  25.743  1.00  0.00    -0.207 F 
ATOM     14  C   UNL A   1      42.672  29.292  26.777  1.00  0.00     0.048 A 
BRANCH  12  15
ATOM     15  C   UNL A   1      44.926  29.840  27.797  1.00  0.00     0.299 C 
BRANCH  15  16
ATOM     16  N   UNL A   1      45.887  30.704  27.101  1.00  0.00    -0.327 N 
ATOM     17  C   UNL A   1      47.238  30.168  26.942  1.00  0.00     0.263 C 
ATOM     18  C   UNL A   1      46.024  32.070  27.627  1.00  0.00     0.210 C 
ATOM     19  H   UNL A   1      45.430  30.737  26.190  1.00  0.00     0.348 HD
ATOM     20  C   UNL A   1      48.078  30.814  28.029  1.00  0.00     0.068 C 
ATOM     21  C   UNL A   1      47.393  32.140  28.318  1.00  0.00     0.073 C 
BRANCH  18  22
ATOM     22  C   UNL A   1      45.935  33.086  26.466  1.00  0.00     0.220 C 
BRANCH  22  23
ATOM     23  O   UNL A   1      45.312  32.510  25.319  1.00  0.00    -0.390 OA
ATOM     24  H   UNL A   1      44.387  32.802  25.274  1.00  0.00     0.210 HD
ENDBRANCH  22  23
ENDBRANCH  18  22
ENDBRANCH  15  16
ENDBRANCH  12  15
ENDBRANCH   7   8
ENDBRANCH   4   6
ENDBRANCH   1   2
BRANCH   1  25
ATOM     25  C   UNL A   1      44.920  20.730  24.261  1.00  0.00     0.023 C 
BRANCH  25  26
ATOM     26  C   UNL A   1      44.529  19.359  24.818  1.00  0.00     0.023 C 
BRANCH  26  27
ATOM     27  C   UNL A   1      43.670  19.379  26.079  1.00  0.00     0.116 C 
BRANCH  27  28
ATOM     28  N   UNL A   1      42.253  19.194  25.809  1.00  0.00    -0.352 N 
ATOM     29  C   UNL A   1      41.188  20.010  26.109  1.00  0.00     0.251 C 
ATOM     30  H   UNL A   1      42.022  18.360  25.340  1.00  0.00     0.163 HD
ATOM     31  O   UNL A   1      40.042  19.615  25.917  1.00  0.00    -0.269 OA
BRANCH  29  32
ATOM     32  C   UNL A   1      41.410  21.351  26.696  1.00  0.00     0.039 A 
ATOM     33  C   UNL A   1      41.260  21.512  28.077  1.00  0.00     0.014 A 
ATOM     34  C   UNL A   1      41.752  22.448  25.902  1.00  0.00     0.014 A 
ATOM     35  C   UNL A   1      41.525  22.750  28.668  1.00  0.00     0.010 A 
ATOM     36  C   UNL A   1      42.087  23.663  26.499  1.00  0.00     0.010 A 
ATOM     37  C   UNL A   1      41.982  23.826  27.889  1.00  0.00    -0.014 A 
BRANCH  37  38
ATOM     38  C   UNL A   1      42.373  25.119  28.514  1.00  0.00     0.031 A 
ATOM     39  C   UNL A   1      43.789  25.352  28.962  1.00  0.00     0.074 A 
ATOM     40  C   UNL A   1      41.437  26.064  28.731  1.00  0.00     0.049 A 
ATOM     41  N   UNL A   1      44.299  26.384  29.588  1.00  0.00    -0.248 NA
ATOM     42  C   UNL A   1      44.758  24.278  28.691  1.00  0.00     0.031 C 
ATOM     43  C   UNL A   1      40.022  25.948  28.374  1.00  0.00     0.029 A 
ATOM     44  N   UNL A   1      41.531  27.307  29.309  1.00  0.00    -0.354 N 
ATOM     45  C   UNL A   1      45.637  26.079  29.791  1.00  0.00     0.074 A 
ATOM     46  C   UNL A   1      45.853  24.747  29.270  1.00  0.00     0.031 C 
ATOM     47  C   UNL A   1      39.389  27.083  28.710  1.00  0.00     0.029 A 
ATOM     48  C   UNL A   1      40.338  27.989  29.350  1.00  0.00     0.049 A 
ATOM     49  H   UNL A   1      42.373  27.675  29.660  1.00  0.00     0.167 HD
ATOM     50  C   UNL A   1      46.604  26.853  30.340  1.00  0.00     0.037 A 
ATOM     51  C   UNL A   1      40.039  29.203  29.851  1.00  0.00     0.037 A 
ATOM     52  C   UNL A   1      46.394  28.189  30.832  1.00  0.00     0.049 A 
ATOM     53  C   UNL A   1      41.126  30.031  30.480  1.00  0.00     0.074 A 
ATOM     54  C   UNL A   1      47.327  29.068  31.355  1.00  0.00     0.029 A 
ATOM     55  N   UNL A   1      45.171  28.840  30.863  1.00  0.00    -0.354 N 
ATOM     56  N   UNL A   1      42.399  29.751  30.621  1.00  0.00    -0.248 NA
ATOM     57  C   UNL A   1      40.739  31.342  31.021  1.00  0.00     0.031 C 
ATOM     58  C   UNL A   1      46.659  30.228  31.754  1.00  0.00     0.029 A 
ATOM     59  C   UNL A   1      45.320  30.099  31.421  1.00  0.00     0.049 A 
ATOM     60  H   UNL A   1      44.321  28.464  30.536  1.00  0.00     0.167 HD
ATOM     61  C   UNL A   1      42.969  30.857  31.237  1.00  0.00     0.074 A 
ATOM     62  C   UNL A   1      41.905  31.820  31.435  1.00  0.00     0.031 C 
ATOM     63  C   UNL A   1      44.258  31.054  31.606  1.00  0.00     0.037 A 
BRANCH  50  64
ATOM     64  C   UNL A   1      47.993  26.288  30.430  1.00  0.00     0.064 A 
ATOM     65  C   UNL A   1      48.442  25.688  31.617  1.00  0.00     0.173 A 
ATOM     66  C   UNL A   1      48.909  26.423  29.376  1.00  0.00     0.173 A 
ATOM     67  F   UNL A   1      47.609  25.541  32.658  1.00  0.00    -0.203 F 
ATOM     68  C   UNL A   1      49.761  25.262  31.750  1.00  0.00     0.198 A 
ATOM     69  C   UNL A   1      50.219  25.968  29.503  1.00  0.00     0.198 A 
ATOM     70  F   UNL A   1      48.527  26.981  28.218  1.00  0.00    -0.203 F 
ATOM     71  F   UNL A   1      50.178  24.728  32.908  1.00  0.00    -0.200 F 
ATOM     72  C   UNL A   1      50.647  25.399  30.693  1.00  0.00     0.200 A 
ATOM     73  F   UNL A   1      51.067  26.080  28.471  1.00  0.00    -0.200 F 
ATOM     74  F   UNL A   1      51.915  24.983  30.820  1.00  0.00    -0.200 F 
ENDBRANCH  50  64
BRANCH  51  75
ATOM     75  C   UNL A   1      38.648  29.720  29.748  1.00  0.00     0.064 A 
ATOM     76  C   UNL A   1      38.109  30.137  28.522  1.00  0.00     0.173 A 
ATOM     77  C   UNL A   1      37.838  29.832  30.887  1.00  0.00     0.173 A 
ATOM     78  F   UNL A   1      38.844  30.055  27.403  1.00  0.00    -0.203 F 
ATOM     79  C   UNL A   1      36.822  30.664  28.442  1.00  0.00     0.198 A 
ATOM     80  C   UNL A   1      36.540  30.331  30.801  1.00  0.00     0.198 A 
ATOM     81  F   UNL A   1      38.300  29.427  32.079  1.00  0.00    -0.203 F 
ATOM     82  F   UNL A   1      36.346  31.089  27.264  1.00  0.00    -0.200 F 
ATOM     83  C   UNL A   1      36.036  30.756  29.581  1.00  0.00     0.200 A 
ATOM     84  F   UNL A   1      35.775  30.394  31.900  1.00  0.00    -0.200 F 
ATOM     85  F   UNL A   1      34.794  31.251  29.502  1.00  0.00    -0.200 F 
ENDBRANCH  51  75
BRANCH  63  86
ATOM     86  C   UNL A   1      44.614  32.369  32.237  1.00  0.00     0.064 A 
ATOM     87  C   UNL A   1      44.920  33.481  31.436  1.00  0.00     0.173 A 
ATOM     88  C   UNL A   1      44.745  32.507  33.626  1.00  0.00     0.173 A 
ATOM     89  F   UNL A   1      44.820  33.400  30.100  1.00  0.00    -0.203 F 
ATOM     90  C   UNL A   1      45.363  34.673  32.001  1.00  0.00     0.198 A 
ATOM     91  C   UNL A   1      45.159  33.710  34.191  1.00  0.00     0.198 A 
ATOM     92  F   UNL A   1      44.453  31.477  34.437  1.00  0.00    -0.203 F 
ATOM     93  F   UNL A   1      45.690  35.706  31.214  1.00  0.00    -0.200 F 
ATOM     94  C   UNL A   1      45.479  34.787  33.379  1.00  0.00     0.200 A 
ATOM     95  F   UNL A   1      45.247  33.827  35.523  1.00  0.00    -0.200 F 
ATOM     96  F   UNL A   1      45.900  35.937  33.923  1.00  0.00    -0.200 F 
ENDBRANCH  63  86
ENDBRANCH  37  38
ENDBRANCH  29  32
ENDBRANCH  27  28
ENDBRANCH  26  27
ENDBRANCH  25  26
ENDBRANCH   1  25
TORSDOF 16
ENDMDL
MODEL 3
REMARK VINA RESULT:     -11.6      2.193      3.466
REMARK SMILES O=C(/C=C/c1cc(F)cc(C[N@@H+]2CCC[C@H]2CO)c1)NCCCCNC(=O)c1ccc(-c2c3nc(c(-c4c(F)c(F)c(F)c(F)c4F)c4ccc([nH]4)c(-c4c(F)c(F)c(F)c(F)c4F)c4nc(c(-c5c(F)c(F)c(F)c(F)c5F)c5ccc2[nH]5)C=C4)C=C3)cc1
REMARK SMILES IDX 21 1 20 2 1 3 2 4 3 6 4 7 5 8 6 9 19 10 7 11 10 12 8 13 9 14
REMARK SMILES IDX 11 15 12 16 13 17 16 18 14 20 15 21 17 22 18 23 22 25 23 26
REMARK SMILES IDX 24 27 25 28 26 29 27 31 28 32 29 33 90 34 30 35 89 36 31 37
REMARK SMILES IDX 32 38 33 39 83 40 34 41 88 42 82 43 84 44 35 45 87 46 81 47
REMARK SMILES IDX 80 48 36 50 68 51 48 52 67 53 49 54 52 55 66 56 85 57 50 58
REMARK SMILES IDX 51 59 65 61 86 62 53 63 37 64 38 65 46 66 39 67 40 68 44 69
REMARK SMILES IDX 47 70 41 71 42 72 45 73 43 74 69 75 70 76 78 77 71 78 72 79
REMARK SMILES IDX 76 80 79 81 73 82 74 83 77 84 75 85 54 86 55 87 63 88 56 89
REMARK SMILES IDX 57 90 61 91 64 92 58 93 59 94 62 95 60 96
REMARK H PARENT 20 5 12 19 18 24 25 30 84 49 52 60
REMARK Flexibility Score: inf
ROOT
ATOM      1  C   UNL A   1      34.518  32.272  29.156  1.00  0.00     0.116 C 
ENDROOT
BRANCH   1   2
ATOM      2  N   UNL A   1      34.064  31.191  28.304  1.00  0.00    -0.353 N 
ATOM      3  O   UNL A   1      36.159  30.480  27.681  1.00  0.00    -0.270 OA
ATOM      4  C   UNL A   1      34.940  30.385  27.621  1.00  0.00     0.243 C 
ATOM      5  H   UNL A   1      33.097  31.029  28.213  1.00  0.00     0.163 HD
BRANCH   4   6
ATOM      6  C   UNL A   1      34.328  29.285  26.831  1.00  0.00     0.072 C 
ATOM      7  C   UNL A   1      33.334  28.488  27.252  1.00  0.00     0.014 C 
BRANCH   7   8
ATOM      8  C   UNL A   1      32.775  27.406  26.430  1.00  0.00    -0.022 A 
ATOM      9  C   UNL A   1      31.403  27.323  26.171  1.00  0.00     0.047 A 
ATOM     10  C   UNL A   1      33.642  26.479  25.826  1.00  0.00     0.018 A 
ATOM     11  C   UNL A   1      30.925  26.356  25.296  1.00  0.00     0.124 A 
ATOM     12  C   UNL A   1      33.156  25.479  24.965  1.00  0.00     0.010 A 
ATOM     13  F   UNL A   1      29.612  26.284  25.046  1.00  0.00    -0.207 F 
ATOM     14  C   UNL A   1      31.785  25.462  24.674  1.00  0.00     0.048 A 
BRANCH  12  15
ATOM     15  C   UNL A   1      34.090  24.459  24.352  1.00  0.00     0.299 C 
BRANCH  15  16
ATOM     16  N   UNL A   1      34.907  23.642  25.258  1.00  0.00    -0.327 N 
ATOM     17  C   UNL A   1      36.353  23.708  25.057  1.00  0.00     0.263 C 
ATOM     18  C   UNL A   1      34.548  22.219  25.343  1.00  0.00     0.210 C 
ATOM     19  H   UNL A   1      34.669  24.104  26.136  1.00  0.00     0.348 HD
ATOM     20  C   UNL A   1      36.728  22.464  24.271  1.00  0.00     0.068 C 
ATOM     21  C   UNL A   1      35.660  21.441  24.626  1.00  0.00     0.073 C 
BRANCH  18  22
ATOM     22  C   UNL A   1      34.441  21.797  26.825  1.00  0.00     0.220 C 
BRANCH  22  23
ATOM     23  O   UNL A   1      33.587  20.667  26.984  1.00  0.00    -0.390 OA
ATOM     24  H   UNL A   1      34.115  19.897  27.251  1.00  0.00     0.210 HD
ENDBRANCH  22  23
ENDBRANCH  18  22
ENDBRANCH  15  16
ENDBRANCH  12  15
ENDBRANCH   7   8
ENDBRANCH   4   6
ENDBRANCH   1   2
BRANCH   1  25
ATOM     25  C   UNL A   1      34.510  33.621  28.440  1.00  0.00     0.023 C 
BRANCH  25  26
ATOM     26  C   UNL A   1      33.243  34.458  28.645  1.00  0.00     0.023 C 
BRANCH  26  27
ATOM     27  C   UNL A   1      33.452  35.823  29.294  1.00  0.00     0.116 C 
BRANCH  27  28
ATOM     28  N   UNL A   1      32.528  36.084  30.386  1.00  0.00    -0.352 N 
ATOM     29  C   UNL A   1      32.603  35.714  31.708  1.00  0.00     0.251 C 
ATOM     30  H   UNL A   1      31.728  36.605  30.142  1.00  0.00     0.163 HD
ATOM     31  O   UNL A   1      31.651  35.915  32.455  1.00  0.00    -0.269 OA
BRANCH  29  32
ATOM     32  C   UNL A   1      33.814  35.042  32.233  1.00  0.00     0.039 A 
ATOM     33  C   UNL A   1      33.686  33.761  32.780  1.00  0.00     0.014 A 
ATOM     34  C   UNL A   1      35.065  35.662  32.201  1.00  0.00     0.014 A 
ATOM     35  C   UNL A   1      34.820  33.076  33.225  1.00  0.00     0.010 A 
ATOM     36  C   UNL A   1      36.205  34.951  32.576  1.00  0.00     0.010 A 
ATOM     37  C   UNL A   1      36.095  33.648  33.088  1.00  0.00    -0.014 A 
BRANCH  37  38
ATOM     38  C   UNL A   1      37.323  32.892  33.454  1.00  0.00     0.031 A 
ATOM     39  C   UNL A   1      38.037  33.177  34.747  1.00  0.00     0.074 A 
ATOM     40  C   UNL A   1      37.828  31.985  32.595  1.00  0.00     0.049 A 
ATOM     41  N   UNL A   1      39.157  32.671  35.202  1.00  0.00    -0.248 NA
ATOM     42  C   UNL A   1      37.427  34.177  35.637  1.00  0.00     0.031 C 
ATOM     43  C   UNL A   1      37.249  31.640  31.296  1.00  0.00     0.029 A 
ATOM     44  N   UNL A   1      38.946  31.190  32.680  1.00  0.00    -0.354 N 
ATOM     45  C   UNL A   1      39.386  33.295  36.420  1.00  0.00     0.074 A 
ATOM     46  C   UNL A   1      38.321  34.254  36.612  1.00  0.00     0.031 C 
ATOM     47  C   UNL A   1      37.996  30.684  30.722  1.00  0.00     0.029 A 
ATOM     48  C   UNL A   1      39.133  30.380  31.586  1.00  0.00     0.049 A 
ATOM     49  H   UNL A   1      39.556  31.200  33.453  1.00  0.00     0.167 HD
ATOM     50  C   UNL A   1      40.382  33.068  37.309  1.00  0.00     0.037 A 
ATOM     51  C   UNL A   1      40.110  29.497  31.305  1.00  0.00     0.037 A 
ATOM     52  C   UNL A   1      41.426  32.093  37.129  1.00  0.00     0.049 A 
ATOM     53  C   UNL A   1      41.221  29.284  32.298  1.00  0.00     0.074 A 
ATOM     54  C   UNL A   1      42.446  31.756  38.001  1.00  0.00     0.029 A 
ATOM     55  N   UNL A   1      41.584  31.298  36.004  1.00  0.00    -0.354 N 
ATOM     56  N   UNL A   1      41.399  29.845  33.469  1.00  0.00    -0.248 NA
ATOM     57  C   UNL A   1      42.267  28.317  31.933  1.00  0.00     0.031 C 
ATOM     58  C   UNL A   1      43.254  30.800  37.382  1.00  0.00     0.029 A 
ATOM     59  C   UNL A   1      42.701  30.492  36.149  1.00  0.00     0.049 A 
ATOM     60  H   UNL A   1      40.990  31.306  35.218  1.00  0.00     0.167 HD
ATOM     61  C   UNL A   1      42.555  29.282  33.992  1.00  0.00     0.074 A 
ATOM     62  C   UNL A   1      43.033  28.325  33.015  1.00  0.00     0.031 C 
ATOM     63  C   UNL A   1      43.164  29.536  35.176  1.00  0.00     0.037 A 
BRANCH  50  64
ATOM     64  C   UNL A   1      40.396  33.876  38.575  1.00  0.00     0.064 A 
ATOM     65  C   UNL A   1      41.189  35.030  38.675  1.00  0.00     0.173 A 
ATOM     66  C   UNL A   1      39.697  33.458  39.718  1.00  0.00     0.173 A 
ATOM     67  F   UNL A   1      41.881  35.468  37.614  1.00  0.00    -0.203 F 
ATOM     68  C   UNL A   1      41.295  35.724  39.877  1.00  0.00     0.198 A 
ATOM     69  C   UNL A   1      39.783  34.172  40.910  1.00  0.00     0.198 A 
ATOM     70  F   UNL A   1      38.919  32.367  39.672  1.00  0.00    -0.203 F 
ATOM     71  F   UNL A   1      42.091  36.800  39.960  1.00  0.00    -0.200 F 
ATOM     72  C   UNL A   1      40.591  35.297  40.993  1.00  0.00     0.200 A 
ATOM     73  F   UNL A   1      39.083  33.772  41.980  1.00  0.00    -0.200 F 
ATOM     74  F   UNL A   1      40.691  35.969  42.148  1.00  0.00    -0.200 F 
ENDBRANCH  50  64
BRANCH  51  75
ATOM     75  C   UNL A   1      40.063  28.724  30.036  1.00  0.00     0.064 A 
ATOM     76  C   UNL A   1      39.457  27.461  29.968  1.00  0.00     0.173 A 
ATOM     77  C   UNL A   1      40.650  29.228  28.867  1.00  0.00     0.173 A 
ATOM     78  F   UNL A   1      38.884  26.931  31.059  1.00  0.00    -0.203 F 
ATOM     79  C   UNL A   1      39.458  26.723  28.786  1.00  0.00     0.198 A 
ATOM     80  C   UNL A   1      40.624  28.502  27.677  1.00  0.00     0.198 A 
ATOM     81  F   UNL A   1      41.224  30.440  28.874  1.00  0.00    -0.203 F 
ATOM     82  F   UNL A   1      38.904  25.503  28.760  1.00  0.00    -0.200 F 
ATOM     83  C   UNL A   1      40.037  27.247  27.640  1.00  0.00     0.200 A 
ATOM     84  F   UNL A   1      41.162  29.023  26.565  1.00  0.00    -0.200 F 
ATOM     85  F   UNL A   1      40.027  26.542  26.501  1.00  0.00    -0.200 F 
ENDBRANCH  51  75
BRANCH  63  86
ATOM     86  C   UNL A   1      44.403  28.757  35.510  1.00  0.00     0.064 A 
ATOM     87  C   UNL A   1      45.662  29.210  35.084  1.00  0.00     0.173 A 
ATOM     88  C   UNL A   1      44.339  27.520  36.166  1.00  0.00     0.173 A 
ATOM     89  F   UNL A   1      45.778  30.383  34.444  1.00  0.00    -0.203 F 
ATOM     90  C   UNL A   1      46.806  28.443  35.285  1.00  0.00     0.198 A 
ATOM     91  C   UNL A   1      45.489  26.769  36.393  1.00  0.00     0.198 A 
ATOM     92  F   UNL A   1      43.161  27.048  36.603  1.00  0.00    -0.203 F 
ATOM     93  F   UNL A   1      47.990  28.876  34.831  1.00  0.00    -0.200 F 
ATOM     94  C   UNL A   1      46.719  27.225  35.942  1.00  0.00     0.200 A 
ATOM     95  F   UNL A   1      45.408  25.604  37.049  1.00  0.00    -0.200 F 
ATOM     96  F   UNL A   1      47.822  26.490  36.140  1.00  0.00    -0.200 F 
ENDBRANCH  63  86
ENDBRANCH  37  38
ENDBRANCH  29  32
ENDBRANCH  27  28
ENDBRANCH  26  27
ENDBRANCH  25  26
ENDBRANCH   1  25
TORSDOF 16
ENDMDL
