MODEL 1
REMARK VINA RESULT:     -11.8      0.000      0.000
REMARK SMILES CC(C)[C@H]([NH2+]Cc1ccc(O)cn1)C(=O)NCCCCNC(=O)c1ccc(-c2c3nc(c(-c4c(F)c(F)c(F)c(F)c4F)c4ccc([nH]4)c(-c4c(F)c(F)c(F)c(F)c4F)c4nc(c(-c5c(F)c(F)c(F)c(F)c5F)c5ccc2[nH]5)C=C4)C=C3)cc1
REMARK SMILES IDX 17 1 16 2 14 3 15 4 4 6 2 7 1 8 3 9 5 10 6 13 7 14 8 15
REMARK SMILES IDX 13 16 9 17 12 18 10 19 11 20 18 22 19 23 20 24 21 25 22 26
REMARK SMILES IDX 23 28 24 29 25 30 86 31 26 32 85 33 27 34 28 35 29 36 79 37
REMARK SMILES IDX 30 38 84 39 78 40 80 41 31 42 83 43 77 44 76 45 32 47 64 48
REMARK SMILES IDX 44 49 63 50 45 51 48 52 62 53 81 54 46 55 47 56 61 58 82 59
REMARK SMILES IDX 49 60 33 61 34 62 42 63 35 64 36 65 40 66 43 67 37 68 38 69
REMARK SMILES IDX 41 70 39 71 65 72 66 73 74 74 67 75 68 76 72 77 75 78 69 79
REMARK SMILES IDX 70 80 73 81 71 82 50 83 51 84 59 85 52 86 53 87 57 88 60 89
REMARK SMILES IDX 54 90 55 91 58 92 56 93
REMARK H PARENT 16 5 5 11 5 12 11 21 21 27 80 46 48 57
REMARK Flexibility Score: inf
ROOT
ATOM      1  C   UNL A   1      36.706  22.759  25.589  1.00  0.00     0.116 C 
ENDROOT
BRANCH   1   2
ATOM      2  N   UNL A   1      35.824  22.153  26.568  1.00  0.00    -0.351 N 
ATOM      3  C   UNL A   1      34.497  21.846  26.494  1.00  0.00     0.278 C 
ATOM      4  O   UNL A   1      34.016  21.225  27.449  1.00  0.00    -0.268 OA
ATOM      5  H   UNL A   1      36.253  21.926  27.425  1.00  0.00     0.163 HD
BRANCH   3   6
ATOM      6  C   UNL A   1      33.608  22.212  25.277  1.00  0.00     0.275 C 
BRANCH   6   7
ATOM      7  C   UNL A   1      32.234  22.788  25.730  1.00  0.00     0.051 C 
ATOM      8  C   UNL A   1      32.399  23.834  26.840  1.00  0.00     0.014 C 
ATOM      9  C   UNL A   1      31.367  23.381  24.620  1.00  0.00     0.014 C 
ENDBRANCH   6   7
BRANCH   6  10
ATOM     10  N   UNL A   1      33.525  21.122  24.275  1.00  0.00    -0.331 N 
ATOM     11  H   UNL A   1      34.428  20.650  24.223  1.00  0.00     0.347 HD
ATOM     12  H   UNL A   1      33.280  21.535  23.374  1.00  0.00     0.347 HD
BRANCH  10  13
ATOM     13  C   UNL A   1      32.486  20.135  24.633  1.00  0.00     0.318 C 
BRANCH  13  14
ATOM     14  C   UNL A   1      33.060  18.744  24.843  1.00  0.00     0.095 A 
ATOM     15  C   UNL A   1      34.315  18.415  24.329  1.00  0.00     0.033 A 
ATOM     16  N   UNL A   1      32.296  17.841  25.506  1.00  0.00    -0.251 NA
ATOM     17  C   UNL A   1      34.806  17.121  24.476  1.00  0.00     0.050 A 
ATOM     18  C   UNL A   1      32.800  16.589  25.643  1.00  0.00     0.157 A 
ATOM     19  C   UNL A   1      34.030  16.192  25.146  1.00  0.00     0.133 A 
BRANCH  19  20
ATOM     20  O   UNL A   1      34.449  14.909  25.326  1.00  0.00    -0.506 OA
ATOM     21  H   UNL A   1      33.958  14.200  24.960  1.00  0.00     0.293 HD
ENDBRANCH  19  20
ENDBRANCH  13  14
ENDBRANCH  10  13
ENDBRANCH   6  10
ENDBRANCH   3   6
ENDBRANCH   1   2
BRANCH   1  22
ATOM     22  C   UNL A   1      37.182  21.769  24.531  1.00  0.00     0.023 C 
BRANCH  22  23
ATOM     23  C   UNL A   1      37.823  20.495  25.070  1.00  0.00     0.023 C 
BRANCH  23  24
ATOM     24  C   UNL A   1      39.128  20.691  25.829  1.00  0.00     0.116 C 
BRANCH  24  25
ATOM     25  N   UNL A   1      39.969  19.501  25.856  1.00  0.00    -0.352 N 
ATOM     26  C   UNL A   1      41.323  19.391  26.073  1.00  0.00     0.251 C 
ATOM     27  H   UNL A   1      39.499  18.651  25.695  1.00  0.00     0.163 HD
ATOM     28  O   UNL A   1      41.889  18.312  25.956  1.00  0.00    -0.269 OA
BRANCH  26  29
ATOM     29  C   UNL A   1      42.099  20.604  26.404  1.00  0.00     0.039 A 
ATOM     30  C   UNL A   1      42.563  21.413  25.365  1.00  0.00     0.014 A 
ATOM     31  C   UNL A   1      42.302  20.972  27.735  1.00  0.00     0.014 A 
ATOM     32  C   UNL A   1      43.137  22.651  25.662  1.00  0.00     0.010 A 
ATOM     33  C   UNL A   1      42.790  22.239  28.025  1.00  0.00     0.010 A 
ATOM     34  C   UNL A   1      43.200  23.097  26.993  1.00  0.00    -0.014 A 
BRANCH  34  35
ATOM     35  C   UNL A   1      43.678  24.459  27.342  1.00  0.00     0.031 A 
ATOM     36  C   UNL A   1      42.706  25.473  27.875  1.00  0.00     0.074 A 
ATOM     37  C   UNL A   1      44.950  24.813  27.077  1.00  0.00     0.049 A 
ATOM     38  N   UNL A   1      42.875  26.754  28.081  1.00  0.00    -0.248 NA
ATOM     39  C   UNL A   1      41.350  24.988  28.178  1.00  0.00     0.031 C 
ATOM     40  C   UNL A   1      45.977  23.935  26.512  1.00  0.00     0.029 A 
ATOM     41  N   UNL A   1      45.591  26.019  27.224  1.00  0.00    -0.354 N 
ATOM     42  C   UNL A   1      41.641  27.231  28.503  1.00  0.00     0.074 A 
ATOM     43  C   UNL A   1      40.723  26.114  28.484  1.00  0.00     0.031 C 
ATOM     44  C   UNL A   1      47.121  24.626  26.376  1.00  0.00     0.029 A 
ATOM     45  C   UNL A   1      46.898  26.004  26.801  1.00  0.00     0.049 A 
ATOM     46  H   UNL A   1      45.156  26.819  27.598  1.00  0.00     0.167 HD
ATOM     47  C   UNL A   1      41.312  28.485  28.892  1.00  0.00     0.037 A 
ATOM     48  C   UNL A   1      47.808  26.995  26.746  1.00  0.00     0.037 A 
ATOM     49  C   UNL A   1      42.240  29.581  28.958  1.00  0.00     0.049 A 
ATOM     50  C   UNL A   1      47.421  28.375  27.204  1.00  0.00     0.074 A 
ATOM     51  C   UNL A   1      42.021  30.871  29.411  1.00  0.00     0.029 A 
ATOM     52  N   UNL A   1      43.567  29.514  28.564  1.00  0.00    -0.354 N 
ATOM     53  N   UNL A   1      46.268  28.802  27.656  1.00  0.00    -0.248 NA
ATOM     54  C   UNL A   1      48.463  29.411  27.146  1.00  0.00     0.031 C 
ATOM     55  C   UNL A   1      43.208  31.593  29.262  1.00  0.00     0.029 A 
ATOM     56  C   UNL A   1      44.178  30.743  28.752  1.00  0.00     0.049 A 
ATOM     57  H   UNL A   1      44.011  28.712  28.205  1.00  0.00     0.167 HD
ATOM     58  C   UNL A   1      46.451  30.144  27.961  1.00  0.00     0.074 A 
ATOM     59  C   UNL A   1      47.829  30.460  27.650  1.00  0.00     0.031 C 
ATOM     60  C   UNL A   1      45.556  31.033  28.455  1.00  0.00     0.037 A 
BRANCH  47  61
ATOM     61  C   UNL A   1      39.885  28.735  29.283  1.00  0.00     0.064 A 
ATOM     62  C   UNL A   1      38.942  29.206  28.357  1.00  0.00     0.173 A 
ATOM     63  C   UNL A   1      39.451  28.473  30.590  1.00  0.00     0.173 A 
ATOM     64  F   UNL A   1      39.312  29.485  27.098  1.00  0.00    -0.203 F 
ATOM     65  C   UNL A   1      37.622  29.433  28.735  1.00  0.00     0.198 A 
ATOM     66  C   UNL A   1      38.122  28.673  30.955  1.00  0.00     0.198 A 
ATOM     67  F   UNL A   1      40.311  28.018  31.512  1.00  0.00    -0.203 F 
ATOM     68  F   UNL A   1      36.749  29.930  27.846  1.00  0.00    -0.200 F 
ATOM     69  C   UNL A   1      37.211  29.160  30.030  1.00  0.00     0.200 A 
ATOM     70  F   UNL A   1      37.724  28.400  32.207  1.00  0.00    -0.200 F 
ATOM     71  F   UNL A   1      35.938  29.374  30.389  1.00  0.00    -0.200 F 
ENDBRANCH  47  61
BRANCH  48  72
ATOM     72  C   UNL A   1      49.183  26.714  26.259  1.00  0.00     0.064 A 
ATOM     73  C   UNL A   1      50.158  26.197  27.123  1.00  0.00     0.173 A 
ATOM     74  C   UNL A   1      49.552  26.955  24.927  1.00  0.00     0.173 A 
ATOM     75  F   UNL A   1      49.857  25.970  28.409  1.00  0.00    -0.203 F 
ATOM     76  C   UNL A   1      51.454  25.947  26.678  1.00  0.00     0.198 A 
ATOM     77  C   UNL A   1      50.842  26.681  24.478  1.00  0.00     0.198 A 
ATOM     78  F   UNL A   1      48.654  27.446  24.059  1.00  0.00    -0.203 F 
ATOM     79  F   UNL A   1      52.377  25.489  27.536  1.00  0.00    -0.200 F 
ATOM     80  C   UNL A   1      51.794  26.184  25.355  1.00  0.00     0.200 A 
ATOM     81  F   UNL A   1      51.164  26.900  23.195  1.00  0.00    -0.200 F 
ATOM     82  F   UNL A   1      53.040  25.939  24.927  1.00  0.00    -0.200 F 
ENDBRANCH  48  72
BRANCH  60  83
ATOM     83  C   UNL A   1      46.045  32.423  28.731  1.00  0.00     0.064 A 
ATOM     84  C   UNL A   1      45.966  33.434  27.763  1.00  0.00     0.173 A 
ATOM     85  C   UNL A   1      46.537  32.759  30.001  1.00  0.00     0.173 A 
ATOM     86  F   UNL A   1      45.517  33.155  26.531  1.00  0.00    -0.203 F 
ATOM     87  C   UNL A   1      46.376  34.733  28.055  1.00  0.00     0.198 A 
ATOM     88  C   UNL A   1      46.922  34.063  30.295  1.00  0.00     0.198 A 
ATOM     89  F   UNL A   1      46.625  31.826  30.961  1.00  0.00    -0.203 F 
ATOM     90  F   UNL A   1      46.322  35.678  27.107  1.00  0.00    -0.200 F 
ATOM     91  C   UNL A   1      46.845  35.047  29.322  1.00  0.00     0.200 A 
ATOM     92  F   UNL A   1      47.365  34.370  31.523  1.00  0.00    -0.200 F 
ATOM     93  F   UNL A   1      47.226  36.302  29.603  1.00  0.00    -0.200 F 
ENDBRANCH  60  83
ENDBRANCH  34  35
ENDBRANCH  26  29
ENDBRANCH  24  25
ENDBRANCH  23  24
ENDBRANCH  22  23
ENDBRANCH   1  22
TORSDOF 16
ENDMDL
MODEL 2
REMARK VINA RESULT:     -11.8      6.759     12.025
REMARK SMILES CC(C)[C@H]([NH2+]Cc1ccc(O)cn1)C(=O)NCCCCNC(=O)c1ccc(-c2c3nc(c(-c4c(F)c(F)c(F)c(F)c4F)c4ccc([nH]4)c(-c4c(F)c(F)c(F)c(F)c4F)c4nc(c(-c5c(F)c(F)c(F)c(F)c5F)c5ccc2[nH]5)C=C4)C=C3)cc1
REMARK SMILES IDX 17 1 16 2 14 3 15 4 4 6 2 7 1 8 3 9 5 10 6 13 7 14 8 15
REMARK SMILES IDX 13 16 9 17 12 18 10 19 11 20 18 22 19 23 20 24 21 25 22 26
REMARK SMILES IDX 23 28 24 29 25 30 86 31 26 32 85 33 27 34 28 35 29 36 79 37
REMARK SMILES IDX 30 38 84 39 78 40 80 41 31 42 83 43 77 44 76 45 32 47 64 48
REMARK SMILES IDX 44 49 63 50 45 51 48 52 62 53 81 54 46 55 47 56 61 58 82 59
REMARK SMILES IDX 49 60 33 61 34 62 42 63 35 64 36 65 40 66 43 67 37 68 38 69
REMARK SMILES IDX 41 70 39 71 65 72 66 73 74 74 67 75 68 76 72 77 75 78 69 79
REMARK SMILES IDX 70 80 73 81 71 82 50 83 51 84 59 85 52 86 53 87 57 88 60 89
REMARK SMILES IDX 54 90 55 91 58 92 56 93
REMARK H PARENT 16 5 5 11 5 12 11 21 21 27 80 46 48 57
REMARK Flexibility Score: inf
ROOT
ATOM      1  C   UNL A   1      31.838  29.162  25.923  1.00  0.00     0.116 C 
ENDROOT
BRANCH   1   2
ATOM      2  N   UNL A   1      32.767  29.268  24.815  1.00  0.00    -0.351 N 
ATOM      3  C   UNL A   1      32.780  28.631  23.608  1.00  0.00     0.278 C 
ATOM      4  O   UNL A   1      33.637  28.997  22.796  1.00  0.00    -0.268 OA
ATOM      5  H   UNL A   1      33.507  29.901  24.955  1.00  0.00     0.163 HD
BRANCH   3   6
ATOM      6  C   UNL A   1      31.769  27.520  23.223  1.00  0.00     0.275 C 
BRANCH   6   7
ATOM      7  C   UNL A   1      32.481  26.152  23.013  1.00  0.00     0.051 C 
ATOM      8  C   UNL A   1      32.714  25.860  21.525  1.00  0.00     0.014 C 
ATOM      9  C   UNL A   1      33.800  25.968  23.763  1.00  0.00     0.014 C 
ENDBRANCH   6   7
BRANCH   6  10
ATOM     10  N   UNL A   1      30.859  27.923  22.124  1.00  0.00    -0.331 N 
ATOM     11  H   UNL A   1      30.803  27.165  21.445  1.00  0.00     0.347 HD
ATOM     12  H   UNL A   1      31.234  28.769  21.693  1.00  0.00     0.347 HD
BRANCH  10  13
ATOM     13  C   UNL A   1      29.501  28.220  22.626  1.00  0.00     0.318 C 
BRANCH  13  14
ATOM     14  C   UNL A   1      29.113  29.673  22.414  1.00  0.00     0.095 A 
ATOM     15  C   UNL A   1      29.205  30.588  23.465  1.00  0.00     0.033 A 
ATOM     16  N   UNL A   1      28.645  30.028  21.192  1.00  0.00    -0.251 NA
ATOM     17  C   UNL A   1      28.791  31.903  23.276  1.00  0.00     0.050 A 
ATOM     18  C   UNL A   1      28.255  31.318  21.031  1.00  0.00     0.157 A 
ATOM     19  C   UNL A   1      28.306  32.272  22.034  1.00  0.00     0.133 A 
BRANCH  19  20
ATOM     20  O   UNL A   1      27.885  33.541  21.780  1.00  0.00    -0.506 OA
ATOM     21  H   UNL A   1      28.401  34.108  21.240  1.00  0.00     0.293 HD
ENDBRANCH  19  20
ENDBRANCH  13  14
ENDBRANCH  10  13
ENDBRANCH   6  10
ENDBRANCH   3   6
ENDBRANCH   1   2
BRANCH   1  22
ATOM     22  C   UNL A   1      32.231  30.040  27.108  1.00  0.00     0.023 C 
BRANCH  22  23
ATOM     23  C   UNL A   1      31.966  31.531  26.932  1.00  0.00     0.023 C 
BRANCH  23  24
ATOM     24  C   UNL A   1      33.070  32.454  27.429  1.00  0.00     0.116 C 
BRANCH  24  25
ATOM     25  N   UNL A   1      32.620  33.819  27.671  1.00  0.00    -0.352 N 
ATOM     26  C   UNL A   1      33.102  34.754  28.559  1.00  0.00     0.251 C 
ATOM     27  H   UNL A   1      31.861  34.115  27.119  1.00  0.00     0.163 HD
ATOM     28  O   UNL A   1      32.532  35.827  28.705  1.00  0.00    -0.269 OA
BRANCH  26  29
ATOM     29  C   UNL A   1      34.291  34.429  29.371  1.00  0.00     0.039 A 
ATOM     30  C   UNL A   1      34.112  33.867  30.637  1.00  0.00     0.014 A 
ATOM     31  C   UNL A   1      35.574  34.613  28.852  1.00  0.00     0.014 A 
ATOM     32  C   UNL A   1      35.220  33.388  31.340  1.00  0.00     0.010 A 
ATOM     33  C   UNL A   1      36.662  34.055  29.511  1.00  0.00     0.010 A 
ATOM     34  C   UNL A   1      36.496  33.427  30.755  1.00  0.00    -0.014 A 
BRANCH  34  35
ATOM     35  C   UNL A   1      37.677  32.808  31.407  1.00  0.00     0.031 A 
ATOM     36  C   UNL A   1      38.382  31.664  30.737  1.00  0.00     0.074 A 
ATOM     37  C   UNL A   1      38.043  33.199  32.643  1.00  0.00     0.049 A 
ATOM     38  N   UNL A   1      39.318  30.878  31.205  1.00  0.00    -0.248 NA
ATOM     39  C   UNL A   1      37.947  31.333  29.370  1.00  0.00     0.031 C 
ATOM     40  C   UNL A   1      37.408  34.264  33.421  1.00  0.00     0.029 A 
ATOM     41  N   UNL A   1      39.029  32.725  33.475  1.00  0.00    -0.354 N 
ATOM     42  C   UNL A   1      39.557  29.944  30.206  1.00  0.00     0.074 A 
ATOM     43  C   UNL A   1      38.641  30.232  29.125  1.00  0.00     0.031 C 
ATOM     44  C   UNL A   1      38.027  34.373  34.608  1.00  0.00     0.029 A 
ATOM     45  C   UNL A   1      39.073  33.359  34.693  1.00  0.00     0.049 A 
ATOM     46  H   UNL A   1      39.644  32.000  33.223  1.00  0.00     0.167 HD
ATOM     47  C   UNL A   1      40.473  28.947  30.186  1.00  0.00     0.037 A 
ATOM     48  C   UNL A   1      39.858  33.135  35.764  1.00  0.00     0.037 A 
ATOM     49  C   UNL A   1      41.416  28.696  31.242  1.00  0.00     0.049 A 
ATOM     50  C   UNL A   1      40.883  32.036  35.708  1.00  0.00     0.074 A 
ATOM     51  C   UNL A   1      42.435  27.759  31.284  1.00  0.00     0.029 A 
ATOM     52  N   UNL A   1      41.460  29.390  32.441  1.00  0.00    -0.354 N 
ATOM     53  N   UNL A   1      41.139  31.195  34.736  1.00  0.00    -0.248 NA
ATOM     54  C   UNL A   1      41.729  31.854  36.896  1.00  0.00     0.031 C 
ATOM     55  C   UNL A   1      43.075  27.866  32.522  1.00  0.00     0.029 A 
ATOM     56  C   UNL A   1      42.481  28.895  33.236  1.00  0.00     0.049 A 
ATOM     57  H   UNL A   1      40.856  30.126  32.691  1.00  0.00     0.167 HD
ATOM     58  C   UNL A   1      42.190  30.405  35.182  1.00  0.00     0.074 A 
ATOM     59  C   UNL A   1      42.530  30.871  36.509  1.00  0.00     0.031 C 
ATOM     60  C   UNL A   1      42.817  29.385  34.547  1.00  0.00     0.037 A 
BRANCH  47  61
ATOM     61  C   UNL A   1      40.503  28.059  28.978  1.00  0.00     0.064 A 
ATOM     62  C   UNL A   1      39.747  26.879  28.916  1.00  0.00     0.173 A 
ATOM     63  C   UNL A   1      41.273  28.407  27.859  1.00  0.00     0.173 A 
ATOM     64  F   UNL A   1      39.005  26.496  29.966  1.00  0.00    -0.203 F 
ATOM     65  C   UNL A   1      39.784  26.065  27.788  1.00  0.00     0.198 A 
ATOM     66  C   UNL A   1      41.284  27.605  26.721  1.00  0.00     0.198 A 
ATOM     67  F   UNL A   1      42.011  29.527  27.865  1.00  0.00    -0.203 F 
ATOM     68  F   UNL A   1      39.092  24.917  27.770  1.00  0.00    -0.200 F 
ATOM     69  C   UNL A   1      40.546  26.431  26.689  1.00  0.00     0.200 A 
ATOM     70  F   UNL A   1      42.014  27.965  25.656  1.00  0.00    -0.200 F 
ATOM     71  F   UNL A   1      40.576  25.648  25.602  1.00  0.00    -0.200 F 
ENDBRANCH  47  61
BRANCH  48  72
ATOM     72  C   UNL A   1      39.722  33.985  36.975  1.00  0.00     0.064 A 
ATOM     73  C   UNL A   1      40.400  35.208  37.072  1.00  0.00     0.173 A 
ATOM     74  C   UNL A   1      38.916  33.597  38.056  1.00  0.00     0.173 A 
ATOM     75  F   UNL A   1      41.197  35.610  36.073  1.00  0.00    -0.203 F 
ATOM     76  C   UNL A   1      40.291  36.003  38.211  1.00  0.00     0.198 A 
ATOM     77  C   UNL A   1      38.789  34.405  39.184  1.00  0.00     0.198 A 
ATOM     78  F   UNL A   1      38.244  32.437  38.010  1.00  0.00    -0.203 F 
ATOM     79  F   UNL A   1      40.981  37.148  38.293  1.00  0.00    -0.200 F 
ATOM     80  C   UNL A   1      39.482  35.604  39.264  1.00  0.00     0.200 A 
ATOM     81  F   UNL A   1      37.997  34.021  40.195  1.00  0.00    -0.200 F 
ATOM     82  F   UNL A   1      39.375  36.370  40.358  1.00  0.00    -0.200 F 
ENDBRANCH  48  72
BRANCH  60  83
ATOM     83  C   UNL A   1      43.960  28.728  35.258  1.00  0.00     0.064 A 
ATOM     84  C   UNL A   1      43.774  27.586  36.049  1.00  0.00     0.173 A 
ATOM     85  C   UNL A   1      45.267  29.212  35.092  1.00  0.00     0.173 A 
ATOM     86  F   UNL A   1      42.542  27.098  36.249  1.00  0.00    -0.203 F 
ATOM     87  C   UNL A   1      44.857  26.958  36.660  1.00  0.00     0.198 A 
ATOM     88  C   UNL A   1      46.349  28.567  35.683  1.00  0.00     0.198 A 
ATOM     89  F   UNL A   1      45.495  30.299  34.339  1.00  0.00    -0.203 F 
ATOM     90  F   UNL A   1      44.655  25.885  37.437  1.00  0.00    -0.200 F 
ATOM     91  C   UNL A   1      46.143  27.443  36.469  1.00  0.00     0.200 A 
ATOM     92  F   UNL A   1      47.592  29.030  35.489  1.00  0.00    -0.200 F 
ATOM     93  F   UNL A   1      47.184  26.828  37.047  1.00  0.00    -0.200 F 
ENDBRANCH  60  83
ENDBRANCH  34  35
ENDBRANCH  26  29
ENDBRANCH  24  25
ENDBRANCH  23  24
ENDBRANCH  22  23
ENDBRANCH   1  22
TORSDOF 16
ENDMDL
MODEL 3
REMARK VINA RESULT:     -11.5      4.167     10.081
REMARK SMILES CC(C)[C@H]([NH2+]Cc1ccc(O)cn1)C(=O)NCCCCNC(=O)c1ccc(-c2c3nc(c(-c4c(F)c(F)c(F)c(F)c4F)c4ccc([nH]4)c(-c4c(F)c(F)c(F)c(F)c4F)c4nc(c(-c5c(F)c(F)c(F)c(F)c5F)c5ccc2[nH]5)C=C4)C=C3)cc1
REMARK SMILES IDX 17 1 16 2 14 3 15 4 4 6 2 7 1 8 3 9 5 10 6 13 7 14 8 15
REMARK SMILES IDX 13 16 9 17 12 18 10 19 11 20 18 22 19 23 20 24 21 25 22 26
REMARK SMILES IDX 23 28 24 29 25 30 86 31 26 32 85 33 27 34 28 35 29 36 79 37
REMARK SMILES IDX 30 38 84 39 78 40 80 41 31 42 83 43 77 44 76 45 32 47 64 48
REMARK SMILES IDX 44 49 63 50 45 51 48 52 62 53 81 54 46 55 47 56 61 58 82 59
REMARK SMILES IDX 49 60 33 61 34 62 42 63 35 64 36 65 40 66 43 67 37 68 38 69
REMARK SMILES IDX 41 70 39 71 65 72 66 73 74 74 67 75 68 76 72 77 75 78 69 79
REMARK SMILES IDX 70 80 73 81 71 82 50 83 51 84 59 85 52 86 53 87 57 88 60 89
REMARK SMILES IDX 54 90 55 91 58 92 56 93
REMARK H PARENT 16 5 5 11 5 12 11 21 21 27 80 46 48 57
REMARK Flexibility Score: inf
ROOT
ATOM      1  C   UNL A   1      42.549  23.260  27.643  1.00  0.00     0.116 C 
ENDROOT
BRANCH   1   2
ATOM      2  N   UNL A   1      43.905  23.433  28.126  1.00  0.00    -0.351 N 
ATOM      3  C   UNL A   1      45.007  23.947  27.507  1.00  0.00     0.278 C 
ATOM      4  O   UNL A   1      46.022  24.079  28.199  1.00  0.00    -0.268 OA
ATOM      5  H   UNL A   1      44.055  23.130  29.051  1.00  0.00     0.163 HD
BRANCH   3   6
ATOM      6  C   UNL A   1      45.017  24.385  26.020  1.00  0.00     0.275 C 
BRANCH   6   7
ATOM      7  C   UNL A   1      45.167  25.929  25.884  1.00  0.00     0.051 C 
ATOM      8  C   UNL A   1      46.367  26.304  25.005  1.00  0.00     0.014 C 
ATOM      9  C   UNL A   1      43.932  26.673  25.375  1.00  0.00     0.014 C 
ENDBRANCH   6   7
BRANCH   6  10
ATOM     10  N   UNL A   1      43.903  23.798  25.237  1.00  0.00    -0.331 N 
ATOM     11  H   UNL A   1      43.341  24.552  24.842  1.00  0.00     0.347 HD
ATOM     12  H   UNL A   1      43.344  23.218  25.862  1.00  0.00     0.347 HD
BRANCH  10  13
ATOM     13  C   UNL A   1      44.405  22.946  24.138  1.00  0.00     0.318 C 
BRANCH  13  14
ATOM     14  C   UNL A   1      44.764  21.548  24.610  1.00  0.00     0.095 A 
ATOM     15  C   UNL A   1      46.096  21.129  24.624  1.00  0.00     0.033 A 
ATOM     16  N   UNL A   1      43.749  20.725  24.974  1.00  0.00    -0.251 NA
ATOM     17  C   UNL A   1      46.408  19.826  25.003  1.00  0.00     0.050 A 
ATOM     18  C   UNL A   1      44.080  19.463  25.347  1.00  0.00     0.157 A 
ATOM     19  C   UNL A   1      45.377  18.979  25.370  1.00  0.00     0.133 A 
BRANCH  19  20
ATOM     20  O   UNL A   1      45.612  17.694  25.751  1.00  0.00    -0.506 OA
ATOM     21  H   UNL A   1      44.964  17.224  26.241  1.00  0.00     0.293 HD
ENDBRANCH  19  20
ENDBRANCH  13  14
ENDBRANCH  10  13
ENDBRANCH   6  10
ENDBRANCH   3   6
ENDBRANCH   1   2
BRANCH   1  22
ATOM     22  C   UNL A   1      41.792  22.165  28.388  1.00  0.00     0.023 C 
BRANCH  22  23
ATOM     23  C   UNL A   1      40.783  21.384  27.553  1.00  0.00     0.023 C 
BRANCH  23  24
ATOM     24  C   UNL A   1      40.603  21.871  26.122  1.00  0.00     0.116 C 
BRANCH  24  25
ATOM     25  N   UNL A   1      39.230  22.236  25.800  1.00  0.00    -0.352 N 
ATOM     26  C   UNL A   1      38.531  23.378  26.117  1.00  0.00     0.251 C 
ATOM     27  H   UNL A   1      38.728  21.567  25.280  1.00  0.00     0.163 HD
ATOM     28  O   UNL A   1      37.340  23.475  25.853  1.00  0.00    -0.269 OA
BRANCH  26  29
ATOM     29  C   UNL A   1      39.225  24.473  26.825  1.00  0.00     0.039 A 
ATOM     30  C   UNL A   1      40.028  25.349  26.091  1.00  0.00     0.014 A 
ATOM     31  C   UNL A   1      39.023  24.672  28.192  1.00  0.00     0.014 A 
ATOM     32  C   UNL A   1      40.542  26.491  26.710  1.00  0.00     0.010 A 
ATOM     33  C   UNL A   1      39.459  25.851  28.781  1.00  0.00     0.010 A 
ATOM     34  C   UNL A   1      40.212  26.779  28.044  1.00  0.00    -0.014 A 
BRANCH  34  35
ATOM     35  C   UNL A   1      40.625  28.046  28.699  1.00  0.00     0.031 A 
ATOM     36  C   UNL A   1      42.026  28.193  29.217  1.00  0.00     0.074 A 
ATOM     37  C   UNL A   1      39.714  29.013  28.923  1.00  0.00     0.049 A 
ATOM     38  N   UNL A   1      42.540  29.138  29.962  1.00  0.00    -0.248 NA
ATOM     39  C   UNL A   1      42.966  27.109  28.887  1.00  0.00     0.031 C 
ATOM     40  C   UNL A   1      38.309  28.970  28.513  1.00  0.00     0.029 A 
ATOM     41  N   UNL A   1      39.831  30.216  29.577  1.00  0.00    -0.354 N 
ATOM     42  C   UNL A   1      43.847  28.746  30.217  1.00  0.00     0.074 A 
ATOM     43  C   UNL A   1      44.037  27.459  29.584  1.00  0.00     0.031 C 
ATOM     44  C   UNL A   1      37.699  30.098  28.911  1.00  0.00     0.029 A 
ATOM     45  C   UNL A   1      38.656  30.925  29.640  1.00  0.00     0.049 A 
ATOM     46  H   UNL A   1      40.676  30.539  29.964  1.00  0.00     0.167 HD
ATOM     47  C   UNL A   1      44.809  29.411  30.900  1.00  0.00     0.037 A 
ATOM     48  C   UNL A   1      38.378  32.100  30.235  1.00  0.00     0.037 A 
ATOM     49  C   UNL A   1      44.631  30.712  31.484  1.00  0.00     0.049 A 
ATOM     50  C   UNL A   1      39.470  32.829  30.970  1.00  0.00     0.074 A 
ATOM     51  C   UNL A   1      45.566  31.503  32.130  1.00  0.00     0.029 A 
ATOM     52  N   UNL A   1      43.438  31.419  31.487  1.00  0.00    -0.354 N 
ATOM     53  N   UNL A   1      40.718  32.476  31.155  1.00  0.00    -0.248 NA
ATOM     54  C   UNL A   1      39.115  34.120  31.577  1.00  0.00     0.031 C 
ATOM     55  C   UNL A   1      44.930  32.674  32.552  1.00  0.00     0.029 A 
ATOM     56  C   UNL A   1      43.609  32.631  32.134  1.00  0.00     0.049 A 
ATOM     57  H   UNL A   1      42.595  31.105  31.087  1.00  0.00     0.167 HD
ATOM     58  C   UNL A   1      41.304  33.509  31.874  1.00  0.00     0.074 A 
ATOM     59  C   UNL A   1      40.277  34.507  32.085  1.00  0.00     0.031 C 
ATOM     60  C   UNL A   1      42.579  33.620  32.317  1.00  0.00     0.037 A 
BRANCH  47  61
ATOM     61  C   UNL A   1      46.143  28.741  31.046  1.00  0.00     0.064 A 
ATOM     62  C   UNL A   1      46.428  27.902  32.133  1.00  0.00     0.173 A 
ATOM     63  C   UNL A   1      47.136  28.917  30.071  1.00  0.00     0.173 A 
ATOM     64  F   UNL A   1      45.515  27.713  33.098  1.00  0.00    -0.203 F 
ATOM     65  C   UNL A   1      47.670  27.286  32.254  1.00  0.00     0.198 A 
ATOM     66  C   UNL A   1      48.367  28.275  30.182  1.00  0.00     0.198 A 
ATOM     67  F   UNL A   1      46.913  29.705  29.010  1.00  0.00    -0.203 F 
ATOM     68  F   UNL A   1      47.938  26.529  33.327  1.00  0.00    -0.200 F 
ATOM     69  C   UNL A   1      48.636  27.467  31.276  1.00  0.00     0.200 A 
ATOM     70  F   UNL A   1      49.297  28.444  29.230  1.00  0.00    -0.200 F 
ATOM     71  F   UNL A   1      49.829  26.870  31.393  1.00  0.00    -0.200 F 
ENDBRANCH  47  61
BRANCH  48  72
ATOM     72  C   UNL A   1      37.011  32.675  30.141  1.00  0.00     0.064 A 
ATOM     73  C   UNL A   1      36.082  32.483  31.173  1.00  0.00     0.173 A 
ATOM     74  C   UNL A   1      36.606  33.424  29.026  1.00  0.00     0.173 A 
ATOM     75  F   UNL A   1      36.417  31.758  32.248  1.00  0.00    -0.203 F 
ATOM     76  C   UNL A   1      34.792  33.004  31.085  1.00  0.00     0.198 A 
ATOM     77  C   UNL A   1      35.324  33.965  28.952  1.00  0.00     0.198 A 
ATOM     78  F   UNL A   1      37.460  33.638  28.015  1.00  0.00    -0.203 F 
ATOM     79  F   UNL A   1      33.911  32.773  32.068  1.00  0.00    -0.200 F 
ATOM     80  C   UNL A   1      34.416  33.749  29.977  1.00  0.00     0.200 A 
ATOM     81  F   UNL A   1      34.968  34.694  27.885  1.00  0.00    -0.200 F 
ATOM     82  F   UNL A   1      33.177  34.253  29.896  1.00  0.00    -0.200 F 
ENDBRANCH  48  72
BRANCH  60  83
ATOM     83  C   UNL A   1      42.951  34.879  33.040  1.00  0.00     0.064 A 
ATOM     84  C   UNL A   1      43.411  36.012  32.353  1.00  0.00     0.173 A 
ATOM     85  C   UNL A   1      42.783  34.972  34.430  1.00  0.00     0.173 A 
ATOM     86  F   UNL A   1      43.602  35.964  31.027  1.00  0.00    -0.203 F 
ATOM     87  C   UNL A   1      43.701  37.190  33.036  1.00  0.00     0.198 A 
ATOM     88  C   UNL A   1      43.050  36.159  35.105  1.00  0.00     0.198 A 
ATOM     89  F   UNL A   1      42.339  33.916  35.129  1.00  0.00    -0.203 F 
ATOM     90  F   UNL A   1      44.169  38.252  32.366  1.00  0.00    -0.200 F 
ATOM     91  C   UNL A   1      43.512  37.265  34.408  1.00  0.00     0.200 A 
ATOM     92  F   UNL A   1      42.857  36.234  36.429  1.00  0.00    -0.200 F 
ATOM     93  F   UNL A   1      43.780  38.406  35.061  1.00  0.00    -0.200 F 
ENDBRANCH  60  83
ENDBRANCH  34  35
ENDBRANCH  26  29
ENDBRANCH  24  25
ENDBRANCH  23  24
ENDBRANCH  22  23
ENDBRANCH   1  22
TORSDOF 16
ENDMDL
