MODEL 1
REMARK VINA RESULT:     -12.8      0.000      0.000
REMARK SMILES C[C@@H]1[C@@H](C(=O)NCCCCNC(=O)c2ccc(-c3c4nc(c(-c5c(F)c(F)c(F)c(F)c5F)c5ccc([nH]5)c(-c5c(F)c(F)c(F)c(F)c5F)c5nc(c(-c6c(F)c(F)c(F)c(F)c6F)c6ccc3[nH]6)C=C5)C=C4)cc2)CCN1c1ccc(C(F)(F)F)cc1C#N
REMARK SMILES IDX 8 1 7 2 6 3 4 4 5 5 3 7 1 8 2 9 79 10 77 11 78 12 80 13
REMARK SMILES IDX 81 14 89 15 82 16 88 17 83 18 90 19 91 20 84 21 85 22 86 23
REMARK SMILES IDX 87 24 9 25 10 26 11 27 12 28 13 30 14 31 15 32 76 33 16 34
REMARK SMILES IDX 75 35 17 36 18 37 19 38 69 39 20 40 74 41 68 42 70 43 21 44
REMARK SMILES IDX 73 45 67 46 66 47 22 49 54 50 34 51 53 52 35 53 38 54 52 55
REMARK SMILES IDX 71 56 36 57 37 58 51 60 72 61 39 62 23 63 24 64 32 65 25 66
REMARK SMILES IDX 26 67 30 68 33 69 27 70 28 71 31 72 29 73 55 74 56 75 64 76
REMARK SMILES IDX 57 77 58 78 62 79 65 80 59 81 60 82 63 83 61 84 40 85 41 86
REMARK SMILES IDX 49 87 42 88 43 89 47 90 50 91 44 92 45 93 48 94 46 95
REMARK H PARENT 6 6 11 29 70 48 38 59
REMARK Flexibility Score: inf
ROOT
ATOM      1  C   UNL A   1      31.643  30.729  26.111  1.00  0.00     0.023 C 
ENDROOT
BRANCH   1   2
ATOM      2  C   UNL A   1      32.525  29.864  27.001  1.00  0.00     0.116 C 
BRANCH   2   3
ATOM      3  N   UNL A   1      31.912  28.613  27.400  1.00  0.00    -0.356 N 
ATOM      4  C   UNL A   1      31.794  27.452  26.690  1.00  0.00     0.225 C 
ATOM      5  O   UNL A   1      31.310  26.483  27.274  1.00  0.00    -0.275 OA
ATOM      6  H   UNL A   1      31.528  28.599  28.307  1.00  0.00     0.163 HD
BRANCH   4   7
ATOM      7  C   UNL A   1      32.178  27.434  25.214  1.00  0.00     0.102 C 
ATOM      8  C   UNL A   1      31.135  26.575  23.090  1.00  0.00     0.032 C 
ATOM      9  C   UNL A   1      31.616  26.178  24.487  1.00  0.00     0.091 C 
ATOM     10  N   UNL A   1      32.780  25.266  24.401  1.00  0.00    -0.367 N 
ATOM     11  C   UNL A   1      33.682  27.337  24.947  1.00  0.00     0.037 C 
ATOM     12  C   UNL A   1      33.954  25.850  25.036  1.00  0.00     0.118 C 
BRANCH  10  13
ATOM     13  C   UNL A   1      32.662  23.886  24.405  1.00  0.00     0.055 A 
ATOM     14  C   UNL A   1      32.493  23.189  25.616  1.00  0.00     0.028 A 
ATOM     15  C   UNL A   1      32.817  23.117  23.235  1.00  0.00     0.076 A 
ATOM     16  C   UNL A   1      32.537  21.792  25.678  1.00  0.00     0.015 A 
ATOM     17  C   UNL A   1      32.837  21.711  23.295  1.00  0.00     0.034 A 
ATOM     18  C   UNL A   1      32.721  21.036  24.517  1.00  0.00     0.057 A 
BRANCH  15  19
ATOM     19  C   UNL A   1      33.050  23.723  21.954  1.00  0.00     0.101 C 
ATOM     20  N   UNL A   1      33.260  24.264  20.947  1.00  0.00    -0.192 NA
ENDBRANCH  15  19
BRANCH  18  21
ATOM     21  C   UNL A   1      32.837  19.533  24.594  1.00  0.00     0.416 C 
ATOM     22  F   UNL A   1      32.023  18.910  23.699  1.00  0.00    -0.166 F 
ATOM     23  F   UNL A   1      34.095  19.089  24.329  1.00  0.00    -0.166 F 
ATOM     24  F   UNL A   1      32.508  19.026  25.814  1.00  0.00    -0.166 F 
ENDBRANCH  18  21
ENDBRANCH  10  13
ENDBRANCH   4   7
ENDBRANCH   2   3
ENDBRANCH   1   2
BRANCH   1  25
ATOM     25  C   UNL A   1      31.402  32.153  26.605  1.00  0.00     0.023 C 
BRANCH  25  26
ATOM     26  C   UNL A   1      32.585  32.813  27.301  1.00  0.00     0.116 C 
BRANCH  26  27
ATOM     27  N   UNL A   1      32.354  34.215  27.617  1.00  0.00    -0.352 N 
ATOM     28  C   UNL A   1      32.961  35.016  28.555  1.00  0.00     0.251 C 
ATOM     29  H   UNL A   1      31.655  34.655  27.080  1.00  0.00     0.163 HD
ATOM     30  O   UNL A   1      32.524  36.139  28.780  1.00  0.00    -0.269 OA
BRANCH  28  31
ATOM     31  C   UNL A   1      34.125  34.511  29.313  1.00  0.00     0.039 A 
ATOM     32  C   UNL A   1      33.916  33.912  30.558  1.00  0.00     0.014 A 
ATOM     33  C   UNL A   1      35.417  34.613  28.793  1.00  0.00     0.014 A 
ATOM     34  C   UNL A   1      34.994  33.348  31.243  1.00  0.00     0.010 A 
ATOM     35  C   UNL A   1      36.469  33.962  29.427  1.00  0.00     0.010 A 
ATOM     36  C   UNL A   1      36.272  33.330  30.663  1.00  0.00    -0.014 A 
BRANCH  36  37
ATOM     37  C   UNL A   1      37.422  32.676  31.341  1.00  0.00     0.031 A 
ATOM     38  C   UNL A   1      38.137  31.531  30.673  1.00  0.00     0.074 A 
ATOM     39  C   UNL A   1      37.784  33.065  32.579  1.00  0.00     0.049 A 
ATOM     40  N   UNL A   1      39.111  30.783  31.126  1.00  0.00    -0.248 NA
ATOM     41  C   UNL A   1      37.671  31.159  29.328  1.00  0.00     0.031 C 
ATOM     42  C   UNL A   1      37.143  34.129  33.353  1.00  0.00     0.029 A 
ATOM     43  N   UNL A   1      38.775  32.601  33.410  1.00  0.00    -0.354 N 
ATOM     44  C   UNL A   1      39.362  29.849  30.130  1.00  0.00     0.074 A 
ATOM     45  C   UNL A   1      38.394  30.077  29.081  1.00  0.00     0.031 C 
ATOM     46  C   UNL A   1      37.776  34.258  34.530  1.00  0.00     0.029 A 
ATOM     47  C   UNL A   1      38.834  33.256  34.616  1.00  0.00     0.049 A 
ATOM     48  H   UNL A   1      39.384  31.869  33.164  1.00  0.00     0.167 HD
ATOM     49  C   UNL A   1      40.331  28.903  30.081  1.00  0.00     0.037 A 
ATOM     50  C   UNL A   1      39.646  33.066  35.673  1.00  0.00     0.037 A 
ATOM     51  C   UNL A   1      41.302  28.689  31.121  1.00  0.00     0.049 A 
ATOM     52  C   UNL A   1      40.700  31.991  35.605  1.00  0.00     0.074 A 
ATOM     53  C   UNL A   1      42.354  27.790  31.148  1.00  0.00     0.029 A 
ATOM     54  N   UNL A   1      41.336  29.379  32.324  1.00  0.00    -0.354 N 
ATOM     55  N   UNL A   1      40.971  31.157  34.631  1.00  0.00    -0.248 NA
ATOM     56  C   UNL A   1      41.565  31.838  36.782  1.00  0.00     0.031 C 
ATOM     57  C   UNL A   1      42.986  27.894  32.391  1.00  0.00     0.029 A 
ATOM     58  C   UNL A   1      42.376  28.909  33.110  1.00  0.00     0.049 A 
ATOM     59  H   UNL A   1      40.714  30.098  32.581  1.00  0.00     0.167 HD
ATOM     60  C   UNL A   1      42.061  30.410  35.059  1.00  0.00     0.074 A 
ATOM     61  C   UNL A   1      42.406  30.898  36.378  1.00  0.00     0.031 C 
ATOM     62  C   UNL A   1      42.717  29.413  34.417  1.00  0.00     0.037 A 
BRANCH  49  63
ATOM     63  C   UNL A   1      40.382  28.025  28.861  1.00  0.00     0.064 A 
ATOM     64  C   UNL A   1      39.687  26.806  28.797  1.00  0.00     0.173 A 
ATOM     65  C   UNL A   1      41.118  28.416  27.732  1.00  0.00     0.173 A 
ATOM     66  F   UNL A   1      38.977  26.378  29.852  1.00  0.00    -0.203 F 
ATOM     67  C   UNL A   1      39.760  25.996  27.667  1.00  0.00     0.198 A 
ATOM     68  C   UNL A   1      41.157  27.621  26.589  1.00  0.00     0.198 A 
ATOM     69  F   UNL A   1      41.797  29.573  27.733  1.00  0.00    -0.203 F 
ATOM     70  F   UNL A   1      39.141  24.807  27.657  1.00  0.00    -0.200 F 
ATOM     71  C   UNL A   1      40.487  26.407  26.562  1.00  0.00     0.200 A 
ATOM     72  F   UNL A   1      41.848  28.029  25.515  1.00  0.00    -0.200 F 
ATOM     73  F   UNL A   1      40.552  25.629  25.473  1.00  0.00    -0.200 F 
ENDBRANCH  49  63
BRANCH  50  74
ATOM     74  C   UNL A   1      39.515  33.928  36.879  1.00  0.00     0.064 A 
ATOM     75  C   UNL A   1      38.756  33.513  37.983  1.00  0.00     0.173 A 
ATOM     76  C   UNL A   1      40.135  35.184  36.950  1.00  0.00     0.173 A 
ATOM     77  F   UNL A   1      38.128  32.328  37.956  1.00  0.00    -0.203 F 
ATOM     78  C   UNL A   1      38.599  34.333  39.099  1.00  0.00     0.198 A 
ATOM     79  C   UNL A   1      40.005  35.988  38.081  1.00  0.00     0.198 A 
ATOM     80  F   UNL A   1      40.878  35.627  35.925  1.00  0.00    -0.203 F 
ATOM     81  F   UNL A   1      37.824  33.932  40.116  1.00  0.00    -0.200 F 
ATOM     82  C   UNL A   1      39.229  35.567  39.150  1.00  0.00     0.200 A 
ATOM     83  F   UNL A   1      40.629  37.172  38.134  1.00  0.00    -0.200 F 
ATOM     84  F   UNL A   1      39.081  36.352  40.226  1.00  0.00    -0.200 F 
ENDBRANCH  50  74
BRANCH  62  85
ATOM     85  C   UNL A   1      43.916  28.819  35.102  1.00  0.00     0.064 A 
ATOM     86  C   UNL A   1      45.203  29.359  34.956  1.00  0.00     0.173 A 
ATOM     87  C   UNL A   1      43.765  27.709  35.951  1.00  0.00     0.173 A 
ATOM     88  F   UNL A   1      45.406  30.410  34.148  1.00  0.00    -0.203 F 
ATOM     89  C   UNL A   1      46.296  28.792  35.606  1.00  0.00     0.198 A 
ATOM     90  C   UNL A   1      44.854  27.169  36.628  1.00  0.00     0.198 A 
ATOM     91  F   UNL A   1      42.556  27.157  36.134  1.00  0.00    -0.203 F 
ATOM     92  F   UNL A   1      47.525  29.290  35.406  1.00  0.00    -0.200 F 
ATOM     93  C   UNL A   1      46.120  27.703  36.448  1.00  0.00     0.200 A 
ATOM     94  F   UNL A   1      44.677  26.129  37.456  1.00  0.00    -0.200 F 
ATOM     95  F   UNL A   1      47.172  27.166  37.080  1.00  0.00    -0.200 F 
ENDBRANCH  62  85
ENDBRANCH  36  37
ENDBRANCH  28  31
ENDBRANCH  26  27
ENDBRANCH  25  26
ENDBRANCH   1  25
TORSDOF 14
ENDMDL
MODEL 2
REMARK VINA RESULT:     -12.8      0.576      7.179
REMARK SMILES C[C@@H]1[C@@H](C(=O)NCCCCNC(=O)c2ccc(-c3c4nc(c(-c5c(F)c(F)c(F)c(F)c5F)c5ccc([nH]5)c(-c5c(F)c(F)c(F)c(F)c5F)c5nc(c(-c6c(F)c(F)c(F)c(F)c6F)c6ccc3[nH]6)C=C5)C=C4)cc2)CCN1c1ccc(C(F)(F)F)cc1C#N
REMARK SMILES IDX 8 1 7 2 6 3 4 4 5 5 3 7 1 8 2 9 79 10 77 11 78 12 80 13
REMARK SMILES IDX 81 14 89 15 82 16 88 17 83 18 90 19 91 20 84 21 85 22 86 23
REMARK SMILES IDX 87 24 9 25 10 26 11 27 12 28 13 30 14 31 15 32 76 33 16 34
REMARK SMILES IDX 75 35 17 36 18 37 19 38 69 39 20 40 74 41 68 42 70 43 21 44
REMARK SMILES IDX 73 45 67 46 66 47 22 49 54 50 34 51 53 52 35 53 38 54 52 55
REMARK SMILES IDX 71 56 36 57 37 58 51 60 72 61 39 62 23 63 24 64 32 65 25 66
REMARK SMILES IDX 26 67 30 68 33 69 27 70 28 71 31 72 29 73 55 74 56 75 64 76
REMARK SMILES IDX 57 77 58 78 62 79 65 80 59 81 60 82 63 83 61 84 40 85 41 86
REMARK SMILES IDX 49 87 42 88 43 89 47 90 50 91 44 92 45 93 48 94 46 95
REMARK H PARENT 6 6 11 29 70 48 38 59
REMARK Flexibility Score: inf
ROOT
ATOM      1  C   UNL A   1      31.404  31.057  26.226  1.00  0.00     0.023 C 
ENDROOT
BRANCH   1   2
ATOM      2  C   UNL A   1      32.362  30.234  27.076  1.00  0.00     0.116 C 
BRANCH   2   3
ATOM      3  N   UNL A   1      31.855  28.924  27.433  1.00  0.00    -0.356 N 
ATOM      4  C   UNL A   1      31.787  27.794  26.670  1.00  0.00     0.225 C 
ATOM      5  O   UNL A   1      31.396  26.765  27.222  1.00  0.00    -0.275 OA
ATOM      6  H   UNL A   1      31.512  28.838  28.353  1.00  0.00     0.163 HD
BRANCH   4   7
ATOM      7  C   UNL A   1      32.107  27.875  25.180  1.00  0.00     0.102 C 
ATOM      8  C   UNL A   1      30.967  27.168  23.050  1.00  0.00     0.032 C 
ATOM      9  C   UNL A   1      31.505  26.674  24.395  1.00  0.00     0.091 C 
ATOM     10  N   UNL A   1      32.658  25.764  24.198  1.00  0.00    -0.367 N 
ATOM     11  C   UNL A   1      33.598  27.789  24.843  1.00  0.00     0.037 C 
ATOM     12  C   UNL A   1      33.862  26.298  24.819  1.00  0.00     0.118 C 
BRANCH  10  13
ATOM     13  C   UNL A   1      32.530  24.388  24.112  1.00  0.00     0.055 A 
ATOM     14  C   UNL A   1      32.315  23.619  25.272  1.00  0.00     0.028 A 
ATOM     15  C   UNL A   1      32.718  23.691  22.903  1.00  0.00     0.076 A 
ATOM     16  C   UNL A   1      32.348  22.221  25.250  1.00  0.00     0.015 A 
ATOM     17  C   UNL A   1      32.725  22.283  22.877  1.00  0.00     0.034 A 
ATOM     18  C   UNL A   1      32.564  21.536  24.051  1.00  0.00     0.057 A 
BRANCH  15  19
ATOM     19  C   UNL A   1      32.997  24.372  21.670  1.00  0.00     0.101 C 
ATOM     20  N   UNL A   1      33.164  24.940  20.669  1.00  0.00    -0.192 NA
ENDBRANCH  15  19
BRANCH  18  21
ATOM     21  C   UNL A   1      32.666  20.030  24.039  1.00  0.00     0.416 C 
ATOM     22  F   UNL A   1      31.973  19.461  25.063  1.00  0.00    -0.166 F 
ATOM     23  F   UNL A   1      32.171  19.479  22.898  1.00  0.00    -0.166 F 
ATOM     24  F   UNL A   1      33.944  19.573  24.153  1.00  0.00    -0.166 F 
ENDBRANCH  18  21
ENDBRANCH  10  13
ENDBRANCH   4   7
ENDBRANCH   2   3
ENDBRANCH   1   2
BRANCH   1  25
ATOM     25  C   UNL A   1      31.368  32.551  26.533  1.00  0.00     0.023 C 
BRANCH  25  26
ATOM     26  C   UNL A   1      32.561  33.088  27.313  1.00  0.00     0.116 C 
BRANCH  26  27
ATOM     27  N   UNL A   1      32.370  34.453  27.783  1.00  0.00    -0.352 N 
ATOM     28  C   UNL A   1      33.014  35.134  28.789  1.00  0.00     0.251 C 
ATOM     29  H   UNL A   1      31.674  34.964  27.310  1.00  0.00     0.163 HD
ATOM     30  O   UNL A   1      32.609  36.235  29.143  1.00  0.00    -0.269 OA
BRANCH  28  31
ATOM     31  C   UNL A   1      34.178  34.523  29.465  1.00  0.00     0.039 A 
ATOM     32  C   UNL A   1      33.975  33.792  30.639  1.00  0.00     0.014 A 
ATOM     33  C   UNL A   1      35.464  34.656  28.936  1.00  0.00     0.014 A 
ATOM     34  C   UNL A   1      35.050  33.132  31.236  1.00  0.00     0.010 A 
ATOM     35  C   UNL A   1      36.511  33.915  29.474  1.00  0.00     0.010 A 
ATOM     36  C   UNL A   1      36.319  33.153  30.636  1.00  0.00    -0.014 A 
BRANCH  36  37
ATOM     37  C   UNL A   1      37.464  32.403  31.215  1.00  0.00     0.031 A 
ATOM     38  C   UNL A   1      37.995  32.772  32.574  1.00  0.00     0.074 A 
ATOM     39  C   UNL A   1      38.068  31.436  30.496  1.00  0.00     0.049 A 
ATOM     40  N   UNL A   1      39.026  32.291  33.221  1.00  0.00    -0.248 NA
ATOM     41  C   UNL A   1      37.288  33.848  33.288  1.00  0.00     0.031 C 
ATOM     42  C   UNL A   1      37.680  31.016  29.149  1.00  0.00     0.029 A 
ATOM     43  N   UNL A   1      39.145  30.638  30.796  1.00  0.00    -0.354 N 
ATOM     44  C   UNL A   1      39.097  33.014  34.405  1.00  0.00     0.074 A 
ATOM     45  C   UNL A   1      38.052  34.011  34.357  1.00  0.00     0.031 C 
ATOM     46  C   UNL A   1      38.485  30.017  28.752  1.00  0.00     0.029 A 
ATOM     47  C   UNL A   1      39.475  29.759  29.793  1.00  0.00     0.049 A 
ATOM     48  H   UNL A   1      39.633  30.691  31.648  1.00  0.00     0.167 HD
ATOM     49  C   UNL A   1      39.940  32.843  35.452  1.00  0.00     0.037 A 
ATOM     50  C   UNL A   1      40.468  28.852  29.719  1.00  0.00     0.037 A 
ATOM     51  C   UNL A   1      40.970  31.839  35.503  1.00  0.00     0.049 A 
ATOM     52  C   UNL A   1      41.409  28.698  30.886  1.00  0.00     0.074 A 
ATOM     53  C   UNL A   1      41.846  31.552  36.536  1.00  0.00     0.029 A 
ATOM     54  N   UNL A   1      41.268  30.961  34.471  1.00  0.00    -0.354 N 
ATOM     55  N   UNL A   1      41.425  29.342  32.028  1.00  0.00    -0.248 NA
ATOM     56  C   UNL A   1      42.464  27.684  30.755  1.00  0.00     0.031 C 
ATOM     57  C   UNL A   1      42.712  30.543  36.106  1.00  0.00     0.029 A 
ATOM     58  C   UNL A   1      42.330  30.148  34.834  1.00  0.00     0.049 A 
ATOM     59  H   UNL A   1      40.794  30.920  33.609  1.00  0.00     0.167 HD
ATOM     60  C   UNL A   1      42.463  28.785  32.766  1.00  0.00     0.074 A 
ATOM     61  C   UNL A   1      43.044  27.744  31.945  1.00  0.00     0.031 C 
ATOM     62  C   UNL A   1      42.891  29.106  34.011  1.00  0.00     0.037 A 
BRANCH  49  63
ATOM     63  C   UNL A   1      39.784  33.769  36.627  1.00  0.00     0.064 A 
ATOM     64  C   UNL A   1      38.962  33.445  37.720  1.00  0.00     0.173 A 
ATOM     65  C   UNL A   1      40.480  34.986  36.672  1.00  0.00     0.173 A 
ATOM     66  F   UNL A   1      38.265  32.300  37.724  1.00  0.00    -0.203 F 
ATOM     67  C   UNL A   1      38.814  34.322  38.791  1.00  0.00     0.198 A 
ATOM     68  C   UNL A   1      40.359  35.844  37.764  1.00  0.00     0.198 A 
ATOM     69  F   UNL A   1      41.283  35.346  35.660  1.00  0.00    -0.203 F 
ATOM     70  F   UNL A   1      37.974  34.019  39.790  1.00  0.00    -0.200 F 
ATOM     71  C   UNL A   1      39.518  35.516  38.817  1.00  0.00     0.200 A 
ATOM     72  F   UNL A   1      41.053  36.990  37.793  1.00  0.00    -0.200 F 
ATOM     73  F   UNL A   1      39.378  36.356  39.851  1.00  0.00    -0.200 F 
ENDBRANCH  49  63
BRANCH  50  74
ATOM     74  C   UNL A   1      40.611  27.999  28.509  1.00  0.00     0.064 A 
ATOM     75  C   UNL A   1      40.000  26.738  28.440  1.00  0.00     0.173 A 
ATOM     76  C   UNL A   1      41.367  28.417  27.404  1.00  0.00     0.173 A 
ATOM     77  F   UNL A   1      39.283  26.284  29.478  1.00  0.00    -0.203 F 
ATOM     78  C   UNL A   1      40.162  25.919  27.324  1.00  0.00     0.198 A 
ATOM     79  C   UNL A   1      41.500  27.611  26.276  1.00  0.00     0.198 A 
ATOM     80  F   UNL A   1      41.967  29.616  27.415  1.00  0.00    -0.203 F 
ATOM     81  F   UNL A   1      39.611  24.698  27.309  1.00  0.00    -0.200 F 
ATOM     82  C   UNL A   1      40.907  26.358  26.241  1.00  0.00     0.200 A 
ATOM     83  F   UNL A   1      42.206  28.046  25.223  1.00  0.00    -0.200 F 
ATOM     84  F   UNL A   1      41.058  25.571  25.166  1.00  0.00    -0.200 F 
ENDBRANCH  50  74
BRANCH  62  85
ATOM     85  C   UNL A   1      44.008  28.283  34.592  1.00  0.00     0.064 A 
ATOM     86  C   UNL A   1      45.352  28.674  34.493  1.00  0.00     0.173 A 
ATOM     87  C   UNL A   1      43.720  27.101  35.294  1.00  0.00     0.173 A 
ATOM     88  F   UNL A   1      45.683  29.787  33.822  1.00  0.00    -0.203 F 
ATOM     89  C   UNL A   1      46.367  27.896  35.044  1.00  0.00     0.198 A 
ATOM     90  C   UNL A   1      44.734  26.346  35.876  1.00  0.00     0.198 A 
ATOM     91  F   UNL A   1      42.452  26.684  35.428  1.00  0.00    -0.203 F 
ATOM     92  F   UNL A   1      47.647  28.259  34.885  1.00  0.00    -0.200 F 
ATOM     93  C   UNL A   1      46.057  26.737  35.743  1.00  0.00     0.200 A 
ATOM     94  F   UNL A   1      44.430  25.238  36.567  1.00  0.00    -0.200 F 
ATOM     95  F   UNL A   1      47.035  25.996  36.280  1.00  0.00    -0.200 F 
ENDBRANCH  62  85
ENDBRANCH  36  37
ENDBRANCH  28  31
ENDBRANCH  26  27
ENDBRANCH  25  26
ENDBRANCH   1  25
TORSDOF 14
ENDMDL
MODEL 3
REMARK VINA RESULT:     -12.8      2.091      3.523
REMARK SMILES C[C@@H]1[C@@H](C(=O)NCCCCNC(=O)c2ccc(-c3c4nc(c(-c5c(F)c(F)c(F)c(F)c5F)c5ccc([nH]5)c(-c5c(F)c(F)c(F)c(F)c5F)c5nc(c(-c6c(F)c(F)c(F)c(F)c6F)c6ccc3[nH]6)C=C5)C=C4)cc2)CCN1c1ccc(C(F)(F)F)cc1C#N
REMARK SMILES IDX 8 1 7 2 6 3 4 4 5 5 3 7 1 8 2 9 79 10 77 11 78 12 80 13
REMARK SMILES IDX 81 14 89 15 82 16 88 17 83 18 90 19 91 20 84 21 85 22 86 23
REMARK SMILES IDX 87 24 9 25 10 26 11 27 12 28 13 30 14 31 15 32 76 33 16 34
REMARK SMILES IDX 75 35 17 36 18 37 19 38 69 39 20 40 74 41 68 42 70 43 21 44
REMARK SMILES IDX 73 45 67 46 66 47 22 49 54 50 34 51 53 52 35 53 38 54 52 55
REMARK SMILES IDX 71 56 36 57 37 58 51 60 72 61 39 62 23 63 24 64 32 65 25 66
REMARK SMILES IDX 26 67 30 68 33 69 27 70 28 71 31 72 29 73 55 74 56 75 64 76
REMARK SMILES IDX 57 77 58 78 62 79 65 80 59 81 60 82 63 83 61 84 40 85 41 86
REMARK SMILES IDX 49 87 42 88 43 89 47 90 50 91 44 92 45 93 48 94 46 95
REMARK H PARENT 6 6 11 29 70 48 38 59
REMARK Flexibility Score: inf
ROOT
ATOM      1  C   UNL A   1      31.074  27.526  25.161  1.00  0.00     0.023 C 
ENDROOT
BRANCH   1   2
ATOM      2  C   UNL A   1      30.286  26.327  25.671  1.00  0.00     0.116 C 
BRANCH   2   3
ATOM      3  N   UNL A   1      30.144  25.260  24.701  1.00  0.00    -0.356 N 
ATOM      4  C   UNL A   1      31.029  24.271  24.379  1.00  0.00     0.225 C 
ATOM      5  O   UNL A   1      30.649  23.415  23.582  1.00  0.00    -0.275 OA
ATOM      6  H   UNL A   1      29.292  25.247  24.207  1.00  0.00     0.163 HD
BRANCH   4   7
ATOM      7  C   UNL A   1      32.446  24.321  24.943  1.00  0.00     0.102 C 
ATOM      8  C   UNL A   1      34.763  23.950  24.033  1.00  0.00     0.032 C 
ATOM      9  C   UNL A   1      33.387  23.310  24.228  1.00  0.00     0.091 C 
ATOM     10  N   UNL A   1      33.468  22.170  25.172  1.00  0.00    -0.367 N 
ATOM     11  C   UNL A   1      32.562  23.912  26.414  1.00  0.00     0.037 C 
ATOM     12  C   UNL A   1      32.641  22.401  26.348  1.00  0.00     0.118 C 
BRANCH  10  13
ATOM     13  C   UNL A   1      33.659  20.861  24.762  1.00  0.00     0.055 A 
ATOM     14  C   UNL A   1      32.565  20.079  24.343  1.00  0.00     0.028 A 
ATOM     15  C   UNL A   1      34.911  20.223  24.851  1.00  0.00     0.076 A 
ATOM     16  C   UNL A   1      32.691  18.710  24.083  1.00  0.00     0.015 A 
ATOM     17  C   UNL A   1      35.042  18.850  24.565  1.00  0.00     0.034 A 
ATOM     18  C   UNL A   1      33.932  18.077  24.202  1.00  0.00     0.057 A 
BRANCH  15  19
ATOM     19  C   UNL A   1      36.082  20.911  25.318  1.00  0.00     0.101 C 
ATOM     20  N   UNL A   1      37.036  21.491  25.639  1.00  0.00    -0.192 NA
ENDBRANCH  15  19
BRANCH  18  21
ATOM     21  C   UNL A   1      34.053  16.588  23.988  1.00  0.00     0.416 C 
ATOM     22  F   UNL A   1      35.007  16.031  24.783  1.00  0.00    -0.166 F 
ATOM     23  F   UNL A   1      32.899  15.922  24.263  1.00  0.00    -0.166 F 
ATOM     24  F   UNL A   1      34.387  16.250  22.712  1.00  0.00    -0.166 F 
ENDBRANCH  18  21
ENDBRANCH  10  13
ENDBRANCH   4   7
ENDBRANCH   2   3
ENDBRANCH   1   2
BRANCH   1  25
ATOM     25  C   UNL A   1      32.239  27.972  26.041  1.00  0.00     0.023 C 
BRANCH  25  26
ATOM     26  C   UNL A   1      33.069  29.124  25.493  1.00  0.00     0.116 C 
BRANCH  26  27
ATOM     27  N   UNL A   1      32.605  30.429  25.942  1.00  0.00    -0.352 N 
ATOM     28  C   UNL A   1      33.115  31.257  26.913  1.00  0.00     0.251 C 
ATOM     29  H   UNL A   1      31.802  30.768  25.482  1.00  0.00     0.163 HD
ATOM     30  O   UNL A   1      32.494  32.257  27.259  1.00  0.00    -0.269 OA
BRANCH  28  31
ATOM     31  C   UNL A   1      34.401  30.926  27.564  1.00  0.00     0.039 A 
ATOM     32  C   UNL A   1      35.346  31.937  27.752  1.00  0.00     0.014 A 
ATOM     33  C   UNL A   1      34.668  29.627  28.000  1.00  0.00     0.014 A 
ATOM     34  C   UNL A   1      36.525  31.660  28.447  1.00  0.00     0.010 A 
ATOM     35  C   UNL A   1      35.793  29.378  28.779  1.00  0.00     0.010 A 
ATOM     36  C   UNL A   1      36.739  30.389  29.004  1.00  0.00    -0.014 A 
BRANCH  36  37
ATOM     37  C   UNL A   1      37.953  30.087  29.806  1.00  0.00     0.031 A 
ATOM     38  C   UNL A   1      39.001  29.153  29.262  1.00  0.00     0.074 A 
ATOM     39  C   UNL A   1      38.086  30.599  31.045  1.00  0.00     0.049 A 
ATOM     40  N   UNL A   1      40.092  28.707  29.832  1.00  0.00    -0.248 NA
ATOM     41  C   UNL A   1      38.775  28.626  27.907  1.00  0.00     0.031 C 
ATOM     42  C   UNL A   1      37.120  31.479  31.705  1.00  0.00     0.029 A 
ATOM     43  N   UNL A   1      39.083  30.444  31.977  1.00  0.00    -0.354 N 
ATOM     44  C   UNL A   1      40.669  27.841  28.913  1.00  0.00     0.074 A 
ATOM     45  C   UNL A   1      39.775  27.768  27.779  1.00  0.00     0.031 C 
ATOM     46  C   UNL A   1      37.586  31.811  32.920  1.00  0.00     0.029 A 
ATOM     47  C   UNL A   1      38.858  31.130  33.145  1.00  0.00     0.049 A 
ATOM     48  H   UNL A   1      39.883  29.893  31.822  1.00  0.00     0.167 HD
ATOM     49  C   UNL A   1      41.853  27.186  28.994  1.00  0.00     0.037 A 
ATOM     50  C   UNL A   1      39.591  31.198  34.273  1.00  0.00     0.037 A 
ATOM     51  C   UNL A   1      42.747  27.273  30.118  1.00  0.00     0.049 A 
ATOM     52  C   UNL A   1      40.892  30.440  34.348  1.00  0.00     0.074 A 
ATOM     53  C   UNL A   1      43.991  26.688  30.279  1.00  0.00     0.029 A 
ATOM     54  N   UNL A   1      42.488  27.987  31.280  1.00  0.00    -0.354 N 
ATOM     55  N   UNL A   1      41.460  29.678  33.447  1.00  0.00    -0.248 NA
ATOM     56  C   UNL A   1      41.656  30.563  35.597  1.00  0.00     0.031 C 
ATOM     57  C   UNL A   1      44.457  26.997  31.560  1.00  0.00     0.029 A 
ATOM     58  C   UNL A   1      43.539  27.836  32.171  1.00  0.00     0.049 A 
ATOM     59  H   UNL A   1      41.679  28.522  31.446  1.00  0.00     0.167 HD
ATOM     60  C   UNL A   1      42.664  29.262  34.002  1.00  0.00     0.074 A 
ATOM     61  C   UNL A   1      42.748  29.867  35.314  1.00  0.00     0.031 C 
ATOM     62  C   UNL A   1      43.615  28.455  33.470  1.00  0.00     0.037 A 
BRANCH  49  63
ATOM     63  C   UNL A   1      42.244  26.314  27.833  1.00  0.00     0.064 A 
ATOM     64  C   UNL A   1      41.743  25.010  27.686  1.00  0.00     0.173 A 
ATOM     65  C   UNL A   1      43.113  26.794  26.842  1.00  0.00     0.173 A 
ATOM     66  F   UNL A   1      40.917  24.496  28.609  1.00  0.00    -0.203 F 
ATOM     67  C   UNL A   1      42.130  24.209  26.615  1.00  0.00     0.198 A 
ATOM     68  C   UNL A   1      43.467  26.003  25.751  1.00  0.00     0.198 A 
ATOM     69  F   UNL A   1      43.618  28.034  26.927  1.00  0.00    -0.203 F 
ATOM     70  F   UNL A   1      41.689  22.946  26.533  1.00  0.00    -0.200 F 
ATOM     71  C   UNL A   1      42.984  24.708  25.645  1.00  0.00     0.200 A 
ATOM     72  F   UNL A   1      44.282  26.494  24.806  1.00  0.00    -0.200 F 
ATOM     73  F   UNL A   1      43.351  23.937  24.612  1.00  0.00    -0.200 F 
ENDBRANCH  49  63
BRANCH  50  74
ATOM     74  C   UNL A   1      39.130  32.033  35.414  1.00  0.00     0.064 A 
ATOM     75  C   UNL A   1      39.455  33.396  35.488  1.00  0.00     0.173 A 
ATOM     76  C   UNL A   1      38.367  31.488  36.458  1.00  0.00     0.173 A 
ATOM     77  F   UNL A   1      40.198  33.959  34.525  1.00  0.00    -0.203 F 
ATOM     78  C   UNL A   1      39.057  34.174  36.573  1.00  0.00     0.198 A 
ATOM     79  C   UNL A   1      37.942  32.276  37.525  1.00  0.00     0.198 A 
ATOM     80  F   UNL A   1      38.023  30.192  36.434  1.00  0.00    -0.203 F 
ATOM     81  F   UNL A   1      39.427  35.460  36.643  1.00  0.00    -0.200 F 
ATOM     82  C   UNL A   1      38.296  33.615  37.589  1.00  0.00     0.200 A 
ATOM     83  F   UNL A   1      37.191  31.736  38.496  1.00  0.00    -0.200 F 
ATOM     84  F   UNL A   1      37.910  34.365  38.630  1.00  0.00    -0.200 F 
ENDBRANCH  50  74
BRANCH  62  85
ATOM     85  C   UNL A   1      44.860  28.225  34.281  1.00  0.00     0.064 A 
ATOM     86  C   UNL A   1      44.986  27.141  35.162  1.00  0.00     0.173 A 
ATOM     87  C   UNL A   1      45.961  29.087  34.143  1.00  0.00     0.173 A 
ATOM     88  F   UNL A   1      43.961  26.294  35.343  1.00  0.00    -0.203 F 
ATOM     89  C   UNL A   1      46.152  26.948  35.899  1.00  0.00     0.198 A 
ATOM     90  C   UNL A   1      47.138  28.869  34.851  1.00  0.00     0.198 A 
ATOM     91  F   UNL A   1      45.899  30.135  33.307  1.00  0.00    -0.203 F 
ATOM     92  F   UNL A   1      46.228  25.939  36.778  1.00  0.00    -0.200 F 
ATOM     93  C   UNL A   1      47.231  27.806  35.737  1.00  0.00     0.200 A 
ATOM     94  F   UNL A   1      48.184  29.689  34.678  1.00  0.00    -0.200 F 
ATOM     95  F   UNL A   1      48.355  27.613  36.439  1.00  0.00    -0.200 F 
ENDBRANCH  62  85
ENDBRANCH  36  37
ENDBRANCH  28  31
ENDBRANCH  26  27
ENDBRANCH  25  26
ENDBRANCH   1  25
TORSDOF 14
ENDMDL
