MODEL 1
REMARK VINA RESULT:     -13.2      0.000      0.000
REMARK SMILES Cc1cc(C)cc(-c2cccc(Cl)c2C(=O)NCCCCNC(=O)c2ccc(-c3c4nc(c(-c5c(F)c(F)c(F)c(F)c5F)c5ccc([nH]5)c(-c5c(F)c(F)c(F)c(F)c5F)c5nc(c(-c6c(F)c(F)c(F)c(F)c6F)c6ccc3[nH]6)C=C5)C=C4)cc2)c1
REMARK SMILES IDX 20 1 19 2 18 3 17 4 15 5 16 6 14 8 8 9 9 10 10 11 12 12
REMARK SMILES IDX 11 13 13 14 7 15 1 16 2 17 3 18 88 19 4 20 5 21 6 22 21 23
REMARK SMILES IDX 22 24 23 25 24 27 25 28 26 29 87 30 27 31 86 32 28 33 29 34
REMARK SMILES IDX 30 35 80 36 31 37 85 38 79 39 81 40 32 41 84 42 78 43 77 44
REMARK SMILES IDX 33 46 65 47 45 48 64 49 46 50 49 51 63 52 82 53 47 54 48 55
REMARK SMILES IDX 62 57 83 58 50 59 34 60 35 61 43 62 36 63 37 64 41 65 44 66
REMARK SMILES IDX 38 67 39 68 42 69 40 70 66 71 67 72 75 73 68 74 69 75 73 76
REMARK SMILES IDX 76 77 70 78 71 79 74 80 72 81 51 82 52 83 60 84 53 85 54 86
REMARK SMILES IDX 58 87 61 88 55 89 56 90 59 91 57 92
REMARK H PARENT 17 7 22 26 81 45 49 56
REMARK Flexibility Score: inf
ROOT
ATOM      1  C   UNL A   1      32.902  29.318  24.679  1.00  0.00     0.023 C 
ENDROOT
BRANCH   1   2
ATOM      2  C   UNL A   1      33.897  28.253  24.218  1.00  0.00     0.023 C 
BRANCH   2   3
ATOM      3  C   UNL A   1      33.611  26.808  24.618  1.00  0.00     0.116 C 
BRANCH   3   4
ATOM      4  N   UNL A   1      34.071  25.789  23.687  1.00  0.00    -0.352 N 
ATOM      5  C   UNL A   1      33.702  24.458  23.577  1.00  0.00     0.253 C 
ATOM      6  O   UNL A   1      34.007  23.854  22.552  1.00  0.00    -0.269 OA
ATOM      7  H   UNL A   1      34.745  26.092  23.037  1.00  0.00     0.163 HD
BRANCH   5   8
ATOM      8  C   UNL A   1      33.019  23.749  24.693  1.00  0.00     0.066 A 
ATOM      9  C   UNL A   1      33.787  23.165  25.732  1.00  0.00    -0.004 A 
ATOM     10  C   UNL A   1      33.115  22.656  26.867  1.00  0.00     0.009 A 
ATOM     11  C   UNL A   1      31.726  22.653  26.949  1.00  0.00     0.002 A 
ATOM     12  C   UNL A   1      31.622  23.598  24.723  1.00  0.00     0.054 A 
ATOM     13  C   UNL A   1      30.981  23.088  25.860  1.00  0.00     0.021 A 
ATOM     14  Cl  UNL A   1      30.611  23.872  23.344  1.00  0.00    -0.083 Cl
BRANCH   9  15
ATOM     15  C   UNL A   1      35.236  22.893  25.652  1.00  0.00    -0.017 A 
ATOM     16  C   UNL A   1      37.441  19.893  24.749  1.00  0.00     0.044 C 
ATOM     17  C   UNL A   1      37.011  21.258  25.199  1.00  0.00    -0.050 A 
ATOM     18  C   UNL A   1      37.962  22.202  25.593  1.00  0.00     0.006 A 
ATOM     19  C   UNL A   1      35.659  21.616  25.228  1.00  0.00     0.012 A 
ATOM     20  C   UNL A   1      37.573  23.481  26.017  1.00  0.00    -0.050 A 
ATOM     21  C   UNL A   1      38.627  24.468  26.422  1.00  0.00     0.044 C 
ATOM     22  C   UNL A   1      36.209  23.820  26.044  1.00  0.00     0.012 A 
ENDBRANCH   9  15
ENDBRANCH   5   8
ENDBRANCH   3   4
ENDBRANCH   2   3
ENDBRANCH   1   2
BRANCH   1  23
ATOM     23  C   UNL A   1      32.702  29.486  26.183  1.00  0.00     0.116 C 
BRANCH  23  24
ATOM     24  N   UNL A   1      32.502  30.864  26.612  1.00  0.00    -0.352 N 
ATOM     25  C   UNL A   1      33.326  31.718  27.309  1.00  0.00     0.251 C 
ATOM     26  H   UNL A   1      31.631  31.248  26.361  1.00  0.00     0.163 HD
ATOM     27  O   UNL A   1      32.925  32.839  27.615  1.00  0.00    -0.269 OA
BRANCH  25  28
ATOM     28  C   UNL A   1      34.672  31.288  27.749  1.00  0.00     0.039 A 
ATOM     29  C   UNL A   1      35.663  32.262  27.916  1.00  0.00     0.014 A 
ATOM     30  C   UNL A   1      34.964  29.950  28.020  1.00  0.00     0.014 A 
ATOM     31  C   UNL A   1      36.896  31.915  28.476  1.00  0.00     0.010 A 
ATOM     32  C   UNL A   1      36.164  29.616  28.646  1.00  0.00     0.010 A 
ATOM     33  C   UNL A   1      37.129  30.601  28.912  1.00  0.00    -0.014 A 
BRANCH  33  34
ATOM     34  C   UNL A   1      38.330  30.252  29.718  1.00  0.00     0.031 A 
ATOM     35  C   UNL A   1      39.349  29.280  29.198  1.00  0.00     0.074 A 
ATOM     36  C   UNL A   1      38.443  30.738  30.971  1.00  0.00     0.049 A 
ATOM     37  N   UNL A   1      40.386  28.765  29.810  1.00  0.00    -0.248 NA
ATOM     38  C   UNL A   1      39.166  28.807  27.819  1.00  0.00     0.031 C 
ATOM     39  C   UNL A   1      37.496  31.653  31.612  1.00  0.00     0.029 A 
ATOM     40  N   UNL A   1      39.392  30.515  31.940  1.00  0.00    -0.354 N 
ATOM     41  C   UNL A   1      40.969  27.895  28.898  1.00  0.00     0.074 A 
ATOM     42  C   UNL A   1      40.148  27.923  27.706  1.00  0.00     0.031 C 
ATOM     43  C   UNL A   1      37.916  31.922  32.859  1.00  0.00     0.029 A 
ATOM     44  C   UNL A   1      39.135  31.165  33.123  1.00  0.00     0.049 A 
ATOM     45  H   UNL A   1      40.181  29.943  31.799  1.00  0.00     0.167 HD
ATOM     46  C   UNL A   1      42.096  27.156  29.037  1.00  0.00     0.037 A 
ATOM     47  C   UNL A   1      39.793  31.138  34.297  1.00  0.00     0.037 A 
ATOM     48  C   UNL A   1      42.926  27.150  30.214  1.00  0.00     0.049 A 
ATOM     49  C   UNL A   1      41.027  30.289  34.433  1.00  0.00     0.074 A 
ATOM     50  C   UNL A   1      44.130  26.497  30.417  1.00  0.00     0.029 A 
ATOM     51  N   UNL A   1      42.634  27.824  31.391  1.00  0.00    -0.354 N 
ATOM     52  N   UNL A   1      41.607  29.528  33.538  1.00  0.00    -0.248 NA
ATOM     53  C   UNL A   1      41.694  30.292  35.742  1.00  0.00     0.031 C 
ATOM     54  C   UNL A   1      44.543  26.737  31.732  1.00  0.00     0.029 A 
ATOM     55  C   UNL A   1      43.619  27.576  32.334  1.00  0.00     0.049 A 
ATOM     56  H   UNL A   1      41.844  28.393  31.534  1.00  0.00     0.167 HD
ATOM     57  C   UNL A   1      42.713  28.975  34.168  1.00  0.00     0.074 A 
ATOM     58  C   UNL A   1      42.735  29.503  35.516  1.00  0.00     0.031 C 
ATOM     59  C   UNL A   1      43.625  28.104  33.674  1.00  0.00     0.037 A 
BRANCH  46  60
ATOM     60  C   UNL A   1      42.507  26.292  27.882  1.00  0.00     0.064 A 
ATOM     61  C   UNL A   1      42.000  24.992  27.722  1.00  0.00     0.173 A 
ATOM     62  C   UNL A   1      43.374  26.784  26.896  1.00  0.00     0.173 A 
ATOM     63  F   UNL A   1      41.173  24.473  28.641  1.00  0.00    -0.203 F 
ATOM     64  C   UNL A   1      42.368  24.210  26.631  1.00  0.00     0.198 A 
ATOM     65  C   UNL A   1      43.719  26.008  25.792  1.00  0.00     0.198 A 
ATOM     66  F   UNL A   1      43.880  28.023  26.997  1.00  0.00    -0.203 F 
ATOM     67  F   UNL A   1      41.904  22.958  26.520  1.00  0.00    -0.200 F 
ATOM     68  C   UNL A   1      43.221  24.720  25.663  1.00  0.00     0.200 A 
ATOM     69  F   UNL A   1      44.533  26.507  24.851  1.00  0.00    -0.200 F 
ATOM     70  F   UNL A   1      43.567  23.969  24.610  1.00  0.00    -0.200 F 
ENDBRANCH  46  60
BRANCH  47  71
ATOM     71  C   UNL A   1      39.299  31.944  35.444  1.00  0.00     0.064 A 
ATOM     72  C   UNL A   1      39.674  33.286  35.592  1.00  0.00     0.173 A 
ATOM     73  C   UNL A   1      38.451  31.392  36.415  1.00  0.00     0.173 A 
ATOM     74  F   UNL A   1      40.503  33.851  34.701  1.00  0.00    -0.203 F 
ATOM     75  C   UNL A   1      39.232  34.042  36.676  1.00  0.00     0.198 A 
ATOM     76  C   UNL A   1      37.989  32.156  37.484  1.00  0.00     0.198 A 
ATOM     77  F   UNL A   1      38.062  30.112  36.319  1.00  0.00    -0.203 F 
ATOM     78  F   UNL A   1      39.640  35.310  36.816  1.00  0.00    -0.200 F 
ATOM     79  C   UNL A   1      38.385  33.478  37.618  1.00  0.00     0.200 A 
ATOM     80  F   UNL A   1      37.160  31.611  38.386  1.00  0.00    -0.200 F 
ATOM     81  F   UNL A   1      37.958  34.206  38.659  1.00  0.00    -0.200 F 
ENDBRANCH  47  71
BRANCH  59  82
ATOM     82  C   UNL A   1      44.732  27.673  34.591  1.00  0.00     0.064 A 
ATOM     83  C   UNL A   1      45.918  28.414  34.703  1.00  0.00     0.173 A 
ATOM     84  C   UNL A   1      44.588  26.536  35.398  1.00  0.00     0.173 A 
ATOM     85  F   UNL A   1      46.110  29.500  33.939  1.00  0.00    -0.203 F 
ATOM     86  C   UNL A   1      46.925  28.022  35.580  1.00  0.00     0.198 A 
ATOM     87  C   UNL A   1      45.586  26.161  36.292  1.00  0.00     0.198 A 
ATOM     88  F   UNL A   1      43.472  25.795  35.329  1.00  0.00    -0.203 F 
ATOM     89  F   UNL A   1      48.065  28.723  35.643  1.00  0.00    -0.200 F 
ATOM     90  C   UNL A   1      46.756  26.901  36.379  1.00  0.00     0.200 A 
ATOM     91  F   UNL A   1      45.417  25.083  37.072  1.00  0.00    -0.200 F 
ATOM     92  F   UNL A   1      47.723  26.531  37.229  1.00  0.00    -0.200 F 
ENDBRANCH  59  82
ENDBRANCH  33  34
ENDBRANCH  25  28
ENDBRANCH  23  24
ENDBRANCH   1  23
TORSDOF 12
ENDMDL
MODEL 2
REMARK VINA RESULT:     -13.0      0.295      1.627
REMARK SMILES Cc1cc(C)cc(-c2cccc(Cl)c2C(=O)NCCCCNC(=O)c2ccc(-c3c4nc(c(-c5c(F)c(F)c(F)c(F)c5F)c5ccc([nH]5)c(-c5c(F)c(F)c(F)c(F)c5F)c5nc(c(-c6c(F)c(F)c(F)c(F)c6F)c6ccc3[nH]6)C=C5)C=C4)cc2)c1
REMARK SMILES IDX 20 1 19 2 18 3 17 4 15 5 16 6 14 8 8 9 9 10 10 11 12 12
REMARK SMILES IDX 11 13 13 14 7 15 1 16 2 17 3 18 88 19 4 20 5 21 6 22 21 23
REMARK SMILES IDX 22 24 23 25 24 27 25 28 26 29 87 30 27 31 86 32 28 33 29 34
REMARK SMILES IDX 30 35 80 36 31 37 85 38 79 39 81 40 32 41 84 42 78 43 77 44
REMARK SMILES IDX 33 46 65 47 45 48 64 49 46 50 49 51 63 52 82 53 47 54 48 55
REMARK SMILES IDX 62 57 83 58 50 59 34 60 35 61 43 62 36 63 37 64 41 65 44 66
REMARK SMILES IDX 38 67 39 68 42 69 40 70 66 71 67 72 75 73 68 74 69 75 73 76
REMARK SMILES IDX 76 77 70 78 71 79 74 80 72 81 51 82 52 83 60 84 53 85 54 86
REMARK SMILES IDX 58 87 61 88 55 89 56 90 59 91 57 92
REMARK H PARENT 17 7 22 26 81 45 49 56
REMARK Flexibility Score: inf
ROOT
ATOM      1  C   UNL A   1      33.258  29.094  24.669  1.00  0.00     0.023 C 
ENDROOT
BRANCH   1   2
ATOM      2  C   UNL A   1      33.979  27.812  24.250  1.00  0.00     0.023 C 
BRANCH   2   3
ATOM      3  C   UNL A   1      33.129  26.697  23.648  1.00  0.00     0.116 C 
BRANCH   3   4
ATOM      4  N   UNL A   1      33.862  25.574  23.085  1.00  0.00    -0.352 N 
ATOM      5  C   UNL A   1      33.748  24.219  23.347  1.00  0.00     0.253 C 
ATOM      6  O   UNL A   1      34.268  23.429  22.564  1.00  0.00    -0.269 OA
ATOM      7  H   UNL A   1      34.542  25.814  22.414  1.00  0.00     0.163 HD
BRANCH   5   8
ATOM      8  C   UNL A   1      33.077  23.723  24.580  1.00  0.00     0.066 A 
ATOM      9  C   UNL A   1      33.858  23.305  25.689  1.00  0.00    -0.004 A 
ATOM     10  C   UNL A   1      33.202  23.011  26.905  1.00  0.00     0.009 A 
ATOM     11  C   UNL A   1      31.816  23.052  27.014  1.00  0.00     0.002 A 
ATOM     12  C   UNL A   1      31.678  23.610  24.663  1.00  0.00     0.054 A 
ATOM     13  C   UNL A   1      31.054  23.314  25.882  1.00  0.00     0.021 A 
ATOM     14  Cl  UNL A   1      30.641  23.670  23.277  1.00  0.00    -0.083 Cl
BRANCH   9  15
ATOM     15  C   UNL A   1      35.299  22.992  25.627  1.00  0.00    -0.017 A 
ATOM     16  C   UNL A   1      37.428  19.925  24.766  1.00  0.00     0.044 C 
ATOM     17  C   UNL A   1      37.032  21.304  25.204  1.00  0.00    -0.050 A 
ATOM     18  C   UNL A   1      38.005  22.223  25.605  1.00  0.00     0.006 A 
ATOM     19  C   UNL A   1      35.690  21.701  25.215  1.00  0.00     0.012 A 
ATOM     20  C   UNL A   1      37.647  23.515  26.017  1.00  0.00    -0.050 A 
ATOM     21  C   UNL A   1      38.724  24.473  26.431  1.00  0.00     0.044 C 
ATOM     22  C   UNL A   1      36.294  23.893  26.026  1.00  0.00     0.012 A 
ENDBRANCH   9  15
ENDBRANCH   5   8
ENDBRANCH   3   4
ENDBRANCH   2   3
ENDBRANCH   1   2
BRANCH   1  23
ATOM     23  C   UNL A   1      32.845  29.220  26.133  1.00  0.00     0.116 C 
BRANCH  23  24
ATOM     24  N   UNL A   1      32.612  30.588  26.575  1.00  0.00    -0.352 N 
ATOM     25  C   UNL A   1      33.416  31.457  27.278  1.00  0.00     0.251 C 
ATOM     26  H   UNL A   1      31.731  30.953  26.331  1.00  0.00     0.163 HD
ATOM     27  O   UNL A   1      32.987  32.564  27.596  1.00  0.00    -0.269 OA
BRANCH  25  28
ATOM     28  C   UNL A   1      34.774  31.057  27.710  1.00  0.00     0.039 A 
ATOM     29  C   UNL A   1      35.746  32.052  27.865  1.00  0.00     0.014 A 
ATOM     30  C   UNL A   1      35.096  29.726  27.984  1.00  0.00     0.014 A 
ATOM     31  C   UNL A   1      36.989  31.733  28.417  1.00  0.00     0.010 A 
ATOM     32  C   UNL A   1      36.308  29.420  28.603  1.00  0.00     0.010 A 
ATOM     33  C   UNL A   1      37.254  30.426  28.857  1.00  0.00    -0.014 A 
BRANCH  33  34
ATOM     34  C   UNL A   1      38.467  30.106  29.656  1.00  0.00     0.031 A 
ATOM     35  C   UNL A   1      39.483  29.122  29.151  1.00  0.00     0.074 A 
ATOM     36  C   UNL A   1      38.597  30.631  30.892  1.00  0.00     0.049 A 
ATOM     37  N   UNL A   1      40.530  28.629  29.763  1.00  0.00    -0.248 NA
ATOM     38  C   UNL A   1      39.281  28.606  27.789  1.00  0.00     0.031 C 
ATOM     39  C   UNL A   1      37.656  31.562  31.519  1.00  0.00     0.029 A 
ATOM     40  N   UNL A   1      39.561  30.440  31.853  1.00  0.00    -0.354 N 
ATOM     41  C   UNL A   1      41.103  27.734  28.869  1.00  0.00     0.074 A 
ATOM     42  C   UNL A   1      40.265  27.722  27.689  1.00  0.00     0.031 C 
ATOM     43  C   UNL A   1      38.093  31.870  32.750  1.00  0.00     0.029 A 
ATOM     44  C   UNL A   1      39.318  31.125  33.019  1.00  0.00     0.049 A 
ATOM     45  H   UNL A   1      40.350  29.867  31.718  1.00  0.00     0.167 HD
ATOM     46  C   UNL A   1      42.235  27.004  29.014  1.00  0.00     0.037 A 
ATOM     47  C   UNL A   1      39.994  31.137  34.183  1.00  0.00     0.037 A 
ATOM     48  C   UNL A   1      43.082  27.036  30.178  1.00  0.00     0.049 A 
ATOM     49  C   UNL A   1      41.233  30.297  34.327  1.00  0.00     0.074 A 
ATOM     50  C   UNL A   1      44.291  26.394  30.383  1.00  0.00     0.029 A 
ATOM     51  N   UNL A   1      42.804  27.744  31.338  1.00  0.00    -0.354 N 
ATOM     52  N   UNL A   1      41.803  29.511  33.448  1.00  0.00    -0.248 NA
ATOM     53  C   UNL A   1      41.920  30.342  35.626  1.00  0.00     0.031 C 
ATOM     54  C   UNL A   1      44.722  26.675  31.684  1.00  0.00     0.029 A 
ATOM     55  C   UNL A   1      43.804  27.529  32.274  1.00  0.00     0.049 A 
ATOM     56  H   UNL A   1      42.015  28.316  31.476  1.00  0.00     0.167 HD
ATOM     57  C   UNL A   1      42.920  28.980  34.078  1.00  0.00     0.074 A 
ATOM     58  C   UNL A   1      42.959  29.549  35.409  1.00  0.00     0.031 C 
ATOM     59  C   UNL A   1      43.828  28.098  33.597  1.00  0.00     0.037 A 
BRANCH  46  60
ATOM     60  C   UNL A   1      42.632  26.105  27.880  1.00  0.00     0.064 A 
ATOM     61  C   UNL A   1      42.112  24.807  27.757  1.00  0.00     0.173 A 
ATOM     62  C   UNL A   1      43.498  26.564  26.877  1.00  0.00     0.173 A 
ATOM     63  F   UNL A   1      41.286  24.319  28.693  1.00  0.00    -0.203 F 
ATOM     64  C   UNL A   1      42.468  23.993  26.685  1.00  0.00     0.198 A 
ATOM     65  C   UNL A   1      43.830  25.757  25.792  1.00  0.00     0.198 A 
ATOM     66  F   UNL A   1      44.015  27.801  26.943  1.00  0.00    -0.203 F 
ATOM     67  F   UNL A   1      41.992  22.743  26.609  1.00  0.00    -0.200 F 
ATOM     68  C   UNL A   1      43.320  24.470  25.700  1.00  0.00     0.200 A 
ATOM     69  F   UNL A   1      44.644  26.223  24.834  1.00  0.00    -0.200 F 
ATOM     70  F   UNL A   1      43.654  23.689  24.664  1.00  0.00    -0.200 F 
ENDBRANCH  46  60
BRANCH  47  71
ATOM     71  C   UNL A   1      39.514  31.976  35.313  1.00  0.00     0.064 A 
ATOM     72  C   UNL A   1      38.619  31.459  36.260  1.00  0.00     0.173 A 
ATOM     73  C   UNL A   1      39.930  33.307  35.464  1.00  0.00     0.173 A 
ATOM     74  F   UNL A   1      38.174  30.200  36.141  1.00  0.00    -0.203 F 
ATOM     75  C   UNL A   1      38.147  32.247  37.308  1.00  0.00     0.198 A 
ATOM     76  C   UNL A   1      39.478  34.084  36.528  1.00  0.00     0.198 A 
ATOM     77  F   UNL A   1      40.786  33.848  34.586  1.00  0.00    -0.203 F 
ATOM     78  F   UNL A   1      37.260  31.741  38.175  1.00  0.00    -0.200 F 
ATOM     79  C   UNL A   1      38.581  33.556  37.445  1.00  0.00     0.200 A 
ATOM     80  F   UNL A   1      39.910  35.346  36.665  1.00  0.00    -0.200 F 
ATOM     81  F   UNL A   1      38.129  34.311  38.455  1.00  0.00    -0.200 F 
ENDBRANCH  47  71
BRANCH  59  82
ATOM     82  C   UNL A   1      44.950  27.699  34.510  1.00  0.00     0.064 A 
ATOM     83  C   UNL A   1      44.846  26.579  35.348  1.00  0.00     0.173 A 
ATOM     84  C   UNL A   1      46.156  28.415  34.515  1.00  0.00     0.173 A 
ATOM     85  F   UNL A   1      43.706  25.872  35.392  1.00  0.00    -0.203 F 
ATOM     86  C   UNL A   1      45.904  26.200  36.169  1.00  0.00     0.198 A 
ATOM     87  C   UNL A   1      47.220  28.019  35.318  1.00  0.00     0.198 A 
ATOM     88  F   UNL A   1      46.305  29.492  33.730  1.00  0.00    -0.203 F 
ATOM     89  F   UNL A   1      45.770  25.149  36.990  1.00  0.00    -0.200 F 
ATOM     90  C   UNL A   1      47.093  26.914  36.147  1.00  0.00     0.200 A 
ATOM     91  F   UNL A   1      48.373  28.704  35.288  1.00  0.00    -0.200 F 
ATOM     92  F   UNL A   1      48.114  26.542  36.931  1.00  0.00    -0.200 F 
ENDBRANCH  59  82
ENDBRANCH  33  34
ENDBRANCH  25  28
ENDBRANCH  23  24
ENDBRANCH   1  23
TORSDOF 12
ENDMDL
MODEL 3
REMARK VINA RESULT:     -12.9      4.124      9.711
REMARK SMILES Cc1cc(C)cc(-c2cccc(Cl)c2C(=O)NCCCCNC(=O)c2ccc(-c3c4nc(c(-c5c(F)c(F)c(F)c(F)c5F)c5ccc([nH]5)c(-c5c(F)c(F)c(F)c(F)c5F)c5nc(c(-c6c(F)c(F)c(F)c(F)c6F)c6ccc3[nH]6)C=C5)C=C4)cc2)c1
REMARK SMILES IDX 20 1 19 2 18 3 17 4 15 5 16 6 14 8 8 9 9 10 10 11 12 12
REMARK SMILES IDX 11 13 13 14 7 15 1 16 2 17 3 18 88 19 4 20 5 21 6 22 21 23
REMARK SMILES IDX 22 24 23 25 24 27 25 28 26 29 87 30 27 31 86 32 28 33 29 34
REMARK SMILES IDX 30 35 80 36 31 37 85 38 79 39 81 40 32 41 84 42 78 43 77 44
REMARK SMILES IDX 33 46 65 47 45 48 64 49 46 50 49 51 63 52 82 53 47 54 48 55
REMARK SMILES IDX 62 57 83 58 50 59 34 60 35 61 43 62 36 63 37 64 41 65 44 66
REMARK SMILES IDX 38 67 39 68 42 69 40 70 66 71 67 72 75 73 68 74 69 75 73 76
REMARK SMILES IDX 76 77 70 78 71 79 74 80 72 81 51 82 52 83 60 84 53 85 54 86
REMARK SMILES IDX 58 87 61 88 55 89 56 90 59 91 57 92
REMARK H PARENT 17 7 22 26 81 45 49 56
REMARK Flexibility Score: inf
ROOT
ATOM      1  C   UNL A   1      35.349  21.820  26.275  1.00  0.00     0.023 C 
ENDROOT
BRANCH   1   2
ATOM      2  C   UNL A   1      34.543  22.999  26.825  1.00  0.00     0.023 C 
BRANCH   2   3
ATOM      3  C   UNL A   1      33.629  23.736  25.850  1.00  0.00     0.116 C 
BRANCH   3   4
ATOM      4  N   UNL A   1      32.676  24.658  26.448  1.00  0.00    -0.352 N 
ATOM      5  C   UNL A   1      31.861  25.603  25.847  1.00  0.00     0.253 C 
ATOM      6  O   UNL A   1      30.939  26.078  26.505  1.00  0.00    -0.269 OA
ATOM      7  H   UNL A   1      32.598  24.600  27.427  1.00  0.00     0.163 HD
BRANCH   5   8
ATOM      8  C   UNL A   1      32.129  26.093  24.467  1.00  0.00     0.066 A 
ATOM      9  C   UNL A   1      32.860  27.293  24.274  1.00  0.00    -0.004 A 
ATOM     10  C   UNL A   1      33.256  27.640  22.962  1.00  0.00     0.009 A 
ATOM     11  C   UNL A   1      32.883  26.874  21.862  1.00  0.00     0.002 A 
ATOM     12  C   UNL A   1      31.633  25.418  23.338  1.00  0.00     0.054 A 
ATOM     13  C   UNL A   1      32.040  25.785  22.048  1.00  0.00     0.021 A 
ATOM     14  Cl  UNL A   1      30.393  24.213  23.425  1.00  0.00    -0.083 Cl
BRANCH   9  15
ATOM     15  C   UNL A   1      33.103  28.303  25.322  1.00  0.00    -0.017 A 
ATOM     16  C   UNL A   1      31.402  31.526  26.503  1.00  0.00     0.044 C 
ATOM     17  C   UNL A   1      32.388  30.403  26.375  1.00  0.00    -0.050 A 
ATOM     18  C   UNL A   1      33.528  30.371  27.182  1.00  0.00     0.006 A 
ATOM     19  C   UNL A   1      32.186  29.366  25.458  1.00  0.00     0.012 A 
ATOM     20  C   UNL A   1      34.457  29.326  27.072  1.00  0.00    -0.050 A 
ATOM     21  C   UNL A   1      35.663  29.325  27.963  1.00  0.00     0.044 C 
ATOM     22  C   UNL A   1      34.239  28.296  26.140  1.00  0.00     0.012 A 
ENDBRANCH   9  15
ENDBRANCH   5   8
ENDBRANCH   3   4
ENDBRANCH   2   3
ENDBRANCH   1   2
BRANCH   1  23
ATOM     23  C   UNL A   1      36.517  22.142  25.348  1.00  0.00     0.116 C 
BRANCH  23  24
ATOM     24  N   UNL A   1      37.601  21.171  25.388  1.00  0.00    -0.352 N 
ATOM     25  C   UNL A   1      38.882  21.271  25.882  1.00  0.00     0.251 C 
ATOM     26  H   UNL A   1      37.380  20.294  24.997  1.00  0.00     0.163 HD
ATOM     27  O   UNL A   1      39.659  20.326  25.759  1.00  0.00    -0.269 OA
BRANCH  25  28
ATOM     28  C   UNL A   1      39.361  22.523  26.509  1.00  0.00     0.039 A 
ATOM     29  C   UNL A   1      40.367  22.443  27.478  1.00  0.00     0.014 A 
ATOM     30  C   UNL A   1      38.851  23.770  26.142  1.00  0.00     0.014 A 
ATOM     31  C   UNL A   1      40.950  23.611  27.978  1.00  0.00     0.010 A 
ATOM     32  C   UNL A   1      39.482  24.933  26.584  1.00  0.00     0.010 A 
ATOM     33  C   UNL A   1      40.560  24.864  27.480  1.00  0.00    -0.014 A 
BRANCH  33  34
ATOM     34  C   UNL A   1      41.315  26.102  27.815  1.00  0.00     0.031 A 
ATOM     35  C   UNL A   1      40.649  27.236  28.538  1.00  0.00     0.074 A 
ATOM     36  C   UNL A   1      42.580  26.240  27.369  1.00  0.00     0.049 A 
ATOM     37  N   UNL A   1      41.111  28.433  28.801  1.00  0.00    -0.248 NA
ATOM     38  C   UNL A   1      39.275  27.004  29.007  1.00  0.00     0.031 C 
ATOM     39  C   UNL A   1      43.325  25.231  26.612  1.00  0.00     0.029 A 
ATOM     40  N   UNL A   1      43.458  27.293  27.466  1.00  0.00    -0.354 N 
ATOM     41  C   UNL A   1      40.082  29.102  29.449  1.00  0.00     0.074 A 
ATOM     42  C   UNL A   1      38.958  28.192  29.505  1.00  0.00     0.031 C 
ATOM     43  C   UNL A   1      44.548  25.707  26.326  1.00  0.00     0.029 A 
ATOM     44  C   UNL A   1      44.659  27.069  26.836  1.00  0.00     0.049 A 
ATOM     45  H   UNL A   1      43.246  28.128  27.943  1.00  0.00     0.167 HD
ATOM     46  C   UNL A   1      40.082  30.354  29.967  1.00  0.00     0.037 A 
ATOM     47  C   UNL A   1      45.722  27.877  26.668  1.00  0.00     0.037 A 
ATOM     48  C   UNL A   1      41.210  31.249  29.933  1.00  0.00     0.049 A 
ATOM     49  C   UNL A   1      45.687  29.271  27.230  1.00  0.00     0.074 A 
ATOM     50  C   UNL A   1      41.332  32.505  30.502  1.00  0.00     0.029 A 
ATOM     51  N   UNL A   1      42.409  30.985  29.289  1.00  0.00    -0.354 N 
ATOM     52  N   UNL A   1      44.734  29.865  27.904  1.00  0.00    -0.248 NA
ATOM     53  C   UNL A   1      46.873  30.110  27.003  1.00  0.00     0.031 C 
ATOM     54  C   UNL A   1      42.587  33.021  30.163  1.00  0.00     0.029 A 
ATOM     55  C   UNL A   1      43.265  32.069  29.419  1.00  0.00     0.049 A 
ATOM     56  H   UNL A   1      42.622  30.152  28.810  1.00  0.00     0.167 HD
ATOM     57  C   UNL A   1      45.208  31.136  28.195  1.00  0.00     0.074 A 
ATOM     58  C   UNL A   1      46.542  31.223  27.641  1.00  0.00     0.031 C 
ATOM     59  C   UNL A   1      44.589  32.143  28.858  1.00  0.00     0.037 A 
BRANCH  46  60
ATOM     60  C   UNL A   1      38.822  30.835  30.623  1.00  0.00     0.064 A 
ATOM     61  C   UNL A   1      37.793  31.437  29.881  1.00  0.00     0.173 A 
ATOM     62  C   UNL A   1      38.616  30.645  31.997  1.00  0.00     0.173 A 
ATOM     63  F   UNL A   1      37.944  31.648  28.566  1.00  0.00    -0.203 F 
ATOM     64  C   UNL A   1      36.617  31.855  30.498  1.00  0.00     0.198 A 
ATOM     65  C   UNL A   1      37.427  31.040  32.605  1.00  0.00     0.198 A 
ATOM     66  F   UNL A   1      39.564  30.066  32.750  1.00  0.00    -0.203 F 
ATOM     67  F   UNL A   1      35.665  32.464  29.777  1.00  0.00    -0.200 F 
ATOM     68  C   UNL A   1      36.431  31.650  31.857  1.00  0.00     0.200 A 
ATOM     69  F   UNL A   1      37.244  30.829  33.916  1.00  0.00    -0.200 F 
ATOM     70  F   UNL A   1      35.295  32.044  32.447  1.00  0.00    -0.200 F 
ENDBRANCH  46  60
BRANCH  47  71
ATOM     71  C   UNL A   1      46.918  27.387  25.933  1.00  0.00     0.064 A 
ATOM     72  C   UNL A   1      47.953  26.726  26.608  1.00  0.00     0.173 A 
ATOM     73  C   UNL A   1      47.054  27.573  24.550  1.00  0.00     0.173 A 
ATOM     74  F   UNL A   1      47.879  26.547  27.935  1.00  0.00    -0.203 F 
ATOM     75  C   UNL A   1      49.087  26.284  25.929  1.00  0.00     0.198 A 
ATOM     76  C   UNL A   1      48.176  27.106  23.868  1.00  0.00     0.198 A 
ATOM     77  F   UNL A   1      46.090  28.198  23.857  1.00  0.00    -0.203 F 
ATOM     78  F   UNL A   1      50.081  25.693  26.606  1.00  0.00    -0.200 F 
ATOM     79  C   UNL A   1      49.195  26.469  24.559  1.00  0.00     0.200 A 
ATOM     80  F   UNL A   1      48.270  27.276  22.542  1.00  0.00    -0.200 F 
ATOM     81  F   UNL A   1      50.284  26.040  23.907  1.00  0.00    -0.200 F 
ENDBRANCH  47  71
BRANCH  59  82
ATOM     82  C   UNL A   1      45.352  33.423  29.032  1.00  0.00     0.064 A 
ATOM     83  C   UNL A   1      45.236  34.474  28.110  1.00  0.00     0.173 A 
ATOM     84  C   UNL A   1      46.172  33.619  30.153  1.00  0.00     0.173 A 
ATOM     85  F   UNL A   1      44.478  34.327  27.013  1.00  0.00    -0.203 F 
ATOM     86  C   UNL A   1      45.924  35.668  28.298  1.00  0.00     0.198 A 
ATOM     87  C   UNL A   1      46.839  34.824  30.350  1.00  0.00     0.198 A 
ATOM     88  F   UNL A   1      46.315  32.645  31.065  1.00  0.00    -0.203 F 
ATOM     89  F   UNL A   1      45.828  36.645  27.385  1.00  0.00    -0.200 F 
ATOM     90  C   UNL A   1      46.718  35.846  29.421  1.00  0.00     0.200 A 
ATOM     91  F   UNL A   1      47.598  34.998  31.442  1.00  0.00    -0.200 F 
ATOM     92  F   UNL A   1      47.373  37.001  29.604  1.00  0.00    -0.200 F 
ENDBRANCH  59  82
ENDBRANCH  33  34
ENDBRANCH  25  28
ENDBRANCH  23  24
ENDBRANCH   1  23
TORSDOF 12
ENDMDL
