MODEL 1
REMARK VINA RESULT:     -13.0      0.000      0.000
REMARK SMILES Cc1cc(Nc2ccc(C(=O)NCCCCNC(=O)c3ccc(-c4c5nc(c(-c6c(F)c(F)c(F)c(F)c6F)c6ccc([nH]6)c(-c6c(F)c(F)c(F)c(F)c6F)c6nc(c(-c7c(F)c(F)c(F)c(F)c7F)c7ccc4[nH]7)C=C6)C=C5)cc3)cc2)nc(C(C)C)n1
REMARK SMILES IDX 14 1 13 2 12 3 10 4 11 5 9 7 6 8 7 9 84 10 8 11 83 12 5 13
REMARK SMILES IDX 4 15 1 16 2 17 3 18 90 19 86 20 85 21 87 22 88 23 89 24
REMARK SMILES IDX 15 25 16 26 17 27 18 28 19 30 20 31 21 32 82 33 22 34 81 35
REMARK SMILES IDX 23 36 24 37 25 38 75 39 26 40 80 41 74 42 76 43 27 44 79 45
REMARK SMILES IDX 73 46 72 47 28 49 60 50 40 51 59 52 41 53 44 54 58 55 77 56
REMARK SMILES IDX 42 57 43 58 57 60 78 61 45 62 29 63 30 64 38 65 31 66 32 67
REMARK SMILES IDX 36 68 39 69 33 70 34 71 37 72 35 73 61 74 62 75 70 76 63 77
REMARK SMILES IDX 64 78 68 79 71 80 65 81 66 82 69 83 67 84 46 85 47 86 55 87
REMARK SMILES IDX 48 88 49 89 53 90 56 91 50 92 51 93 54 94 52 95
REMARK H PARENT 12 6 5 14 17 29 76 48 44 59
REMARK Flexibility Score: inf
ROOT
ATOM      1  C   UNL A   1      37.177  21.040  24.644  1.00  0.00     0.023 C 
ENDROOT
BRANCH   1   2
ATOM      2  C   UNL A   1      35.870  21.061  25.441  1.00  0.00     0.116 C 
BRANCH   2   3
ATOM      3  N   UNL A   1      35.006  19.972  25.030  1.00  0.00    -0.352 N 
ATOM      4  C   UNL A   1      33.693  19.947  24.626  1.00  0.00     0.251 C 
ATOM      5  O   UNL A   1      33.214  18.858  24.310  1.00  0.00    -0.269 OA
ATOM      6  H   UNL A   1      35.438  19.087  25.044  1.00  0.00     0.163 HD
BRANCH   4   7
ATOM      7  C   UNL A   1      32.856  21.174  24.502  1.00  0.00     0.039 A 
ATOM      8  C   UNL A   1      31.140  23.417  24.400  1.00  0.00     0.040 A 
ATOM      9  C   UNL A   1      31.323  22.721  25.598  1.00  0.00     0.027 A 
ATOM     10  C   UNL A   1      31.842  23.000  23.269  1.00  0.00     0.027 A 
ATOM     11  C   UNL A   1      32.167  21.604  25.647  1.00  0.00     0.016 A 
ATOM     12  C   UNL A   1      32.729  21.923  23.333  1.00  0.00     0.016 A 
BRANCH   8  13
ATOM     13  N   UNL A   1      30.226  24.476  24.310  1.00  0.00    -0.340 N 
ATOM     14  H   UNL A   1      29.283  24.239  24.152  1.00  0.00     0.168 HD
BRANCH  13  15
ATOM     15  C   UNL A   1      30.529  25.847  24.427  1.00  0.00     0.134 A 
ATOM     16  C   UNL A   1      29.985  29.045  22.541  1.00  0.00     0.067 C 
ATOM     17  C   UNL A   1      30.394  28.044  23.579  1.00  0.00     0.043 A 
ATOM     18  C   UNL A   1      30.112  26.702  23.424  1.00  0.00     0.070 A 
ATOM     19  N   UNL A   1      31.062  28.520  24.646  1.00  0.00    -0.238 NA
ATOM     20  C   UNL A   1      31.435  27.625  25.579  1.00  0.00     0.133 A 
ATOM     21  N   UNL A   1      31.176  26.307  25.512  1.00  0.00    -0.216 NA
BRANCH  20  22
ATOM     22  C   UNL A   1      32.242  28.117  26.761  1.00  0.00     0.051 C 
ATOM     23  C   UNL A   1      33.738  27.934  26.501  1.00  0.00     0.016 C 
ATOM     24  C   UNL A   1      31.919  29.573  27.094  1.00  0.00     0.016 C 
ENDBRANCH  20  22
ENDBRANCH  13  15
ENDBRANCH   8  13
ENDBRANCH   4   7
ENDBRANCH   2   3
ENDBRANCH   1   2
BRANCH   1  25
ATOM     25  C   UNL A   1      38.090  19.856  24.972  1.00  0.00     0.023 C 
BRANCH  25  26
ATOM     26  C   UNL A   1      39.316  20.206  25.808  1.00  0.00     0.116 C 
BRANCH  26  27
ATOM     27  N   UNL A   1      40.280  19.122  25.893  1.00  0.00    -0.352 N 
ATOM     28  C   UNL A   1      41.635  19.191  26.125  1.00  0.00     0.251 C 
ATOM     29  H   UNL A   1      39.915  18.216  25.769  1.00  0.00     0.163 HD
ATOM     30  O   UNL A   1      42.329  18.192  26.062  1.00  0.00    -0.269 OA
BRANCH  28  31
ATOM     31  C   UNL A   1      42.247  20.507  26.409  1.00  0.00     0.039 A 
ATOM     32  C   UNL A   1      42.721  21.268  25.337  1.00  0.00     0.014 A 
ATOM     33  C   UNL A   1      42.330  20.994  27.716  1.00  0.00     0.014 A 
ATOM     34  C   UNL A   1      43.216  22.552  25.571  1.00  0.00     0.010 A 
ATOM     35  C   UNL A   1      42.762  22.298  27.939  1.00  0.00     0.010 A 
ATOM     36  C   UNL A   1      43.206  23.089  26.869  1.00  0.00    -0.014 A 
BRANCH  36  37
ATOM     37  C   UNL A   1      43.651  24.481  27.125  1.00  0.00     0.031 A 
ATOM     38  C   UNL A   1      42.671  25.505  27.621  1.00  0.00     0.074 A 
ATOM     39  C   UNL A   1      44.920  24.835  26.845  1.00  0.00     0.049 A 
ATOM     40  N   UNL A   1      42.846  26.785  27.831  1.00  0.00    -0.248 NA
ATOM     41  C   UNL A   1      41.304  25.033  27.890  1.00  0.00     0.031 C 
ATOM     42  C   UNL A   1      45.947  23.942  26.309  1.00  0.00     0.029 A 
ATOM     43  N   UNL A   1      45.556  26.046  26.957  1.00  0.00    -0.354 N 
ATOM     44  C   UNL A   1      41.614  27.271  28.245  1.00  0.00     0.074 A 
ATOM     45  C   UNL A   1      40.685  26.162  28.205  1.00  0.00     0.031 C 
ATOM     46  C   UNL A   1      47.089  24.632  26.151  1.00  0.00     0.029 A 
ATOM     47  C   UNL A   1      46.865  26.019  26.543  1.00  0.00     0.049 A 
ATOM     48  H   UNL A   1      45.116  26.856  27.301  1.00  0.00     0.167 HD
ATOM     49  C   UNL A   1      41.292  28.524  28.648  1.00  0.00     0.037 A 
ATOM     50  C   UNL A   1      47.779  27.007  26.480  1.00  0.00     0.037 A 
ATOM     51  C   UNL A   1      42.224  29.619  28.706  1.00  0.00     0.049 A 
ATOM     52  C   UNL A   1      47.398  28.388  26.937  1.00  0.00     0.074 A 
ATOM     53  C   UNL A   1      42.009  30.914  29.144  1.00  0.00     0.029 A 
ATOM     54  N   UNL A   1      43.552  29.547  28.311  1.00  0.00    -0.354 N 
ATOM     55  N   UNL A   1      46.245  28.823  27.389  1.00  0.00    -0.248 NA
ATOM     56  C   UNL A   1      48.446  29.417  26.883  1.00  0.00     0.031 C 
ATOM     57  C   UNL A   1      43.197  31.635  28.979  1.00  0.00     0.029 A 
ATOM     58  C   UNL A   1      44.164  30.778  28.482  1.00  0.00     0.049 A 
ATOM     59  H   UNL A   1      43.994  28.739  27.961  1.00  0.00     0.167 HD
ATOM     60  C   UNL A   1      46.436  30.162  27.698  1.00  0.00     0.074 A 
ATOM     61  C   UNL A   1      47.819  30.467  27.396  1.00  0.00     0.031 C 
ATOM     62  C   UNL A   1      45.545  31.060  28.184  1.00  0.00     0.037 A 
BRANCH  49  63
ATOM     63  C   UNL A   1      39.874  28.771  29.069  1.00  0.00     0.064 A 
ATOM     64  C   UNL A   1      38.902  29.201  28.152  1.00  0.00     0.173 A 
ATOM     65  C   UNL A   1      39.471  28.548  30.394  1.00  0.00     0.173 A 
ATOM     66  F   UNL A   1      39.238  29.441  26.875  1.00  0.00    -0.203 F 
ATOM     67  C   UNL A   1      37.587  29.426  28.552  1.00  0.00     0.198 A 
ATOM     68  C   UNL A   1      38.150  28.746  30.784  1.00  0.00     0.198 A 
ATOM     69  F   UNL A   1      40.358  28.133  31.310  1.00  0.00    -0.203 F 
ATOM     70  F   UNL A   1      36.690  29.884  27.669  1.00  0.00    -0.200 F 
ATOM     71  C   UNL A   1      37.211  29.192  29.866  1.00  0.00     0.200 A 
ATOM     72  F   UNL A   1      37.783  28.507  32.051  1.00  0.00    -0.200 F 
ATOM     73  F   UNL A   1      35.944  29.403  30.248  1.00  0.00    -0.200 F 
ENDBRANCH  49  63
BRANCH  50  74
ATOM     74  C   UNL A   1      49.149  26.719  25.984  1.00  0.00     0.064 A 
ATOM     75  C   UNL A   1      50.127  26.188  26.837  1.00  0.00     0.173 A 
ATOM     76  C   UNL A   1      49.509  26.968  24.652  1.00  0.00     0.173 A 
ATOM     77  F   UNL A   1      49.834  25.952  28.124  1.00  0.00    -0.203 F 
ATOM     78  C   UNL A   1      51.420  25.941  26.383  1.00  0.00     0.198 A 
ATOM     79  C   UNL A   1      50.796  26.693  24.192  1.00  0.00     0.198 A 
ATOM     80  F   UNL A   1      48.609  27.469  23.794  1.00  0.00    -0.203 F 
ATOM     81  F   UNL A   1      52.348  25.477  27.231  1.00  0.00    -0.200 F 
ATOM     82  C   UNL A   1      51.752  26.188  25.059  1.00  0.00     0.200 A 
ATOM     83  F   UNL A   1      51.109  26.920  22.909  1.00  0.00    -0.200 F 
ATOM     84  F   UNL A   1      52.995  25.946  24.622  1.00  0.00    -0.200 F 
ENDBRANCH  50  74
BRANCH  62  85
ATOM     85  C   UNL A   1      46.047  32.448  28.452  1.00  0.00     0.064 A 
ATOM     86  C   UNL A   1      45.977  33.456  27.480  1.00  0.00     0.173 A 
ATOM     87  C   UNL A   1      46.566  32.783  29.713  1.00  0.00     0.173 A 
ATOM     88  F   UNL A   1      45.504  33.180  26.256  1.00  0.00    -0.203 F 
ATOM     89  C   UNL A   1      46.431  34.744  27.752  1.00  0.00     0.198 A 
ATOM     90  C   UNL A   1      46.991  34.079  29.990  1.00  0.00     0.198 A 
ATOM     91  F   UNL A   1      46.647  31.857  30.679  1.00  0.00    -0.203 F 
ATOM     92  F   UNL A   1      46.397  35.680  26.794  1.00  0.00    -0.200 F 
ATOM     93  C   UNL A   1      46.930  35.056  29.008  1.00  0.00     0.200 A 
ATOM     94  F   UNL A   1      47.462  34.382  31.208  1.00  0.00    -0.200 F 
ATOM     95  F   UNL A   1      47.360  36.298  29.270  1.00  0.00    -0.200 F 
ENDBRANCH  62  85
ENDBRANCH  36  37
ENDBRANCH  28  31
ENDBRANCH  26  27
ENDBRANCH  25  26
ENDBRANCH   1  25
TORSDOF 14
ENDMDL
MODEL 2
REMARK VINA RESULT:     -12.9      5.603     10.086
REMARK SMILES Cc1cc(Nc2ccc(C(=O)NCCCCNC(=O)c3ccc(-c4c5nc(c(-c6c(F)c(F)c(F)c(F)c6F)c6ccc([nH]6)c(-c6c(F)c(F)c(F)c(F)c6F)c6nc(c(-c7c(F)c(F)c(F)c(F)c7F)c7ccc4[nH]7)C=C6)C=C5)cc3)cc2)nc(C(C)C)n1
REMARK SMILES IDX 14 1 13 2 12 3 10 4 11 5 9 7 6 8 7 9 84 10 8 11 83 12 5 13
REMARK SMILES IDX 4 15 1 16 2 17 3 18 90 19 86 20 85 21 87 22 88 23 89 24
REMARK SMILES IDX 15 25 16 26 17 27 18 28 19 30 20 31 21 32 82 33 22 34 81 35
REMARK SMILES IDX 23 36 24 37 25 38 75 39 26 40 80 41 74 42 76 43 27 44 79 45
REMARK SMILES IDX 73 46 72 47 28 49 60 50 40 51 59 52 41 53 44 54 58 55 77 56
REMARK SMILES IDX 42 57 43 58 57 60 78 61 45 62 29 63 30 64 38 65 31 66 32 67
REMARK SMILES IDX 36 68 39 69 33 70 34 71 37 72 35 73 61 74 62 75 70 76 63 77
REMARK SMILES IDX 64 78 68 79 71 80 65 81 66 82 69 83 67 84 46 85 47 86 55 87
REMARK SMILES IDX 48 88 49 89 53 90 56 91 50 92 51 93 54 94 52 95
REMARK H PARENT 12 6 5 14 17 29 76 48 44 59
REMARK Flexibility Score: inf
ROOT
ATOM      1  C   UNL A   1      31.753  30.475  26.764  1.00  0.00     0.023 C 
ENDROOT
BRANCH   1   2
ATOM      2  C   UNL A   1      31.989  29.931  25.353  1.00  0.00     0.116 C 
BRANCH   2   3
ATOM      3  N   UNL A   1      30.814  30.131  24.526  1.00  0.00    -0.352 N 
ATOM      4  C   UNL A   1      30.139  29.288  23.677  1.00  0.00     0.251 C 
ATOM      5  O   UNL A   1      29.140  29.731  23.110  1.00  0.00    -0.269 OA
ATOM      6  H   UNL A   1      30.430  31.036  24.583  1.00  0.00     0.163 HD
BRANCH   4   7
ATOM      7  C   UNL A   1      30.527  27.865  23.462  1.00  0.00     0.039 A 
ATOM      8  C   UNL A   1      31.272  25.208  22.856  1.00  0.00     0.040 A 
ATOM      9  C   UNL A   1      31.796  26.275  22.120  1.00  0.00     0.027 A 
ATOM     10  C   UNL A   1      30.401  25.485  23.909  1.00  0.00     0.027 A 
ATOM     11  C   UNL A   1      31.421  27.592  22.415  1.00  0.00     0.016 A 
ATOM     12  C   UNL A   1      30.073  26.801  24.241  1.00  0.00     0.016 A 
BRANCH   8  13
ATOM     13  N   UNL A   1      31.561  23.880  22.512  1.00  0.00    -0.340 N 
ATOM     14  H   UNL A   1      31.075  23.503  21.742  1.00  0.00     0.168 HD
BRANCH  13  15
ATOM     15  C   UNL A   1      32.482  23.035  23.163  1.00  0.00     0.134 A 
ATOM     16  C   UNL A   1      32.584  19.643  24.763  1.00  0.00     0.067 C 
ATOM     17  C   UNL A   1      32.971  20.988  24.228  1.00  0.00     0.043 A 
ATOM     18  C   UNL A   1      32.041  21.809  23.623  1.00  0.00     0.070 A 
ATOM     19  N   UNL A   1      34.256  21.355  24.389  1.00  0.00    -0.238 NA
ATOM     20  C   UNL A   1      34.609  22.563  23.915  1.00  0.00     0.133 A 
ATOM     21  N   UNL A   1      33.768  23.408  23.292  1.00  0.00    -0.216 NA
BRANCH  20  22
ATOM     22  C   UNL A   1      36.031  23.032  24.135  1.00  0.00     0.051 C 
ATOM     23  C   UNL A   1      36.117  23.914  25.381  1.00  0.00     0.016 C 
ATOM     24  C   UNL A   1      37.002  21.856  24.229  1.00  0.00     0.016 C 
ENDBRANCH  20  22
ENDBRANCH  13  15
ENDBRANCH   8  13
ENDBRANCH   4   7
ENDBRANCH   2   3
ENDBRANCH   1   2
BRANCH   1  25
ATOM     25  C   UNL A   1      31.510  31.986  26.818  1.00  0.00     0.023 C 
BRANCH  25  26
ATOM     26  C   UNL A   1      32.751  32.823  27.105  1.00  0.00     0.116 C 
BRANCH  26  27
ATOM     27  N   UNL A   1      32.442  34.170  27.557  1.00  0.00    -0.352 N 
ATOM     28  C   UNL A   1      33.028  34.893  28.570  1.00  0.00     0.251 C 
ATOM     29  H   UNL A   1      31.716  34.626  27.073  1.00  0.00     0.163 HD
ATOM     30  O   UNL A   1      32.582  35.979  28.899  1.00  0.00    -0.269 OA
BRANCH  28  31
ATOM     31  C   UNL A   1      34.183  34.314  29.289  1.00  0.00     0.039 A 
ATOM     32  C   UNL A   1      33.940  33.484  30.386  1.00  0.00     0.014 A 
ATOM     33  C   UNL A   1      35.492  34.567  28.868  1.00  0.00     0.014 A 
ATOM     34  C   UNL A   1      35.010  32.851  31.022  1.00  0.00     0.010 A 
ATOM     35  C   UNL A   1      36.550  33.884  29.460  1.00  0.00     0.010 A 
ATOM     36  C   UNL A   1      36.318  33.018  30.540  1.00  0.00    -0.014 A 
BRANCH  36  37
ATOM     37  C   UNL A   1      37.457  32.290  31.149  1.00  0.00     0.031 A 
ATOM     38  C   UNL A   1      37.952  32.674  32.515  1.00  0.00     0.074 A 
ATOM     39  C   UNL A   1      38.088  31.333  30.443  1.00  0.00     0.049 A 
ATOM     40  N   UNL A   1      38.978  32.212  33.184  1.00  0.00    -0.248 NA
ATOM     41  C   UNL A   1      37.211  33.738  33.209  1.00  0.00     0.031 C 
ATOM     42  C   UNL A   1      37.733  30.910  29.088  1.00  0.00     0.029 A 
ATOM     43  N   UNL A   1      39.171  30.552  30.763  1.00  0.00    -0.354 N 
ATOM     44  C   UNL A   1      39.010  32.934  34.369  1.00  0.00     0.074 A 
ATOM     45  C   UNL A   1      37.937  33.902  34.306  1.00  0.00     0.031 C 
ATOM     46  C   UNL A   1      38.574  29.938  28.697  1.00  0.00     0.029 A 
ATOM     47  C   UNL A   1      39.545  29.693  29.759  1.00  0.00     0.049 A 
ATOM     48  H   UNL A   1      39.635  30.604  31.629  1.00  0.00     0.167 HD
ATOM     49  C   UNL A   1      39.844  32.785  35.426  1.00  0.00     0.037 A 
ATOM     50  C   UNL A   1      40.562  28.812  29.701  1.00  0.00     0.037 A 
ATOM     51  C   UNL A   1      40.899  31.807  35.493  1.00  0.00     0.049 A 
ATOM     52  C   UNL A   1      41.472  28.663  30.889  1.00  0.00     0.074 A 
ATOM     53  C   UNL A   1      41.768  31.544  36.537  1.00  0.00     0.029 A 
ATOM     54  N   UNL A   1      41.227  30.930  34.469  1.00  0.00    -0.354 N 
ATOM     55  N   UNL A   1      41.454  29.307  32.032  1.00  0.00    -0.248 NA
ATOM     56  C   UNL A   1      42.540  27.659  30.784  1.00  0.00     0.031 C 
ATOM     57  C   UNL A   1      42.646  30.533  36.131  1.00  0.00     0.029 A 
ATOM     58  C   UNL A   1      42.295  30.135  34.852  1.00  0.00     0.049 A 
ATOM     59  H   UNL A   1      40.768  30.880  33.599  1.00  0.00     0.167 HD
ATOM     60  C   UNL A   1      42.485  28.770  32.789  1.00  0.00     0.074 A 
ATOM     61  C   UNL A   1      43.100  27.737  31.983  1.00  0.00     0.031 C 
ATOM     62  C   UNL A   1      42.888  29.104  34.039  1.00  0.00     0.037 A 
BRANCH  49  63
ATOM     63  C   UNL A   1      39.641  33.696  36.600  1.00  0.00     0.064 A 
ATOM     64  C   UNL A   1      38.831  33.323  37.685  1.00  0.00     0.173 A 
ATOM     65  C   UNL A   1      40.284  34.941  36.660  1.00  0.00     0.173 A 
ATOM     66  F   UNL A   1      38.184  32.148  37.671  1.00  0.00    -0.203 F 
ATOM     67  C   UNL A   1      38.650  34.175  38.771  1.00  0.00     0.198 A 
ATOM     68  C   UNL A   1      40.125  35.777  37.762  1.00  0.00     0.198 A 
ATOM     69  F   UNL A   1      41.073  35.344  35.654  1.00  0.00    -0.203 F 
ATOM     70  F   UNL A   1      37.833  33.818  39.771  1.00  0.00    -0.200 F 
ATOM     71  C   UNL A   1      39.303  35.397  38.812  1.00  0.00     0.200 A 
ATOM     72  F   UNL A   1      40.766  36.954  37.807  1.00  0.00    -0.200 F 
ATOM     73  F   UNL A   1      39.133  36.213  39.862  1.00  0.00    -0.200 F 
ENDBRANCH  49  63
BRANCH  50  74
ATOM     74  C   UNL A   1      40.760  27.988  28.481  1.00  0.00     0.064 A 
ATOM     75  C   UNL A   1      41.547  28.453  27.417  1.00  0.00     0.173 A 
ATOM     76  C   UNL A   1      40.166  26.725  28.350  1.00  0.00     0.173 A 
ATOM     77  F   UNL A   1      42.119  29.664  27.488  1.00  0.00    -0.203 F 
ATOM     78  C   UNL A   1      41.713  27.695  26.261  1.00  0.00     0.198 A 
ATOM     79  C   UNL A   1      40.357  25.955  27.204  1.00  0.00     0.198 A 
ATOM     80  F   UNL A   1      39.409  26.232  29.341  1.00  0.00    -0.203 F 
ATOM     81  F   UNL A   1      42.433  28.182  25.241  1.00  0.00    -0.200 F 
ATOM     82  C   UNL A   1      41.123  26.444  26.158  1.00  0.00     0.200 A 
ATOM     83  F   UNL A   1      39.797  24.742  27.114  1.00  0.00    -0.200 F 
ATOM     84  F   UNL A   1      41.287  25.713  25.047  1.00  0.00    -0.200 F 
ENDBRANCH  50  74
BRANCH  62  85
ATOM     85  C   UNL A   1      44.027  28.323  34.624  1.00  0.00     0.064 A 
ATOM     86  C   UNL A   1      45.355  28.756  34.502  1.00  0.00     0.173 A 
ATOM     87  C   UNL A   1      43.782  27.149  35.354  1.00  0.00     0.173 A 
ATOM     88  F   UNL A   1      45.642  29.863  33.801  1.00  0.00    -0.203 F 
ATOM     89  C   UNL A   1      46.400  28.028  35.066  1.00  0.00     0.198 A 
ATOM     90  C   UNL A   1      44.825  26.441  35.942  1.00  0.00     0.198 A 
ATOM     91  F   UNL A   1      42.528  26.697  35.506  1.00  0.00    -0.203 F 
ATOM     92  F   UNL A   1      47.665  28.435  34.898  1.00  0.00    -0.200 F 
ATOM     93  C   UNL A   1      46.133  26.876  35.792  1.00  0.00     0.200 A 
ATOM     94  F   UNL A   1      44.564  25.335  36.652  1.00  0.00    -0.200 F 
ATOM     95  F   UNL A   1      47.138  26.181  36.342  1.00  0.00    -0.200 F 
ENDBRANCH  62  85
ENDBRANCH  36  37
ENDBRANCH  28  31
ENDBRANCH  26  27
ENDBRANCH  25  26
ENDBRANCH   1  25
TORSDOF 14
ENDMDL
MODEL 3
REMARK VINA RESULT:     -12.9      5.754     11.298
REMARK SMILES Cc1cc(Nc2ccc(C(=O)NCCCCNC(=O)c3ccc(-c4c5nc(c(-c6c(F)c(F)c(F)c(F)c6F)c6ccc([nH]6)c(-c6c(F)c(F)c(F)c(F)c6F)c6nc(c(-c7c(F)c(F)c(F)c(F)c7F)c7ccc4[nH]7)C=C6)C=C5)cc3)cc2)nc(C(C)C)n1
REMARK SMILES IDX 14 1 13 2 12 3 10 4 11 5 9 7 6 8 7 9 84 10 8 11 83 12 5 13
REMARK SMILES IDX 4 15 1 16 2 17 3 18 90 19 86 20 85 21 87 22 88 23 89 24
REMARK SMILES IDX 15 25 16 26 17 27 18 28 19 30 20 31 21 32 82 33 22 34 81 35
REMARK SMILES IDX 23 36 24 37 25 38 75 39 26 40 80 41 74 42 76 43 27 44 79 45
REMARK SMILES IDX 73 46 72 47 28 49 60 50 40 51 59 52 41 53 44 54 58 55 77 56
REMARK SMILES IDX 42 57 43 58 57 60 78 61 45 62 29 63 30 64 38 65 31 66 32 67
REMARK SMILES IDX 36 68 39 69 33 70 34 71 37 72 35 73 61 74 62 75 70 76 63 77
REMARK SMILES IDX 64 78 68 79 71 80 65 81 66 82 69 83 67 84 46 85 47 86 55 87
REMARK SMILES IDX 48 88 49 89 53 90 56 91 50 92 51 93 54 94 52 95
REMARK H PARENT 12 6 5 14 17 29 76 48 44 59
REMARK Flexibility Score: inf
ROOT
ATOM      1  C   UNL A   1      31.765  30.356  26.597  1.00  0.00     0.023 C 
ENDROOT
BRANCH   1   2
ATOM      2  C   UNL A   1      32.044  29.688  25.249  1.00  0.00     0.116 C 
BRANCH   2   3
ATOM      3  N   UNL A   1      30.933  29.894  24.339  1.00  0.00    -0.352 N 
ATOM      4  C   UNL A   1      30.268  29.035  23.498  1.00  0.00     0.251 C 
ATOM      5  O   UNL A   1      29.329  29.491  22.844  1.00  0.00    -0.269 OA
ATOM      6  H   UNL A   1      30.595  30.818  24.319  1.00  0.00     0.163 HD
BRANCH   4   7
ATOM      7  C   UNL A   1      30.592  27.584  23.391  1.00  0.00     0.039 A 
ATOM      8  C   UNL A   1      31.216  24.858  22.986  1.00  0.00     0.040 A 
ATOM      9  C   UNL A   1      31.769  25.841  22.160  1.00  0.00     0.027 A 
ATOM     10  C   UNL A   1      30.376  25.254  24.027  1.00  0.00     0.027 A 
ATOM     11  C   UNL A   1      31.454  27.191  22.355  1.00  0.00     0.016 A 
ATOM     12  C   UNL A   1      30.110  26.605  24.258  1.00  0.00     0.016 A 
BRANCH   8  13
ATOM     13  N   UNL A   1      31.443  23.496  22.744  1.00  0.00    -0.340 N 
ATOM     14  H   UNL A   1      30.902  23.072  22.039  1.00  0.00     0.168 HD
BRANCH  13  15
ATOM     15  C   UNL A   1      32.375  22.678  23.414  1.00  0.00     0.134 A 
ATOM     16  C   UNL A   1      32.541  19.289  25.016  1.00  0.00     0.067 C 
ATOM     17  C   UNL A   1      32.901  20.646  24.489  1.00  0.00     0.043 A 
ATOM     18  C   UNL A   1      31.959  21.439  23.865  1.00  0.00     0.070 A 
ATOM     19  N   UNL A   1      34.171  21.049  24.676  1.00  0.00    -0.238 NA
ATOM     20  C   UNL A   1      34.498  22.267  24.209  1.00  0.00     0.133 A 
ATOM     21  N   UNL A   1      33.646  23.088  23.570  1.00  0.00    -0.216 NA
BRANCH  20  22
ATOM     22  C   UNL A   1      35.901  22.777  24.459  1.00  0.00     0.051 C 
ATOM     23  C   UNL A   1      36.648  22.960  23.137  1.00  0.00     0.016 C 
ATOM     24  C   UNL A   1      35.891  24.075  25.266  1.00  0.00     0.016 C 
ENDBRANCH  20  22
ENDBRANCH  13  15
ENDBRANCH   8  13
ENDBRANCH   4   7
ENDBRANCH   2   3
ENDBRANCH   1   2
BRANCH   1  25
ATOM     25  C   UNL A   1      31.668  31.883  26.529  1.00  0.00     0.023 C 
BRANCH  25  26
ATOM     26  C   UNL A   1      32.783  32.627  27.257  1.00  0.00     0.116 C 
BRANCH  26  27
ATOM     27  N   UNL A   1      32.435  33.999  27.587  1.00  0.00    -0.352 N 
ATOM     28  C   UNL A   1      33.001  34.827  28.529  1.00  0.00     0.251 C 
ATOM     29  H   UNL A   1      31.695  34.388  27.068  1.00  0.00     0.163 HD
ATOM     30  O   UNL A   1      32.524  35.925  28.761  1.00  0.00    -0.269 OA
BRANCH  28  31
ATOM     31  C   UNL A   1      34.174  34.350  29.292  1.00  0.00     0.039 A 
ATOM     32  C   UNL A   1      33.961  33.721  30.521  1.00  0.00     0.014 A 
ATOM     33  C   UNL A   1      35.469  34.496  28.786  1.00  0.00     0.014 A 
ATOM     34  C   UNL A   1      35.045  33.178  31.214  1.00  0.00     0.010 A 
ATOM     35  C   UNL A   1      36.538  33.897  29.445  1.00  0.00     0.010 A 
ATOM     36  C   UNL A   1      36.335  33.231  30.662  1.00  0.00    -0.014 A 
BRANCH  36  37
ATOM     37  C   UNL A   1      37.486  32.588  31.343  1.00  0.00     0.031 A 
ATOM     38  C   UNL A   1      38.199  31.438  30.691  1.00  0.00     0.074 A 
ATOM     39  C   UNL A   1      37.841  32.996  32.576  1.00  0.00     0.049 A 
ATOM     40  N   UNL A   1      39.172  30.697  31.156  1.00  0.00    -0.248 NA
ATOM     41  C   UNL A   1      37.737  31.051  29.349  1.00  0.00     0.031 C 
ATOM     42  C   UNL A   1      37.190  34.066  33.332  1.00  0.00     0.029 A 
ATOM     43  N   UNL A   1      38.828  32.546  33.418  1.00  0.00    -0.354 N 
ATOM     44  C   UNL A   1      39.431  29.754  30.171  1.00  0.00     0.074 A 
ATOM     45  C   UNL A   1      38.478  29.979  29.107  1.00  0.00     0.031 C 
ATOM     46  C   UNL A   1      37.803  34.200  34.520  1.00  0.00     0.029 A 
ATOM     47  C   UNL A   1      38.866  33.206  34.622  1.00  0.00     0.049 A 
ATOM     48  H   UNL A   1      39.449  31.821  33.180  1.00  0.00     0.167 HD
ATOM     49  C   UNL A   1      40.395  28.802  30.145  1.00  0.00     0.037 A 
ATOM     50  C   UNL A   1      39.665  33.021  35.690  1.00  0.00     0.037 A 
ATOM     51  C   UNL A   1      41.355  28.594  31.198  1.00  0.00     0.049 A 
ATOM     52  C   UNL A   1      40.730  31.961  35.635  1.00  0.00     0.074 A 
ATOM     53  C   UNL A   1      42.399  27.688  31.248  1.00  0.00     0.029 A 
ATOM     54  N   UNL A   1      41.384  29.304  32.390  1.00  0.00    -0.354 N 
ATOM     55  N   UNL A   1      41.009  31.116  34.670  1.00  0.00    -0.248 NA
ATOM     56  C   UNL A   1      41.598  31.831  36.814  1.00  0.00     0.031 C 
ATOM     57  C   UNL A   1      43.038  27.825  32.485  1.00  0.00     0.029 A 
ATOM     58  C   UNL A   1      42.421  28.846  33.187  1.00  0.00     0.049 A 
ATOM     59  H   UNL A   1      40.761  30.026  32.633  1.00  0.00     0.167 HD
ATOM     60  C   UNL A   1      42.096  30.376  35.113  1.00  0.00     0.074 A 
ATOM     61  C   UNL A   1      42.438  30.881  36.426  1.00  0.00     0.031 C 
ATOM     62  C   UNL A   1      42.752  29.367  34.489  1.00  0.00     0.037 A 
BRANCH  49  63
ATOM     63  C   UNL A   1      40.464  27.921  28.934  1.00  0.00     0.064 A 
ATOM     64  C   UNL A   1      41.274  28.249  27.835  1.00  0.00     0.173 A 
ATOM     65  C   UNL A   1      39.739  26.721  28.878  1.00  0.00     0.173 A 
ATOM     66  F   UNL A   1      41.978  29.391  27.832  1.00  0.00    -0.203 F 
ATOM     67  C   UNL A   1      41.333  27.424  26.715  1.00  0.00     0.198 A 
ATOM     68  C   UNL A   1      39.824  25.884  27.770  1.00  0.00     0.198 A 
ATOM     69  F   UNL A   1      38.954  26.358  29.902  1.00  0.00    -0.203 F 
ATOM     70  F   UNL A   1      42.074  27.783  25.659  1.00  0.00    -0.200 F 
ATOM     71  C   UNL A   1      40.614  26.239  26.686  1.00  0.00     0.200 A 
ATOM     72  F   UNL A   1      39.138  24.732  27.747  1.00  0.00    -0.200 F 
ATOM     73  F   UNL A   1      40.676  25.442  25.610  1.00  0.00    -0.200 F 
ENDBRANCH  49  63
BRANCH  50  74
ATOM     74  C   UNL A   1      39.502  33.876  36.893  1.00  0.00     0.064 A 
ATOM     75  C   UNL A   1      38.728  33.449  37.981  1.00  0.00     0.173 A 
ATOM     76  C   UNL A   1      40.112  35.136  36.981  1.00  0.00     0.173 A 
ATOM     77  F   UNL A   1      38.109  32.260  37.935  1.00  0.00    -0.203 F 
ATOM     78  C   UNL A   1      38.551  34.258  39.101  1.00  0.00     0.198 A 
ATOM     79  C   UNL A   1      39.957  35.932  38.114  1.00  0.00     0.198 A 
ATOM     80  F   UNL A   1      40.868  35.588  35.971  1.00  0.00    -0.203 F 
ATOM     81  F   UNL A   1      37.768  33.844  40.107  1.00  0.00    -0.200 F 
ATOM     82  C   UNL A   1      39.171  35.497  39.169  1.00  0.00     0.200 A 
ATOM     83  F   UNL A   1      40.568  37.123  38.182  1.00  0.00    -0.200 F 
ATOM     84  F   UNL A   1      39.003  36.273  40.248  1.00  0.00    -0.200 F 
ENDBRANCH  50  74
BRANCH  62  85
ATOM     85  C   UNL A   1      43.924  28.765  35.204  1.00  0.00     0.064 A 
ATOM     86  C   UNL A   1      43.775  27.677  36.075  1.00  0.00     0.173 A 
ATOM     87  C   UNL A   1      45.220  29.258  34.981  1.00  0.00     0.173 A 
ATOM     88  F   UNL A   1      42.555  27.181  36.332  1.00  0.00    -0.203 F 
ATOM     89  C   UNL A   1      44.877  27.118  36.718  1.00  0.00     0.198 A 
ATOM     90  C   UNL A   1      46.322  28.678  35.602  1.00  0.00     0.198 A 
ATOM     91  F   UNL A   1      45.417  30.293  34.152  1.00  0.00    -0.203 F 
ATOM     92  F   UNL A   1      44.706  26.108  37.581  1.00  0.00    -0.200 F 
ATOM     93  C   UNL A   1      46.150  27.614  36.474  1.00  0.00     0.200 A 
ATOM     94  F   UNL A   1      47.552  29.151  35.357  1.00  0.00    -0.200 F 
ATOM     95  F   UNL A   1      47.210  27.070  37.087  1.00  0.00    -0.200 F 
ENDBRANCH  62  85
ENDBRANCH  36  37
ENDBRANCH  28  31
ENDBRANCH  26  27
ENDBRANCH  25  26
ENDBRANCH   1  25
TORSDOF 14
ENDMDL
