MODEL 1
REMARK VINA RESULT:     -12.1      0.000      0.000
REMARK SMILES C[C@](O)(C(=O)NCCCCNC(=O)c1ccc(-c2c3nc(c(-c4c(F)c(F)c(F)c(F)c4F)c4ccc([nH]4)c(-c4c(F)c(F)c(F)c(F)c4F)c4nc(c(-c5c(F)c(F)c(F)c(F)c5F)c5ccc2[nH]5)C=C4)C=C3)cc1)c1ccc(O)cc1
REMARK SMILES IDX 8 1 7 2 6 3 4 4 5 5 2 7 1 8 77 9 78 10 83 11 79 12 82 13
REMARK SMILES IDX 80 14 81 15 3 17 9 19 10 20 11 21 12 22 13 24 14 25 15 26
REMARK SMILES IDX 76 27 16 28 75 29 17 30 18 31 19 32 69 33 20 34 74 35 68 36
REMARK SMILES IDX 70 37 21 38 73 39 67 40 66 41 22 43 54 44 34 45 53 46 35 47
REMARK SMILES IDX 38 48 52 49 71 50 36 51 37 52 51 54 72 55 39 56 23 57 24 58
REMARK SMILES IDX 32 59 25 60 26 61 30 62 33 63 27 64 28 65 31 66 29 67 55 68
REMARK SMILES IDX 56 69 64 70 57 71 58 72 62 73 65 74 59 75 60 76 63 77 61 78
REMARK SMILES IDX 40 79 41 80 49 81 42 82 43 83 47 84 50 85 44 86 45 87 48 88
REMARK SMILES IDX 46 89
REMARK H PARENT 6 6 81 16 3 18 11 23 70 42 38 53
REMARK Flexibility Score: inf
ROOT
ATOM      1  C   UNL A   1      31.778  30.516  26.753  1.00  0.00     0.023 C 
ENDROOT
BRANCH   1   2
ATOM      2  C   UNL A   1      31.895  30.073  25.295  1.00  0.00     0.116 C 
BRANCH   2   3
ATOM      3  N   UNL A   1      32.700  28.872  25.188  1.00  0.00    -0.353 N 
ATOM      4  C   UNL A   1      32.756  27.864  24.266  1.00  0.00     0.256 C 
ATOM      5  O   UNL A   1      33.447  26.902  24.614  1.00  0.00    -0.271 OA
ATOM      6  H   UNL A   1      33.335  28.759  25.932  1.00  0.00     0.163 HD
BRANCH   4   7
ATOM      7  C   UNL A   1      32.007  27.969  22.882  1.00  0.00     0.165 C 
ATOM      8  C   UNL A   1      32.288  26.721  22.028  1.00  0.00     0.058 C 
BRANCH   7   9
ATOM      9  C   UNL A   1      30.473  28.103  22.992  1.00  0.00    -0.007 A 
ATOM     10  C   UNL A   1      29.829  29.218  22.411  1.00  0.00     0.011 A 
ATOM     11  C   UNL A   1      29.652  27.116  23.566  1.00  0.00     0.011 A 
ATOM     12  C   UNL A   1      28.441  29.360  22.442  1.00  0.00     0.046 A 
ATOM     13  C   UNL A   1      28.261  27.268  23.621  1.00  0.00     0.046 A 
ATOM     14  C   UNL A   1      27.668  28.392  23.060  1.00  0.00     0.115 A 
BRANCH  14  15
ATOM     15  O   UNL A   1      26.318  28.576  23.091  1.00  0.00    -0.508 OA
ATOM     16  H   UNL A   1      25.908  28.905  23.866  1.00  0.00     0.293 HD
ENDBRANCH  14  15
ENDBRANCH   7   9
BRANCH   7  17
ATOM     17  O   UNL A   1      32.463  29.127  22.166  1.00  0.00    -0.376 OA
ATOM     18  H   UNL A   1      33.292  28.917  21.708  1.00  0.00     0.212 HD
ENDBRANCH   7  17
ENDBRANCH   4   7
ENDBRANCH   2   3
ENDBRANCH   1   2
BRANCH   1  19
ATOM     19  C   UNL A   1      31.540  32.016  26.945  1.00  0.00     0.023 C 
BRANCH  19  20
ATOM     20  C   UNL A   1      32.780  32.827  27.308  1.00  0.00     0.116 C 
BRANCH  20  21
ATOM     21  N   UNL A   1      32.472  34.207  27.650  1.00  0.00    -0.352 N 
ATOM     22  C   UNL A   1      33.043  35.006  28.609  1.00  0.00     0.251 C 
ATOM     23  H   UNL A   1      31.757  34.626  27.120  1.00  0.00     0.163 HD
ATOM     24  O   UNL A   1      32.568  36.110  28.858  1.00  0.00    -0.269 OA
BRANCH  22  25
ATOM     25  C   UNL A   1      34.214  34.516  29.366  1.00  0.00     0.039 A 
ATOM     26  C   UNL A   1      34.008  33.915  30.610  1.00  0.00     0.014 A 
ATOM     27  C   UNL A   1      35.503  34.628  28.839  1.00  0.00     0.014 A 
ATOM     28  C   UNL A   1      35.091  33.363  31.295  1.00  0.00     0.010 A 
ATOM     29  C   UNL A   1      36.568  34.012  29.487  1.00  0.00     0.010 A 
ATOM     30  C   UNL A   1      36.374  33.373  30.721  1.00  0.00    -0.014 A 
BRANCH  30  31
ATOM     31  C   UNL A   1      37.521  32.715  31.394  1.00  0.00     0.031 A 
ATOM     32  C   UNL A   1      38.238  31.575  30.726  1.00  0.00     0.074 A 
ATOM     33  C   UNL A   1      37.876  33.102  32.636  1.00  0.00     0.049 A 
ATOM     34  N   UNL A   1      39.214  30.831  31.180  1.00  0.00    -0.248 NA
ATOM     35  C   UNL A   1      37.776  31.204  29.380  1.00  0.00     0.031 C 
ATOM     36  C   UNL A   1      37.228  34.164  33.409  1.00  0.00     0.029 A 
ATOM     37  N   UNL A   1      38.861  32.638  33.472  1.00  0.00    -0.354 N 
ATOM     38  C   UNL A   1      39.472  29.898  30.184  1.00  0.00     0.074 A 
ATOM     39  C   UNL A   1      38.515  30.134  29.126  1.00  0.00     0.031 C 
ATOM     40  C   UNL A   1      37.848  34.287  34.593  1.00  0.00     0.029 A 
ATOM     41  C   UNL A   1      38.908  33.288  34.682  1.00  0.00     0.049 A 
ATOM     42  H   UNL A   1      39.476  31.909  33.227  1.00  0.00     0.167 HD
ATOM     43  C   UNL A   1      40.435  28.946  30.147  1.00  0.00     0.037 A 
ATOM     44  C   UNL A   1      39.712  33.092  35.745  1.00  0.00     0.037 A 
ATOM     45  C   UNL A   1      41.401  28.733  31.193  1.00  0.00     0.049 A 
ATOM     46  C   UNL A   1      40.766  32.020  35.680  1.00  0.00     0.074 A 
ATOM     47  C   UNL A   1      42.457  27.839  31.221  1.00  0.00     0.029 A 
ATOM     48  N   UNL A   1      41.426  29.419  32.397  1.00  0.00    -0.354 N 
ATOM     49  N   UNL A   1      41.049  31.194  34.703  1.00  0.00    -0.248 NA
ATOM     50  C   UNL A   1      41.616  31.856  36.869  1.00  0.00     0.031 C 
ATOM     51  C   UNL A   1      43.087  27.946  32.464  1.00  0.00     0.029 A 
ATOM     52  C   UNL A   1      42.463  28.949  33.188  1.00  0.00     0.049 A 
ATOM     53  H   UNL A   1      40.800  30.134  32.654  1.00  0.00     0.167 HD
ATOM     54  C   UNL A   1      42.128  30.438  35.142  1.00  0.00     0.074 A 
ATOM     55  C   UNL A   1      42.457  30.913  36.469  1.00  0.00     0.031 C 
ATOM     56  C   UNL A   1      42.786  29.440  34.503  1.00  0.00     0.037 A 
BRANCH  43  57
ATOM     57  C   UNL A   1      40.494  28.062  28.935  1.00  0.00     0.064 A 
ATOM     58  C   UNL A   1      39.784  26.854  28.867  1.00  0.00     0.173 A 
ATOM     59  C   UNL A   1      41.236  28.449  27.808  1.00  0.00     0.173 A 
ATOM     60  F   UNL A   1      39.068  26.431  29.921  1.00  0.00    -0.203 F 
ATOM     61  C   UNL A   1      39.838  26.053  27.730  1.00  0.00     0.198 A 
ATOM     62  C   UNL A   1      41.261  27.661  26.660  1.00  0.00     0.198 A 
ATOM     63  F   UNL A   1      41.929  29.597  27.816  1.00  0.00    -0.203 F 
ATOM     64  F   UNL A   1      39.191  24.879  27.708  1.00  0.00    -0.200 F 
ATOM     65  C   UNL A   1      40.569  26.461  26.624  1.00  0.00     0.200 A 
ATOM     66  F   UNL A   1      41.956  28.065  25.587  1.00  0.00    -0.200 F 
ATOM     67  F   UNL A   1      40.610  25.694  25.526  1.00  0.00    -0.200 F 
ENDBRANCH  43  57
BRANCH  44  68
ATOM     68  C   UNL A   1      39.568  33.945  36.955  1.00  0.00     0.064 A 
ATOM     69  C   UNL A   1      38.802  33.519  38.049  1.00  0.00     0.173 A 
ATOM     70  C   UNL A   1      40.176  35.206  37.037  1.00  0.00     0.173 A 
ATOM     71  F   UNL A   1      38.184  32.328  38.010  1.00  0.00    -0.203 F 
ATOM     72  C   UNL A   1      38.627  34.331  39.167  1.00  0.00     0.198 A 
ATOM     73  C   UNL A   1      40.027  36.005  38.170  1.00  0.00     0.198 A 
ATOM     74  F   UNL A   1      40.924  35.660  36.021  1.00  0.00    -0.203 F 
ATOM     75  F   UNL A   1      37.846  33.919  40.175  1.00  0.00    -0.200 F 
ATOM     76  C   UNL A   1      39.244  35.570  39.229  1.00  0.00     0.200 A 
ATOM     77  F   UNL A   1      40.636  37.196  38.232  1.00  0.00    -0.200 F 
ATOM     78  F   UNL A   1      39.077  36.351  40.306  1.00  0.00    -0.200 F 
ENDBRANCH  44  68
BRANCH  56  79
ATOM     79  C   UNL A   1      43.957  28.822  35.212  1.00  0.00     0.064 A 
ATOM     80  C   UNL A   1      43.807  27.716  36.060  1.00  0.00     0.173 A 
ATOM     81  C   UNL A   1      45.253  29.321  35.005  1.00  0.00     0.173 A 
ATOM     82  F   UNL A   1      42.589  27.210  36.302  1.00  0.00    -0.203 F 
ATOM     83  C   UNL A   1      44.908  27.149  36.699  1.00  0.00     0.198 A 
ATOM     84  C   UNL A   1      46.355  28.730  35.617  1.00  0.00     0.198 A 
ATOM     85  F   UNL A   1      45.453  30.373  34.197  1.00  0.00    -0.203 F 
ATOM     86  F   UNL A   1      44.735  26.124  37.545  1.00  0.00    -0.200 F 
ATOM     87  C   UNL A   1      46.180  27.651  36.470  1.00  0.00     0.200 A 
ATOM     88  F   UNL A   1      47.585  29.207  35.383  1.00  0.00    -0.200 F 
ATOM     89  F   UNL A   1      47.239  27.098  37.078  1.00  0.00    -0.200 F 
ENDBRANCH  56  79
ENDBRANCH  30  31
ENDBRANCH  22  25
ENDBRANCH  20  21
ENDBRANCH  19  20
ENDBRANCH   1  19
TORSDOF 14
ENDMDL
MODEL 2
REMARK VINA RESULT:     -12.0      6.477     11.772
REMARK SMILES C[C@](O)(C(=O)NCCCCNC(=O)c1ccc(-c2c3nc(c(-c4c(F)c(F)c(F)c(F)c4F)c4ccc([nH]4)c(-c4c(F)c(F)c(F)c(F)c4F)c4nc(c(-c5c(F)c(F)c(F)c(F)c5F)c5ccc2[nH]5)C=C4)C=C3)cc1)c1ccc(O)cc1
REMARK SMILES IDX 8 1 7 2 6 3 4 4 5 5 2 7 1 8 77 9 78 10 83 11 79 12 82 13
REMARK SMILES IDX 80 14 81 15 3 17 9 19 10 20 11 21 12 22 13 24 14 25 15 26
REMARK SMILES IDX 76 27 16 28 75 29 17 30 18 31 19 32 69 33 20 34 74 35 68 36
REMARK SMILES IDX 70 37 21 38 73 39 67 40 66 41 22 43 54 44 34 45 53 46 35 47
REMARK SMILES IDX 38 48 52 49 71 50 36 51 37 52 51 54 72 55 39 56 23 57 24 58
REMARK SMILES IDX 32 59 25 60 26 61 30 62 33 63 27 64 28 65 31 66 29 67 55 68
REMARK SMILES IDX 56 69 64 70 57 71 58 72 62 73 65 74 59 75 60 76 63 77 61 78
REMARK SMILES IDX 40 79 41 80 49 81 42 82 43 83 47 84 50 85 44 86 45 87 48 88
REMARK SMILES IDX 46 89
REMARK H PARENT 6 6 81 16 3 18 11 23 70 42 38 53
REMARK Flexibility Score: inf
ROOT
ATOM      1  C   UNL A   1      37.343  20.997  24.633  1.00  0.00     0.023 C 
ENDROOT
BRANCH   1   2
ATOM      2  C   UNL A   1      35.911  20.914  25.163  1.00  0.00     0.116 C 
BRANCH   2   3
ATOM      3  N   UNL A   1      35.345  22.239  25.317  1.00  0.00    -0.353 N 
ATOM      4  C   UNL A   1      34.076  22.692  25.549  1.00  0.00     0.256 C 
ATOM      5  O   UNL A   1      33.949  23.915  25.432  1.00  0.00    -0.271 OA
ATOM      6  H   UNL A   1      36.011  22.961  25.237  1.00  0.00     0.163 HD
BRANCH   4   7
ATOM      7  C   UNL A   1      32.910  21.709  25.950  1.00  0.00     0.165 C 
ATOM      8  C   UNL A   1      31.595  22.487  26.127  1.00  0.00     0.058 C 
BRANCH   7   9
ATOM      9  C   UNL A   1      32.636  20.588  24.926  1.00  0.00    -0.007 A 
ATOM     10  C   UNL A   1      32.406  20.924  23.573  1.00  0.00     0.011 A 
ATOM     11  C   UNL A   1      32.695  19.220  25.246  1.00  0.00     0.011 A 
ATOM     12  C   UNL A   1      32.201  19.944  22.600  1.00  0.00     0.046 A 
ATOM     13  C   UNL A   1      32.465  18.235  24.276  1.00  0.00     0.046 A 
ATOM     14  C   UNL A   1      32.217  18.608  22.962  1.00  0.00     0.115 A 
BRANCH  14  15
ATOM     15  O   UNL A   1      31.989  17.681  21.989  1.00  0.00    -0.508 OA
ATOM     16  H   UNL A   1      32.698  17.167  21.656  1.00  0.00     0.293 HD
ENDBRANCH  14  15
ENDBRANCH   7   9
BRANCH   7  17
ATOM     17  O   UNL A   1      33.226  21.055  27.189  1.00  0.00    -0.376 OA
ATOM     18  H   UNL A   1      33.242  21.710  27.905  1.00  0.00     0.212 HD
ENDBRANCH   7  17
ENDBRANCH   4   7
ENDBRANCH   2   3
ENDBRANCH   1   2
BRANCH   1  19
ATOM     19  C   UNL A   1      38.219  19.790  24.978  1.00  0.00     0.023 C 
BRANCH  19  20
ATOM     20  C   UNL A   1      39.373  20.079  25.932  1.00  0.00     0.116 C 
BRANCH  20  21
ATOM     21  N   UNL A   1      40.374  19.024  25.945  1.00  0.00    -0.352 N 
ATOM     22  C   UNL A   1      41.734  19.126  26.094  1.00  0.00     0.251 C 
ATOM     23  H   UNL A   1      40.027  18.110  25.832  1.00  0.00     0.163 HD
ATOM     24  O   UNL A   1      42.450  18.140  25.943  1.00  0.00    -0.269 OA
BRANCH  22  25
ATOM     25  C   UNL A   1      42.338  20.438  26.404  1.00  0.00     0.039 A 
ATOM     26  C   UNL A   1      42.804  21.231  25.352  1.00  0.00     0.014 A 
ATOM     27  C   UNL A   1      42.422  20.893  27.722  1.00  0.00     0.014 A 
ATOM     28  C   UNL A   1      43.291  22.511  25.617  1.00  0.00     0.010 A 
ATOM     29  C   UNL A   1      42.837  22.196  27.976  1.00  0.00     0.010 A 
ATOM     30  C   UNL A   1      43.275  23.019  26.928  1.00  0.00    -0.014 A 
BRANCH  30  31
ATOM     31  C   UNL A   1      43.708  24.408  27.218  1.00  0.00     0.031 A 
ATOM     32  C   UNL A   1      42.722  25.412  27.747  1.00  0.00     0.074 A 
ATOM     33  C   UNL A   1      44.973  24.783  26.942  1.00  0.00     0.049 A 
ATOM     34  N   UNL A   1      42.890  26.686  27.997  1.00  0.00    -0.248 NA
ATOM     35  C   UNL A   1      41.358  24.926  28.003  1.00  0.00     0.031 C 
ATOM     36  C   UNL A   1      46.010  23.915  26.382  1.00  0.00     0.029 A 
ATOM     37  N   UNL A   1      45.599  25.997  27.084  1.00  0.00    -0.354 N 
ATOM     38  C   UNL A   1      41.654  27.154  28.424  1.00  0.00     0.074 A 
ATOM     39  C   UNL A   1      40.732  26.042  28.348  1.00  0.00     0.031 C 
ATOM     40  C   UNL A   1      47.148  24.615  26.252  1.00  0.00     0.029 A 
ATOM     41  C   UNL A   1      46.911  25.990  26.679  1.00  0.00     0.049 A 
ATOM     42  H   UNL A   1      45.149  26.796  27.443  1.00  0.00     0.167 HD
ATOM     43  C   UNL A   1      41.325  28.392  28.861  1.00  0.00     0.037 A 
ATOM     44  C   UNL A   1      47.819  26.986  26.648  1.00  0.00     0.037 A 
ATOM     45  C   UNL A   1      42.253  29.488  28.959  1.00  0.00     0.049 A 
ATOM     46  C   UNL A   1      47.422  28.355  27.130  1.00  0.00     0.074 A 
ATOM     47  C   UNL A   1      42.033  30.762  29.451  1.00  0.00     0.029 A 
ATOM     48  N   UNL A   1      43.578  29.441  28.552  1.00  0.00    -0.354 N 
ATOM     49  N   UNL A   1      46.271  28.767  27.602  1.00  0.00    -0.248 NA
ATOM     50  C   UNL A   1      48.455  29.400  27.077  1.00  0.00     0.031 C 
ATOM     51  C   UNL A   1      43.209  31.502  29.292  1.00  0.00     0.029 A 
ATOM     52  C   UNL A   1      44.180  30.673  28.756  1.00  0.00     0.049 A 
ATOM     53  H   UNL A   1      44.024  28.650  28.173  1.00  0.00     0.167 HD
ATOM     54  C   UNL A   1      46.449  30.102  27.934  1.00  0.00     0.074 A 
ATOM     55  C   UNL A   1      47.824  30.429  27.622  1.00  0.00     0.031 C 
ATOM     56  C   UNL A   1      45.554  30.980  28.451  1.00  0.00     0.037 A 
BRANCH  43  57
ATOM     57  C   UNL A   1      39.900  28.631  29.271  1.00  0.00     0.064 A 
ATOM     58  C   UNL A   1      39.462  28.405  30.585  1.00  0.00     0.173 A 
ATOM     59  C   UNL A   1      38.969  29.133  28.348  1.00  0.00     0.173 A 
ATOM     60  F   UNL A   1      40.309  27.915  31.504  1.00  0.00    -0.203 F 
ATOM     61  C   UNL A   1      38.141  28.646  30.952  1.00  0.00     0.198 A 
ATOM     62  C   UNL A   1      37.657  29.404  28.728  1.00  0.00     0.198 A 
ATOM     63  F   UNL A   1      39.335  29.372  27.080  1.00  0.00    -0.203 F 
ATOM     64  F   UNL A   1      37.735  28.376  32.200  1.00  0.00    -0.200 F 
ATOM     65  C   UNL A   1      37.242  29.153  30.026  1.00  0.00     0.200 A 
ATOM     66  F   UNL A   1      36.793  29.908  27.834  1.00  0.00    -0.200 F 
ATOM     67  F   UNL A   1      35.974  29.394  30.384  1.00  0.00    -0.200 F 
ENDBRANCH  43  57
BRANCH  44  68
ATOM     68  C   UNL A   1      49.200  26.721  26.165  1.00  0.00     0.064 A 
ATOM     69  C   UNL A   1      49.550  26.949  24.826  1.00  0.00     0.173 A 
ATOM     70  C   UNL A   1      50.191  26.219  27.021  1.00  0.00     0.173 A 
ATOM     71  F   UNL A   1      48.632  27.409  23.963  1.00  0.00    -0.203 F 
ATOM     72  C   UNL A   1      50.830  26.661  24.357  1.00  0.00     0.198 A 
ATOM     73  C   UNL A   1      51.481  25.962  26.558  1.00  0.00     0.198 A 
ATOM     74  F   UNL A   1      49.911  25.989  28.312  1.00  0.00    -0.203 F 
ATOM     75  F   UNL A   1      51.122  26.839  23.061  1.00  0.00    -0.200 F 
ATOM     76  C   UNL A   1      51.796  26.174  25.224  1.00  0.00     0.200 A 
ATOM     77  F   UNL A   1      52.414  25.504  27.402  1.00  0.00    -0.200 F 
ATOM     78  F   UNL A   1      53.027  25.898  24.772  1.00  0.00    -0.200 F 
ENDBRANCH  44  68
BRANCH  56  79
ATOM     79  C   UNL A   1      46.044  32.367  28.753  1.00  0.00     0.064 A 
ATOM     80  C   UNL A   1      45.953  33.403  27.813  1.00  0.00     0.173 A 
ATOM     81  C   UNL A   1      46.573  32.671  30.018  1.00  0.00     0.173 A 
ATOM     82  F   UNL A   1      45.469  33.162  26.586  1.00  0.00    -0.203 F 
ATOM     83  C   UNL A   1      46.401  34.686  28.117  1.00  0.00     0.198 A 
ATOM     84  C   UNL A   1      46.988  33.962  30.330  1.00  0.00     0.198 A 
ATOM     85  F   UNL A   1      46.674  31.718  30.956  1.00  0.00    -0.203 F 
ATOM     86  F   UNL A   1      46.353  35.649  27.186  1.00  0.00    -0.200 F 
ATOM     87  C   UNL A   1      46.910  34.967  29.377  1.00  0.00     0.200 A 
ATOM     88  F   UNL A   1      47.464  34.235  31.553  1.00  0.00    -0.200 F 
ATOM     89  F   UNL A   1      47.332  36.204  29.671  1.00  0.00    -0.200 F 
ENDBRANCH  56  79
ENDBRANCH  30  31
ENDBRANCH  22  25
ENDBRANCH  20  21
ENDBRANCH  19  20
ENDBRANCH   1  19
TORSDOF 14
ENDMDL
MODEL 3
REMARK VINA RESULT:     -12.0      0.283      1.753
REMARK SMILES C[C@](O)(C(=O)NCCCCNC(=O)c1ccc(-c2c3nc(c(-c4c(F)c(F)c(F)c(F)c4F)c4ccc([nH]4)c(-c4c(F)c(F)c(F)c(F)c4F)c4nc(c(-c5c(F)c(F)c(F)c(F)c5F)c5ccc2[nH]5)C=C4)C=C3)cc1)c1ccc(O)cc1
REMARK SMILES IDX 8 1 7 2 6 3 4 4 5 5 2 7 1 8 77 9 78 10 83 11 79 12 82 13
REMARK SMILES IDX 80 14 81 15 3 17 9 19 10 20 11 21 12 22 13 24 14 25 15 26
REMARK SMILES IDX 76 27 16 28 75 29 17 30 18 31 19 32 69 33 20 34 74 35 68 36
REMARK SMILES IDX 70 37 21 38 73 39 67 40 66 41 22 43 54 44 34 45 53 46 35 47
REMARK SMILES IDX 38 48 52 49 71 50 36 51 37 52 51 54 72 55 39 56 23 57 24 58
REMARK SMILES IDX 32 59 25 60 26 61 30 62 33 63 27 64 28 65 31 66 29 67 55 68
REMARK SMILES IDX 56 69 64 70 57 71 58 72 62 73 65 74 59 75 60 76 63 77 61 78
REMARK SMILES IDX 40 79 41 80 49 81 42 82 43 83 47 84 50 85 44 86 45 87 48 88
REMARK SMILES IDX 46 89
REMARK H PARENT 6 6 81 16 3 18 11 23 70 42 38 53
REMARK Flexibility Score: inf
ROOT
ATOM      1  C   UNL A   1      31.642  30.525  26.578  1.00  0.00     0.023 C 
ENDROOT
BRANCH   1   2
ATOM      2  C   UNL A   1      32.869  30.121  25.762  1.00  0.00     0.116 C 
BRANCH   2   3
ATOM      3  N   UNL A   1      33.015  28.679  25.736  1.00  0.00    -0.353 N 
ATOM      4  C   UNL A   1      32.668  27.721  24.824  1.00  0.00     0.256 C 
ATOM      5  O   UNL A   1      32.788  26.565  25.240  1.00  0.00    -0.271 OA
ATOM      6  H   UNL A   1      33.454  28.316  26.539  1.00  0.00     0.163 HD
BRANCH   4   7
ATOM      7  C   UNL A   1      32.181  28.101  23.373  1.00  0.00     0.165 C 
ATOM      8  C   UNL A   1      32.588  27.007  22.371  1.00  0.00     0.058 C 
BRANCH   7   9
ATOM      9  C   UNL A   1      30.655  28.290  23.237  1.00  0.00    -0.007 A 
ATOM     10  C   UNL A   1      29.791  27.220  23.557  1.00  0.00     0.011 A 
ATOM     11  C   UNL A   1      30.058  29.518  22.898  1.00  0.00     0.011 A 
ATOM     12  C   UNL A   1      28.403  27.357  23.496  1.00  0.00     0.046 A 
ATOM     13  C   UNL A   1      28.666  29.651  22.813  1.00  0.00     0.046 A 
ATOM     14  C   UNL A   1      27.852  28.566  23.110  1.00  0.00     0.115 A 
BRANCH  14  15
ATOM     15  O   UNL A   1      26.493  28.655  23.040  1.00  0.00    -0.508 OA
ATOM     16  H   UNL A   1      26.088  29.465  22.802  1.00  0.00     0.293 HD
ENDBRANCH  14  15
ENDBRANCH   7   9
BRANCH   7  17
ATOM     17  O   UNL A   1      32.780  29.341  22.966  1.00  0.00    -0.376 OA
ATOM     18  H   UNL A   1      32.966  29.882  23.749  1.00  0.00     0.212 HD
ENDBRANCH   7  17
ENDBRANCH   4   7
ENDBRANCH   2   3
ENDBRANCH   1   2
BRANCH   1  19
ATOM     19  C   UNL A   1      31.453  32.035  26.738  1.00  0.00     0.023 C 
BRANCH  19  20
ATOM     20  C   UNL A   1      32.668  32.786  27.273  1.00  0.00     0.116 C 
BRANCH  20  21
ATOM     21  N   UNL A   1      32.374  34.172  27.606  1.00  0.00    -0.352 N 
ATOM     22  C   UNL A   1      32.962  34.975  28.551  1.00  0.00     0.251 C 
ATOM     23  H   UNL A   1      31.656  34.591  27.080  1.00  0.00     0.163 HD
ATOM     24  O   UNL A   1      32.498  36.084  28.796  1.00  0.00    -0.269 OA
BRANCH  22  25
ATOM     25  C   UNL A   1      34.138  34.483  29.298  1.00  0.00     0.039 A 
ATOM     26  C   UNL A   1      33.941  33.876  30.541  1.00  0.00     0.014 A 
ATOM     27  C   UNL A   1      35.423  34.600  28.765  1.00  0.00     0.014 A 
ATOM     28  C   UNL A   1      35.028  33.322  31.217  1.00  0.00     0.010 A 
ATOM     29  C   UNL A   1      36.493  33.982  29.404  1.00  0.00     0.010 A 
ATOM     30  C   UNL A   1      36.308  33.337  30.636  1.00  0.00    -0.014 A 
BRANCH  30  31
ATOM     31  C   UNL A   1      37.460  32.678  31.299  1.00  0.00     0.031 A 
ATOM     32  C   UNL A   1      38.166  31.533  30.628  1.00  0.00     0.074 A 
ATOM     33  C   UNL A   1      37.828  33.067  32.536  1.00  0.00     0.049 A 
ATOM     34  N   UNL A   1      39.144  30.787  31.073  1.00  0.00    -0.248 NA
ATOM     35  C   UNL A   1      37.689  31.159  29.287  1.00  0.00     0.031 C 
ATOM     36  C   UNL A   1      37.192  34.134  33.312  1.00  0.00     0.029 A 
ATOM     37  N   UNL A   1      38.820  32.603  33.363  1.00  0.00    -0.354 N 
ATOM     38  C   UNL A   1      39.389  29.850  30.078  1.00  0.00     0.074 A 
ATOM     39  C   UNL A   1      38.422  30.086  29.029  1.00  0.00     0.031 C 
ATOM     40  C   UNL A   1      37.825  34.258  34.490  1.00  0.00     0.029 A 
ATOM     41  C   UNL A   1      38.882  33.256  34.570  1.00  0.00     0.049 A 
ATOM     42  H   UNL A   1      39.431  31.871  33.114  1.00  0.00     0.167 HD
ATOM     43  C   UNL A   1      40.348  28.896  30.034  1.00  0.00     0.037 A 
ATOM     44  C   UNL A   1      39.696  33.061  35.626  1.00  0.00     0.037 A 
ATOM     45  C   UNL A   1      41.324  28.683  31.070  1.00  0.00     0.049 A 
ATOM     46  C   UNL A   1      40.746  31.985  35.554  1.00  0.00     0.074 A 
ATOM     47  C   UNL A   1      42.377  27.785  31.090  1.00  0.00     0.029 A 
ATOM     48  N   UNL A   1      41.364  29.372  32.272  1.00  0.00    -0.354 N 
ATOM     49  N   UNL A   1      41.017  31.155  34.576  1.00  0.00    -0.248 NA
ATOM     50  C   UNL A   1      41.608  31.822  36.734  1.00  0.00     0.031 C 
ATOM     51  C   UNL A   1      43.021  27.894  32.327  1.00  0.00     0.029 A 
ATOM     52  C   UNL A   1      42.408  28.901  33.054  1.00  0.00     0.049 A 
ATOM     53  H   UNL A   1      40.743  30.090  32.533  1.00  0.00     0.167 HD
ATOM     54  C   UNL A   1      42.097  30.398  35.006  1.00  0.00     0.074 A 
ATOM     55  C   UNL A   1      42.442  30.876  36.329  1.00  0.00     0.031 C 
ATOM     56  C   UNL A   1      42.746  29.395  34.364  1.00  0.00     0.037 A 
BRANCH  43  57
ATOM     57  C   UNL A   1      40.392  28.007  28.824  1.00  0.00     0.064 A 
ATOM     58  C   UNL A   1      41.137  28.349  27.685  1.00  0.00     0.173 A 
ATOM     59  C   UNL A   1      39.717  26.777  28.819  1.00  0.00     0.173 A 
ATOM     60  F   UNL A   1      41.793  29.519  27.632  1.00  0.00    -0.203 F 
ATOM     61  C   UNL A   1      41.180  27.508  26.577  1.00  0.00     0.198 A 
ATOM     62  C   UNL A   1      39.789  25.923  27.722  1.00  0.00     0.198 A 
ATOM     63  F   UNL A   1      38.995  26.398  29.884  1.00  0.00    -0.203 F 
ATOM     64  F   UNL A   1      41.858  27.879  25.482  1.00  0.00    -0.200 F 
ATOM     65  C   UNL A   1      40.514  26.292  26.599  1.00  0.00     0.200 A 
ATOM     66  F   UNL A   1      39.156  24.742  27.752  1.00  0.00    -0.200 F 
ATOM     67  F   UNL A   1      40.566  25.478  25.536  1.00  0.00    -0.200 F 
ENDBRANCH  43  57
BRANCH  44  68
ATOM     68  C   UNL A   1      39.568  33.918  36.835  1.00  0.00     0.064 A 
ATOM     69  C   UNL A   1      38.793  33.507  37.929  1.00  0.00     0.173 A 
ATOM     70  C   UNL A   1      40.198  35.168  36.915  1.00  0.00     0.173 A 
ATOM     71  F   UNL A   1      38.154  32.328  37.891  1.00  0.00    -0.203 F 
ATOM     72  C   UNL A   1      38.633  34.324  39.046  1.00  0.00     0.198 A 
ATOM     73  C   UNL A   1      40.063  35.971  38.047  1.00  0.00     0.198 A 
ATOM     74  F   UNL A   1      40.955  35.606  35.899  1.00  0.00    -0.203 F 
ATOM     75  F   UNL A   1      37.845  33.929  40.054  1.00  0.00    -0.200 F 
ATOM     76  C   UNL A   1      39.273  35.552  39.107  1.00  0.00     0.200 A 
ATOM     77  F   UNL A   1      40.695  37.151  38.107  1.00  0.00    -0.200 F 
ATOM     78  F   UNL A   1      39.119  36.337  40.182  1.00  0.00    -0.200 F 
ENDBRANCH  44  68
BRANCH  56  79
ATOM     79  C   UNL A   1      43.922  28.776  35.063  1.00  0.00     0.064 A 
ATOM     80  C   UNL A   1      45.218  29.291  34.924  1.00  0.00     0.173 A 
ATOM     81  C   UNL A   1      43.740  27.675  35.915  1.00  0.00     0.173 A 
ATOM     82  F   UNL A   1      45.448  30.333  34.111  1.00  0.00    -0.203 F 
ATOM     83  C   UNL A   1      46.295  28.710  35.591  1.00  0.00     0.198 A 
ATOM     84  C   UNL A   1      44.812  27.118  36.606  1.00  0.00     0.198 A 
ATOM     85  F   UNL A   1      42.519  27.148  36.089  1.00  0.00    -0.203 F 
ATOM     86  F   UNL A   1      47.533  29.187  35.404  1.00  0.00    -0.200 F 
ATOM     87  C   UNL A   1      46.089  27.631  36.437  1.00  0.00     0.200 A 
ATOM     88  F   UNL A   1      44.609  26.085  37.436  1.00  0.00    -0.200 F 
ATOM     89  F   UNL A   1      47.125  27.078  37.084  1.00  0.00    -0.200 F 
ENDBRANCH  56  79
ENDBRANCH  30  31
ENDBRANCH  22  25
ENDBRANCH  20  21
ENDBRANCH  19  20
ENDBRANCH   1  19
TORSDOF 14
ENDMDL
