MODEL 1
REMARK VINA RESULT:     -12.0      0.000      0.000
REMARK SMILES C[C@@H](C(=O)NCCCCNC(=O)c1ccc(-c2c3nc(c(-c4c(F)c(F)c(F)c(F)c4F)c4ccc([nH]4)c(-c4c(F)c(F)c(F)c(F)c4F)c4nc(c(-c5c(F)c(F)c(F)c(F)c5F)c5ccc2[nH]5)C=C4)C=C3)cc1)c1cccn(C(F)F)c1=O
REMARK SMILES IDX 7 1 6 2 5 3 3 4 4 5 2 7 1 8 76 9 77 10 84 11 78 12 80 13
REMARK SMILES IDX 85 14 79 15 81 16 82 17 83 18 8 19 9 20 10 21 11 22 12 24
REMARK SMILES IDX 13 25 14 26 75 27 15 28 74 29 16 30 17 31 18 32 68 33 19 34
REMARK SMILES IDX 73 35 67 36 69 37 20 38 72 39 66 40 65 41 21 43 53 44 33 45
REMARK SMILES IDX 52 46 34 47 37 48 51 49 70 50 35 51 36 52 50 54 71 55 38 56
REMARK SMILES IDX 22 57 23 58 31 59 24 60 25 61 29 62 32 63 26 64 27 65 30 66
REMARK SMILES IDX 28 67 54 68 55 69 63 70 56 71 57 72 61 73 64 74 58 75 59 76
REMARK SMILES IDX 62 77 60 78 39 79 40 80 48 81 41 82 42 83 46 84 49 85 43 86
REMARK SMILES IDX 44 87 47 88 45 89
REMARK H PARENT 5 6 10 23 69 42 37 53
REMARK Flexibility Score: inf
ROOT
ATOM      1  C   UNL A   1      31.597  30.629  26.414  1.00  0.00     0.023 C 
ENDROOT
BRANCH   1   2
ATOM      2  C   UNL A   1      31.140  30.064  25.069  1.00  0.00     0.116 C 
BRANCH   2   3
ATOM      3  N   UNL A   1      32.268  29.567  24.310  1.00  0.00    -0.356 N 
ATOM      4  C   UNL A   1      33.319  28.789  24.704  1.00  0.00     0.227 C 
ATOM      5  O   UNL A   1      34.185  28.559  23.859  1.00  0.00    -0.274 OA
ATOM      6  H   UNL A   1      32.278  29.831  23.360  1.00  0.00     0.163 HD
BRANCH   4   7
ATOM      7  C   UNL A   1      33.322  28.167  26.111  1.00  0.00     0.111 C 
ATOM      8  C   UNL A   1      34.472  28.651  27.000  1.00  0.00     0.023 C 
BRANCH   7   9
ATOM      9  C   UNL A   1      33.265  26.658  25.980  1.00  0.00     0.030 A 
ATOM     10  C   UNL A   1      34.308  25.928  25.542  1.00  0.00     0.012 A 
ATOM     11  C   UNL A   1      31.996  25.940  26.362  1.00  0.00     0.258 A 
ATOM     12  C   UNL A   1      34.228  24.496  25.422  1.00  0.00     0.019 A 
ATOM     13  N   UNL A   1      31.978  24.574  26.140  1.00  0.00    -0.258 N 
ATOM     14  O   UNL A   1      31.030  26.558  26.800  1.00  0.00    -0.269 OA
ATOM     15  C   UNL A   1      33.080  23.868  25.701  1.00  0.00     0.095 A 
BRANCH  13  16
ATOM     16  C   UNL A   1      30.740  23.879  26.381  1.00  0.00     0.451 C 
ATOM     17  F   UNL A   1      30.386  23.192  25.260  1.00  0.00    -0.185 F 
ATOM     18  F   UNL A   1      30.917  22.945  27.354  1.00  0.00    -0.185 F 
ENDBRANCH  13  16
ENDBRANCH   7   9
ENDBRANCH   4   7
ENDBRANCH   2   3
ENDBRANCH   1   2
BRANCH   1  19
ATOM     19  C   UNL A   1      31.503  32.155  26.519  1.00  0.00     0.023 C 
BRANCH  19  20
ATOM     20  C   UNL A   1      32.655  32.823  27.262  1.00  0.00     0.116 C 
BRANCH  20  21
ATOM     21  N   UNL A   1      32.370  34.202  27.625  1.00  0.00    -0.352 N 
ATOM     22  C   UNL A   1      32.964  34.982  28.586  1.00  0.00     0.251 C 
ATOM     23  H   UNL A   1      31.652  34.636  27.110  1.00  0.00     0.163 HD
ATOM     24  O   UNL A   1      32.504  36.087  28.857  1.00  0.00    -0.269 OA
BRANCH  22  25
ATOM     25  C   UNL A   1      34.141  34.472  29.318  1.00  0.00     0.039 A 
ATOM     26  C   UNL A   1      33.947  33.844  30.550  1.00  0.00     0.014 A 
ATOM     27  C   UNL A   1      35.428  34.599  28.787  1.00  0.00     0.014 A 
ATOM     28  C   UNL A   1      35.036  33.286  31.221  1.00  0.00     0.010 A 
ATOM     29  C   UNL A   1      36.500  33.976  29.419  1.00  0.00     0.010 A 
ATOM     30  C   UNL A   1      36.316  33.314  30.643  1.00  0.00    -0.014 A 
BRANCH  30  31
ATOM     31  C   UNL A   1      37.471  32.653  31.304  1.00  0.00     0.031 A 
ATOM     32  C   UNL A   1      38.178  31.512  30.630  1.00  0.00     0.074 A 
ATOM     33  C   UNL A   1      37.842  33.043  32.539  1.00  0.00     0.049 A 
ATOM     34  N   UNL A   1      39.166  30.773  31.070  1.00  0.00    -0.248 NA
ATOM     35  C   UNL A   1      37.696  31.130  29.293  1.00  0.00     0.031 C 
ATOM     36  C   UNL A   1      37.201  34.103  33.319  1.00  0.00     0.029 A 
ATOM     37  N   UNL A   1      38.841  32.584  33.361  1.00  0.00    -0.354 N 
ATOM     38  C   UNL A   1      39.412  29.837  30.074  1.00  0.00     0.074 A 
ATOM     39  C   UNL A   1      38.435  30.063  29.032  1.00  0.00     0.031 C 
ATOM     40  C   UNL A   1      37.836  34.229  34.495  1.00  0.00     0.029 A 
ATOM     41  C   UNL A   1      38.901  33.234  34.570  1.00  0.00     0.049 A 
ATOM     42  H   UNL A   1      39.457  31.859  33.108  1.00  0.00     0.167 HD
ATOM     43  C   UNL A   1      40.379  28.891  30.025  1.00  0.00     0.037 A 
ATOM     44  C   UNL A   1      39.716  33.042  35.625  1.00  0.00     0.037 A 
ATOM     45  C   UNL A   1      41.363  28.683  31.057  1.00  0.00     0.049 A 
ATOM     46  C   UNL A   1      40.779  31.978  35.546  1.00  0.00     0.074 A 
ATOM     47  C   UNL A   1      42.422  27.794  31.072  1.00  0.00     0.029 A 
ATOM     48  N   UNL A   1      41.402  29.373  32.261  1.00  0.00    -0.354 N 
ATOM     49  N   UNL A   1      41.051  31.149  34.568  1.00  0.00    -0.248 NA
ATOM     50  C   UNL A   1      41.655  31.830  36.717  1.00  0.00     0.031 C 
ATOM     51  C   UNL A   1      43.067  27.903  32.308  1.00  0.00     0.029 A 
ATOM     52  C   UNL A   1      42.452  28.907  33.037  1.00  0.00     0.049 A 
ATOM     53  H   UNL A   1      40.777  30.086  32.524  1.00  0.00     0.167 HD
ATOM     54  C   UNL A   1      42.143  30.404  34.990  1.00  0.00     0.074 A 
ATOM     55  C   UNL A   1      42.495  30.891  36.308  1.00  0.00     0.031 C 
ATOM     56  C   UNL A   1      42.795  29.405  34.345  1.00  0.00     0.037 A 
BRANCH  43  57
ATOM     57  C   UNL A   1      40.425  28.003  28.814  1.00  0.00     0.064 A 
ATOM     58  C   UNL A   1      41.172  28.346  27.676  1.00  0.00     0.173 A 
ATOM     59  C   UNL A   1      39.750  26.773  28.807  1.00  0.00     0.173 A 
ATOM     60  F   UNL A   1      41.829  29.515  27.625  1.00  0.00    -0.203 F 
ATOM     61  C   UNL A   1      41.216  27.505  26.566  1.00  0.00     0.198 A 
ATOM     62  C   UNL A   1      39.824  25.919  27.710  1.00  0.00     0.198 A 
ATOM     63  F   UNL A   1      39.026  26.392  29.870  1.00  0.00    -0.203 F 
ATOM     64  F   UNL A   1      41.894  27.878  25.472  1.00  0.00    -0.200 F 
ATOM     65  C   UNL A   1      40.550  26.289  26.587  1.00  0.00     0.200 A 
ATOM     66  F   UNL A   1      39.192  24.738  27.738  1.00  0.00    -0.200 F 
ATOM     67  F   UNL A   1      40.603  25.476  25.524  1.00  0.00    -0.200 F 
ENDBRANCH  43  57
BRANCH  44  68
ATOM     68  C   UNL A   1      39.571  33.886  36.840  1.00  0.00     0.064 A 
ATOM     69  C   UNL A   1      38.814  33.451  37.937  1.00  0.00     0.173 A 
ATOM     70  C   UNL A   1      40.180  35.147  36.929  1.00  0.00     0.173 A 
ATOM     71  F   UNL A   1      38.195  32.261  37.893  1.00  0.00    -0.203 F 
ATOM     72  C   UNL A   1      38.651  34.252  39.064  1.00  0.00     0.198 A 
ATOM     73  C   UNL A   1      40.043  35.934  38.070  1.00  0.00     0.198 A 
ATOM     74  F   UNL A   1      40.920  35.608  35.911  1.00  0.00    -0.203 F 
ATOM     75  F   UNL A   1      37.880  33.833  40.076  1.00  0.00    -0.200 F 
ATOM     76  C   UNL A   1      39.271  35.491  39.132  1.00  0.00     0.200 A 
ATOM     77  F   UNL A   1      40.657  37.123  38.138  1.00  0.00    -0.200 F 
ATOM     78  F   UNL A   1      39.118  36.261  40.219  1.00  0.00    -0.200 F 
ENDBRANCH  44  68
BRANCH  56  79
ATOM     79  C   UNL A   1      43.982  28.797  35.036  1.00  0.00     0.064 A 
ATOM     80  C   UNL A   1      45.278  29.305  34.867  1.00  0.00     0.173 A 
ATOM     81  C   UNL A   1      43.812  27.711  35.911  1.00  0.00     0.173 A 
ATOM     82  F   UNL A   1      45.498  30.333  34.032  1.00  0.00    -0.203 F 
ATOM     83  C   UNL A   1      46.363  28.732  35.525  1.00  0.00     0.198 A 
ATOM     84  C   UNL A   1      44.894  27.163  36.593  1.00  0.00     0.198 A 
ATOM     85  F   UNL A   1      42.593  27.192  36.116  1.00  0.00    -0.203 F 
ATOM     86  F   UNL A   1      47.601  29.200  35.307  1.00  0.00    -0.200 F 
ATOM     87  C   UNL A   1      46.170  27.667  36.393  1.00  0.00     0.200 A 
ATOM     88  F   UNL A   1      44.702  26.146  37.445  1.00  0.00    -0.200 F 
ATOM     89  F   UNL A   1      47.215  27.122  37.030  1.00  0.00    -0.200 F 
ENDBRANCH  56  79
ENDBRANCH  30  31
ENDBRANCH  22  25
ENDBRANCH  20  21
ENDBRANCH  19  20
ENDBRANCH   1  19
TORSDOF 13
ENDMDL
MODEL 2
REMARK VINA RESULT:     -11.9      0.187      1.640
REMARK SMILES C[C@@H](C(=O)NCCCCNC(=O)c1ccc(-c2c3nc(c(-c4c(F)c(F)c(F)c(F)c4F)c4ccc([nH]4)c(-c4c(F)c(F)c(F)c(F)c4F)c4nc(c(-c5c(F)c(F)c(F)c(F)c5F)c5ccc2[nH]5)C=C4)C=C3)cc1)c1cccn(C(F)F)c1=O
REMARK SMILES IDX 7 1 6 2 5 3 3 4 4 5 2 7 1 8 76 9 77 10 84 11 78 12 80 13
REMARK SMILES IDX 85 14 79 15 81 16 82 17 83 18 8 19 9 20 10 21 11 22 12 24
REMARK SMILES IDX 13 25 14 26 75 27 15 28 74 29 16 30 17 31 18 32 68 33 19 34
REMARK SMILES IDX 73 35 67 36 69 37 20 38 72 39 66 40 65 41 21 43 53 44 33 45
REMARK SMILES IDX 52 46 34 47 37 48 51 49 70 50 35 51 36 52 50 54 71 55 38 56
REMARK SMILES IDX 22 57 23 58 31 59 24 60 25 61 29 62 32 63 26 64 27 65 30 66
REMARK SMILES IDX 28 67 54 68 55 69 63 70 56 71 57 72 61 73 64 74 58 75 59 76
REMARK SMILES IDX 62 77 60 78 39 79 40 80 48 81 41 82 42 83 46 84 49 85 43 86
REMARK SMILES IDX 44 87 47 88 45 89
REMARK H PARENT 5 6 10 23 69 42 37 53
REMARK Flexibility Score: inf
ROOT
ATOM      1  C   UNL A   1      31.661  30.619  26.421  1.00  0.00     0.023 C 
ENDROOT
BRANCH   1   2
ATOM      2  C   UNL A   1      31.158  30.120  25.067  1.00  0.00     0.116 C 
BRANCH   2   3
ATOM      3  N   UNL A   1      32.252  29.609  24.268  1.00  0.00    -0.356 N 
ATOM      4  C   UNL A   1      33.302  28.811  24.624  1.00  0.00     0.227 C 
ATOM      5  O   UNL A   1      34.136  28.572  23.749  1.00  0.00    -0.274 OA
ATOM      6  H   UNL A   1      32.236  29.878  23.321  1.00  0.00     0.163 HD
BRANCH   4   7
ATOM      7  C   UNL A   1      33.340  28.180  26.026  1.00  0.00     0.111 C 
ATOM      8  C   UNL A   1      34.537  28.625  26.874  1.00  0.00     0.023 C 
BRANCH   7   9
ATOM      9  C   UNL A   1      33.235  26.674  25.888  1.00  0.00     0.030 A 
ATOM     10  C   UNL A   1      34.304  25.890  25.651  1.00  0.00     0.012 A 
ATOM     11  C   UNL A   1      31.884  26.021  26.032  1.00  0.00     0.258 A 
ATOM     12  C   UNL A   1      34.178  24.462  25.520  1.00  0.00     0.019 A 
ATOM     13  N   UNL A   1      31.841  24.655  25.812  1.00  0.00    -0.258 N 
ATOM     14  O   UNL A   1      30.886  26.689  26.284  1.00  0.00    -0.269 OA
ATOM     15  C   UNL A   1      32.969  23.894  25.584  1.00  0.00     0.095 A 
BRANCH  13  16
ATOM     16  C   UNL A   1      30.547  24.022  25.822  1.00  0.00     0.451 C 
ATOM     17  F   UNL A   1      30.625  22.834  25.164  1.00  0.00    -0.185 F 
ATOM     18  F   UNL A   1      30.191  23.721  27.100  1.00  0.00    -0.185 F 
ENDBRANCH  13  16
ENDBRANCH   7   9
ENDBRANCH   4   7
ENDBRANCH   2   3
ENDBRANCH   1   2
BRANCH   1  19
ATOM     19  C   UNL A   1      31.470  32.123  26.645  1.00  0.00     0.023 C 
BRANCH  19  20
ATOM     20  C   UNL A   1      32.668  32.841  27.259  1.00  0.00     0.116 C 
BRANCH  20  21
ATOM     21  N   UNL A   1      32.375  34.217  27.625  1.00  0.00    -0.352 N 
ATOM     22  C   UNL A   1      32.959  34.996  28.594  1.00  0.00     0.251 C 
ATOM     23  H   UNL A   1      31.660  34.651  27.107  1.00  0.00     0.163 HD
ATOM     24  O   UNL A   1      32.494  36.098  28.865  1.00  0.00    -0.269 OA
BRANCH  22  25
ATOM     25  C   UNL A   1      34.133  34.487  29.333  1.00  0.00     0.039 A 
ATOM     26  C   UNL A   1      33.933  33.871  30.571  1.00  0.00     0.014 A 
ATOM     27  C   UNL A   1      35.421  34.601  28.803  1.00  0.00     0.014 A 
ATOM     28  C   UNL A   1      35.018  33.315  31.249  1.00  0.00     0.010 A 
ATOM     29  C   UNL A   1      36.489  33.979  29.443  1.00  0.00     0.010 A 
ATOM     30  C   UNL A   1      36.299  33.330  30.673  1.00  0.00    -0.014 A 
BRANCH  30  31
ATOM     31  C   UNL A   1      37.449  32.670  31.343  1.00  0.00     0.031 A 
ATOM     32  C   UNL A   1      38.150  31.516  30.682  1.00  0.00     0.074 A 
ATOM     33  C   UNL A   1      37.822  33.071  32.574  1.00  0.00     0.049 A 
ATOM     34  N   UNL A   1      39.133  30.777  31.132  1.00  0.00    -0.248 NA
ATOM     35  C   UNL A   1      37.666  31.122  29.349  1.00  0.00     0.031 C 
ATOM     36  C   UNL A   1      37.186  34.144  33.341  1.00  0.00     0.029 A 
ATOM     37  N   UNL A   1      38.817  32.615  33.402  1.00  0.00    -0.354 N 
ATOM     38  C   UNL A   1      39.373  29.828  30.147  1.00  0.00     0.074 A 
ATOM     39  C   UNL A   1      38.399  30.047  29.101  1.00  0.00     0.031 C 
ATOM     40  C   UNL A   1      37.821  34.279  34.515  1.00  0.00     0.029 A 
ATOM     41  C   UNL A   1      38.880  33.279  34.603  1.00  0.00     0.049 A 
ATOM     42  H   UNL A   1      39.429  31.883  33.157  1.00  0.00     0.167 HD
ATOM     43  C   UNL A   1      40.335  28.874  30.110  1.00  0.00     0.037 A 
ATOM     44  C   UNL A   1      39.692  33.093  35.661  1.00  0.00     0.037 A 
ATOM     45  C   UNL A   1      41.316  28.673  31.144  1.00  0.00     0.049 A 
ATOM     46  C   UNL A   1      40.749  32.022  35.595  1.00  0.00     0.074 A 
ATOM     47  C   UNL A   1      42.370  27.777  31.171  1.00  0.00     0.029 A 
ATOM     48  N   UNL A   1      41.358  29.375  32.340  1.00  0.00    -0.354 N 
ATOM     49  N   UNL A   1      41.016  31.180  34.627  1.00  0.00    -0.248 NA
ATOM     50  C   UNL A   1      41.623  31.882  36.768  1.00  0.00     0.031 C 
ATOM     51  C   UNL A   1      43.014  27.896  32.406  1.00  0.00     0.029 A 
ATOM     52  C   UNL A   1      42.405  28.912  33.123  1.00  0.00     0.049 A 
ATOM     53  H   UNL A   1      40.738  30.096  32.595  1.00  0.00     0.167 HD
ATOM     54  C   UNL A   1      42.104  30.433  35.059  1.00  0.00     0.074 A 
ATOM     55  C   UNL A   1      42.457  30.933  36.371  1.00  0.00     0.031 C 
ATOM     56  C   UNL A   1      42.750  29.423  34.425  1.00  0.00     0.037 A 
BRANCH  43  57
ATOM     57  C   UNL A   1      40.376  27.973  28.909  1.00  0.00     0.064 A 
ATOM     58  C   UNL A   1      41.128  28.297  27.768  1.00  0.00     0.173 A 
ATOM     59  C   UNL A   1      39.692  26.748  28.915  1.00  0.00     0.173 A 
ATOM     60  F   UNL A   1      41.793  29.461  27.705  1.00  0.00    -0.203 F 
ATOM     61  C   UNL A   1      41.168  27.443  26.668  1.00  0.00     0.198 A 
ATOM     62  C   UNL A   1      39.762  25.881  27.827  1.00  0.00     0.198 A 
ATOM     63  F   UNL A   1      38.963  26.385  29.981  1.00  0.00    -0.203 F 
ATOM     64  F   UNL A   1      41.850  27.799  25.571  1.00  0.00    -0.200 F 
ATOM     65  C   UNL A   1      40.492  26.233  26.702  1.00  0.00     0.200 A 
ATOM     66  F   UNL A   1      39.121  24.705  27.868  1.00  0.00    -0.200 F 
ATOM     67  F   UNL A   1      40.541  25.407  25.648  1.00  0.00    -0.200 F 
ENDBRANCH  43  57
BRANCH  44  68
ATOM     68  C   UNL A   1      39.552  33.952  36.866  1.00  0.00     0.064 A 
ATOM     69  C   UNL A   1      40.180  35.205  36.938  1.00  0.00     0.173 A 
ATOM     70  C   UNL A   1      38.796  33.540  37.972  1.00  0.00     0.173 A 
ATOM     71  F   UNL A   1      40.931  35.636  35.913  1.00  0.00    -0.203 F 
ATOM     72  C   UNL A   1      40.076  35.999  38.077  1.00  0.00     0.198 A 
ATOM     73  C   UNL A   1      38.667  34.350  39.099  1.00  0.00     0.198 A 
ATOM     74  F   UNL A   1      38.170  32.354  37.954  1.00  0.00    -0.203 F 
ATOM     75  F   UNL A   1      40.729  37.168  38.138  1.00  0.00    -0.200 F 
ATOM     76  C   UNL A   1      39.315  35.573  39.155  1.00  0.00     0.200 A 
ATOM     77  F   UNL A   1      37.916  33.941  40.132  1.00  0.00    -0.200 F 
ATOM     78  F   UNL A   1      39.211  36.340  40.249  1.00  0.00    -0.200 F 
ENDBRANCH  44  68
BRANCH  56  79
ATOM     79  C   UNL A   1      43.933  28.815  35.125  1.00  0.00     0.064 A 
ATOM     80  C   UNL A   1      43.802  27.707  35.974  1.00  0.00     0.173 A 
ATOM     81  C   UNL A   1      45.222  29.329  34.909  1.00  0.00     0.173 A 
ATOM     82  F   UNL A   1      42.591  27.187  36.225  1.00  0.00    -0.203 F 
ATOM     83  C   UNL A   1      44.913  27.154  36.606  1.00  0.00     0.198 A 
ATOM     84  C   UNL A   1      46.334  28.751  35.515  1.00  0.00     0.198 A 
ATOM     85  F   UNL A   1      45.405  30.381  34.100  1.00  0.00    -0.203 F 
ATOM     86  F   UNL A   1      44.757  26.129  37.456  1.00  0.00    -0.200 F 
ATOM     87  C   UNL A   1      46.179  27.670  36.370  1.00  0.00     0.200 A 
ATOM     88  F   UNL A   1      47.558  29.241  35.271  1.00  0.00    -0.200 F 
ATOM     89  F   UNL A   1      47.246  27.131  36.972  1.00  0.00    -0.200 F 
ENDBRANCH  56  79
ENDBRANCH  30  31
ENDBRANCH  22  25
ENDBRANCH  20  21
ENDBRANCH  19  20
ENDBRANCH   1  19
TORSDOF 13
ENDMDL
MODEL 3
REMARK VINA RESULT:     -11.8      0.541      7.499
REMARK SMILES C[C@@H](C(=O)NCCCCNC(=O)c1ccc(-c2c3nc(c(-c4c(F)c(F)c(F)c(F)c4F)c4ccc([nH]4)c(-c4c(F)c(F)c(F)c(F)c4F)c4nc(c(-c5c(F)c(F)c(F)c(F)c5F)c5ccc2[nH]5)C=C4)C=C3)cc1)c1cccn(C(F)F)c1=O
REMARK SMILES IDX 7 1 6 2 5 3 3 4 4 5 2 7 1 8 76 9 77 10 84 11 78 12 80 13
REMARK SMILES IDX 85 14 79 15 81 16 82 17 83 18 8 19 9 20 10 21 11 22 12 24
REMARK SMILES IDX 13 25 14 26 75 27 15 28 74 29 16 30 17 31 18 32 68 33 19 34
REMARK SMILES IDX 73 35 67 36 69 37 20 38 72 39 66 40 65 41 21 43 53 44 33 45
REMARK SMILES IDX 52 46 34 47 37 48 51 49 70 50 35 51 36 52 50 54 71 55 38 56
REMARK SMILES IDX 22 57 23 58 31 59 24 60 25 61 29 62 32 63 26 64 27 65 30 66
REMARK SMILES IDX 28 67 54 68 55 69 63 70 56 71 57 72 61 73 64 74 58 75 59 76
REMARK SMILES IDX 62 77 60 78 39 79 40 80 48 81 41 82 42 83 46 84 49 85 43 86
REMARK SMILES IDX 44 87 47 88 45 89
REMARK H PARENT 5 6 10 23 69 42 37 53
REMARK Flexibility Score: inf
ROOT
ATOM      1  C   UNL A   1      31.453  30.675  26.419  1.00  0.00     0.023 C 
ENDROOT
BRANCH   1   2
ATOM      2  C   UNL A   1      31.028  30.111  25.064  1.00  0.00     0.116 C 
BRANCH   2   3
ATOM      3  N   UNL A   1      32.181  29.681  24.301  1.00  0.00    -0.356 N 
ATOM      4  C   UNL A   1      33.239  28.902  24.673  1.00  0.00     0.227 C 
ATOM      5  O   UNL A   1      34.127  28.738  23.833  1.00  0.00    -0.274 OA
ATOM      6  H   UNL A   1      32.204  29.999  23.369  1.00  0.00     0.163 HD
BRANCH   4   7
ATOM      7  C   UNL A   1      33.227  28.200  26.041  1.00  0.00     0.111 C 
ATOM      8  C   UNL A   1      34.363  28.637  26.972  1.00  0.00     0.023 C 
BRANCH   7   9
ATOM      9  C   UNL A   1      33.181  26.701  25.822  1.00  0.00     0.030 A 
ATOM     10  C   UNL A   1      34.240  25.999  25.377  1.00  0.00     0.012 A 
ATOM     11  C   UNL A   1      31.904  25.959  26.122  1.00  0.00     0.258 A 
ATOM     12  C   UNL A   1      34.170  24.576  25.173  1.00  0.00     0.019 A 
ATOM     13  N   UNL A   1      31.898  24.608  25.822  1.00  0.00    -0.258 N 
ATOM     14  O   UNL A   1      30.922  26.549  26.565  1.00  0.00    -0.269 OA
ATOM     15  C   UNL A   1      33.016  23.931  25.379  1.00  0.00     0.095 A 
BRANCH  13  16
ATOM     16  C   UNL A   1      30.656  23.897  25.984  1.00  0.00     0.451 C 
ATOM     17  F   UNL A   1      30.652  22.811  25.163  1.00  0.00    -0.185 F 
ATOM     18  F   UNL A   1      30.565  23.410  27.251  1.00  0.00    -0.185 F 
ENDBRANCH  13  16
ENDBRANCH   7   9
ENDBRANCH   4   7
ENDBRANCH   2   3
ENDBRANCH   1   2
BRANCH   1  19
ATOM     19  C   UNL A   1      31.422  32.205  26.500  1.00  0.00     0.023 C 
BRANCH  19  20
ATOM     20  C   UNL A   1      32.643  32.841  27.155  1.00  0.00     0.116 C 
BRANCH  20  21
ATOM     21  N   UNL A   1      32.392  34.194  27.626  1.00  0.00    -0.352 N 
ATOM     22  C   UNL A   1      32.997  34.877  28.652  1.00  0.00     0.251 C 
ATOM     23  H   UNL A   1      31.690  34.688  27.143  1.00  0.00     0.163 HD
ATOM     24  O   UNL A   1      32.565  35.969  29.007  1.00  0.00    -0.269 OA
BRANCH  22  25
ATOM     25  C   UNL A   1      34.153  34.278  29.349  1.00  0.00     0.039 A 
ATOM     26  C   UNL A   1      33.919  33.443  30.444  1.00  0.00     0.014 A 
ATOM     27  C   UNL A   1      35.459  34.524  28.917  1.00  0.00     0.014 A 
ATOM     28  C   UNL A   1      34.992  32.805  31.068  1.00  0.00     0.010 A 
ATOM     29  C   UNL A   1      36.519  33.828  29.491  1.00  0.00     0.010 A 
ATOM     30  C   UNL A   1      36.298  32.962  30.573  1.00  0.00    -0.014 A 
BRANCH  30  31
ATOM     31  C   UNL A   1      37.439  32.225  31.173  1.00  0.00     0.031 A 
ATOM     32  C   UNL A   1      37.941  32.590  32.541  1.00  0.00     0.074 A 
ATOM     33  C   UNL A   1      38.063  31.268  30.458  1.00  0.00     0.049 A 
ATOM     34  N   UNL A   1      38.957  32.103  33.209  1.00  0.00    -0.248 NA
ATOM     35  C   UNL A   1      37.222  33.664  33.246  1.00  0.00     0.031 C 
ATOM     36  C   UNL A   1      37.703  30.859  29.099  1.00  0.00     0.029 A 
ATOM     37  N   UNL A   1      39.137  30.473  30.770  1.00  0.00    -0.354 N 
ATOM     38  C   UNL A   1      39.006  32.817  34.399  1.00  0.00     0.074 A 
ATOM     39  C   UNL A   1      37.954  33.808  34.340  1.00  0.00     0.031 C 
ATOM     40  C   UNL A   1      38.526  29.875  28.704  1.00  0.00     0.029 A 
ATOM     41  C   UNL A   1      39.495  29.612  29.762  1.00  0.00     0.049 A 
ATOM     42  H   UNL A   1      39.606  30.516  31.636  1.00  0.00     0.167 HD
ATOM     43  C   UNL A   1      39.839  32.645  35.453  1.00  0.00     0.037 A 
ATOM     44  C   UNL A   1      40.500  28.718  29.695  1.00  0.00     0.037 A 
ATOM     45  C   UNL A   1      40.871  31.643  35.515  1.00  0.00     0.049 A 
ATOM     46  C   UNL A   1      41.415  28.551  30.879  1.00  0.00     0.074 A 
ATOM     47  C   UNL A   1      41.724  31.347  36.563  1.00  0.00     0.029 A 
ATOM     48  N   UNL A   1      41.194  30.777  34.480  1.00  0.00    -0.354 N 
ATOM     49  N   UNL A   1      41.405  29.179  32.029  1.00  0.00    -0.248 NA
ATOM     50  C   UNL A   1      42.478  27.544  30.758  1.00  0.00     0.031 C 
ATOM     51  C   UNL A   1      42.601  30.343  36.143  1.00  0.00     0.029 A 
ATOM     52  C   UNL A   1      42.253  29.966  34.856  1.00  0.00     0.049 A 
ATOM     53  H   UNL A   1      40.739  30.744  33.608  1.00  0.00     0.167 HD
ATOM     54  C   UNL A   1      42.434  28.625  32.777  1.00  0.00     0.074 A 
ATOM     55  C   UNL A   1      43.039  27.597  31.957  1.00  0.00     0.031 C 
ATOM     56  C   UNL A   1      42.842  28.941  34.031  1.00  0.00     0.037 A 
BRANCH  43  57
ATOM     57  C   UNL A   1      39.669  33.561  36.631  1.00  0.00     0.064 A 
ATOM     58  C   UNL A   1      40.311  34.808  36.696  1.00  0.00     0.173 A 
ATOM     59  C   UNL A   1      38.818  33.209  37.690  1.00  0.00     0.173 A 
ATOM     60  F   UNL A   1      41.144  35.191  35.716  1.00  0.00    -0.203 F 
ATOM     61  C   UNL A   1      40.132  35.652  37.789  1.00  0.00     0.198 A 
ATOM     62  C   UNL A   1      38.615  34.070  38.765  1.00  0.00     0.198 A 
ATOM     63  F   UNL A   1      38.175  32.032  37.678  1.00  0.00    -0.203 F 
ATOM     64  F   UNL A   1      40.796  36.815  37.851  1.00  0.00    -0.200 F 
ATOM     65  C   UNL A   1      39.278  35.287  38.818  1.00  0.00     0.200 A 
ATOM     66  F   UNL A   1      37.778  33.721  39.751  1.00  0.00    -0.200 F 
ATOM     67  F   UNL A   1      39.097  36.105  39.864  1.00  0.00    -0.200 F 
ENDBRANCH  43  57
BRANCH  44  68
ATOM     68  C   UNL A   1      40.684  27.897  28.469  1.00  0.00     0.064 A 
ATOM     69  C   UNL A   1      41.469  28.356  27.401  1.00  0.00     0.173 A 
ATOM     70  C   UNL A   1      40.075  26.640  28.334  1.00  0.00     0.173 A 
ATOM     71  F   UNL A   1      42.056  29.561  27.473  1.00  0.00    -0.203 F 
ATOM     72  C   UNL A   1      41.618  27.604  26.239  1.00  0.00     0.198 A 
ATOM     73  C   UNL A   1      40.251  25.874  27.183  1.00  0.00     0.198 A 
ATOM     74  F   UNL A   1      39.319  26.151  29.326  1.00  0.00    -0.203 F 
ATOM     75  F   UNL A   1      42.332  28.091  25.215  1.00  0.00    -0.200 F 
ATOM     76  C   UNL A   1      41.014  26.361  26.133  1.00  0.00     0.200 A 
ATOM     77  F   UNL A   1      39.679  24.666  27.092  1.00  0.00    -0.200 F 
ATOM     78  F   UNL A   1      41.161  25.634  25.016  1.00  0.00    -0.200 F 
ENDBRANCH  44  68
BRANCH  56  79
ATOM     79  C   UNL A   1      43.973  28.139  34.611  1.00  0.00     0.064 A 
ATOM     80  C   UNL A   1      45.306  28.561  34.513  1.00  0.00     0.173 A 
ATOM     81  C   UNL A   1      43.710  26.949  35.310  1.00  0.00     0.173 A 
ATOM     82  F   UNL A   1      45.612  29.684  33.844  1.00  0.00    -0.203 F 
ATOM     83  C   UNL A   1      46.338  27.807  35.065  1.00  0.00     0.198 A 
ATOM     84  C   UNL A   1      44.741  26.217  35.891  1.00  0.00     0.198 A 
ATOM     85  F   UNL A   1      42.452  26.505  35.441  1.00  0.00    -0.203 F 
ATOM     86  F   UNL A   1      47.610  28.201  34.912  1.00  0.00    -0.200 F 
ATOM     87  C   UNL A   1      46.055  26.640  35.760  1.00  0.00     0.200 A 
ATOM     88  F   UNL A   1      44.463  25.100  36.577  1.00  0.00    -0.200 F 
ATOM     89  F   UNL A   1      47.049  25.921  36.298  1.00  0.00    -0.200 F 
ENDBRANCH  56  79
ENDBRANCH  30  31
ENDBRANCH  22  25
ENDBRANCH  20  21
ENDBRANCH  19  20
ENDBRANCH   1  19
TORSDOF 13
ENDMDL
