MODEL 1
REMARK VINA RESULT:     -16.4      0.000      0.000
REMARK SMILES Cc1coc2cc3c(cc12)[C@@H](C)[C@H](CCC(=O)N[C@@H](Cc1c[nH]c2ccccc12)C(=O)NCCCCNC(=O)c1ccc(-c2c4nc(c(-c5c(F)c(F)c(F)c(F)c5F)c5ccc([nH]5)c(-c5c(F)c(F)c(F)c(F)c5F)c5nc(c(-c6c(F)c(F)c(F)c(F)c6F)c6ccc2[nH]6)C=C5)C=C4)cc1)C(=O)O3
REMARK SMILES IDX 33 1 32 2 30 3 31 4 19 6 18 7 16 8 17 9 15 11 14 12 13 13
REMARK SMILES IDX 1 14 2 15 3 16 10 17 4 18 5 19 9 20 6 21 8 22 7 23 11 24
REMARK SMILES IDX 105 25 12 26 103 27 104 28 20 29 21 30 22 31 29 32 23 33
REMARK SMILES IDX 24 34 28 35 25 37 27 38 26 39 34 40 35 41 36 42 37 43 38 44
REMARK SMILES IDX 39 46 40 47 41 48 102 49 42 50 101 51 43 52 44 53 45 54
REMARK SMILES IDX 95 55 46 56 100 57 94 58 96 59 47 60 99 61 93 62 92 63 48 65
REMARK SMILES IDX 80 66 60 67 79 68 61 69 64 70 78 71 97 72 62 73 63 74 77 76
REMARK SMILES IDX 98 77 65 78 49 79 50 80 58 81 51 82 52 83 56 84 59 85 53 86
REMARK SMILES IDX 54 87 57 88 55 89 81 90 82 91 90 92 83 93 84 94 88 95 91 96
REMARK SMILES IDX 85 97 86 98 89 99 87 100 66 101 67 102 75 103 68 104 69 105
REMARK SMILES IDX 73 106 76 107 70 108 71 109 74 110 72 111
REMARK H PARENT 32 5 18 10 23 36 37 45 96 64 64 75
REMARK Flexibility Score: inf
ROOT
ATOM      1  C   UNL A   1      38.900  22.221  26.313  1.00  0.00     0.116 C 
ENDROOT
BRANCH   1   2
ATOM      2  N   UNL A   1      38.166  22.493  24.827  1.00  0.00    -0.354 N 
ATOM      3  C   UNL A   1      36.892  22.472  24.296  1.00  0.00     0.242 C 
ATOM      4  O   UNL A   1      36.820  22.364  23.065  1.00  0.00    -0.273 OA
ATOM      5  H   UNL A   1      38.831  22.735  24.143  1.00  0.00     0.163 HD
BRANCH   3   6
ATOM      6  C   UNL A   1      35.578  22.536  25.152  1.00  0.00     0.175 C 
BRANCH   6   7
ATOM      7  N   UNL A   1      35.172  23.854  25.790  1.00  0.00    -0.344 N 
ATOM      8  C   UNL A   1      34.576  25.036  25.403  1.00  0.00     0.220 C 
ATOM      9  O   UNL A   1      34.675  25.968  26.216  1.00  0.00    -0.275 OA
ATOM     10  H   UNL A   1      35.397  23.867  26.748  1.00  0.00     0.164 HD
BRANCH   8  11
ATOM     11  C   UNL A   1      33.790  25.310  24.070  1.00  0.00     0.101 C 
BRANCH  11  12
ATOM     12  C   UNL A   1      32.637  26.466  23.999  1.00  0.00     0.026 C 
BRANCH  12  13
ATOM     13  C   UNL A   1      32.482  27.389  25.284  1.00  0.00     0.107 C 
ATOM     14  C   UNL A   1      28.734  33.155  23.037  1.00  0.00     0.048 C 
ATOM     15  C   UNL A   1      28.597  31.719  22.705  1.00  0.00    -0.005 A 
ATOM     16  C   UNL A   1      27.658  31.150  21.869  1.00  0.00     0.199 A 
ATOM     17  C   UNL A   1      29.385  30.639  23.204  1.00  0.00     0.024 A 
ATOM     18  O   UNL A   1      27.781  29.800  21.847  1.00  0.00    -0.464 OA
ATOM     19  C   UNL A   1      28.811  29.485  22.677  1.00  0.00     0.137 A 
ATOM     20  C   UNL A   1      30.497  30.516  24.076  1.00  0.00     0.020 A 
ATOM     21  C   UNL A   1      29.184  28.199  23.031  1.00  0.00     0.095 A 
ATOM     22  C   UNL A   1      30.928  29.238  24.436  1.00  0.00    -0.001 A 
ATOM     23  C   UNL A   1      30.168  28.159  24.017  1.00  0.00     0.138 A 
ATOM     24  C   UNL A   1      32.062  28.917  25.382  1.00  0.00     0.034 C 
ATOM     25  O   UNL A   1      30.250  27.011  24.843  1.00  0.00    -0.426 OA
ATOM     26  C   UNL A   1      31.538  29.264  26.821  1.00  0.00     0.014 C 
ATOM     27  C   UNL A   1      31.266  26.813  25.807  1.00  0.00     0.314 C 
ATOM     28  O   UNL A   1      31.210  26.172  26.846  1.00  0.00    -0.251 OA
ENDBRANCH  12  13
ENDBRANCH  11  12
ENDBRANCH   8  11
ENDBRANCH   6   7
BRANCH   6  29
ATOM     29  C   UNL A   1      34.499  21.823  24.309  1.00  0.00     0.072 C 
BRANCH  29  30
ATOM     30  C   UNL A   1      33.398  21.149  25.083  1.00  0.00    -0.020 A 
ATOM     31  C   UNL A   1      33.487  20.882  26.454  1.00  0.00     0.087 A 
ATOM     32  C   UNL A   1      32.531  20.184  24.479  1.00  0.00     0.003 A 
ATOM     33  N   UNL A   1      33.135  19.571  26.729  1.00  0.00    -0.361 N 
ATOM     34  C   UNL A   1      33.118  18.911  25.529  1.00  0.00     0.046 A 
ATOM     35  C   UNL A   1      32.163  19.791  22.730  1.00  0.00     0.010 A 
ATOM     36  H   UNL A   1      32.935  19.188  27.614  1.00  0.00     0.166 HD
ATOM     37  C   UNL A   1      33.550  17.305  24.874  1.00  0.00     0.026 A 
ATOM     38  C   UNL A   1      32.613  18.171  22.051  1.00  0.00     0.001 A 
ATOM     39  C   UNL A   1      33.287  16.933  23.139  1.00  0.00     0.002 A 
ENDBRANCH  29  30
ENDBRANCH   6  29
ENDBRANCH   3   6
ENDBRANCH   1   2
BRANCH   1  40
ATOM     40  C   UNL A   1      40.481  20.783  26.867  1.00  0.00     0.023 C 
BRANCH  40  41
ATOM     41  C   UNL A   1      41.517  19.723  26.020  1.00  0.00     0.023 C 
BRANCH  41  42
ATOM     42  C   UNL A   1      43.016  20.007  26.053  1.00  0.00     0.116 C 
BRANCH  42  43
ATOM     43  N   UNL A   1      43.733  19.562  24.850  1.00  0.00    -0.352 N 
ATOM     44  C   UNL A   1      44.833  20.064  24.208  1.00  0.00     0.251 C 
ATOM     45  H   UNL A   1      43.353  18.757  24.427  1.00  0.00     0.163 HD
ATOM     46  O   UNL A   1      45.401  19.445  23.317  1.00  0.00    -0.269 OA
BRANCH  44  47
ATOM     47  C   UNL A   1      45.153  21.460  24.482  1.00  0.00     0.039 A 
ATOM     48  C   UNL A   1      45.923  21.738  25.599  1.00  0.00     0.014 A 
ATOM     49  C   UNL A   1      44.249  22.377  23.935  1.00  0.00     0.014 A 
ATOM     50  C   UNL A   1      45.491  22.777  26.382  1.00  0.00     0.010 A 
ATOM     51  C   UNL A   1      43.952  23.522  24.643  1.00  0.00     0.010 A 
ATOM     52  C   UNL A   1      44.485  23.659  25.917  1.00  0.00    -0.014 A 
BRANCH  52  53
ATOM     53  C   UNL A   1      44.191  24.797  26.781  1.00  0.00     0.031 A 
ATOM     54  C   UNL A   1      45.250  25.841  26.662  1.00  0.00     0.074 A 
ATOM     55  C   UNL A   1      43.104  24.959  27.556  1.00  0.00     0.049 A 
ATOM     56  N   UNL A   1      46.096  26.199  27.571  1.00  0.00    -0.248 NA
ATOM     57  C   UNL A   1      45.591  26.295  25.299  1.00  0.00     0.031 C 
ATOM     58  C   UNL A   1      41.880  24.166  27.648  1.00  0.00     0.029 A 
ATOM     59  N   UNL A   1      42.856  25.989  28.411  1.00  0.00    -0.354 N 
ATOM     60  C   UNL A   1      47.002  27.034  26.927  1.00  0.00     0.074 A 
ATOM     61  C   UNL A   1      46.756  26.902  25.517  1.00  0.00     0.031 C 
ATOM     62  C   UNL A   1      40.931  24.883  28.297  1.00  0.00     0.029 A 
ATOM     63  C   UNL A   1      41.528  26.106  28.799  1.00  0.00     0.049 A 
ATOM     64  H   UNL A   1      43.560  26.600  28.728  1.00  0.00     0.167 HD
ATOM     65  C   UNL A   1      47.743  27.936  27.621  1.00  0.00     0.037 A 
ATOM     66  C   UNL A   1      40.989  27.195  29.403  1.00  0.00     0.037 A 
ATOM     67  C   UNL A   1      47.853  27.558  29.006  1.00  0.00     0.049 A 
ATOM     68  C   UNL A   1      42.113  27.949  30.028  1.00  0.00     0.074 A 
ATOM     69  C   UNL A   1      48.437  26.499  29.673  1.00  0.00     0.029 A 
ATOM     70  N   UNL A   1      46.976  28.123  29.900  1.00  0.00    -0.354 N 
ATOM     71  N   UNL A   1      42.802  27.495  31.039  1.00  0.00    -0.248 NA
ATOM     72  C   UNL A   1      42.781  28.959  29.217  1.00  0.00     0.031 C 
ATOM     73  C   UNL A   1      47.537  26.189  30.736  1.00  0.00     0.029 A 
ATOM     74  C   UNL A   1      46.494  27.113  30.693  1.00  0.00     0.049 A 
ATOM     75  H   UNL A   1      46.737  29.076  29.960  1.00  0.00     0.167 HD
ATOM     76  C   UNL A   1      44.117  27.836  30.754  1.00  0.00     0.074 A 
ATOM     77  C   UNL A   1      44.035  28.785  29.643  1.00  0.00     0.031 C 
ATOM     78  C   UNL A   1      45.159  27.102  31.240  1.00  0.00     0.037 A 
BRANCH  65  79
ATOM     79  C   UNL A   1      47.981  29.342  27.127  1.00  0.00     0.064 A 
ATOM     80  C   UNL A   1      49.295  29.845  27.129  1.00  0.00     0.173 A 
ATOM     81  C   UNL A   1      46.961  30.307  26.961  1.00  0.00     0.173 A 
ATOM     82  F   UNL A   1      50.344  29.022  27.272  1.00  0.00    -0.203 F 
ATOM     83  C   UNL A   1      49.556  31.218  27.091  1.00  0.00     0.198 A 
ATOM     84  C   UNL A   1      47.228  31.670  26.877  1.00  0.00     0.198 A 
ATOM     85  F   UNL A   1      45.660  30.003  26.986  1.00  0.00    -0.203 F 
ATOM     86  F   UNL A   1      50.812  31.657  27.239  1.00  0.00    -0.200 F 
ATOM     87  C   UNL A   1      48.521  32.128  26.982  1.00  0.00     0.200 A 
ATOM     88  F   UNL A   1      46.207  32.533  26.783  1.00  0.00    -0.200 F 
ATOM     89  F   UNL A   1      48.762  33.444  27.023  1.00  0.00    -0.200 F 
ENDBRANCH  65  79
BRANCH  66  90
ATOM     90  C   UNL A   1      39.674  27.823  29.119  1.00  0.00     0.064 A 
ATOM     91  C   UNL A   1      38.721  28.000  30.137  1.00  0.00     0.173 A 
ATOM     92  C   UNL A   1      39.438  28.518  27.916  1.00  0.00     0.173 A 
ATOM     93  F   UNL A   1      38.895  27.415  31.331  1.00  0.00    -0.203 F 
ATOM     94  C   UNL A   1      37.614  28.839  29.969  1.00  0.00     0.198 A 
ATOM     95  C   UNL A   1      38.331  29.352  27.748  1.00  0.00     0.198 A 
ATOM     96  F   UNL A   1      40.326  28.481  26.913  1.00  0.00    -0.203 F 
ATOM     97  F   UNL A   1      36.758  29.031  30.983  1.00  0.00    -0.200 F 
ATOM     98  C   UNL A   1      37.425  29.523  28.778  1.00  0.00     0.200 A 
ATOM     99  F   UNL A   1      38.183  30.037  26.606  1.00  0.00    -0.200 F 
ATOM    100  F   UNL A   1      36.400  30.375  28.638  1.00  0.00    -0.200 F 
ENDBRANCH  66  90
BRANCH  78 101
ATOM    101  C   UNL A   1      44.859  26.038  32.256  1.00  0.00     0.064 A 
ATOM    102  C   UNL A   1      44.757  26.282  33.637  1.00  0.00     0.173 A 
ATOM    103  C   UNL A   1      44.482  24.771  31.797  1.00  0.00     0.173 A 
ATOM    104  F   UNL A   1      45.004  27.498  34.141  1.00  0.00    -0.203 F 
ATOM    105  C   UNL A   1      44.325  25.290  34.517  1.00  0.00     0.198 A 
ATOM    106  C   UNL A   1      44.018  23.793  32.672  1.00  0.00     0.198 A 
ATOM    107  F   UNL A   1      44.506  24.500  30.482  1.00  0.00    -0.203 F 
ATOM    108  F   UNL A   1      44.233  25.549  35.830  1.00  0.00    -0.200 F 
ATOM    109  C   UNL A   1      43.946  24.050  34.031  1.00  0.00     0.200 A 
ATOM    110  F   UNL A   1      43.603  22.613  32.191  1.00  0.00    -0.200 F 
ATOM    111  F   UNL A   1      43.481  23.112  34.869  1.00  0.00    -0.200 F 
ENDBRANCH  78 101
ENDBRANCH  52  53
ENDBRANCH  44  47
ENDBRANCH  42  43
ENDBRANCH  41  42
ENDBRANCH  40  41
ENDBRANCH   1  40
TORSDOF 17
ENDMDL
MODEL 2
REMARK VINA RESULT:     -16.1      2.921      9.674
REMARK SMILES Cc1coc2cc3c(cc12)[C@@H](C)[C@H](CCC(=O)N[C@@H](Cc1c[nH]c2ccccc12)C(=O)NCCCCNC(=O)c1ccc(-c2c4nc(c(-c5c(F)c(F)c(F)c(F)c5F)c5ccc([nH]5)c(-c5c(F)c(F)c(F)c(F)c5F)c5nc(c(-c6c(F)c(F)c(F)c(F)c6F)c6ccc2[nH]6)C=C5)C=C4)cc1)C(=O)O3
REMARK SMILES IDX 33 1 32 2 30 3 31 4 19 6 18 7 16 8 17 9 15 11 14 12 13 13
REMARK SMILES IDX 1 14 2 15 3 16 10 17 4 18 5 19 9 20 6 21 8 22 7 23 11 24
REMARK SMILES IDX 105 25 12 26 103 27 104 28 20 29 21 30 22 31 29 32 23 33
REMARK SMILES IDX 24 34 28 35 25 37 27 38 26 39 34 40 35 41 36 42 37 43 38 44
REMARK SMILES IDX 39 46 40 47 41 48 102 49 42 50 101 51 43 52 44 53 45 54
REMARK SMILES IDX 95 55 46 56 100 57 94 58 96 59 47 60 99 61 93 62 92 63 48 65
REMARK SMILES IDX 80 66 60 67 79 68 61 69 64 70 78 71 97 72 62 73 63 74 77 76
REMARK SMILES IDX 98 77 65 78 49 79 50 80 58 81 51 82 52 83 56 84 59 85 53 86
REMARK SMILES IDX 54 87 57 88 55 89 81 90 82 91 90 92 83 93 84 94 88 95 91 96
REMARK SMILES IDX 85 97 86 98 89 99 87 100 66 101 67 102 75 103 68 104 69 105
REMARK SMILES IDX 73 106 76 107 70 108 71 109 74 110 72 111
REMARK H PARENT 32 5 18 10 23 36 37 45 96 64 64 75
REMARK Flexibility Score: inf
ROOT
ATOM      1  C   UNL A   1      33.919  28.676  24.079  1.00  0.00     0.116 C 
ENDROOT
BRANCH   1   2
ATOM      2  N   UNL A   1      33.190  27.728  22.900  1.00  0.00    -0.354 N 
ATOM      3  C   UNL A   1      32.037  26.984  22.754  1.00  0.00     0.242 C 
ATOM      4  O   UNL A   1      32.054  26.128  21.860  1.00  0.00    -0.273 OA
ATOM      5  H   UNL A   1      33.739  27.694  22.084  1.00  0.00     0.163 HD
BRANCH   3   6
ATOM      6  C   UNL A   1      30.765  27.140  23.661  1.00  0.00     0.175 C 
BRANCH   6   7
ATOM      7  N   UNL A   1      30.778  26.553  25.063  1.00  0.00    -0.344 N 
ATOM      8  C   UNL A   1      31.656  25.872  25.878  1.00  0.00     0.220 C 
ATOM      9  O   UNL A   1      31.148  25.345  26.879  1.00  0.00    -0.275 OA
ATOM     10  H   UNL A   1      29.916  26.701  25.515  1.00  0.00     0.164 HD
BRANCH   8  11
ATOM     11  C   UNL A   1      33.207  25.711  25.677  1.00  0.00     0.101 C 
BRANCH  11  12
ATOM     12  C   UNL A   1      33.948  24.286  25.978  1.00  0.00     0.026 C 
BRANCH  12  13
ATOM     13  C   UNL A   1      35.169  23.911  25.031  1.00  0.00     0.107 C 
ATOM     14  C   UNL A   1      35.132  16.686  24.660  1.00  0.00     0.048 C 
ATOM     15  C   UNL A   1      34.020  17.663  24.668  1.00  0.00    -0.005 A 
ATOM     16  C   UNL A   1      32.672  17.381  24.579  1.00  0.00     0.199 A 
ATOM     17  C   UNL A   1      34.121  19.084  24.739  1.00  0.00     0.024 A 
ATOM     18  O   UNL A   1      31.938  18.520  24.548  1.00  0.00    -0.464 OA
ATOM     19  C   UNL A   1      32.816  19.556  24.618  1.00  0.00     0.137 A 
ATOM     20  C   UNL A   1      35.181  20.019  24.854  1.00  0.00     0.020 A 
ATOM     21  C   UNL A   1      32.482  20.895  24.492  1.00  0.00     0.095 A 
ATOM     22  C   UNL A   1      34.886  21.381  24.764  1.00  0.00    -0.001 A 
ATOM     23  C   UNL A   1      33.588  21.740  24.445  1.00  0.00     0.138 A 
ATOM     24  C   UNL A   1      35.888  22.512  24.820  1.00  0.00     0.034 C 
ATOM     25  O   UNL A   1      33.455  22.990  23.791  1.00  0.00    -0.426 OA
ATOM     26  C   UNL A   1      36.660  22.477  23.454  1.00  0.00     0.014 C 
ATOM     27  C   UNL A   1      34.474  23.971  23.766  1.00  0.00     0.314 C 
ATOM     28  O   UNL A   1      34.689  24.819  22.913  1.00  0.00    -0.251 OA
ENDBRANCH  12  13
ENDBRANCH  11  12
ENDBRANCH   8  11
ENDBRANCH   6   7
BRANCH   6  29
ATOM     29  C   UNL A   1      30.353  28.623  23.545  1.00  0.00     0.072 C 
BRANCH  29  30
ATOM     30  C   UNL A   1      28.879  28.906  23.648  1.00  0.00    -0.020 A 
ATOM     31  C   UNL A   1      27.903  28.055  23.114  1.00  0.00     0.087 A 
ATOM     32  C   UNL A   1      28.365  30.241  23.673  1.00  0.00     0.003 A 
ATOM     33  N   UNL A   1      26.980  28.766  22.364  1.00  0.00    -0.361 N 
ATOM     34  C   UNL A   1      27.520  30.008  22.157  1.00  0.00     0.046 A 
ATOM     35  C   UNL A   1      29.161  31.856  24.005  1.00  0.00     0.010 A 
ATOM     36  H   UNL A   1      26.107  28.443  22.044  1.00  0.00     0.166 HD
ATOM     37  C   UNL A   1      27.597  31.238  20.862  1.00  0.00     0.026 A 
ATOM     38  C   UNL A   1      29.260  33.103  22.693  1.00  0.00     0.001 A 
ATOM     39  C   UNL A   1      28.458  32.788  21.135  1.00  0.00     0.002 A 
ENDBRANCH  29  30
ENDBRANCH   6  29
ENDBRANCH   3   6
ENDBRANCH   1   2
BRANCH   1  40
ATOM     40  C   UNL A   1      33.013  29.805  25.747  1.00  0.00     0.023 C 
BRANCH  40  41
ATOM     41  C   UNL A   1      33.422  30.114  27.375  1.00  0.00     0.023 C 
BRANCH  41  42
ATOM     42  C   UNL A   1      34.012  31.478  27.720  1.00  0.00     0.116 C 
BRANCH  42  43
ATOM     43  N   UNL A   1      34.389  31.624  29.132  1.00  0.00    -0.352 N 
ATOM     44  C   UNL A   1      35.610  31.640  29.752  1.00  0.00     0.251 C 
ATOM     45  H   UNL A   1      33.626  31.730  29.746  1.00  0.00     0.163 HD
ATOM     46  O   UNL A   1      35.735  31.960  30.926  1.00  0.00    -0.269 OA
BRANCH  44  47
ATOM     47  C   UNL A   1      36.713  31.041  29.009  1.00  0.00     0.039 A 
ATOM     48  C   UNL A   1      36.624  29.696  28.693  1.00  0.00     0.014 A 
ATOM     49  C   UNL A   1      37.935  31.708  29.153  1.00  0.00     0.014 A 
ATOM     50  C   UNL A   1      37.754  28.951  28.915  1.00  0.00     0.010 A 
ATOM     51  C   UNL A   1      39.097  30.969  29.190  1.00  0.00     0.010 A 
ATOM     52  C   UNL A   1      38.990  29.584  29.189  1.00  0.00    -0.014 A 
BRANCH  52  53
ATOM     53  C   UNL A   1      40.147  28.701  29.288  1.00  0.00     0.031 A 
ATOM     54  C   UNL A   1      40.517  28.470  30.714  1.00  0.00     0.074 A 
ATOM     55  C   UNL A   1      40.794  28.105  28.271  1.00  0.00     0.049 A 
ATOM     56  N   UNL A   1      41.588  28.871  31.316  1.00  0.00    -0.248 NA
ATOM     57  C   UNL A   1      39.441  28.023  31.622  1.00  0.00     0.031 C 
ATOM     58  C   UNL A   1      40.463  28.037  26.849  1.00  0.00     0.029 A 
ATOM     59  N   UNL A   1      41.910  27.332  28.354  1.00  0.00    -0.354 N 
ATOM     60  C   UNL A   1      41.380  28.605  32.664  1.00  0.00     0.074 A 
ATOM     61  C   UNL A   1      39.990  28.269  32.809  1.00  0.00     0.031 C 
ATOM     62  C   UNL A   1      41.198  27.059  26.266  1.00  0.00     0.029 A 
ATOM     63  C   UNL A   1      42.153  26.550  27.232  1.00  0.00     0.049 A 
ATOM     64  H   UNL A   1      42.499  27.327  29.143  1.00  0.00     0.167 HD
ATOM     65  C   UNL A   1      42.422  28.472  33.524  1.00  0.00     0.037 A 
ATOM     66  C   UNL A   1      43.020  25.507  27.184  1.00  0.00     0.037 A 
ATOM     67  C   UNL A   1      43.599  29.125  33.014  1.00  0.00     0.049 A 
ATOM     68  C   UNL A   1      43.994  25.700  28.296  1.00  0.00     0.074 A 
ATOM     69  C   UNL A   1      43.933  30.438  32.742  1.00  0.00     0.029 A 
ATOM     70  N   UNL A   1      44.520  28.360  32.339  1.00  0.00    -0.354 N 
ATOM     71  N   UNL A   1      44.867  26.670  28.322  1.00  0.00    -0.248 NA
ATOM     72  C   UNL A   1      43.660  25.123  29.592  1.00  0.00     0.031 C 
ATOM     73  C   UNL A   1      44.712  30.383  31.548  1.00  0.00     0.029 A 
ATOM     74  C   UNL A   1      44.859  29.041  31.198  1.00  0.00     0.049 A 
ATOM     75  H   UNL A   1      44.870  27.485  32.621  1.00  0.00     0.167 HD
ATOM     76  C   UNL A   1      44.875  27.105  29.640  1.00  0.00     0.074 A 
ATOM     77  C   UNL A   1      44.150  26.078  30.388  1.00  0.00     0.031 C 
ATOM     78  C   UNL A   1      45.205  28.390  29.958  1.00  0.00     0.037 A 
BRANCH  65  79
ATOM     79  C   UNL A   1      42.466  27.400  34.586  1.00  0.00     0.064 A 
ATOM     80  C   UNL A   1      42.937  26.121  34.235  1.00  0.00     0.173 A 
ATOM     81  C   UNL A   1      41.781  27.478  35.820  1.00  0.00     0.173 A 
ATOM     82  F   UNL A   1      43.607  25.928  33.089  1.00  0.00    -0.203 F 
ATOM     83  C   UNL A   1      42.636  24.993  35.002  1.00  0.00     0.198 A 
ATOM     84  C   UNL A   1      41.525  26.358  36.604  1.00  0.00     0.198 A 
ATOM     85  F   UNL A   1      41.230  28.606  36.276  1.00  0.00    -0.203 F 
ATOM     86  F   UNL A   1      42.982  23.778  34.555  1.00  0.00    -0.200 F 
ATOM     87  C   UNL A   1      41.917  25.111  36.176  1.00  0.00     0.200 A 
ATOM     88  F   UNL A   1      40.815  26.497  37.733  1.00  0.00    -0.200 F 
ATOM     89  F   UNL A   1      41.562  24.024  36.872  1.00  0.00    -0.200 F 
ENDBRANCH  65  79
BRANCH  66  90
ATOM     90  C   UNL A   1      42.810  24.191  26.533  1.00  0.00     0.064 A 
ATOM     91  C   UNL A   1      43.697  23.719  25.550  1.00  0.00     0.173 A 
ATOM     92  C   UNL A   1      41.905  23.248  27.060  1.00  0.00     0.173 A 
ATOM     93  F   UNL A   1      44.624  24.537  25.031  1.00  0.00    -0.203 F 
ATOM     94  C   UNL A   1      43.694  22.381  25.139  1.00  0.00     0.198 A 
ATOM     95  C   UNL A   1      41.900  21.914  26.646  1.00  0.00     0.198 A 
ATOM     96  F   UNL A   1      41.072  23.575  28.058  1.00  0.00    -0.203 F 
ATOM     97  F   UNL A   1      44.595  21.954  24.243  1.00  0.00    -0.200 F 
ATOM     98  C   UNL A   1      42.803  21.478  25.695  1.00  0.00     0.200 A 
ATOM     99  F   UNL A   1      41.059  21.043  27.222  1.00  0.00    -0.200 F 
ATOM    100  F   UNL A   1      42.840  20.183  25.349  1.00  0.00    -0.200 F 
ENDBRANCH  66  90
BRANCH  78 101
ATOM    101  C   UNL A   1      45.756  29.267  28.870  1.00  0.00     0.064 A 
ATOM    102  C   UNL A   1      44.957  30.036  28.006  1.00  0.00     0.173 A 
ATOM    103  C   UNL A   1      47.140  29.473  28.823  1.00  0.00     0.173 A 
ATOM    104  F   UNL A   1      43.621  29.967  28.060  1.00  0.00    -0.203 F 
ATOM    105  C   UNL A   1      45.525  30.948  27.117  1.00  0.00     0.198 A 
ATOM    106  C   UNL A   1      47.702  30.409  27.960  1.00  0.00     0.198 A 
ATOM    107  F   UNL A   1      47.946  28.807  29.665  1.00  0.00    -0.203 F 
ATOM    108  F   UNL A   1      44.741  31.672  26.304  1.00  0.00    -0.200 F 
ATOM    109  C   UNL A   1      46.897  31.140  27.103  1.00  0.00     0.200 A 
ATOM    110  F   UNL A   1      49.024  30.629  27.987  1.00  0.00    -0.200 F 
ATOM    111  F   UNL A   1      47.439  32.055  26.286  1.00  0.00    -0.200 F 
ENDBRANCH  78 101
ENDBRANCH  52  53
ENDBRANCH  44  47
ENDBRANCH  42  43
ENDBRANCH  41  42
ENDBRANCH  40  41
ENDBRANCH   1  40
TORSDOF 17
ENDMDL
MODEL 3
REMARK VINA RESULT:     -16.0      1.138      2.122
REMARK SMILES Cc1coc2cc3c(cc12)[C@@H](C)[C@H](CCC(=O)N[C@@H](Cc1c[nH]c2ccccc12)C(=O)NCCCCNC(=O)c1ccc(-c2c4nc(c(-c5c(F)c(F)c(F)c(F)c5F)c5ccc([nH]5)c(-c5c(F)c(F)c(F)c(F)c5F)c5nc(c(-c6c(F)c(F)c(F)c(F)c6F)c6ccc2[nH]6)C=C5)C=C4)cc1)C(=O)O3
REMARK SMILES IDX 33 1 32 2 30 3 31 4 19 6 18 7 16 8 17 9 15 11 14 12 13 13
REMARK SMILES IDX 1 14 2 15 3 16 10 17 4 18 5 19 9 20 6 21 8 22 7 23 11 24
REMARK SMILES IDX 105 25 12 26 103 27 104 28 20 29 21 30 22 31 29 32 23 33
REMARK SMILES IDX 24 34 28 35 25 37 27 38 26 39 34 40 35 41 36 42 37 43 38 44
REMARK SMILES IDX 39 46 40 47 41 48 102 49 42 50 101 51 43 52 44 53 45 54
REMARK SMILES IDX 95 55 46 56 100 57 94 58 96 59 47 60 99 61 93 62 92 63 48 65
REMARK SMILES IDX 80 66 60 67 79 68 61 69 64 70 78 71 97 72 62 73 63 74 77 76
REMARK SMILES IDX 98 77 65 78 49 79 50 80 58 81 51 82 52 83 56 84 59 85 53 86
REMARK SMILES IDX 54 87 57 88 55 89 81 90 82 91 90 92 83 93 84 94 88 95 91 96
REMARK SMILES IDX 85 97 86 98 89 99 87 100 66 101 67 102 75 103 68 104 69 105
REMARK SMILES IDX 73 106 76 107 70 108 71 109 74 110 72 111
REMARK H PARENT 32 5 18 10 23 36 37 45 96 64 64 75
REMARK Flexibility Score: inf
ROOT
ATOM      1  C   UNL A   1      38.223  22.594  26.121  1.00  0.00     0.116 C 
ENDROOT
BRANCH   1   2
ATOM      2  N   UNL A   1      37.711  23.210  24.645  1.00  0.00    -0.354 N 
ATOM      3  C   UNL A   1      36.681  23.001  23.751  1.00  0.00     0.242 C 
ATOM      4  O   UNL A   1      36.874  23.405  22.597  1.00  0.00    -0.273 OA
ATOM      5  H   UNL A   1      38.315  23.921  24.329  1.00  0.00     0.163 HD
BRANCH   3   6
ATOM      6  C   UNL A   1      35.340  22.265  24.106  1.00  0.00     0.175 C 
BRANCH   6   7
ATOM      7  N   UNL A   1      34.243  22.177  23.058  1.00  0.00    -0.344 N 
ATOM      8  C   UNL A   1      33.283  23.001  22.510  1.00  0.00     0.220 C 
ATOM      9  O   UNL A   1      32.407  22.425  21.848  1.00  0.00    -0.275 OA
ATOM     10  H   UNL A   1      34.209  21.277  22.658  1.00  0.00     0.164 HD
BRANCH   8  11
ATOM     11  C   UNL A   1      33.198  24.566  22.628  1.00  0.00     0.101 C 
BRANCH  11  12
ATOM     12  C   UNL A   1      33.110  25.293  24.089  1.00  0.00     0.026 C 
BRANCH  12  13
ATOM     13  C   UNL A   1      33.632  26.793  24.165  1.00  0.00     0.107 C 
ATOM     14  C   UNL A   1      28.385  30.784  21.186  1.00  0.00     0.048 C 
ATOM     15  C   UNL A   1      28.319  29.607  22.081  1.00  0.00    -0.005 A 
ATOM     16  C   UNL A   1      27.178  29.008  22.578  1.00  0.00     0.199 A 
ATOM     17  C   UNL A   1      29.417  28.878  22.630  1.00  0.00     0.024 A 
ATOM     18  O   UNL A   1      27.490  27.994  23.422  1.00  0.00    -0.464 OA
ATOM     19  C   UNL A   1      28.847  27.930  23.477  1.00  0.00     0.137 A 
ATOM     20  C   UNL A   1      30.829  28.947  22.529  1.00  0.00     0.020 A 
ATOM     21  C   UNL A   1      29.573  27.107  24.323  1.00  0.00     0.095 A 
ATOM     22  C   UNL A   1      31.601  28.114  23.341  1.00  0.00    -0.001 A 
ATOM     23  C   UNL A   1      30.944  27.350  24.290  1.00  0.00     0.138 A 
ATOM     24  C   UNL A   1      33.111  28.081  23.399  1.00  0.00     0.034 C 
ATOM     25  O   UNL A   1      31.716  27.015  25.430  1.00  0.00    -0.426 OA
ATOM     26  C   UNL A   1      33.545  29.393  24.146  1.00  0.00     0.014 C 
ATOM     27  C   UNL A   1      33.126  27.121  25.477  1.00  0.00     0.314 C 
ATOM     28  O   UNL A   1      33.838  27.325  26.449  1.00  0.00    -0.251 OA
ENDBRANCH  12  13
ENDBRANCH  11  12
ENDBRANCH   8  11
ENDBRANCH   6   7
BRANCH   6  29
ATOM     29  C   UNL A   1      35.760  20.936  24.770  1.00  0.00     0.072 C 
BRANCH  29  30
ATOM     30  C   UNL A   1      34.642  20.096  25.324  1.00  0.00    -0.020 A 
ATOM     31  C   UNL A   1      33.954  19.146  24.559  1.00  0.00     0.087 A 
ATOM     32  C   UNL A   1      33.772  20.578  26.353  1.00  0.00     0.003 A 
ATOM     33  N   UNL A   1      32.583  19.294  24.697  1.00  0.00    -0.361 N 
ATOM     34  C   UNL A   1      32.381  20.511  25.292  1.00  0.00     0.046 A 
ATOM     35  C   UNL A   1      33.921  21.970  27.533  1.00  0.00     0.010 A 
ATOM     36  H   UNL A   1      31.891  18.651  24.421  1.00  0.00     0.166 HD
ATOM     37  C   UNL A   1      31.225  21.872  25.204  1.00  0.00     0.026 A 
ATOM     38  C   UNL A   1      32.765  23.363  27.441  1.00  0.00     0.001 A 
ATOM     39  C   UNL A   1      31.412  23.291  26.285  1.00  0.00     0.002 A 
ENDBRANCH  29  30
ENDBRANCH   6  29
ENDBRANCH   3   6
ENDBRANCH   1   2
BRANCH   1  40
ATOM     40  C   UNL A   1      40.189  21.777  26.707  1.00  0.00     0.023 C 
BRANCH  40  41
ATOM     41  C   UNL A   1      41.021  20.307  26.460  1.00  0.00     0.023 C 
BRANCH  41  42
ATOM     42  C   UNL A   1      42.546  20.339  26.448  1.00  0.00     0.116 C 
BRANCH  42  43
ATOM     43  N   UNL A   1      43.144  19.836  25.204  1.00  0.00    -0.352 N 
ATOM     44  C   UNL A   1      44.215  20.267  24.469  1.00  0.00     0.251 C 
ATOM     45  H   UNL A   1      42.692  19.045  24.830  1.00  0.00     0.163 HD
ATOM     46  O   UNL A   1      44.679  19.604  23.551  1.00  0.00    -0.269 OA
BRANCH  44  47
ATOM     47  C   UNL A   1      44.628  21.649  24.687  1.00  0.00     0.039 A 
ATOM     48  C   UNL A   1      45.522  21.901  25.713  1.00  0.00     0.014 A 
ATOM     49  C   UNL A   1      43.715  22.604  24.224  1.00  0.00     0.014 A 
ATOM     50  C   UNL A   1      45.223  22.968  26.522  1.00  0.00     0.010 A 
ATOM     51  C   UNL A   1      43.547  23.769  24.941  1.00  0.00     0.010 A 
ATOM     52  C   UNL A   1      44.217  23.892  26.151  1.00  0.00    -0.014 A 
BRANCH  52  53
ATOM     53  C   UNL A   1      44.068  25.051  27.024  1.00  0.00     0.031 A 
ATOM     54  C   UNL A   1      45.229  25.977  26.878  1.00  0.00     0.074 A 
ATOM     55  C   UNL A   1      43.026  25.325  27.828  1.00  0.00     0.049 A 
ATOM     56  N   UNL A   1      46.132  26.239  27.764  1.00  0.00    -0.248 NA
ATOM     57  C   UNL A   1      45.581  26.398  25.507  1.00  0.00     0.031 C 
ATOM     58  C   UNL A   1      41.727  24.667  27.951  1.00  0.00     0.029 A 
ATOM     59  N   UNL A   1      42.911  26.372  28.690  1.00  0.00    -0.354 N 
ATOM     60  C   UNL A   1      47.105  26.976  27.098  1.00  0.00     0.074 A 
ATOM     61  C   UNL A   1      46.809  26.876  25.694  1.00  0.00     0.031 C 
ATOM     62  C   UNL A   1      40.877  25.478  28.626  1.00  0.00     0.029 A 
ATOM     63  C   UNL A   1      41.614  26.628  29.114  1.00  0.00     0.049 A 
ATOM     64  H   UNL A   1      43.684  26.903  28.989  1.00  0.00     0.167 HD
ATOM     65  C   UNL A   1      47.955  27.791  27.772  1.00  0.00     0.037 A 
ATOM     66  C   UNL A   1      41.210  27.767  29.733  1.00  0.00     0.037 A 
ATOM     67  C   UNL A   1      48.061  27.398  29.153  1.00  0.00     0.049 A 
ATOM     68  C   UNL A   1      42.424  28.393  30.328  1.00  0.00     0.074 A 
ATOM     69  C   UNL A   1      48.546  26.280  29.804  1.00  0.00     0.029 A 
ATOM     70  N   UNL A   1      47.273  28.050  30.071  1.00  0.00    -0.354 N 
ATOM     71  N   UNL A   1      43.087  27.865  31.321  1.00  0.00    -0.248 NA
ATOM     72  C   UNL A   1      43.174  29.330  29.501  1.00  0.00     0.031 C 
ATOM     73  C   UNL A   1      47.647  26.064  30.890  1.00  0.00     0.029 A 
ATOM     74  C   UNL A   1      46.707  27.094  30.876  1.00  0.00     0.049 A 
ATOM     75  H   UNL A   1      47.139  29.022  30.138  1.00  0.00     0.167 HD
ATOM     76  C   UNL A   1      44.423  28.066  31.001  1.00  0.00     0.074 A 
ATOM     77  C   UNL A   1      44.414  29.022  29.894  1.00  0.00     0.031 C 
ATOM     78  C   UNL A   1      45.394  27.223  31.458  1.00  0.00     0.037 A 
BRANCH  65  79
ATOM     79  C   UNL A   1      48.328  29.166  27.274  1.00  0.00     0.064 A 
ATOM     80  C   UNL A   1      49.683  29.546  27.292  1.00  0.00     0.173 A 
ATOM     81  C   UNL A   1      47.405  30.220  27.088  1.00  0.00     0.173 A 
ATOM     82  F   UNL A   1      50.650  28.631  27.454  1.00  0.00    -0.203 F 
ATOM     83  C   UNL A   1      50.070  30.888  27.250  1.00  0.00     0.198 A 
ATOM     84  C   UNL A   1      47.798  31.551  27.000  1.00  0.00     0.198 A 
ATOM     85  F   UNL A   1      46.081  30.037  27.096  1.00  0.00    -0.203 F 
ATOM     86  F   UNL A   1      51.360  31.211  27.413  1.00  0.00    -0.200 F 
ATOM     87  C   UNL A   1      49.125  31.889  27.121  1.00  0.00     0.200 A 
ATOM     88  F   UNL A   1      46.862  32.505  26.887  1.00  0.00    -0.200 F 
ATOM     89  F   UNL A   1      49.486  33.178  27.158  1.00  0.00    -0.200 F 
ENDBRANCH  65  79
BRANCH  66  90
ATOM     90  C   UNL A   1      39.962  28.532  29.485  1.00  0.00     0.064 A 
ATOM     91  C   UNL A   1      39.655  29.020  28.203  1.00  0.00     0.173 A 
ATOM     92  C   UNL A   1      38.916  28.552  30.428  1.00  0.00     0.173 A 
ATOM     93  F   UNL A   1      40.579  28.989  27.232  1.00  0.00    -0.203 F 
ATOM     94  C   UNL A   1      38.372  29.477  27.879  1.00  0.00     0.198 A 
ATOM     95  C   UNL A   1      37.637  29.013  30.105  1.00  0.00     0.198 A 
ATOM     96  F   UNL A   1      39.081  28.036  31.653  1.00  0.00    -0.203 F 
ATOM     97  F   UNL A   1      38.100  29.879  26.630  1.00  0.00    -0.200 F 
ATOM     98  C   UNL A   1      37.362  29.463  28.828  1.00  0.00     0.200 A 
ATOM     99  F   UNL A   1      36.660  28.957  31.021  1.00  0.00    -0.200 F 
ATOM    100  F   UNL A   1      36.118  29.842  28.502  1.00  0.00    -0.200 F 
ENDBRANCH  66  90
BRANCH  78 101
ATOM    101  C   UNL A   1      45.008  26.192  32.481  1.00  0.00     0.064 A 
ATOM    102  C   UNL A   1      44.905  26.458  33.858  1.00  0.00     0.173 A 
ATOM    103  C   UNL A   1      44.553  24.948  32.029  1.00  0.00     0.173 A 
ATOM    104  F   UNL A   1      45.227  27.660  34.353  1.00  0.00    -0.203 F 
ATOM    105  C   UNL A   1      44.395  25.507  34.741  1.00  0.00     0.198 A 
ATOM    106  C   UNL A   1      44.013  24.014  32.907  1.00  0.00     0.198 A 
ATOM    107  F   UNL A   1      44.576  24.662  30.717  1.00  0.00    -0.203 F 
ATOM    108  F   UNL A   1      44.304  25.786  36.050  1.00  0.00    -0.200 F 
ATOM    109  C   UNL A   1      43.940  24.290  34.263  1.00  0.00     0.200 A 
ATOM    110  F   UNL A   1      43.525  22.859  32.432  1.00  0.00    -0.200 F 
ATOM    111  F   UNL A   1      43.401  23.396  35.103  1.00  0.00    -0.200 F 
ENDBRANCH  78 101
ENDBRANCH  52  53
ENDBRANCH  44  47
ENDBRANCH  42  43
ENDBRANCH  41  42
ENDBRANCH  40  41
ENDBRANCH   1  40
TORSDOF 17
ENDMDL
