MODEL 1
REMARK VINA RESULT:     -12.3      0.000      0.000
REMARK SMILES O=C(CSc1nc(-c2cccc(F)c2)n[nH]1)NCCCCNC(=O)c1ccc(-c2c3nc(c(-c4c(F)c(F)c(F)c(F)c4F)c4ccc([nH]4)c(-c4c(F)c(F)c(F)c(F)c4F)c4nc(c(-c5c(F)c(F)c(F)c(F)c5F)c5ccc2[nH]5)C=C4)C=C3)cc1
REMARK SMILES IDX 19 1 18 2 17 3 1 4 2 5 3 7 4 8 5 9 6 10 16 11 7 12 15 13
REMARK SMILES IDX 8 15 9 16 14 17 10 18 12 19 11 20 13 21 20 22 21 23 22 24
REMARK SMILES IDX 23 25 24 27 25 28 26 29 87 30 27 31 86 32 28 33 29 34 30 35
REMARK SMILES IDX 80 36 31 37 85 38 79 39 81 40 32 41 84 42 78 43 77 44 33 46
REMARK SMILES IDX 65 47 45 48 64 49 46 50 49 51 63 52 82 53 47 54 48 55 62 57
REMARK SMILES IDX 83 58 50 59 34 60 35 61 43 62 36 63 37 64 41 65 44 66 38 67
REMARK SMILES IDX 39 68 42 69 40 70 66 71 67 72 75 73 68 74 69 75 73 76 76 77
REMARK SMILES IDX 70 78 71 79 74 80 72 81 51 82 52 83 60 84 53 85 54 86 58 87
REMARK SMILES IDX 61 88 55 89 56 90 59 91 57 92
REMARK H PARENT 17 6 16 14 22 26 81 45 49 56
REMARK Flexibility Score: inf
ROOT
ATOM      1  C   UNL A   1      31.729  30.608  26.356  1.00  0.00     0.023 C 
ENDROOT
BRANCH   1   2
ATOM      2  C   UNL A   1      33.174  30.109  26.351  1.00  0.00     0.116 C 
BRANCH   2   3
ATOM      3  N   UNL A   1      33.507  29.378  25.147  1.00  0.00    -0.355 N 
ATOM      4  O   UNL A   1      33.288  27.293  26.074  1.00  0.00    -0.274 OA
ATOM      5  C   UNL A   1      33.468  28.001  25.085  1.00  0.00     0.230 C 
ATOM      6  H   UNL A   1      33.770  29.882  24.343  1.00  0.00     0.163 HD
BRANCH   5   7
ATOM      7  C   UNL A   1      33.812  27.396  23.733  1.00  0.00     0.178 C 
BRANCH   7   8
ATOM      8  S   UNL A   1      32.584  26.194  23.131  1.00  0.00    -0.077 SA
BRANCH   8   9
ATOM      9  C   UNL A   1      31.178  27.180  23.067  1.00  0.00     0.184 A 
ATOM     10  N   UNL A   1      31.087  28.429  22.693  1.00  0.00    -0.201 NA
ATOM     11  N   UNL A   1      29.955  26.710  23.419  1.00  0.00    -0.254 N 
ATOM     12  C   UNL A   1      29.753  28.716  22.892  1.00  0.00     0.182 A 
ATOM     13  N   UNL A   1      29.029  27.681  23.351  1.00  0.00    -0.153 NA
ATOM     14  H   UNL A   1      29.771  25.781  23.689  1.00  0.00     0.192 HD
BRANCH  12  15
ATOM     15  C   UNL A   1      29.198  30.031  22.620  1.00  0.00     0.024 A 
ATOM     16  C   UNL A   1      29.215  31.021  23.614  1.00  0.00     0.012 A 
ATOM     17  C   UNL A   1      28.641  30.323  21.370  1.00  0.00     0.051 A 
ATOM     18  C   UNL A   1      28.694  32.293  23.358  1.00  0.00     0.004 A 
ATOM     19  C   UNL A   1      28.109  31.586  21.134  1.00  0.00     0.123 A 
ATOM     20  C   UNL A   1      28.135  32.573  22.112  1.00  0.00     0.039 A 
ATOM     21  F   UNL A   1      27.558  31.855  19.943  1.00  0.00    -0.207 F 
ENDBRANCH  12  15
ENDBRANCH   8   9
ENDBRANCH   7   8
ENDBRANCH   5   7
ENDBRANCH   2   3
ENDBRANCH   1   2
BRANCH   1  22
ATOM     22  C   UNL A   1      31.560  32.110  26.599  1.00  0.00     0.023 C 
BRANCH  22  23
ATOM     23  C   UNL A   1      32.735  32.808  27.275  1.00  0.00     0.116 C 
BRANCH  23  24
ATOM     24  N   UNL A   1      32.442  34.177  27.666  1.00  0.00    -0.352 N 
ATOM     25  C   UNL A   1      33.028  34.957  28.634  1.00  0.00     0.251 C 
ATOM     26  H   UNL A   1      31.716  34.610  27.162  1.00  0.00     0.163 HD
ATOM     27  O   UNL A   1      32.553  36.058  28.904  1.00  0.00    -0.269 OA
BRANCH  25  28
ATOM     28  C   UNL A   1      34.209  34.470  29.382  1.00  0.00     0.039 A 
ATOM     29  C   UNL A   1      34.018  33.895  30.642  1.00  0.00     0.014 A 
ATOM     30  C   UNL A   1      35.500  34.579  28.857  1.00  0.00     0.014 A 
ATOM     31  C   UNL A   1      35.106  33.364  31.338  1.00  0.00     0.010 A 
ATOM     32  C   UNL A   1      36.573  33.981  29.518  1.00  0.00     0.010 A 
ATOM     33  C   UNL A   1      36.387  33.362  30.763  1.00  0.00    -0.014 A 
BRANCH  33  34
ATOM     34  C   UNL A   1      37.536  32.701  31.440  1.00  0.00     0.031 A 
ATOM     35  C   UNL A   1      38.246  31.548  30.787  1.00  0.00     0.074 A 
ATOM     36  C   UNL A   1      37.902  33.102  32.673  1.00  0.00     0.049 A 
ATOM     37  N   UNL A   1      39.216  30.803  31.254  1.00  0.00    -0.248 NA
ATOM     38  C   UNL A   1      37.793  31.165  29.440  1.00  0.00     0.031 C 
ATOM     39  C   UNL A   1      37.273  34.186  33.430  1.00  0.00     0.029 A 
ATOM     40  N   UNL A   1      38.889  32.644  33.513  1.00  0.00    -0.354 N 
ATOM     41  C   UNL A   1      39.482  29.864  30.267  1.00  0.00     0.074 A 
ATOM     42  C   UNL A   1      38.537  30.096  29.196  1.00  0.00     0.031 C 
ATOM     43  C   UNL A   1      37.907  34.330  34.604  1.00  0.00     0.029 A 
ATOM     44  C   UNL A   1      38.957  33.320  34.707  1.00  0.00     0.049 A 
ATOM     45  H   UNL A   1      39.491  31.901  33.279  1.00  0.00     0.167 HD
ATOM     46  C   UNL A   1      40.443  28.910  30.247  1.00  0.00     0.037 A 
ATOM     47  C   UNL A   1      39.766  33.143  35.770  1.00  0.00     0.037 A 
ATOM     48  C   UNL A   1      41.401  28.699  31.301  1.00  0.00     0.049 A 
ATOM     49  C   UNL A   1      40.808  32.058  35.732  1.00  0.00     0.074 A 
ATOM     50  C   UNL A   1      42.447  27.794  31.342  1.00  0.00     0.029 A 
ATOM     51  N   UNL A   1      41.431  29.401  32.496  1.00  0.00    -0.354 N 
ATOM     52  N   UNL A   1      41.083  31.211  34.770  1.00  0.00    -0.248 NA
ATOM     53  C   UNL A   1      41.654  31.903  36.925  1.00  0.00     0.031 C 
ATOM     54  C   UNL A   1      43.074  27.907  32.584  1.00  0.00     0.029 A 
ATOM     55  C   UNL A   1      42.461  28.927  33.295  1.00  0.00     0.049 A 
ATOM     56  H   UNL A   1      40.813  30.127  32.743  1.00  0.00     0.167 HD
ATOM     57  C   UNL A   1      42.146  30.444  35.228  1.00  0.00     0.074 A 
ATOM     58  C   UNL A   1      42.477  30.934  36.549  1.00  0.00     0.031 C 
ATOM     59  C   UNL A   1      42.790  29.427  34.605  1.00  0.00     0.037 A 
BRANCH  46  60
ATOM     60  C   UNL A   1      40.530  28.020  29.040  1.00  0.00     0.064 A 
ATOM     61  C   UNL A   1      41.327  28.384  27.943  1.00  0.00     0.173 A 
ATOM     62  C   UNL A   1      39.755  26.857  28.930  1.00  0.00     0.173 A 
ATOM     63  F   UNL A   1      42.083  29.492  27.994  1.00  0.00    -0.203 F 
ATOM     64  C   UNL A   1      41.327  27.628  26.774  1.00  0.00     0.198 A 
ATOM     65  C   UNL A   1      39.782  26.085  27.771  1.00  0.00     0.198 A 
ATOM     66  F   UNL A   1      38.983  26.460  29.953  1.00  0.00    -0.203 F 
ATOM     67  F   UNL A   1      42.063  28.019  25.726  1.00  0.00    -0.200 F 
ATOM     68  C   UNL A   1      40.558  26.478  26.690  1.00  0.00     0.200 A 
ATOM     69  F   UNL A   1      39.054  24.962  27.699  1.00  0.00    -0.200 F 
ATOM     70  F   UNL A   1      40.562  25.748  25.567  1.00  0.00    -0.200 F 
ENDBRANCH  46  60
BRANCH  47  71
ATOM     71  C   UNL A   1      39.639  34.039  36.951  1.00  0.00     0.064 A 
ATOM     72  C   UNL A   1      40.312  35.268  37.015  1.00  0.00     0.173 A 
ATOM     73  C   UNL A   1      38.852  33.669  38.050  1.00  0.00     0.173 A 
ATOM     74  F   UNL A   1      41.080  35.667  35.991  1.00  0.00    -0.203 F 
ATOM     75  C   UNL A   1      40.220  36.081  38.143  1.00  0.00     0.198 A 
ATOM     76  C   UNL A   1      38.736  34.497  39.165  1.00  0.00     0.198 A 
ATOM     77  F   UNL A   1      38.170  32.514  38.026  1.00  0.00    -0.203 F 
ATOM     78  F   UNL A   1      40.903  37.233  38.193  1.00  0.00    -0.200 F 
ATOM     79  C   UNL A   1      39.427  35.698  39.214  1.00  0.00     0.200 A 
ATOM     80  F   UNL A   1      37.948  34.135  40.186  1.00  0.00    -0.200 F 
ATOM     81  F   UNL A   1      39.327  36.488  40.292  1.00  0.00    -0.200 F 
ENDBRANCH  47  71
BRANCH  59  82
ATOM     82  C   UNL A   1      43.940  28.779  35.320  1.00  0.00     0.064 A 
ATOM     83  C   UNL A   1      45.255  29.215  35.089  1.00  0.00     0.173 A 
ATOM     84  C   UNL A   1      43.754  27.673  36.161  1.00  0.00     0.173 A 
ATOM     85  F   UNL A   1      45.489  30.263  34.285  1.00  0.00    -0.203 F 
ATOM     86  C   UNL A   1      46.340  28.551  35.654  1.00  0.00     0.198 A 
ATOM     87  C   UNL A   1      44.840  27.032  36.750  1.00  0.00     0.198 A 
ATOM     88  F   UNL A   1      42.516  27.227  36.425  1.00  0.00    -0.203 F 
ATOM     89  F   UNL A   1      47.588  28.958  35.382  1.00  0.00    -0.200 F 
ATOM     90  C   UNL A   1      46.132  27.463  36.487  1.00  0.00     0.200 A 
ATOM     91  F   UNL A   1      44.636  25.995  37.575  1.00  0.00    -0.200 F 
ATOM     92  F   UNL A   1      47.177  26.829  37.036  1.00  0.00    -0.200 F 
ENDBRANCH  59  82
ENDBRANCH  33  34
ENDBRANCH  25  28
ENDBRANCH  23  24
ENDBRANCH  22  23
ENDBRANCH   1  22
TORSDOF 14
ENDMDL
MODEL 2
REMARK VINA RESULT:     -12.3      0.589      7.495
REMARK SMILES O=C(CSc1nc(-c2cccc(F)c2)n[nH]1)NCCCCNC(=O)c1ccc(-c2c3nc(c(-c4c(F)c(F)c(F)c(F)c4F)c4ccc([nH]4)c(-c4c(F)c(F)c(F)c(F)c4F)c4nc(c(-c5c(F)c(F)c(F)c(F)c5F)c5ccc2[nH]5)C=C4)C=C3)cc1
REMARK SMILES IDX 19 1 18 2 17 3 1 4 2 5 3 7 4 8 5 9 6 10 16 11 7 12 15 13
REMARK SMILES IDX 8 15 9 16 14 17 10 18 12 19 11 20 13 21 20 22 21 23 22 24
REMARK SMILES IDX 23 25 24 27 25 28 26 29 87 30 27 31 86 32 28 33 29 34 30 35
REMARK SMILES IDX 80 36 31 37 85 38 79 39 81 40 32 41 84 42 78 43 77 44 33 46
REMARK SMILES IDX 65 47 45 48 64 49 46 50 49 51 63 52 82 53 47 54 48 55 62 57
REMARK SMILES IDX 83 58 50 59 34 60 35 61 43 62 36 63 37 64 41 65 44 66 38 67
REMARK SMILES IDX 39 68 42 69 40 70 66 71 67 72 75 73 68 74 69 75 73 76 76 77
REMARK SMILES IDX 70 78 71 79 74 80 72 81 51 82 52 83 60 84 53 85 54 86 58 87
REMARK SMILES IDX 61 88 55 89 56 90 59 91 57 92
REMARK H PARENT 17 6 16 14 22 26 81 45 49 56
REMARK Flexibility Score: inf
ROOT
ATOM      1  C   UNL A   1      31.508  30.707  26.127  1.00  0.00     0.023 C 
ENDROOT
BRANCH   1   2
ATOM      2  C   UNL A   1      32.939  30.172  26.072  1.00  0.00     0.116 C 
BRANCH   2   3
ATOM      3  N   UNL A   1      33.215  29.443  24.853  1.00  0.00    -0.355 N 
ATOM      4  O   UNL A   1      33.689  27.447  25.878  1.00  0.00    -0.274 OA
ATOM      5  C   UNL A   1      33.505  28.094  24.848  1.00  0.00     0.230 C 
ATOM      6  H   UNL A   1      33.195  29.927  23.995  1.00  0.00     0.163 HD
BRANCH   5   7
ATOM      7  C   UNL A   1      33.734  27.478  23.476  1.00  0.00     0.178 C 
BRANCH   7   8
ATOM      8  S   UNL A   1      32.445  26.291  22.980  1.00  0.00    -0.077 SA
BRANCH   8   9
ATOM      9  C   UNL A   1      31.061  27.310  22.970  1.00  0.00     0.184 A 
ATOM     10  N   UNL A   1      30.972  28.543  22.546  1.00  0.00    -0.201 NA
ATOM     11  N   UNL A   1      29.856  26.887  23.428  1.00  0.00    -0.254 N 
ATOM     12  C   UNL A   1      29.662  28.873  22.825  1.00  0.00     0.182 A 
ATOM     13  N   UNL A   1      28.949  27.878  23.380  1.00  0.00    -0.153 NA
ATOM     14  H   UNL A   1      29.671  25.977  23.753  1.00  0.00     0.192 HD
BRANCH  12  15
ATOM     15  C   UNL A   1      29.119  30.188  22.532  1.00  0.00     0.024 A 
ATOM     16  C   UNL A   1      29.078  31.171  23.533  1.00  0.00     0.012 A 
ATOM     17  C   UNL A   1      28.631  30.488  21.255  1.00  0.00     0.051 A 
ATOM     18  C   UNL A   1      28.567  32.443  23.258  1.00  0.00     0.004 A 
ATOM     19  C   UNL A   1      28.110  31.751  20.999  1.00  0.00     0.123 A 
ATOM     20  C   UNL A   1      28.078  32.731  21.985  1.00  0.00     0.039 A 
ATOM     21  F   UNL A   1      27.624  32.028  19.781  1.00  0.00    -0.207 F 
ENDBRANCH  12  15
ENDBRANCH   8   9
ENDBRANCH   7   8
ENDBRANCH   5   7
ENDBRANCH   2   3
ENDBRANCH   1   2
BRANCH   1  22
ATOM     22  C   UNL A   1      31.380  32.183  26.512  1.00  0.00     0.023 C 
BRANCH  22  23
ATOM     23  C   UNL A   1      32.595  32.795  27.200  1.00  0.00     0.116 C 
BRANCH  23  24
ATOM     24  N   UNL A   1      32.375  34.163  27.645  1.00  0.00    -0.352 N 
ATOM     25  C   UNL A   1      33.020  34.881  28.623  1.00  0.00     0.251 C 
ATOM     26  H   UNL A   1      31.658  34.645  27.175  1.00  0.00     0.163 HD
ATOM     27  O   UNL A   1      32.603  35.992  28.942  1.00  0.00    -0.269 OA
BRANCH  25  28
ATOM     28  C   UNL A   1      34.196  34.316  29.322  1.00  0.00     0.039 A 
ATOM     29  C   UNL A   1      33.988  33.528  30.459  1.00  0.00     0.014 A 
ATOM     30  C   UNL A   1      35.497  34.558  28.873  1.00  0.00     0.014 A 
ATOM     31  C   UNL A   1      35.075  32.925  31.096  1.00  0.00     0.010 A 
ATOM     32  C   UNL A   1      36.572  33.894  29.464  1.00  0.00     0.010 A 
ATOM     33  C   UNL A   1      36.373  33.066  30.579  1.00  0.00    -0.014 A 
BRANCH  33  34
ATOM     34  C   UNL A   1      37.525  32.341  31.178  1.00  0.00     0.031 A 
ATOM     35  C   UNL A   1      38.036  32.715  32.542  1.00  0.00     0.074 A 
ATOM     36  C   UNL A   1      38.152  31.382  30.467  1.00  0.00     0.049 A 
ATOM     37  N   UNL A   1      39.070  32.247  33.195  1.00  0.00    -0.248 NA
ATOM     38  C   UNL A   1      37.302  33.769  33.261  1.00  0.00     0.031 C 
ATOM     39  C   UNL A   1      37.777  30.949  29.121  1.00  0.00     0.029 A 
ATOM     40  N   UNL A   1      39.240  30.601  30.774  1.00  0.00    -0.354 N 
ATOM     41  C   UNL A   1      39.115  32.952  34.390  1.00  0.00     0.074 A 
ATOM     42  C   UNL A   1      38.038  33.917  34.353  1.00  0.00     0.031 C 
ATOM     43  C   UNL A   1      38.598  29.962  28.730  1.00  0.00     0.029 A 
ATOM     44  C   UNL A   1      39.587  29.722  29.777  1.00  0.00     0.049 A 
ATOM     45  H   UNL A   1      39.724  30.665  31.629  1.00  0.00     0.167 HD
ATOM     46  C   UNL A   1      39.964  32.791  35.432  1.00  0.00     0.037 A 
ATOM     47  C   UNL A   1      40.594  28.828  29.707  1.00  0.00     0.037 A 
ATOM     48  C   UNL A   1      41.017  31.810  35.479  1.00  0.00     0.049 A 
ATOM     49  C   UNL A   1      41.539  28.689  30.870  1.00  0.00     0.074 A 
ATOM     50  C   UNL A   1      41.890  31.537  36.517  1.00  0.00     0.029 A 
ATOM     51  N   UNL A   1      41.340  30.944  34.446  1.00  0.00    -0.354 N 
ATOM     52  N   UNL A   1      41.538  29.326  32.015  1.00  0.00    -0.248 NA
ATOM     53  C   UNL A   1      42.625  27.707  30.732  1.00  0.00     0.031 C 
ATOM     54  C   UNL A   1      42.778  30.547  36.093  1.00  0.00     0.029 A 
ATOM     55  C   UNL A   1      42.420  30.155  34.813  1.00  0.00     0.049 A 
ATOM     56  H   UNL A   1      40.873  30.896  33.580  1.00  0.00     0.167 HD
ATOM     57  C   UNL A   1      42.599  28.805  32.743  1.00  0.00     0.074 A 
ATOM     58  C   UNL A   1      43.217  27.790  31.916  1.00  0.00     0.031 C 
ATOM     59  C   UNL A   1      43.021  29.139  33.987  1.00  0.00     0.037 A 
BRANCH  46  60
ATOM     60  C   UNL A   1      39.790  33.681  36.629  1.00  0.00     0.064 A 
ATOM     61  C   UNL A   1      38.937  33.305  37.679  1.00  0.00     0.173 A 
ATOM     62  C   UNL A   1      40.392  34.947  36.695  1.00  0.00     0.173 A 
ATOM     63  F   UNL A   1      38.331  32.108  37.661  1.00  0.00    -0.203 F 
ATOM     64  C   UNL A   1      38.678  34.171  38.738  1.00  0.00     0.198 A 
ATOM     65  C   UNL A   1      40.155  35.797  37.771  1.00  0.00     0.198 A 
ATOM     66  F   UNL A   1      41.223  35.351  35.722  1.00  0.00    -0.203 F 
ATOM     67  F   UNL A   1      37.828  33.806  39.706  1.00  0.00    -0.200 F 
ATOM     68  C   UNL A   1      39.289  35.414  38.785  1.00  0.00     0.200 A 
ATOM     69  F   UNL A   1      40.763  36.990  37.827  1.00  0.00    -0.200 F 
ATOM     70  F   UNL A   1      39.043  36.245  39.807  1.00  0.00    -0.200 F 
ENDBRANCH  46  60
BRANCH  47  71
ATOM     71  C   UNL A   1      40.738  27.973  28.498  1.00  0.00     0.064 A 
ATOM     72  C   UNL A   1      40.111  26.721  28.405  1.00  0.00     0.173 A 
ATOM     73  C   UNL A   1      41.527  28.388  27.416  1.00  0.00     0.173 A 
ATOM     74  F   UNL A   1      39.348  26.276  29.415  1.00  0.00    -0.203 F 
ATOM     75  C   UNL A   1      40.287  25.910  27.287  1.00  0.00     0.198 A 
ATOM     76  C   UNL A   1      41.676  27.589  26.284  1.00  0.00     0.198 A 
ATOM     77  F   UNL A   1      42.127  29.587  27.447  1.00  0.00    -0.203 F 
ATOM     78  F   UNL A   1      39.706  24.703  27.240  1.00  0.00    -0.200 F 
ATOM     79  C   UNL A   1      41.064  26.347  26.225  1.00  0.00     0.200 A 
ATOM     80  F   UNL A   1      42.406  28.026  25.250  1.00  0.00    -0.200 F 
ATOM     81  F   UNL A   1      41.220  25.571  25.143  1.00  0.00    -0.200 F 
ENDBRANCH  47  71
BRANCH  59  82
ATOM     82  C   UNL A   1      44.191  28.391  34.558  1.00  0.00     0.064 A 
ATOM     83  C   UNL A   1      45.500  28.852  34.345  1.00  0.00     0.173 A 
ATOM     84  C   UNL A   1      44.026  27.175  35.236  1.00  0.00     0.173 A 
ATOM     85  F   UNL A   1      45.714  30.006  33.694  1.00  0.00    -0.203 F 
ATOM     86  C   UNL A   1      46.599  28.111  34.769  1.00  0.00     0.198 A 
ATOM     87  C   UNL A   1      45.127  26.452  35.686  1.00  0.00     0.198 A 
ATOM     88  F   UNL A   1      42.795  26.698  35.476  1.00  0.00    -0.203 F 
ATOM     89  F   UNL A   1      47.840  28.550  34.513  1.00  0.00    -0.200 F 
ATOM     90  C   UNL A   1      46.412  26.914  35.441  1.00  0.00     0.200 A 
ATOM     91  F   UNL A   1      44.944  25.307  36.358  1.00  0.00    -0.200 F 
ATOM     92  F   UNL A   1      47.471  26.204  35.855  1.00  0.00    -0.200 F 
ENDBRANCH  59  82
ENDBRANCH  33  34
ENDBRANCH  25  28
ENDBRANCH  23  24
ENDBRANCH  22  23
ENDBRANCH   1  22
TORSDOF 14
ENDMDL
MODEL 3
REMARK VINA RESULT:     -12.3      6.818     12.052
REMARK SMILES O=C(CSc1nc(-c2cccc(F)c2)n[nH]1)NCCCCNC(=O)c1ccc(-c2c3nc(c(-c4c(F)c(F)c(F)c(F)c4F)c4ccc([nH]4)c(-c4c(F)c(F)c(F)c(F)c4F)c4nc(c(-c5c(F)c(F)c(F)c(F)c5F)c5ccc2[nH]5)C=C4)C=C3)cc1
REMARK SMILES IDX 19 1 18 2 17 3 1 4 2 5 3 7 4 8 5 9 6 10 16 11 7 12 15 13
REMARK SMILES IDX 8 15 9 16 14 17 10 18 12 19 11 20 13 21 20 22 21 23 22 24
REMARK SMILES IDX 23 25 24 27 25 28 26 29 87 30 27 31 86 32 28 33 29 34 30 35
REMARK SMILES IDX 80 36 31 37 85 38 79 39 81 40 32 41 84 42 78 43 77 44 33 46
REMARK SMILES IDX 65 47 45 48 64 49 46 50 49 51 63 52 82 53 47 54 48 55 62 57
REMARK SMILES IDX 83 58 50 59 34 60 35 61 43 62 36 63 37 64 41 65 44 66 38 67
REMARK SMILES IDX 39 68 42 69 40 70 66 71 67 72 75 73 68 74 69 75 73 76 76 77
REMARK SMILES IDX 70 78 71 79 74 80 72 81 51 82 52 83 60 84 53 85 54 86 58 87
REMARK SMILES IDX 61 88 55 89 56 90 59 91 57 92
REMARK H PARENT 17 6 16 14 22 26 81 45 49 56
REMARK Flexibility Score: inf
ROOT
ATOM      1  C   UNL A   1      36.962  20.562  24.776  1.00  0.00     0.023 C 
ENDROOT
BRANCH   1   2
ATOM      2  C   UNL A   1      37.095  21.802  25.659  1.00  0.00     0.116 C 
BRANCH   2   3
ATOM      3  N   UNL A   1      35.876  22.111  26.375  1.00  0.00    -0.355 N 
ATOM      4  O   UNL A   1      35.506  24.125  25.343  1.00  0.00    -0.274 OA
ATOM      5  C   UNL A   1      35.126  23.237  26.104  1.00  0.00     0.230 C 
ATOM      6  H   UNL A   1      35.570  21.495  27.080  1.00  0.00     0.163 HD
BRANCH   5   7
ATOM      7  C   UNL A   1      33.854  23.389  26.924  1.00  0.00     0.178 C 
BRANCH   7   8
ATOM      8  S   UNL A   1      32.327  23.305  25.935  1.00  0.00    -0.077 SA
BRANCH   8   9
ATOM      9  C   UNL A   1      32.508  21.762  25.201  1.00  0.00     0.184 A 
ATOM     10  N   UNL A   1      32.889  20.644  25.760  1.00  0.00    -0.201 NA
ATOM     11  N   UNL A   1      32.246  21.558  23.885  1.00  0.00    -0.254 N 
ATOM     12  C   UNL A   1      32.904  19.758  24.703  1.00  0.00     0.182 A 
ATOM     13  N   UNL A   1      32.525  20.292  23.530  1.00  0.00    -0.153 NA
ATOM     14  H   UNL A   1      31.900  22.246  23.273  1.00  0.00     0.192 HD
BRANCH  12  15
ATOM     15  C   UNL A   1      33.297  18.368  24.867  1.00  0.00     0.024 A 
ATOM     16  C   UNL A   1      34.479  17.897  24.275  1.00  0.00     0.012 A 
ATOM     17  C   UNL A   1      32.504  17.488  25.612  1.00  0.00     0.051 A 
ATOM     18  C   UNL A   1      34.871  16.565  24.436  1.00  0.00     0.004 A 
ATOM     19  C   UNL A   1      32.896  16.161  25.750  1.00  0.00     0.123 A 
ATOM     20  C   UNL A   1      34.072  15.694  25.174  1.00  0.00     0.039 A 
ATOM     21  F   UNL A   1      32.124  15.317  26.447  1.00  0.00    -0.207 F 
ENDBRANCH  12  15
ENDBRANCH   8   9
ENDBRANCH   7   8
ENDBRANCH   5   7
ENDBRANCH   2   3
ENDBRANCH   1   2
BRANCH   1  22
ATOM     22  C   UNL A   1      38.049  19.502  24.972  1.00  0.00     0.023 C 
BRANCH  22  23
ATOM     23  C   UNL A   1      39.287  19.959  25.738  1.00  0.00     0.116 C 
BRANCH  23  24
ATOM     24  N   UNL A   1      40.315  18.935  25.829  1.00  0.00    -0.352 N 
ATOM     25  C   UNL A   1      41.660  19.063  26.079  1.00  0.00     0.251 C 
ATOM     26  H   UNL A   1      40.000  18.012  25.692  1.00  0.00     0.163 HD
ATOM     27  O   UNL A   1      42.396  18.082  25.991  1.00  0.00    -0.269 OA
BRANCH  25  28
ATOM     28  C   UNL A   1      42.242  20.380  26.422  1.00  0.00     0.039 A 
ATOM     29  C   UNL A   1      42.782  21.164  25.398  1.00  0.00     0.014 A 
ATOM     30  C   UNL A   1      42.263  20.847  27.739  1.00  0.00     0.014 A 
ATOM     31  C   UNL A   1      43.273  22.441  25.682  1.00  0.00     0.010 A 
ATOM     32  C   UNL A   1      42.683  22.149  28.009  1.00  0.00     0.010 A 
ATOM     33  C   UNL A   1      43.187  22.963  26.984  1.00  0.00    -0.014 A 
BRANCH  33  34
ATOM     34  C   UNL A   1      43.601  24.360  27.283  1.00  0.00     0.031 A 
ATOM     35  C   UNL A   1      42.595  25.366  27.773  1.00  0.00     0.074 A 
ATOM     36  C   UNL A   1      44.873  24.741  27.055  1.00  0.00     0.049 A 
ATOM     37  N   UNL A   1      42.754  26.642  28.015  1.00  0.00    -0.248 NA
ATOM     38  C   UNL A   1      41.225  24.879  28.000  1.00  0.00     0.031 C 
ATOM     39  C   UNL A   1      45.937  23.872  26.548  1.00  0.00     0.029 A 
ATOM     40  N   UNL A   1      45.490  25.959  27.214  1.00  0.00    -0.354 N 
ATOM     41  C   UNL A   1      41.509  27.110  28.414  1.00  0.00     0.074 A 
ATOM     42  C   UNL A   1      40.591  25.995  28.330  1.00  0.00     0.031 C 
ATOM     43  C   UNL A   1      47.078  24.573  26.468  1.00  0.00     0.029 A 
ATOM     44  C   UNL A   1      46.821  25.953  26.872  1.00  0.00     0.049 A 
ATOM     45  H   UNL A   1      45.022  26.760  27.543  1.00  0.00     0.167 HD
ATOM     46  C   UNL A   1      41.170  28.352  28.834  1.00  0.00     0.037 A 
ATOM     47  C   UNL A   1      47.732  26.946  26.874  1.00  0.00     0.037 A 
ATOM     48  C   UNL A   1      42.090  29.453  28.944  1.00  0.00     0.049 A 
ATOM     49  C   UNL A   1      47.321  28.323  27.320  1.00  0.00     0.074 A 
ATOM     50  C   UNL A   1      41.848  30.732  29.414  1.00  0.00     0.029 A 
ATOM     51  N   UNL A   1      43.428  29.407  28.581  1.00  0.00    -0.354 N 
ATOM     52  N   UNL A   1      46.152  28.739  27.744  1.00  0.00    -0.248 NA
ATOM     53  C   UNL A   1      48.353  29.370  27.290  1.00  0.00     0.031 C 
ATOM     54  C   UNL A   1      43.021  31.476  29.282  1.00  0.00     0.029 A 
ATOM     55  C   UNL A   1      44.015  30.645  28.789  1.00  0.00     0.049 A 
ATOM     56  H   UNL A   1      43.892  28.614  28.227  1.00  0.00     0.167 HD
ATOM     57  C   UNL A   1      46.314  30.082  28.056  1.00  0.00     0.074 A 
ATOM     58  C   UNL A   1      47.697  30.411  27.785  1.00  0.00     0.031 C 
ATOM     59  C   UNL A   1      45.397  30.961  28.527  1.00  0.00     0.037 A 
BRANCH  46  60
ATOM     60  C   UNL A   1      39.741  28.599  29.227  1.00  0.00     0.064 A 
ATOM     61  C   UNL A   1      38.830  29.132  28.302  1.00  0.00     0.173 A 
ATOM     62  C   UNL A   1      39.297  28.397  30.542  1.00  0.00     0.173 A 
ATOM     63  F   UNL A   1      39.206  29.351  27.032  1.00  0.00    -0.203 F 
ATOM     64  C   UNL A   1      37.536  29.474  28.684  1.00  0.00     0.198 A 
ATOM     65  C   UNL A   1      37.993  28.710  30.913  1.00  0.00     0.198 A 
ATOM     66  F   UNL A   1      40.126  27.881  31.463  1.00  0.00    -0.203 F 
ATOM     67  F   UNL A   1      36.698  30.020  27.793  1.00  0.00    -0.200 F 
ATOM     68  C   UNL A   1      37.117  29.259  29.988  1.00  0.00     0.200 A 
ATOM     69  F   UNL A   1      37.582  28.482  32.169  1.00  0.00    -0.200 F 
ATOM     70  F   UNL A   1      35.870  29.583  30.354  1.00  0.00    -0.200 F 
ENDBRANCH  46  60
BRANCH  47  71
ATOM     71  C   UNL A   1      49.134  26.662  26.466  1.00  0.00     0.064 A 
ATOM     72  C   UNL A   1      50.090  26.210  27.388  1.00  0.00     0.173 A 
ATOM     73  C   UNL A   1      49.549  26.859  25.141  1.00  0.00     0.173 A 
ATOM     74  F   UNL A   1      49.744  26.008  28.668  1.00  0.00    -0.203 F 
ATOM     75  C   UNL A   1      51.410  25.987  27.004  1.00  0.00     0.198 A 
ATOM     76  C   UNL A   1      50.863  26.606  24.752  1.00  0.00     0.198 A 
ATOM     77  F   UNL A   1      48.666  27.268  24.218  1.00  0.00    -0.203 F 
ATOM     78  F   UNL A   1      52.311  25.590  27.913  1.00  0.00    -0.200 F 
ATOM     79  C   UNL A   1      51.795  26.179  25.686  1.00  0.00     0.200 A 
ATOM     80  F   UNL A   1      51.223  26.768  23.472  1.00  0.00    -0.200 F 
ATOM     81  F   UNL A   1      53.062  25.950  25.315  1.00  0.00    -0.200 F 
ENDBRANCH  47  71
BRANCH  59  82
ATOM     82  C   UNL A   1      45.848  32.364  28.811  1.00  0.00     0.064 A 
ATOM     83  C   UNL A   1      46.316  32.714  30.088  1.00  0.00     0.173 A 
ATOM     84  C   UNL A   1      45.732  33.383  27.854  1.00  0.00     0.173 A 
ATOM     85  F   UNL A   1      46.437  31.779  31.043  1.00  0.00    -0.203 F 
ATOM     86  C   UNL A   1      46.629  34.033  30.402  1.00  0.00     0.198 A 
ATOM     87  C   UNL A   1      46.076  34.696  28.162  1.00  0.00     0.198 A 
ATOM     88  F   UNL A   1      45.301  33.098  26.615  1.00  0.00    -0.203 F 
ATOM     89  F   UNL A   1      47.031  34.348  31.641  1.00  0.00    -0.200 F 
ATOM     90  C   UNL A   1      46.512  35.022  29.438  1.00  0.00     0.200 A 
ATOM     91  F   UNL A   1      45.986  35.647  27.222  1.00  0.00    -0.200 F 
ATOM     92  F   UNL A   1      46.820  36.292  29.738  1.00  0.00    -0.200 F 
ENDBRANCH  59  82
ENDBRANCH  33  34
ENDBRANCH  25  28
ENDBRANCH  23  24
ENDBRANCH  22  23
ENDBRANCH   1  22
TORSDOF 14
ENDMDL
