MODEL 1
REMARK VINA RESULT:     -13.2      0.000      0.000
REMARK SMILES C[C@@H]1[C@H](C(=O)NCCCCNC(=O)c2ccc(-c3c4nc(c(-c5c(F)c(F)c(F)c(F)c5F)c5ccc([nH]5)c(-c5c(F)c(F)c(F)c(F)c5F)c5nc(c(-c6c(F)c(F)c(F)c(F)c6F)c6ccc3[nH]6)C=C5)C=C4)cc2)CCN1C(=O)[C@H]1CC[C@@H](C(C)(C)C)CC1
REMARK SMILES IDX 8 1 7 2 6 3 4 4 5 5 3 7 1 8 2 9 79 10 77 11 78 12 80 13
REMARK SMILES IDX 81 14 82 15 83 16 91 17 84 18 90 19 85 20 86 21 87 22 88 23
REMARK SMILES IDX 89 24 9 25 10 26 11 27 12 28 13 30 14 31 15 32 76 33 16 34
REMARK SMILES IDX 75 35 17 36 18 37 19 38 69 39 20 40 74 41 68 42 70 43 21 44
REMARK SMILES IDX 73 45 67 46 66 47 22 49 54 50 34 51 53 52 35 53 38 54 52 55
REMARK SMILES IDX 71 56 36 57 37 58 51 60 72 61 39 62 23 63 24 64 32 65 25 66
REMARK SMILES IDX 26 67 30 68 33 69 27 70 28 71 31 72 29 73 55 74 56 75 64 76
REMARK SMILES IDX 57 77 58 78 62 79 65 80 59 81 60 82 63 83 61 84 40 85 41 86
REMARK SMILES IDX 49 87 42 88 43 89 47 90 50 91 44 92 45 93 48 94 46 95
REMARK H PARENT 6 6 11 29 70 48 38 59
REMARK Flexibility Score: inf
ROOT
ATOM      1  C   UNL A   1      32.068  30.591  26.413  1.00  0.00     0.023 C 
ENDROOT
BRANCH   1   2
ATOM      2  C   UNL A   1      31.488  30.046  25.094  1.00  0.00     0.116 C 
BRANCH   2   3
ATOM      3  N   UNL A   1      32.506  29.452  24.242  1.00  0.00    -0.356 N 
ATOM      4  C   UNL A   1      32.779  28.204  23.788  1.00  0.00     0.225 C 
ATOM      5  O   UNL A   1      33.783  28.132  23.063  1.00  0.00    -0.275 OA
ATOM      6  H   UNL A   1      33.156  30.117  23.916  1.00  0.00     0.163 HD
BRANCH   4   7
ATOM      7  C   UNL A   1      32.030  26.902  24.107  1.00  0.00     0.102 C 
ATOM      8  C   UNL A   1      32.595  26.887  26.579  1.00  0.00     0.032 C 
ATOM      9  C   UNL A   1      32.516  26.088  25.311  1.00  0.00     0.094 C 
ATOM     10  N   UNL A   1      31.522  25.048  25.496  1.00  0.00    -0.339 N 
ATOM     11  C   UNL A   1      30.520  26.854  24.255  1.00  0.00     0.037 C 
ATOM     12  C   UNL A   1      30.291  25.426  24.792  1.00  0.00     0.120 C 
BRANCH  10  13
ATOM     13  C   UNL A   1      31.593  23.897  26.255  1.00  0.00     0.225 C 
ATOM     14  O   UNL A   1      30.957  23.843  27.317  1.00  0.00    -0.275 OA
BRANCH  13  15
ATOM     15  C   UNL A   1      32.460  22.654  25.865  1.00  0.00     0.078 C 
ATOM     16  C   UNL A   1      33.067  22.661  24.465  1.00  0.00     0.014 C 
ATOM     17  C   UNL A   1      33.347  22.102  26.991  1.00  0.00     0.014 C 
ATOM     18  C   UNL A   1      34.113  21.573  24.234  1.00  0.00     0.005 C 
ATOM     19  C   UNL A   1      34.772  21.605  26.676  1.00  0.00     0.005 C 
ATOM     20  C   UNL A   1      35.293  21.564  25.219  1.00  0.00    -0.006 C 
BRANCH  20  21
ATOM     21  C   UNL A   1      36.541  22.487  24.860  1.00  0.00    -0.035 C 
ATOM     22  C   UNL A   1      36.588  22.828  23.350  1.00  0.00     0.011 C 
ATOM     23  C   UNL A   1      36.471  23.832  25.619  1.00  0.00     0.011 C 
ATOM     24  C   UNL A   1      37.884  21.868  25.223  1.00  0.00     0.011 C 
ENDBRANCH  20  21
ENDBRANCH  13  15
ENDBRANCH  10  13
ENDBRANCH   4   7
ENDBRANCH   2   3
ENDBRANCH   1   2
BRANCH   1  25
ATOM     25  C   UNL A   1      31.651  31.973  26.862  1.00  0.00     0.023 C 
BRANCH  25  26
ATOM     26  C   UNL A   1      32.765  32.838  27.390  1.00  0.00     0.116 C 
BRANCH  26  27
ATOM     27  N   UNL A   1      32.386  34.213  27.686  1.00  0.00    -0.352 N 
ATOM     28  C   UNL A   1      32.983  35.061  28.593  1.00  0.00     0.251 C 
ATOM     29  H   UNL A   1      31.621  34.575  27.183  1.00  0.00     0.163 HD
ATOM     30  O   UNL A   1      32.549  36.191  28.794  1.00  0.00    -0.269 OA
BRANCH  28  31
ATOM     31  C   UNL A   1      34.130  34.547  29.366  1.00  0.00     0.039 A 
ATOM     32  C   UNL A   1      33.895  33.816  30.531  1.00  0.00     0.014 A 
ATOM     33  C   UNL A   1      35.419  34.652  28.837  1.00  0.00     0.014 A 
ATOM     34  C   UNL A   1      34.947  33.113  31.118  1.00  0.00     0.010 A 
ATOM     35  C   UNL A   1      36.425  33.846  29.341  1.00  0.00     0.010 A 
ATOM     36  C   UNL A   1      36.208  33.086  30.499  1.00  0.00    -0.014 A 
BRANCH  36  37
ATOM     37  C   UNL A   1      37.345  32.324  31.069  1.00  0.00     0.031 A 
ATOM     38  C   UNL A   1      37.829  32.667  32.452  1.00  0.00     0.074 A 
ATOM     39  C   UNL A   1      37.988  31.401  30.328  1.00  0.00     0.049 A 
ATOM     40  N   UNL A   1      38.874  32.223  33.101  1.00  0.00    -0.248 NA
ATOM     41  C   UNL A   1      37.063  33.691  33.183  1.00  0.00     0.031 C 
ATOM     42  C   UNL A   1      37.656  31.030  28.952  1.00  0.00     0.029 A 
ATOM     43  N   UNL A   1      39.067  30.610  30.634  1.00  0.00    -0.354 N 
ATOM     44  C   UNL A   1      38.906  32.938  34.290  1.00  0.00     0.074 A 
ATOM     45  C   UNL A   1      37.828  33.897  34.243  1.00  0.00     0.031 C 
ATOM     46  C   UNL A   1      38.490  30.059  28.544  1.00  0.00     0.029 A 
ATOM     47  C   UNL A   1      39.435  29.762  29.616  1.00  0.00     0.049 A 
ATOM     48  H   UNL A   1      39.535  30.646  31.499  1.00  0.00     0.167 HD
ATOM     49  C   UNL A   1      39.735  32.783  35.349  1.00  0.00     0.037 A 
ATOM     50  C   UNL A   1      40.421  28.847  29.565  1.00  0.00     0.037 A 
ATOM     51  C   UNL A   1      40.763  31.783  35.415  1.00  0.00     0.049 A 
ATOM     52  C   UNL A   1      41.299  28.656  30.773  1.00  0.00     0.074 A 
ATOM     53  C   UNL A   1      41.615  31.487  36.463  1.00  0.00     0.029 A 
ATOM     54  N   UNL A   1      41.066  30.901  34.388  1.00  0.00    -0.354 N 
ATOM     55  N   UNL A   1      41.280  29.292  31.920  1.00  0.00    -0.248 NA
ATOM     56  C   UNL A   1      42.327  27.610  30.685  1.00  0.00     0.031 C 
ATOM     57  C   UNL A   1      42.454  30.443  36.059  1.00  0.00     0.029 A 
ATOM     58  C   UNL A   1      42.096  30.062  34.774  1.00  0.00     0.049 A 
ATOM     59  H   UNL A   1      40.615  30.876  33.513  1.00  0.00     0.167 HD
ATOM     60  C   UNL A   1      42.267  28.706  32.699  1.00  0.00     0.074 A 
ATOM     61  C   UNL A   1      42.860  27.654  31.899  1.00  0.00     0.031 C 
ATOM     62  C   UNL A   1      42.651  29.008  33.964  1.00  0.00     0.037 A 
BRANCH  49  63
ATOM     63  C   UNL A   1      39.541  33.705  36.516  1.00  0.00     0.064 A 
ATOM     64  C   UNL A   1      40.143  34.973  36.561  1.00  0.00     0.173 A 
ATOM     65  C   UNL A   1      38.746  33.319  37.605  1.00  0.00     0.173 A 
ATOM     66  F   UNL A   1      40.929  35.383  35.554  1.00  0.00    -0.203 F 
ATOM     67  C   UNL A   1      39.992  35.800  37.670  1.00  0.00     0.198 A 
ATOM     68  C   UNL A   1      38.569  34.163  38.697  1.00  0.00     0.198 A 
ATOM     69  F   UNL A   1      38.148  32.118  37.614  1.00  0.00    -0.203 F 
ATOM     70  F   UNL A   1      40.633  36.976  37.719  1.00  0.00    -0.200 F 
ATOM     71  C   UNL A   1      39.200  35.398  38.734  1.00  0.00     0.200 A 
ATOM     72  F   UNL A   1      37.796  33.778  39.721  1.00  0.00    -0.200 F 
ATOM     73  F   UNL A   1      39.055  36.195  39.801  1.00  0.00    -0.200 F 
ENDBRANCH  49  63
BRANCH  50  74
ATOM     74  C   UNL A   1      40.594  28.005  28.354  1.00  0.00     0.064 A 
ATOM     75  C   UNL A   1      39.974  26.750  28.261  1.00  0.00     0.173 A 
ATOM     76  C   UNL A   1      41.376  28.427  27.270  1.00  0.00     0.173 A 
ATOM     77  F   UNL A   1      39.230  26.294  29.280  1.00  0.00    -0.203 F 
ATOM     78  C   UNL A   1      40.146  25.942  27.139  1.00  0.00     0.198 A 
ATOM     79  C   UNL A   1      41.527  27.629  26.137  1.00  0.00     0.198 A 
ATOM     80  F   UNL A   1      41.985  29.621  27.306  1.00  0.00    -0.203 F 
ATOM     81  F   UNL A   1      39.576  24.730  27.095  1.00  0.00    -0.200 F 
ATOM     82  C   UNL A   1      40.919  26.384  26.076  1.00  0.00     0.200 A 
ATOM     83  F   UNL A   1      42.264  28.064  25.106  1.00  0.00    -0.200 F 
ATOM     84  F   UNL A   1      41.082  25.608  24.995  1.00  0.00    -0.200 F 
ENDBRANCH  50  74
BRANCH  62  85
ATOM     85  C   UNL A   1      43.725  28.162  34.577  1.00  0.00     0.064 A 
ATOM     86  C   UNL A   1      45.074  28.541  34.535  1.00  0.00     0.173 A 
ATOM     87  C   UNL A   1      43.391  26.982  35.258  1.00  0.00     0.173 A 
ATOM     88  F   UNL A   1      45.443  29.655  33.884  1.00  0.00    -0.203 F 
ATOM     89  C   UNL A   1      46.054  27.756  35.135  1.00  0.00     0.198 A 
ATOM     90  C   UNL A   1      44.370  26.215  35.882  1.00  0.00     0.198 A 
ATOM     91  F   UNL A   1      42.113  26.582  35.332  1.00  0.00    -0.203 F 
ATOM     92  F   UNL A   1      47.343  28.114  35.049  1.00  0.00    -0.200 F 
ATOM     93  C   UNL A   1      45.701  26.599  35.815  1.00  0.00     0.200 A 
ATOM     94  F   UNL A   1      44.025  25.105  36.548  1.00  0.00    -0.200 F 
ATOM     95  F   UNL A   1      46.645  25.849  36.400  1.00  0.00    -0.200 F 
ENDBRANCH  62  85
ENDBRANCH  36  37
ENDBRANCH  28  31
ENDBRANCH  26  27
ENDBRANCH  25  26
ENDBRANCH   1  25
TORSDOF 14
ENDMDL
MODEL 2
REMARK VINA RESULT:     -13.2      0.125      1.984
REMARK SMILES C[C@@H]1[C@H](C(=O)NCCCCNC(=O)c2ccc(-c3c4nc(c(-c5c(F)c(F)c(F)c(F)c5F)c5ccc([nH]5)c(-c5c(F)c(F)c(F)c(F)c5F)c5nc(c(-c6c(F)c(F)c(F)c(F)c6F)c6ccc3[nH]6)C=C5)C=C4)cc2)CCN1C(=O)[C@H]1CC[C@@H](C(C)(C)C)CC1
REMARK SMILES IDX 8 1 7 2 6 3 4 4 5 5 3 7 1 8 2 9 79 10 77 11 78 12 80 13
REMARK SMILES IDX 81 14 82 15 83 16 91 17 84 18 90 19 85 20 86 21 87 22 88 23
REMARK SMILES IDX 89 24 9 25 10 26 11 27 12 28 13 30 14 31 15 32 76 33 16 34
REMARK SMILES IDX 75 35 17 36 18 37 19 38 69 39 20 40 74 41 68 42 70 43 21 44
REMARK SMILES IDX 73 45 67 46 66 47 22 49 54 50 34 51 53 52 35 53 38 54 52 55
REMARK SMILES IDX 71 56 36 57 37 58 51 60 72 61 39 62 23 63 24 64 32 65 25 66
REMARK SMILES IDX 26 67 30 68 33 69 27 70 28 71 31 72 29 73 55 74 56 75 64 76
REMARK SMILES IDX 57 77 58 78 62 79 65 80 59 81 60 82 63 83 61 84 40 85 41 86
REMARK SMILES IDX 49 87 42 88 43 89 47 90 50 91 44 92 45 93 48 94 46 95
REMARK H PARENT 6 6 11 29 70 48 38 59
REMARK Flexibility Score: inf
ROOT
ATOM      1  C   UNL A   1      32.074  30.658  26.546  1.00  0.00     0.023 C 
ENDROOT
BRANCH   1   2
ATOM      2  C   UNL A   1      31.575  30.059  25.217  1.00  0.00     0.116 C 
BRANCH   2   3
ATOM      3  N   UNL A   1      32.650  29.472  24.433  1.00  0.00    -0.356 N 
ATOM      4  C   UNL A   1      32.941  28.231  23.969  1.00  0.00     0.225 C 
ATOM      5  O   UNL A   1      33.999  28.163  23.325  1.00  0.00    -0.275 OA
ATOM      6  H   UNL A   1      33.332  30.135  24.176  1.00  0.00     0.163 HD
BRANCH   4   7
ATOM      7  C   UNL A   1      32.153  26.934  24.194  1.00  0.00     0.102 C 
ATOM      8  C   UNL A   1      32.457  26.888  26.711  1.00  0.00     0.032 C 
ATOM      9  C   UNL A   1      32.504  26.103  25.433  1.00  0.00     0.094 C 
ATOM     10  N   UNL A   1      31.487  25.071  25.502  1.00  0.00    -0.339 N 
ATOM     11  C   UNL A   1      30.635  26.899  24.183  1.00  0.00     0.037 C 
ATOM     12  C   UNL A   1      30.340  25.467  24.678  1.00  0.00     0.120 C 
BRANCH  10  13
ATOM     13  C   UNL A   1      31.469  23.911  26.252  1.00  0.00     0.225 C 
ATOM     14  O   UNL A   1      30.729  23.854  27.243  1.00  0.00    -0.275 OA
BRANCH  13  15
ATOM     15  C   UNL A   1      32.358  22.662  25.937  1.00  0.00     0.078 C 
ATOM     16  C   UNL A   1      32.945  22.582  24.531  1.00  0.00     0.014 C 
ATOM     17  C   UNL A   1      33.273  22.211  27.085  1.00  0.00     0.014 C 
ATOM     18  C   UNL A   1      34.012  21.504  24.361  1.00  0.00     0.005 C 
ATOM     19  C   UNL A   1      34.705  21.723  26.785  1.00  0.00     0.005 C 
ATOM     20  C   UNL A   1      35.206  21.589  25.326  1.00  0.00    -0.006 C 
BRANCH  20  21
ATOM     21  C   UNL A   1      36.427  22.511  24.883  1.00  0.00    -0.035 C 
ATOM     22  C   UNL A   1      36.418  23.872  25.621  1.00  0.00     0.011 C 
ATOM     23  C   UNL A   1      37.778  21.834  25.210  1.00  0.00     0.011 C 
ATOM     24  C   UNL A   1      36.457  22.810  23.390  1.00  0.00     0.011 C 
ENDBRANCH  20  21
ENDBRANCH  13  15
ENDBRANCH  10  13
ENDBRANCH   4   7
ENDBRANCH   2   3
ENDBRANCH   1   2
BRANCH   1  25
ATOM     25  C   UNL A   1      31.695  32.084  26.876  1.00  0.00     0.023 C 
BRANCH  25  26
ATOM     26  C   UNL A   1      32.792  32.911  27.492  1.00  0.00     0.116 C 
BRANCH  26  27
ATOM     27  N   UNL A   1      32.427  34.290  27.791  1.00  0.00    -0.352 N 
ATOM     28  C   UNL A   1      33.037  35.133  28.694  1.00  0.00     0.251 C 
ATOM     29  H   UNL A   1      31.663  34.658  27.293  1.00  0.00     0.163 HD
ATOM     30  O   UNL A   1      32.614  36.266  28.898  1.00  0.00    -0.269 OA
BRANCH  28  31
ATOM     31  C   UNL A   1      34.184  34.608  29.460  1.00  0.00     0.039 A 
ATOM     32  C   UNL A   1      33.950  33.887  30.632  1.00  0.00     0.014 A 
ATOM     33  C   UNL A   1      35.469  34.694  28.919  1.00  0.00     0.014 A 
ATOM     34  C   UNL A   1      34.998  33.175  31.214  1.00  0.00     0.010 A 
ATOM     35  C   UNL A   1      36.470  33.878  29.419  1.00  0.00     0.010 A 
ATOM     36  C   UNL A   1      36.254  33.128  30.584  1.00  0.00    -0.014 A 
BRANCH  36  37
ATOM     37  C   UNL A   1      37.386  32.355  31.148  1.00  0.00     0.031 A 
ATOM     38  C   UNL A   1      37.878  32.691  32.530  1.00  0.00     0.074 A 
ATOM     39  C   UNL A   1      38.018  31.427  30.404  1.00  0.00     0.049 A 
ATOM     40  N   UNL A   1      38.920  32.236  33.175  1.00  0.00    -0.248 NA
ATOM     41  C   UNL A   1      37.124  33.721  33.266  1.00  0.00     0.031 C 
ATOM     42  C   UNL A   1      37.677  31.062  29.028  1.00  0.00     0.029 A 
ATOM     43  N   UNL A   1      39.091  30.626  30.704  1.00  0.00    -0.354 N 
ATOM     44  C   UNL A   1      38.964  32.949  34.365  1.00  0.00     0.074 A 
ATOM     45  C   UNL A   1      37.894  33.918  34.323  1.00  0.00     0.031 C 
ATOM     46  C   UNL A   1      38.501  30.084  28.616  1.00  0.00     0.029 A 
ATOM     47  C   UNL A   1      39.447  29.777  29.683  1.00  0.00     0.049 A 
ATOM     48  H   UNL A   1      39.562  30.657  31.568  1.00  0.00     0.167 HD
ATOM     49  C   UNL A   1      39.795  32.785  35.420  1.00  0.00     0.037 A 
ATOM     50  C   UNL A   1      40.426  28.853  29.628  1.00  0.00     0.037 A 
ATOM     51  C   UNL A   1      40.815  31.776  35.481  1.00  0.00     0.049 A 
ATOM     52  C   UNL A   1      41.306  28.652  30.832  1.00  0.00     0.074 A 
ATOM     53  C   UNL A   1      41.667  31.470  36.525  1.00  0.00     0.029 A 
ATOM     54  N   UNL A   1      41.106  30.893  34.451  1.00  0.00    -0.354 N 
ATOM     55  N   UNL A   1      41.297  29.287  31.980  1.00  0.00    -0.248 NA
ATOM     56  C   UNL A   1      42.324  27.598  30.739  1.00  0.00     0.031 C 
ATOM     57  C   UNL A   1      42.496  30.420  36.116  1.00  0.00     0.029 A 
ATOM     58  C   UNL A   1      42.129  30.044  34.833  1.00  0.00     0.049 A 
ATOM     59  H   UNL A   1      40.651  30.873  33.578  1.00  0.00     0.167 HD
ATOM     60  C   UNL A   1      42.281  28.690  32.755  1.00  0.00     0.074 A 
ATOM     61  C   UNL A   1      42.862  27.634  31.950  1.00  0.00     0.031 C 
ATOM     62  C   UNL A   1      42.672  28.987  34.019  1.00  0.00     0.037 A 
BRANCH  49  63
ATOM     63  C   UNL A   1      39.613  33.707  36.590  1.00  0.00     0.064 A 
ATOM     64  C   UNL A   1      38.825  33.347  37.695  1.00  0.00     0.173 A 
ATOM     65  C   UNL A   1      40.230  34.966  36.608  1.00  0.00     0.173 A 
ATOM     66  F   UNL A   1      38.196  32.161  37.718  1.00  0.00    -0.203 F 
ATOM     67  C   UNL A   1      38.627  34.229  38.753  1.00  0.00     0.198 A 
ATOM     68  C   UNL A   1      40.059  35.832  37.684  1.00  0.00     0.198 A 
ATOM     69  F   UNL A   1      40.994  35.360  35.578  1.00  0.00    -0.203 F 
ATOM     70  F   UNL A   1      37.815  33.889  39.764  1.00  0.00    -0.200 F 
ATOM     71  C   UNL A   1      39.249  35.468  38.750  1.00  0.00     0.200 A 
ATOM     72  F   UNL A   1      40.668  37.025  37.686  1.00  0.00    -0.200 F 
ATOM     73  F   UNL A   1      39.058  36.316  39.770  1.00  0.00    -0.200 F 
ENDBRANCH  49  63
BRANCH  50  74
ATOM     74  C   UNL A   1      40.586  28.011  28.414  1.00  0.00     0.064 A 
ATOM     75  C   UNL A   1      41.390  28.439  27.348  1.00  0.00     0.173 A 
ATOM     76  C   UNL A   1      39.945  26.771  28.289  1.00  0.00     0.173 A 
ATOM     77  F   UNL A   1      42.010  29.627  27.412  1.00  0.00    -0.203 F 
ATOM     78  C   UNL A   1      41.531  27.669  26.196  1.00  0.00     0.198 A 
ATOM     79  C   UNL A   1      40.107  25.988  27.147  1.00  0.00     0.198 A 
ATOM     80  F   UNL A   1      39.170  26.312  29.283  1.00  0.00    -0.203 F 
ATOM     81  F   UNL A   1      42.273  28.122  25.176  1.00  0.00    -0.200 F 
ATOM     82  C   UNL A   1      40.893  26.441  26.098  1.00  0.00     0.200 A 
ATOM     83  F   UNL A   1      39.500  24.797  27.061  1.00  0.00    -0.200 F 
ATOM     84  F   UNL A   1      41.031  25.699  24.991  1.00  0.00    -0.200 F 
ENDBRANCH  50  74
BRANCH  62  85
ATOM     85  C   UNL A   1      43.741  28.130  34.626  1.00  0.00     0.064 A 
ATOM     86  C   UNL A   1      43.437  26.931  35.285  1.00  0.00     0.173 A 
ATOM     87  C   UNL A   1      45.091  28.491  34.499  1.00  0.00     0.173 A 
ATOM     88  F   UNL A   1      42.159  26.551  35.442  1.00  0.00    -0.203 F 
ATOM     89  C   UNL A   1      44.447  26.134  35.817  1.00  0.00     0.198 A 
ATOM     90  C   UNL A   1      46.099  27.677  35.006  1.00  0.00     0.198 A 
ATOM     91  F   UNL A   1      45.431  29.625  33.869  1.00  0.00    -0.203 F 
ATOM     92  F   UNL A   1      44.134  25.013  36.480  1.00  0.00    -0.200 F 
ATOM     93  C   UNL A   1      45.777  26.503  35.670  1.00  0.00     0.200 A 
ATOM     94  F   UNL A   1      47.383  28.029  34.852  1.00  0.00    -0.200 F 
ATOM     95  F   UNL A   1      46.747  25.729  36.175  1.00  0.00    -0.200 F 
ENDBRANCH  62  85
ENDBRANCH  36  37
ENDBRANCH  28  31
ENDBRANCH  26  27
ENDBRANCH  25  26
ENDBRANCH   1  25
TORSDOF 14
ENDMDL
MODEL 3
REMARK VINA RESULT:     -13.0      5.081      9.664
REMARK SMILES C[C@@H]1[C@H](C(=O)NCCCCNC(=O)c2ccc(-c3c4nc(c(-c5c(F)c(F)c(F)c(F)c5F)c5ccc([nH]5)c(-c5c(F)c(F)c(F)c(F)c5F)c5nc(c(-c6c(F)c(F)c(F)c(F)c6F)c6ccc3[nH]6)C=C5)C=C4)cc2)CCN1C(=O)[C@H]1CC[C@@H](C(C)(C)C)CC1
REMARK SMILES IDX 8 1 7 2 6 3 4 4 5 5 3 7 1 8 2 9 79 10 77 11 78 12 80 13
REMARK SMILES IDX 81 14 82 15 83 16 91 17 84 18 90 19 85 20 86 21 87 22 88 23
REMARK SMILES IDX 89 24 9 25 10 26 11 27 12 28 13 30 14 31 15 32 76 33 16 34
REMARK SMILES IDX 75 35 17 36 18 37 19 38 69 39 20 40 74 41 68 42 70 43 21 44
REMARK SMILES IDX 73 45 67 46 66 47 22 49 54 50 34 51 53 52 35 53 38 54 52 55
REMARK SMILES IDX 71 56 36 57 37 58 51 60 72 61 39 62 23 63 24 64 32 65 25 66
REMARK SMILES IDX 26 67 30 68 33 69 27 70 28 71 31 72 29 73 55 74 56 75 64 76
REMARK SMILES IDX 57 77 58 78 62 79 65 80 59 81 60 82 63 83 61 84 40 85 41 86
REMARK SMILES IDX 49 87 42 88 43 89 47 90 50 91 44 92 45 93 48 94 46 95
REMARK H PARENT 6 6 11 29 70 48 38 59
REMARK Flexibility Score: inf
ROOT
ATOM      1  C   UNL A   1      37.178  19.954  24.860  1.00  0.00     0.023 C 
ENDROOT
BRANCH   1   2
ATOM      2  C   UNL A   1      35.661  20.183  24.999  1.00  0.00     0.116 C 
BRANCH   2   3
ATOM      3  N   UNL A   1      35.333  21.102  26.078  1.00  0.00    -0.356 N 
ATOM      4  C   UNL A   1      34.512  22.171  26.222  1.00  0.00     0.225 C 
ATOM      5  O   UNL A   1      34.541  22.689  27.348  1.00  0.00    -0.275 OA
ATOM      6  H   UNL A   1      35.828  20.898  26.906  1.00  0.00     0.163 HD
BRANCH   4   7
ATOM      7  C   UNL A   1      33.617  22.819  25.157  1.00  0.00     0.102 C 
ATOM      8  C   UNL A   1      35.520  23.736  23.754  1.00  0.00     0.032 C 
ATOM      9  C   UNL A   1      34.190  24.016  24.390  1.00  0.00     0.094 C 
ATOM     10  N   UNL A   1      33.235  24.286  23.333  1.00  0.00    -0.339 N 
ATOM     11  C   UNL A   1      32.946  22.008  24.063  1.00  0.00     0.037 C 
ATOM     12  C   UNL A   1      32.378  23.110  23.143  1.00  0.00     0.120 C 
BRANCH  10  13
ATOM     13  C   UNL A   1      33.119  25.399  22.523  1.00  0.00     0.225 C 
ATOM     14  O   UNL A   1      33.660  25.386  21.409  1.00  0.00    -0.275 OA
BRANCH  13  15
ATOM     15  C   UNL A   1      32.360  26.702  22.945  1.00  0.00     0.078 C 
ATOM     16  C   UNL A   1      31.447  26.593  24.163  1.00  0.00     0.014 C 
ATOM     17  C   UNL A   1      33.175  27.998  22.816  1.00  0.00     0.014 C 
ATOM     18  C   UNL A   1      30.950  27.936  24.692  1.00  0.00     0.005 C 
ATOM     19  C   UNL A   1      33.052  29.096  23.892  1.00  0.00     0.005 C 
ATOM     20  C   UNL A   1      32.043  28.954  25.058  1.00  0.00    -0.006 C 
BRANCH  20  21
ATOM     21  C   UNL A   1      32.635  28.877  26.535  1.00  0.00    -0.035 C 
ATOM     22  C   UNL A   1      32.891  30.286  27.125  1.00  0.00     0.011 C 
ATOM     23  C   UNL A   1      31.650  28.165  27.489  1.00  0.00     0.011 C 
ATOM     24  C   UNL A   1      33.945  28.106  26.629  1.00  0.00     0.011 C 
ENDBRANCH  20  21
ENDBRANCH  13  15
ENDBRANCH  10  13
ENDBRANCH   4   7
ENDBRANCH   2   3
ENDBRANCH   1   2
BRANCH   1  25
ATOM     25  C   UNL A   1      38.104  21.127  25.095  1.00  0.00     0.023 C 
BRANCH  25  26
ATOM     26  C   UNL A   1      39.172  20.901  26.133  1.00  0.00     0.116 C 
BRANCH  26  27
ATOM     27  N   UNL A   1      39.976  19.702  25.935  1.00  0.00    -0.352 N 
ATOM     28  C   UNL A   1      41.341  19.585  26.076  1.00  0.00     0.251 C 
ATOM     29  H   UNL A   1      39.490  18.887  25.672  1.00  0.00     0.163 HD
ATOM     30  O   UNL A   1      41.921  18.531  25.839  1.00  0.00    -0.269 OA
BRANCH  28  31
ATOM     31  C   UNL A   1      42.099  20.791  26.465  1.00  0.00     0.039 A 
ATOM     32  C   UNL A   1      42.509  21.687  25.478  1.00  0.00     0.014 A 
ATOM     33  C   UNL A   1      42.248  21.102  27.819  1.00  0.00     0.014 A 
ATOM     34  C   UNL A   1      42.991  22.941  25.853  1.00  0.00     0.010 A 
ATOM     35  C   UNL A   1      42.594  22.392  28.182  1.00  0.00     0.010 A 
ATOM     36  C   UNL A   1      42.991  23.319  27.207  1.00  0.00    -0.014 A 
BRANCH  36  37
ATOM     37  C   UNL A   1      43.461  24.654  27.648  1.00  0.00     0.031 A 
ATOM     38  C   UNL A   1      42.440  25.695  28.023  1.00  0.00     0.074 A 
ATOM     39  C   UNL A   1      44.773  24.957  27.630  1.00  0.00     0.049 A 
ATOM     40  N   UNL A   1      42.611  26.957  28.319  1.00  0.00    -0.248 NA
ATOM     41  C   UNL A   1      41.030  25.270  28.011  1.00  0.00     0.031 C 
ATOM     42  C   UNL A   1      45.850  24.055  27.219  1.00  0.00     0.029 A 
ATOM     43  N   UNL A   1      45.422  26.120  27.960  1.00  0.00    -0.354 N 
ATOM     44  C   UNL A   1      41.335  27.476  28.489  1.00  0.00     0.074 A 
ATOM     45  C   UNL A   1      40.399  26.419  28.188  1.00  0.00     0.031 C 
ATOM     46  C   UNL A   1      47.028  24.686  27.356  1.00  0.00     0.029 A 
ATOM     47  C   UNL A   1      46.788  26.045  27.831  1.00  0.00     0.049 A 
ATOM     48  H   UNL A   1      44.953  26.932  28.259  1.00  0.00     0.167 HD
ATOM     49  C   UNL A   1      40.973  28.714  28.898  1.00  0.00     0.037 A 
ATOM     50  C   UNL A   1      47.733  26.972  28.078  1.00  0.00     0.037 A 
ATOM     51  C   UNL A   1      41.911  29.740  29.258  1.00  0.00     0.049 A 
ATOM     52  C   UNL A   1      47.310  28.326  28.582  1.00  0.00     0.074 A 
ATOM     53  C   UNL A   1      41.659  31.005  29.754  1.00  0.00     0.029 A 
ATOM     54  N   UNL A   1      43.289  29.606  29.174  1.00  0.00    -0.354 N 
ATOM     55  N   UNL A   1      46.103  28.787  28.803  1.00  0.00    -0.248 NA
ATOM     56  C   UNL A   1      48.382  29.283  28.885  1.00  0.00     0.031 C 
ATOM     57  C   UNL A   1      42.887  31.650  29.944  1.00  0.00     0.029 A 
ATOM     58  C   UNL A   1      43.903  30.768  29.605  1.00  0.00     0.049 A 
ATOM     59  H   UNL A   1      43.761  28.803  28.855  1.00  0.00     0.167 HD
ATOM     60  C   UNL A   1      46.269  30.073  29.298  1.00  0.00     0.074 A 
ATOM     61  C   UNL A   1      47.696  30.315  29.357  1.00  0.00     0.031 C 
ATOM     62  C   UNL A   1      45.327  30.974  29.673  1.00  0.00     0.037 A 
BRANCH  49  63
ATOM     63  C   UNL A   1      39.504  29.005  28.994  1.00  0.00     0.064 A 
ATOM     64  C   UNL A   1      38.811  28.901  30.211  1.00  0.00     0.173 A 
ATOM     65  C   UNL A   1      38.778  29.390  27.858  1.00  0.00     0.173 A 
ATOM     66  F   UNL A   1      39.455  28.518  31.324  1.00  0.00    -0.203 F 
ATOM     67  C   UNL A   1      37.440  29.130  30.277  1.00  0.00     0.198 A 
ATOM     68  C   UNL A   1      37.413  29.652  27.935  1.00  0.00     0.198 A 
ATOM     69  F   UNL A   1      39.390  29.504  26.670  1.00  0.00    -0.203 F 
ATOM     70  F   UNL A   1      36.789  28.957  31.437  1.00  0.00    -0.200 F 
ATOM     71  C   UNL A   1      36.743  29.511  29.142  1.00  0.00     0.200 A 
ATOM     72  F   UNL A   1      36.742  30.029  26.839  1.00  0.00    -0.200 F 
ATOM     73  F   UNL A   1      35.423  29.731  29.207  1.00  0.00    -0.200 F 
ENDBRANCH  49  63
BRANCH  50  74
ATOM     74  C   UNL A   1      49.170  26.634  27.908  1.00  0.00     0.064 A 
ATOM     75  C   UNL A   1      49.969  26.329  29.019  1.00  0.00     0.173 A 
ATOM     76  C   UNL A   1      49.775  26.609  26.644  1.00  0.00     0.173 A 
ATOM     77  F   UNL A   1      49.441  26.357  30.252  1.00  0.00    -0.203 F 
ATOM     78  C   UNL A   1      51.323  26.032  28.874  1.00  0.00     0.198 A 
ATOM     79  C   UNL A   1      51.123  26.287  26.497  1.00  0.00     0.198 A 
ATOM     80  F   UNL A   1      49.053  26.887  25.548  1.00  0.00    -0.203 F 
ATOM     81  F   UNL A   1      52.072  25.785  29.958  1.00  0.00    -0.200 F 
ATOM     82  C   UNL A   1      51.898  26.006  27.612  1.00  0.00     0.200 A 
ATOM     83  F   UNL A   1      51.673  26.250  25.275  1.00  0.00    -0.200 F 
ATOM     84  F   UNL A   1      53.199  25.718  27.472  1.00  0.00    -0.200 F 
ENDBRANCH  50  74
BRANCH  62  85
ATOM     85  C   UNL A   1      45.809  32.282  30.223  1.00  0.00     0.064 A 
ATOM     86  C   UNL A   1      46.007  33.399  29.400  1.00  0.00     0.173 A 
ATOM     87  C   UNL A   1      46.024  32.430  31.602  1.00  0.00     0.173 A 
ATOM     88  F   UNL A   1      45.826  33.301  28.074  1.00  0.00    -0.203 F 
ATOM     89  C   UNL A   1      46.427  34.613  29.935  1.00  0.00     0.198 A 
ATOM     90  C   UNL A   1      46.415  33.654  32.136  1.00  0.00     0.198 A 
ATOM     91  F   UNL A   1      45.839  31.392  32.431  1.00  0.00    -0.203 F 
ATOM     92  F   UNL A   1      46.652  35.657  29.125  1.00  0.00    -0.200 F 
ATOM     93  C   UNL A   1      46.623  34.742  31.302  1.00  0.00     0.200 A 
ATOM     94  F   UNL A   1      46.592  33.779  33.459  1.00  0.00    -0.200 F 
ATOM     95  F   UNL A   1      47.018  35.915  31.816  1.00  0.00    -0.200 F 
ENDBRANCH  62  85
ENDBRANCH  36  37
ENDBRANCH  28  31
ENDBRANCH  26  27
ENDBRANCH  25  26
ENDBRANCH   1  25
TORSDOF 14
ENDMDL
