MODEL 1
REMARK VINA RESULT:     -12.0      0.000      0.000
REMARK SMILES O=C(NCCCCNC(=O)[C@H]1CC[C@@]2(CC[N@@H+](C3CC3)C2)C1)c1ccc(-c2c3nc(c(-c4c(F)c(F)c(F)c(F)c4F)c4ccc([nH]4)c(-c4c(F)c(F)c(F)c(F)c4F)c4nc(c(-c5c(F)c(F)c(F)c(F)c5F)c5ccc2[nH]5)C=C4)C=C3)cc1
REMARK SMILES IDX 5 1 4 2 3 3 1 4 2 5 23 7 24 8 85 9 25 10 84 11 26 12 27 13
REMARK SMILES IDX 28 14 78 15 29 16 83 17 77 18 79 19 30 20 82 21 76 22 75 23
REMARK SMILES IDX 31 25 63 26 43 27 62 28 44 29 47 30 61 31 80 32 45 33 46 34
REMARK SMILES IDX 60 36 81 37 48 38 32 39 33 40 41 41 34 42 35 43 39 44 42 45
REMARK SMILES IDX 36 46 37 47 40 48 38 49 64 50 65 51 73 52 66 53 67 54 71 55
REMARK SMILES IDX 74 56 68 57 69 58 72 59 70 60 49 61 50 62 58 63 51 64 52 65
REMARK SMILES IDX 56 66 59 67 53 68 54 69 57 70 55 71 6 72 7 73 8 74 9 75
REMARK SMILES IDX 10 77 11 78 12 79 22 80 13 81 14 82 15 83 21 84 16 85 17 86
REMARK SMILES IDX 18 88 19 89 20 90
REMARK H PARENT 3 6 79 24 47 35 8 76 17 87
REMARK Flexibility Score: inf
ROOT
ATOM      1  C   UNL A   1      31.555  32.115  26.881  1.00  0.00     0.023 C 
ENDROOT
BRANCH   1   2
ATOM      2  C   UNL A   1      32.779  32.994  27.090  1.00  0.00     0.116 C 
BRANCH   2   3
ATOM      3  N   UNL A   1      32.447  34.312  27.606  1.00  0.00    -0.352 N 
ATOM      4  O   UNL A   1      32.523  36.032  29.069  1.00  0.00    -0.269 OA
ATOM      5  C   UNL A   1      32.998  34.971  28.677  1.00  0.00     0.251 C 
ATOM      6  H   UNL A   1      31.734  34.794  27.127  1.00  0.00     0.163 HD
BRANCH   5   7
ATOM      7  C   UNL A   1      34.153  34.372  29.377  1.00  0.00     0.039 A 
ATOM      8  C   UNL A   1      35.456  34.616  28.938  1.00  0.00     0.014 A 
ATOM      9  C   UNL A   1      33.920  33.544  30.478  1.00  0.00     0.014 A 
ATOM     10  C   UNL A   1      36.518  33.938  29.523  1.00  0.00     0.010 A 
ATOM     11  C   UNL A   1      34.995  32.919  31.111  1.00  0.00     0.010 A 
ATOM     12  C   UNL A   1      36.300  33.090  30.621  1.00  0.00    -0.014 A 
BRANCH  12  13
ATOM     13  C   UNL A   1      37.455  32.434  31.278  1.00  0.00     0.031 A 
ATOM     14  C   UNL A   1      38.218  31.342  30.586  1.00  0.00     0.074 A 
ATOM     15  C   UNL A   1      37.817  32.844  32.507  1.00  0.00     0.049 A 
ATOM     16  N   UNL A   1      39.244  30.652  31.019  1.00  0.00    -0.248 NA
ATOM     17  C   UNL A   1      37.770  30.968  29.237  1.00  0.00     0.031 C 
ATOM     18  C   UNL A   1      37.142  33.892  33.275  1.00  0.00     0.029 A 
ATOM     19  N   UNL A   1      38.842  32.441  33.323  1.00  0.00    -0.354 N 
ATOM     20  C   UNL A   1      39.552  29.752  30.007  1.00  0.00     0.074 A 
ATOM     21  C   UNL A   1      38.591  29.968  28.946  1.00  0.00     0.031 C 
ATOM     22  C   UNL A   1      37.789  34.072  34.436  1.00  0.00     0.029 A 
ATOM     23  C   UNL A   1      38.887  33.115  34.517  1.00  0.00     0.049 A 
ATOM     24  H   UNL A   1      39.483  31.736  33.076  1.00  0.00     0.167 HD
ATOM     25  C   UNL A   1      40.552  28.839  29.969  1.00  0.00     0.037 A 
ATOM     26  C   UNL A   1      39.711  32.968  35.571  1.00  0.00     0.037 A 
ATOM     27  C   UNL A   1      41.513  28.642  31.024  1.00  0.00     0.049 A 
ATOM     28  C   UNL A   1      40.794  31.931  35.509  1.00  0.00     0.074 A 
ATOM     29  C   UNL A   1      42.586  27.767  31.065  1.00  0.00     0.029 A 
ATOM     30  N   UNL A   1      41.515  29.330  32.229  1.00  0.00    -0.354 N 
ATOM     31  N   UNL A   1      41.095  31.108  34.534  1.00  0.00    -0.248 NA
ATOM     32  C   UNL A   1      41.652  31.802  36.694  1.00  0.00     0.031 C 
ATOM     33  C   UNL A   1      43.209  27.896  32.311  1.00  0.00     0.029 A 
ATOM     34  C   UNL A   1      42.556  28.884  33.029  1.00  0.00     0.049 A 
ATOM     35  H   UNL A   1      40.872  30.033  32.480  1.00  0.00     0.167 HD
ATOM     36  C   UNL A   1      42.185  30.373  34.979  1.00  0.00     0.074 A 
ATOM     37  C   UNL A   1      42.503  30.862  36.305  1.00  0.00     0.031 C 
ATOM     38  C   UNL A   1      42.857  29.382  34.347  1.00  0.00     0.037 A 
BRANCH  25  39
ATOM     39  C   UNL A   1      40.649  27.962  28.753  1.00  0.00     0.064 A 
ATOM     40  C   UNL A   1      39.936  26.759  28.653  1.00  0.00     0.173 A 
ATOM     41  C   UNL A   1      41.432  28.355  27.657  1.00  0.00     0.173 A 
ATOM     42  F   UNL A   1      39.182  26.333  29.677  1.00  0.00    -0.203 F 
ATOM     43  C   UNL A   1      40.020  25.970  27.508  1.00  0.00     0.198 A 
ATOM     44  C   UNL A   1      41.493  27.577  26.504  1.00  0.00     0.198 A 
ATOM     45  F   UNL A   1      42.130  29.500  27.699  1.00  0.00    -0.203 F 
ATOM     46  F   UNL A   1      39.362  24.804  27.450  1.00  0.00    -0.200 F 
ATOM     47  C   UNL A   1      40.793  26.382  26.433  1.00  0.00     0.200 A 
ATOM     48  F   UNL A   1      42.232  27.982  25.462  1.00  0.00    -0.200 F 
ATOM     49  F   UNL A   1      40.868  25.625  25.329  1.00  0.00    -0.200 F 
ENDBRANCH  25  39
BRANCH  26  50
ATOM     50  C   UNL A   1      39.530  33.828  36.767  1.00  0.00     0.064 A 
ATOM     51  C   UNL A   1      38.774  33.389  37.861  1.00  0.00     0.173 A 
ATOM     52  C   UNL A   1      40.132  35.091  36.850  1.00  0.00     0.173 A 
ATOM     53  F   UNL A   1      38.164  32.195  37.818  1.00  0.00    -0.203 F 
ATOM     54  C   UNL A   1      38.619  34.187  38.992  1.00  0.00     0.198 A 
ATOM     55  C   UNL A   1      40.001  35.875  37.993  1.00  0.00     0.198 A 
ATOM     56  F   UNL A   1      40.871  35.552  35.830  1.00  0.00    -0.203 F 
ATOM     57  F   UNL A   1      37.865  33.758  40.013  1.00  0.00    -0.200 F 
ATOM     58  C   UNL A   1      39.241  35.425  39.061  1.00  0.00     0.200 A 
ATOM     59  F   UNL A   1      40.618  37.064  38.062  1.00  0.00    -0.200 F 
ATOM     60  F   UNL A   1      39.103  36.186  40.156  1.00  0.00    -0.200 F 
ENDBRANCH  26  50
BRANCH  38  61
ATOM     61  C   UNL A   1      44.022  28.778  35.074  1.00  0.00     0.064 A 
ATOM     62  C   UNL A   1      45.314  29.314  34.963  1.00  0.00     0.173 A 
ATOM     63  C   UNL A   1      43.838  27.668  35.912  1.00  0.00     0.173 A 
ATOM     64  F   UNL A   1      45.542  30.364  34.160  1.00  0.00    -0.203 F 
ATOM     65  C   UNL A   1      46.384  28.745  35.646  1.00  0.00     0.198 A 
ATOM     66  C   UNL A   1      44.907  27.119  36.615  1.00  0.00     0.198 A 
ATOM     67  F   UNL A   1      42.621  27.122  36.055  1.00  0.00    -0.203 F 
ATOM     68  F   UNL A   1      47.618  29.243  35.490  1.00  0.00    -0.200 F 
ATOM     69  C   UNL A   1      46.179  27.652  36.476  1.00  0.00     0.200 A 
ATOM     70  F   UNL A   1      44.705  26.070  37.424  1.00  0.00    -0.200 F 
ATOM     71  F   UNL A   1      47.210  27.108  37.136  1.00  0.00    -0.200 F 
ENDBRANCH  38  61
ENDBRANCH  12  13
ENDBRANCH   5   7
ENDBRANCH   2   3
ENDBRANCH   1   2
BRANCH   1  72
ATOM     72  C   UNL A   1      31.818  30.611  27.001  1.00  0.00     0.023 C 
BRANCH  72  73
ATOM     73  C   UNL A   1      33.232  30.179  26.587  1.00  0.00     0.116 C 
BRANCH  73  74
ATOM     74  N   UNL A   1      33.237  28.791  26.168  1.00  0.00    -0.356 N 
ATOM     75  C   UNL A   1      32.685  28.177  25.086  1.00  0.00     0.223 C 
ATOM     76  H   UNL A   1      33.727  28.187  26.772  1.00  0.00     0.163 HD
ATOM     77  O   UNL A   1      32.722  26.945  25.079  1.00  0.00    -0.275 OA
BRANCH  75  78
ATOM     78  C   UNL A   1      32.165  28.985  23.889  1.00  0.00     0.079 C 
ATOM     79  C   UNL A   1      32.200  28.167  22.590  1.00  0.00     0.014 C 
ATOM     80  C   UNL A   1      30.708  29.456  23.991  1.00  0.00     0.026 C 
ATOM     81  C   UNL A   1      30.785  27.611  22.471  1.00  0.00     0.014 C 
ATOM     82  C   UNL A   1      29.901  28.804  22.851  1.00  0.00     0.026 C 
ATOM     83  C   UNL A   1      28.487  28.408  23.303  1.00  0.00     0.074 C 
ATOM     84  C   UNL A   1      29.670  29.763  21.670  1.00  0.00     0.269 C 
ATOM     85  C   UNL A   1      27.530  29.079  22.330  1.00  0.00     0.263 C 
ATOM     86  N   UNL A   1      28.274  30.186  21.736  1.00  0.00    -0.332 N 
ATOM     87  H   UNL A   1      28.022  30.384  20.768  1.00  0.00     0.348 HD
BRANCH  86  88
ATOM     88  C   UNL A   1      27.879  31.518  22.198  1.00  0.00     0.184 C 
ATOM     89  C   UNL A   1      28.840  32.593  22.611  1.00  0.00     0.071 C 
ATOM     90  C   UNL A   1      28.012  32.765  21.370  1.00  0.00     0.071 C 
ENDBRANCH  86  88
ENDBRANCH  75  78
ENDBRANCH  73  74
ENDBRANCH  72  73
ENDBRANCH   1  72
TORSDOF 12
ENDMDL
MODEL 2
REMARK VINA RESULT:     -12.0      1.791      3.324
REMARK SMILES O=C(NCCCCNC(=O)[C@H]1CC[C@@]2(CC[N@@H+](C3CC3)C2)C1)c1ccc(-c2c3nc(c(-c4c(F)c(F)c(F)c(F)c4F)c4ccc([nH]4)c(-c4c(F)c(F)c(F)c(F)c4F)c4nc(c(-c5c(F)c(F)c(F)c(F)c5F)c5ccc2[nH]5)C=C4)C=C3)cc1
REMARK SMILES IDX 5 1 4 2 3 3 1 4 2 5 23 7 24 8 85 9 25 10 84 11 26 12 27 13
REMARK SMILES IDX 28 14 78 15 29 16 83 17 77 18 79 19 30 20 82 21 76 22 75 23
REMARK SMILES IDX 31 25 63 26 43 27 62 28 44 29 47 30 61 31 80 32 45 33 46 34
REMARK SMILES IDX 60 36 81 37 48 38 32 39 33 40 41 41 34 42 35 43 39 44 42 45
REMARK SMILES IDX 36 46 37 47 40 48 38 49 64 50 65 51 73 52 66 53 67 54 71 55
REMARK SMILES IDX 74 56 68 57 69 58 72 59 70 60 49 61 50 62 58 63 51 64 52 65
REMARK SMILES IDX 56 66 59 67 53 68 54 69 57 70 55 71 6 72 7 73 8 74 9 75
REMARK SMILES IDX 10 77 11 78 12 79 22 80 13 81 14 82 15 83 21 84 16 85 17 86
REMARK SMILES IDX 18 88 19 89 20 90
REMARK H PARENT 3 6 79 24 47 35 8 76 17 87
REMARK Flexibility Score: inf
ROOT
ATOM      1  C   UNL A   1      31.388  32.205  26.501  1.00  0.00     0.023 C 
ENDROOT
BRANCH   1   2
ATOM      2  C   UNL A   1      32.568  32.805  27.252  1.00  0.00     0.116 C 
BRANCH   2   3
ATOM      3  N   UNL A   1      32.353  34.194  27.626  1.00  0.00    -0.352 N 
ATOM      4  O   UNL A   1      32.620  36.058  28.873  1.00  0.00    -0.269 OA
ATOM      5  C   UNL A   1      33.003  34.928  28.587  1.00  0.00     0.251 C 
ATOM      6  H   UNL A   1      31.649  34.668  27.127  1.00  0.00     0.163 HD
BRANCH   5   7
ATOM      7  C   UNL A   1      34.150  34.330  29.298  1.00  0.00     0.039 A 
ATOM      8  C   UNL A   1      35.454  34.521  28.834  1.00  0.00     0.014 A 
ATOM      9  C   UNL A   1      33.911  33.556  30.437  1.00  0.00     0.014 A 
ATOM     10  C   UNL A   1      36.506  33.841  29.436  1.00  0.00     0.010 A 
ATOM     11  C   UNL A   1      34.977  32.932  31.085  1.00  0.00     0.010 A 
ATOM     12  C   UNL A   1      36.279  33.048  30.572  1.00  0.00    -0.014 A 
BRANCH  12  13
ATOM     13  C   UNL A   1      37.426  32.391  31.243  1.00  0.00     0.031 A 
ATOM     14  C   UNL A   1      38.190  31.290  30.567  1.00  0.00     0.074 A 
ATOM     15  C   UNL A   1      37.780  32.809  32.472  1.00  0.00     0.049 A 
ATOM     16  N   UNL A   1      39.208  30.598  31.013  1.00  0.00    -0.248 NA
ATOM     17  C   UNL A   1      37.751  30.908  29.216  1.00  0.00     0.031 C 
ATOM     18  C   UNL A   1      37.104  33.866  33.226  1.00  0.00     0.029 A 
ATOM     19  N   UNL A   1      38.796  32.407  33.300  1.00  0.00    -0.354 N 
ATOM     20  C   UNL A   1      39.520  29.689  30.011  1.00  0.00     0.074 A 
ATOM     21  C   UNL A   1      38.569  29.901  28.940  1.00  0.00     0.031 C 
ATOM     22  C   UNL A   1      37.742  34.051  34.392  1.00  0.00     0.029 A 
ATOM     23  C   UNL A   1      38.834  33.089  34.489  1.00  0.00     0.049 A 
ATOM     24  H   UNL A   1      39.436  31.696  33.063  1.00  0.00     0.167 HD
ATOM     25  C   UNL A   1      40.515  28.770  29.987  1.00  0.00     0.037 A 
ATOM     26  C   UNL A   1      39.649  32.946  35.551  1.00  0.00     0.037 A 
ATOM     27  C   UNL A   1      41.467  28.576  31.052  1.00  0.00     0.049 A 
ATOM     28  C   UNL A   1      40.728  31.903  35.506  1.00  0.00     0.074 A 
ATOM     29  C   UNL A   1      42.535  27.697  31.108  1.00  0.00     0.029 A 
ATOM     30  N   UNL A   1      41.462  29.274  32.252  1.00  0.00    -0.354 N 
ATOM     31  N   UNL A   1      41.032  31.071  34.540  1.00  0.00    -0.248 NA
ATOM     32  C   UNL A   1      41.575  31.779  36.699  1.00  0.00     0.031 C 
ATOM     33  C   UNL A   1      43.148  27.832  32.358  1.00  0.00     0.029 A 
ATOM     34  C   UNL A   1      42.495  28.829  33.063  1.00  0.00     0.049 A 
ATOM     35  H   UNL A   1      40.821  29.982  32.492  1.00  0.00     0.167 HD
ATOM     36  C   UNL A   1      42.114  30.335  34.999  1.00  0.00     0.074 A 
ATOM     37  C   UNL A   1      42.424  30.832  36.324  1.00  0.00     0.031 C 
ATOM     38  C   UNL A   1      42.787  29.335  34.381  1.00  0.00     0.037 A 
BRANCH  25  39
ATOM     39  C   UNL A   1      40.618  27.884  28.779  1.00  0.00     0.064 A 
ATOM     40  C   UNL A   1      39.908  26.679  28.686  1.00  0.00     0.173 A 
ATOM     41  C   UNL A   1      41.404  28.269  27.683  1.00  0.00     0.173 A 
ATOM     42  F   UNL A   1      39.151  26.260  29.711  1.00  0.00    -0.203 F 
ATOM     43  C   UNL A   1      39.997  25.881  27.548  1.00  0.00     0.198 A 
ATOM     44  C   UNL A   1      41.471  27.482  26.536  1.00  0.00     0.198 A 
ATOM     45  F   UNL A   1      42.100  29.416  27.717  1.00  0.00    -0.203 F 
ATOM     46  F   UNL A   1      39.341  24.713  27.497  1.00  0.00    -0.200 F 
ATOM     47  C   UNL A   1      40.773  26.286  26.472  1.00  0.00     0.200 A 
ATOM     48  F   UNL A   1      42.212  27.880  25.493  1.00  0.00    -0.200 F 
ATOM     49  F   UNL A   1      40.853  25.520  25.375  1.00  0.00    -0.200 F 
ENDBRANCH  25  39
BRANCH  26  50
ATOM     50  C   UNL A   1      39.462  33.816  36.738  1.00  0.00     0.064 A 
ATOM     51  C   UNL A   1      38.688  33.392  37.825  1.00  0.00     0.173 A 
ATOM     52  C   UNL A   1      40.078  35.073  36.821  1.00  0.00     0.173 A 
ATOM     53  F   UNL A   1      38.065  32.205  37.783  1.00  0.00    -0.203 F 
ATOM     54  C   UNL A   1      38.528  34.200  38.950  1.00  0.00     0.198 A 
ATOM     55  C   UNL A   1      39.941  35.866  37.958  1.00  0.00     0.198 A 
ATOM     56  F   UNL A   1      40.835  35.519  35.809  1.00  0.00    -0.203 F 
ATOM     57  F   UNL A   1      37.756  33.786  39.964  1.00  0.00    -0.200 F 
ATOM     58  C   UNL A   1      39.162  35.431  39.018  1.00  0.00     0.200 A 
ATOM     59  F   UNL A   1      40.570  37.048  38.026  1.00  0.00    -0.200 F 
ATOM     60  F   UNL A   1      39.019  36.201  40.106  1.00  0.00    -0.200 F 
ENDBRANCH  26  50
BRANCH  38  61
ATOM     61  C   UNL A   1      43.943  28.731  35.122  1.00  0.00     0.064 A 
ATOM     62  C   UNL A   1      43.776  27.614  35.955  1.00  0.00     0.173 A 
ATOM     63  C   UNL A   1      45.234  29.258  34.976  1.00  0.00     0.173 A 
ATOM     64  F   UNL A   1      42.558  27.086  36.140  1.00  0.00    -0.203 F 
ATOM     65  C   UNL A   1      44.859  27.063  36.634  1.00  0.00     0.198 A 
ATOM     66  C   UNL A   1      46.319  28.687  35.635  1.00  0.00     0.198 A 
ATOM     67  F   UNL A   1      45.445  30.323  34.187  1.00  0.00    -0.203 F 
ATOM     68  F   UNL A   1      44.671  26.025  37.461  1.00  0.00    -0.200 F 
ATOM     69  C   UNL A   1      46.129  27.595  36.469  1.00  0.00     0.200 A 
ATOM     70  F   UNL A   1      47.547  29.196  35.467  1.00  0.00    -0.200 F 
ATOM     71  F   UNL A   1      47.171  27.060  37.120  1.00  0.00    -0.200 F 
ENDBRANCH  38  61
ENDBRANCH  12  13
ENDBRANCH   5   7
ENDBRANCH   2   3
ENDBRANCH   1   2
BRANCH   1  72
ATOM     72  C   UNL A   1      31.493  30.699  26.243  1.00  0.00     0.023 C 
BRANCH  72  73
ATOM     73  C   UNL A   1      32.930  30.162  26.189  1.00  0.00     0.116 C 
BRANCH  73  74
ATOM     74  N   UNL A   1      33.279  29.777  24.835  1.00  0.00    -0.356 N 
ATOM     75  C   UNL A   1      33.521  28.557  24.283  1.00  0.00     0.223 C 
ATOM     76  H   UNL A   1      33.353  30.530  24.205  1.00  0.00     0.163 HD
ATOM     77  O   UNL A   1      33.955  28.556  23.129  1.00  0.00    -0.275 OA
BRANCH  75  78
ATOM     78  C   UNL A   1      33.149  27.260  25.016  1.00  0.00     0.079 C 
ATOM     79  C   UNL A   1      31.680  26.877  24.789  1.00  0.00     0.014 C 
ATOM     80  C   UNL A   1      33.929  26.010  24.588  1.00  0.00     0.026 C 
ATOM     81  C   UNL A   1      31.738  25.878  23.639  1.00  0.00     0.014 C 
ATOM     82  C   UNL A   1      32.936  24.991  23.998  1.00  0.00     0.026 C 
ATOM     83  C   UNL A   1      33.531  24.238  22.798  1.00  0.00     0.074 C 
ATOM     84  C   UNL A   1      32.566  23.882  24.999  1.00  0.00     0.269 C 
ATOM     85  C   UNL A   1      33.403  22.758  23.124  1.00  0.00     0.263 C 
ATOM     86  N   UNL A   1      33.273  22.677  24.575  1.00  0.00    -0.332 N 
ATOM     87  H   UNL A   1      32.684  21.909  24.897  1.00  0.00     0.348 HD
BRANCH  86  88
ATOM     88  C   UNL A   1      34.455  22.174  25.277  1.00  0.00     0.184 C 
ATOM     89  C   UNL A   1      35.054  22.811  26.497  1.00  0.00     0.071 C 
ATOM     90  C   UNL A   1      34.404  21.460  26.600  1.00  0.00     0.071 C 
ENDBRANCH  86  88
ENDBRANCH  75  78
ENDBRANCH  73  74
ENDBRANCH  72  73
ENDBRANCH   1  72
TORSDOF 12
ENDMDL
MODEL 3
REMARK VINA RESULT:     -11.9      1.881      8.208
REMARK SMILES O=C(NCCCCNC(=O)[C@H]1CC[C@@]2(CC[N@@H+](C3CC3)C2)C1)c1ccc(-c2c3nc(c(-c4c(F)c(F)c(F)c(F)c4F)c4ccc([nH]4)c(-c4c(F)c(F)c(F)c(F)c4F)c4nc(c(-c5c(F)c(F)c(F)c(F)c5F)c5ccc2[nH]5)C=C4)C=C3)cc1
REMARK SMILES IDX 5 1 4 2 3 3 1 4 2 5 23 7 24 8 85 9 25 10 84 11 26 12 27 13
REMARK SMILES IDX 28 14 78 15 29 16 83 17 77 18 79 19 30 20 82 21 76 22 75 23
REMARK SMILES IDX 31 25 63 26 43 27 62 28 44 29 47 30 61 31 80 32 45 33 46 34
REMARK SMILES IDX 60 36 81 37 48 38 32 39 33 40 41 41 34 42 35 43 39 44 42 45
REMARK SMILES IDX 36 46 37 47 40 48 38 49 64 50 65 51 73 52 66 53 67 54 71 55
REMARK SMILES IDX 74 56 68 57 69 58 72 59 70 60 49 61 50 62 58 63 51 64 52 65
REMARK SMILES IDX 56 66 59 67 53 68 54 69 57 70 55 71 6 72 7 73 8 74 9 75
REMARK SMILES IDX 10 77 11 78 12 79 22 80 13 81 14 82 15 83 21 84 16 85 17 86
REMARK SMILES IDX 18 88 19 89 20 90
REMARK H PARENT 3 6 79 24 47 35 8 76 17 87
REMARK Flexibility Score: inf
ROOT
ATOM      1  C   UNL A   1      31.389  32.211  26.501  1.00  0.00     0.023 C 
ENDROOT
BRANCH   1   2
ATOM      2  C   UNL A   1      32.614  32.775  27.206  1.00  0.00     0.116 C 
BRANCH   2   3
ATOM      3  N   UNL A   1      32.439  34.156  27.626  1.00  0.00    -0.352 N 
ATOM      4  O   UNL A   1      32.776  35.974  28.924  1.00  0.00    -0.269 OA
ATOM      5  C   UNL A   1      33.126  34.845  28.595  1.00  0.00     0.251 C 
ATOM      6  H   UNL A   1      31.737  34.662  27.156  1.00  0.00     0.163 HD
BRANCH   5   7
ATOM      7  C   UNL A   1      34.273  34.199  29.264  1.00  0.00     0.039 A 
ATOM      8  C   UNL A   1      35.582  34.507  28.887  1.00  0.00     0.014 A 
ATOM      9  C   UNL A   1      34.028  33.262  30.271  1.00  0.00     0.014 A 
ATOM     10  C   UNL A   1      36.642  33.793  29.432  1.00  0.00     0.010 A 
ATOM     11  C   UNL A   1      35.098  32.595  30.869  1.00  0.00     0.010 A 
ATOM     12  C   UNL A   1      36.411  32.837  30.434  1.00  0.00    -0.014 A 
BRANCH  12  13
ATOM     13  C   UNL A   1      37.562  32.138  31.055  1.00  0.00     0.031 A 
ATOM     14  C   UNL A   1      38.012  32.478  32.446  1.00  0.00     0.074 A 
ATOM     15  C   UNL A   1      38.191  31.179  30.352  1.00  0.00     0.049 A 
ATOM     16  N   UNL A   1      39.006  31.976  33.137  1.00  0.00    -0.248 NA
ATOM     17  C   UNL A   1      37.257  33.523  33.154  1.00  0.00     0.031 C 
ATOM     18  C   UNL A   1      37.842  30.772  28.989  1.00  0.00     0.029 A 
ATOM     19  N   UNL A   1      39.245  30.368  30.682  1.00  0.00    -0.354 N 
ATOM     20  C   UNL A   1      39.007  32.654  34.349  1.00  0.00     0.074 A 
ATOM     21  C   UNL A   1      37.930  33.619  34.293  1.00  0.00     0.031 C 
ATOM     22  C   UNL A   1      38.646  29.767  28.612  1.00  0.00     0.029 A 
ATOM     23  C   UNL A   1      39.600  29.499  29.682  1.00  0.00     0.049 A 
ATOM     24  H   UNL A   1      39.704  30.406  31.553  1.00  0.00     0.167 HD
ATOM     25  C   UNL A   1      39.829  32.477  35.411  1.00  0.00     0.037 A 
ATOM     26  C   UNL A   1      40.596  28.596  29.624  1.00  0.00     0.037 A 
ATOM     27  C   UNL A   1      40.890  31.502  35.464  1.00  0.00     0.049 A 
ATOM     28  C   UNL A   1      41.506  28.438  30.808  1.00  0.00     0.074 A 
ATOM     29  C   UNL A   1      41.754  31.220  36.508  1.00  0.00     0.029 A 
ATOM     30  N   UNL A   1      41.233  30.652  34.422  1.00  0.00    -0.354 N 
ATOM     31  N   UNL A   1      41.478  29.062  31.960  1.00  0.00    -0.248 NA
ATOM     32  C   UNL A   1      42.586  27.451  30.682  1.00  0.00     0.031 C 
ATOM     33  C   UNL A   1      42.646  30.230  36.083  1.00  0.00     0.029 A 
ATOM     34  C   UNL A   1      42.309  29.860  34.791  1.00  0.00     0.049 A 
ATOM     35  H   UNL A   1      40.778  30.615  33.549  1.00  0.00     0.167 HD
ATOM     36  C   UNL A   1      42.524  28.536  32.704  1.00  0.00     0.074 A 
ATOM     37  C   UNL A   1      43.156  27.527  31.877  1.00  0.00     0.031 C 
ATOM     38  C   UNL A   1      42.926  28.861  33.955  1.00  0.00     0.037 A 
BRANCH  25  39
ATOM     39  C   UNL A   1      39.631  33.369  36.602  1.00  0.00     0.064 A 
ATOM     40  C   UNL A   1      40.271  34.612  36.707  1.00  0.00     0.173 A 
ATOM     41  C   UNL A   1      38.754  32.993  37.632  1.00  0.00     0.173 A 
ATOM     42  F   UNL A   1      41.128  35.013  35.756  1.00  0.00    -0.203 F 
ATOM     43  C   UNL A   1      40.058  35.437  37.809  1.00  0.00     0.198 A 
ATOM     44  C   UNL A   1      38.523  33.832  38.719  1.00  0.00     0.198 A 
ATOM     45  F   UNL A   1      38.111  31.817  37.578  1.00  0.00    -0.203 F 
ATOM     46  F   UNL A   1      40.711  36.603  37.908  1.00  0.00    -0.200 F 
ATOM     47  C   UNL A   1      39.180  35.049  38.810  1.00  0.00     0.200 A 
ATOM     48  F   UNL A   1      37.665  33.461  39.680  1.00  0.00    -0.200 F 
ATOM     49  F   UNL A   1      38.970  35.848  39.867  1.00  0.00    -0.200 F 
ENDBRANCH  25  39
BRANCH  26  50
ATOM     50  C   UNL A   1      40.775  27.781  28.397  1.00  0.00     0.064 A 
ATOM     51  C   UNL A   1      41.580  28.232  27.344  1.00  0.00     0.173 A 
ATOM     52  C   UNL A   1      40.167  26.524  28.266  1.00  0.00     0.173 A 
ATOM     53  F   UNL A   1      42.167  29.437  27.418  1.00  0.00    -0.203 F 
ATOM     54  C   UNL A   1      41.765  27.460  26.200  1.00  0.00     0.198 A 
ATOM     55  C   UNL A   1      40.376  25.740  27.133  1.00  0.00     0.198 A 
ATOM     56  F   UNL A   1      39.392  26.045  29.250  1.00  0.00    -0.203 F 
ATOM     57  F   UNL A   1      42.515  27.927  25.193  1.00  0.00    -0.200 F 
ATOM     58  C   UNL A   1      41.170  26.211  26.100  1.00  0.00     0.200 A 
ATOM     59  F   UNL A   1      39.813  24.526  27.049  1.00  0.00    -0.200 F 
ATOM     60  F   UNL A   1      41.359  25.462  25.004  1.00  0.00    -0.200 F 
ENDBRANCH  26  50
BRANCH  38  61
ATOM     61  C   UNL A   1      44.089  28.099  34.517  1.00  0.00     0.064 A 
ATOM     62  C   UNL A   1      45.404  28.573  34.395  1.00  0.00     0.173 A 
ATOM     63  C   UNL A   1      43.883  26.896  35.207  1.00  0.00     0.173 A 
ATOM     64  F   UNL A   1      45.653  29.709  33.727  1.00  0.00    -0.203 F 
ATOM     65  C   UNL A   1      46.473  27.856  34.924  1.00  0.00     0.198 A 
ATOM     66  C   UNL A   1      44.952  26.196  35.759  1.00  0.00     0.198 A 
ATOM     67  F   UNL A   1      42.644  26.404  35.354  1.00  0.00    -0.203 F 
ATOM     68  F   UNL A   1      47.726  28.302  34.756  1.00  0.00    -0.200 F 
ATOM     69  C   UNL A   1      46.246  26.672  35.611  1.00  0.00     0.200 A 
ATOM     70  F   UNL A   1      44.731  25.058  36.431  1.00  0.00    -0.200 F 
ATOM     71  F   UNL A   1      47.277  25.985  36.123  1.00  0.00    -0.200 F 
ENDBRANCH  38  61
ENDBRANCH  12  13
ENDBRANCH   5   7
ENDBRANCH   2   3
ENDBRANCH   1   2
BRANCH   1  72
ATOM     72  C   UNL A   1      31.461  30.713  26.191  1.00  0.00     0.023 C 
BRANCH  72  73
ATOM     73  C   UNL A   1      32.876  30.121  26.244  1.00  0.00     0.116 C 
BRANCH  73  74
ATOM     74  N   UNL A   1      33.302  29.703  24.923  1.00  0.00    -0.356 N 
ATOM     75  C   UNL A   1      33.511  28.465  24.397  1.00  0.00     0.223 C 
ATOM     76  H   UNL A   1      33.470  30.444  24.297  1.00  0.00     0.163 HD
ATOM     77  O   UNL A   1      34.030  28.427  23.279  1.00  0.00    -0.275 OA
BRANCH  75  78
ATOM     78  C   UNL A   1      33.006  27.200  25.105  1.00  0.00     0.079 C 
ATOM     79  C   UNL A   1      31.599  26.806  24.635  1.00  0.00     0.014 C 
ATOM     80  C   UNL A   1      33.842  25.934  24.875  1.00  0.00     0.026 C 
ATOM     81  C   UNL A   1      31.855  25.759  23.556  1.00  0.00     0.014 C 
ATOM     82  C   UNL A   1      32.963  24.890  24.160  1.00  0.00     0.026 C 
ATOM     83  C   UNL A   1      33.758  24.088  23.119  1.00  0.00     0.074 C 
ATOM     84  C   UNL A   1      32.413  23.823  25.125  1.00  0.00     0.269 C 
ATOM     85  C   UNL A   1      33.565  22.622  23.478  1.00  0.00     0.263 C 
ATOM     86  N   UNL A   1      33.178  22.603  24.885  1.00  0.00    -0.332 N 
ATOM     87  H   UNL A   1      32.536  21.849  25.128  1.00  0.00     0.348 HD
BRANCH  86  88
ATOM     88  C   UNL A   1      34.212  22.131  25.807  1.00  0.00     0.184 C 
ATOM     89  C   UNL A   1      34.779  22.943  26.934  1.00  0.00     0.071 C 
ATOM     90  C   UNL A   1      33.945  21.728  27.230  1.00  0.00     0.071 C 
ENDBRANCH  86  88
ENDBRANCH  75  78
ENDBRANCH  73  74
ENDBRANCH  72  73
ENDBRANCH   1  72
TORSDOF 12
ENDMDL
