MODEL 1
REMARK VINA RESULT:     -10.8      0.000      0.000
REMARK SMILES O=C(CCCC[C@@H]1CCSS1)NCCCCNC(=O)c1ccc(-c2c3nc(c(-c4c(F)c(F)c(F)c(F)c4F)c4ccc([nH]4)c(-c4c(F)c(F)c(F)c(F)c4F)c4nc(c(-c5c(F)c(F)c(F)c(F)c5F)c5ccc2[nH]5)C=C4)C=C3)cc1
REMARK SMILES IDX 13 1 12 2 1 3 2 4 3 6 4 7 5 8 6 9 7 10 8 11 11 12 9 13 10 14
REMARK SMILES IDX 14 15 15 16 16 17 17 18 18 19 19 21 20 22 21 23 82 24 22 25
REMARK SMILES IDX 81 26 23 27 24 28 25 29 75 30 26 31 80 32 74 33 76 34 27 35
REMARK SMILES IDX 79 36 73 37 72 38 28 40 60 41 40 42 59 43 41 44 44 45 58 46
REMARK SMILES IDX 77 47 42 48 43 49 57 51 78 52 45 53 29 54 30 55 38 56 31 57
REMARK SMILES IDX 32 58 36 59 39 60 33 61 34 62 37 63 35 64 61 65 62 66 70 67
REMARK SMILES IDX 63 68 64 69 68 70 71 71 65 72 66 73 69 74 67 75 46 76 47 77
REMARK SMILES IDX 55 78 48 79 49 80 53 81 56 82 50 83 51 84 54 85 52 86
REMARK H PARENT 12 5 17 20 76 39 44 50
REMARK Flexibility Score: inf
ROOT
ATOM      1  C   UNL A   1      32.618  30.057  26.725  1.00  0.00     0.116 C 
ENDROOT
BRANCH   1   2
ATOM      2  N   UNL A   1      32.655  28.662  26.342  1.00  0.00    -0.356 N 
ATOM      3  O   UNL A   1      31.261  27.921  28.010  1.00  0.00    -0.275 OA
ATOM      4  C   UNL A   1      31.915  27.704  26.994  1.00  0.00     0.219 C 
ATOM      5  H   UNL A   1      33.229  28.389  25.590  1.00  0.00     0.163 HD
BRANCH   4   6
ATOM      6  C   UNL A   1      31.958  26.335  26.349  1.00  0.00     0.100 C 
BRANCH   6   7
ATOM      7  C   UNL A   1      30.562  25.806  26.000  1.00  0.00     0.010 C 
BRANCH   7   8
ATOM      8  C   UNL A   1      29.954  26.242  24.653  1.00  0.00     0.002 C 
BRANCH   8   9
ATOM      9  C   UNL A   1      30.720  27.282  23.823  1.00  0.00     0.015 C 
BRANCH   9  10
ATOM     10  C   UNL A   1      29.931  28.048  22.748  1.00  0.00     0.059 C 
ATOM     11  C   UNL A   1      30.419  29.454  22.397  1.00  0.00     0.027 C 
ATOM     12  S   UNL A   1      28.189  28.218  23.288  1.00  0.00    -0.091 SA
ATOM     13  C   UNL A   1      29.377  30.187  21.561  1.00  0.00     0.083 C 
ATOM     14  S   UNL A   1      27.839  30.076  22.499  1.00  0.00    -0.094 SA
ENDBRANCH   9  10
ENDBRANCH   8   9
ENDBRANCH   7   8
ENDBRANCH   6   7
ENDBRANCH   4   6
ENDBRANCH   1   2
BRANCH   1  15
ATOM     15  C   UNL A   1      31.423  30.795  26.129  1.00  0.00     0.023 C 
BRANCH  15  16
ATOM     16  C   UNL A   1      31.338  32.287  26.463  1.00  0.00     0.023 C 
BRANCH  16  17
ATOM     17  C   UNL A   1      32.498  32.846  27.285  1.00  0.00     0.116 C 
BRANCH  17  18
ATOM     18  N   UNL A   1      32.302  34.235  27.662  1.00  0.00    -0.352 N 
ATOM     19  C   UNL A   1      32.948  34.993  28.609  1.00  0.00     0.251 C 
ATOM     20  H   UNL A   1      31.598  34.708  27.161  1.00  0.00     0.163 HD
ATOM     21  O   UNL A   1      32.524  36.111  28.888  1.00  0.00    -0.269 OA
BRANCH  19  22
ATOM     22  C   UNL A   1      34.136  34.467  29.318  1.00  0.00     0.039 A 
ATOM     23  C   UNL A   1      33.958  33.854  30.562  1.00  0.00     0.014 A 
ATOM     24  C   UNL A   1      35.421  34.592  28.783  1.00  0.00     0.014 A 
ATOM     25  C   UNL A   1      35.055  33.307  31.234  1.00  0.00     0.010 A 
ATOM     26  C   UNL A   1      36.502  33.982  29.418  1.00  0.00     0.010 A 
ATOM     27  C   UNL A   1      36.331  33.331  30.649  1.00  0.00    -0.014 A 
BRANCH  27  28
ATOM     28  C   UNL A   1      37.491  32.669  31.304  1.00  0.00     0.031 A 
ATOM     29  C   UNL A   1      38.200  31.527  30.628  1.00  0.00     0.074 A 
ATOM     30  C   UNL A   1      37.869  33.054  32.538  1.00  0.00     0.049 A 
ATOM     31  N   UNL A   1      39.182  30.782  31.071  1.00  0.00    -0.248 NA
ATOM     32  C   UNL A   1      37.727  31.158  29.285  1.00  0.00     0.031 C 
ATOM     33  C   UNL A   1      37.239  34.120  33.320  1.00  0.00     0.029 A 
ATOM     34  N   UNL A   1      38.866  32.586  33.359  1.00  0.00    -0.354 N 
ATOM     35  C   UNL A   1      39.432  29.851  30.071  1.00  0.00     0.074 A 
ATOM     36  C   UNL A   1      38.466  30.091  29.020  1.00  0.00     0.031 C 
ATOM     37  C   UNL A   1      37.878  34.239  34.496  1.00  0.00     0.029 A 
ATOM     38  C   UNL A   1      38.932  33.233  34.570  1.00  0.00     0.049 A 
ATOM     39  H   UNL A   1      39.475  31.856  33.105  1.00  0.00     0.167 HD
ATOM     40  C   UNL A   1      40.394  28.897  30.023  1.00  0.00     0.037 A 
ATOM     41  C   UNL A   1      39.744  33.031  35.626  1.00  0.00     0.037 A 
ATOM     42  C   UNL A   1      41.369  28.675  31.060  1.00  0.00     0.049 A 
ATOM     43  C   UNL A   1      40.790  31.951  35.555  1.00  0.00     0.074 A 
ATOM     44  C   UNL A   1      42.420  27.774  31.077  1.00  0.00     0.029 A 
ATOM     45  N   UNL A   1      41.409  29.356  32.268  1.00  0.00    -0.354 N 
ATOM     46  N   UNL A   1      41.062  31.124  34.576  1.00  0.00    -0.248 NA
ATOM     47  C   UNL A   1      41.647  31.782  36.737  1.00  0.00     0.031 C 
ATOM     48  C   UNL A   1      43.061  27.870  32.316  1.00  0.00     0.029 A 
ATOM     49  C   UNL A   1      42.449  28.875  33.049  1.00  0.00     0.049 A 
ATOM     50  H   UNL A   1      40.789  30.074  32.533  1.00  0.00     0.167 HD
ATOM     51  C   UNL A   1      42.138  30.360  35.008  1.00  0.00     0.074 A 
ATOM     52  C   UNL A   1      42.479  30.833  36.333  1.00  0.00     0.031 C 
ATOM     53  C   UNL A   1      42.784  29.358  34.364  1.00  0.00     0.037 A 
BRANCH  40  54
ATOM     54  C   UNL A   1      40.440  28.014  28.808  1.00  0.00     0.064 A 
ATOM     55  C   UNL A   1      41.193  28.357  27.676  1.00  0.00     0.173 A 
ATOM     56  C   UNL A   1      39.758  26.788  28.794  1.00  0.00     0.173 A 
ATOM     57  F   UNL A   1      41.857  29.522  27.632  1.00  0.00    -0.203 F 
ATOM     58  C   UNL A   1      41.235  27.521  26.561  1.00  0.00     0.198 A 
ATOM     59  C   UNL A   1      39.829  25.939  27.692  1.00  0.00     0.198 A 
ATOM     60  F   UNL A   1      39.029  26.406  29.853  1.00  0.00    -0.203 F 
ATOM     61  F   UNL A   1      41.918  27.895  25.471  1.00  0.00    -0.200 F 
ATOM     62  C   UNL A   1      40.560  26.310  26.574  1.00  0.00     0.200 A 
ATOM     63  F   UNL A   1      39.188  24.762  27.712  1.00  0.00    -0.200 F 
ATOM     64  F   UNL A   1      40.608  25.503  25.505  1.00  0.00    -0.200 F 
ENDBRANCH  40  54
BRANCH  41  65
ATOM     65  C   UNL A   1      39.614  33.882  36.838  1.00  0.00     0.064 A 
ATOM     66  C   UNL A   1      38.837  33.466  37.929  1.00  0.00     0.173 A 
ATOM     67  C   UNL A   1      40.249  35.129  36.930  1.00  0.00     0.173 A 
ATOM     68  F   UNL A   1      38.191  32.291  37.881  1.00  0.00    -0.203 F 
ATOM     69  C   UNL A   1      38.681  34.274  39.053  1.00  0.00     0.198 A 
ATOM     70  C   UNL A   1      40.119  35.922  38.068  1.00  0.00     0.198 A 
ATOM     71  F   UNL A   1      41.007  35.572  35.916  1.00  0.00    -0.203 F 
ATOM     72  F   UNL A   1      37.891  33.873  40.059  1.00  0.00    -0.200 F 
ATOM     73  C   UNL A   1      39.327  35.499  39.124  1.00  0.00     0.200 A 
ATOM     74  F   UNL A   1      40.756  37.099  38.138  1.00  0.00    -0.200 F 
ATOM     75  F   UNL A   1      39.179  36.275  40.206  1.00  0.00    -0.200 F 
ENDBRANCH  41  65
BRANCH  53  76
ATOM     76  C   UNL A   1      43.956  28.730  35.064  1.00  0.00     0.064 A 
ATOM     77  C   UNL A   1      45.254  29.249  34.944  1.00  0.00     0.173 A 
ATOM     78  C   UNL A   1      43.770  27.615  35.897  1.00  0.00     0.173 A 
ATOM     79  F   UNL A   1      45.489  30.303  34.148  1.00  0.00    -0.203 F 
ATOM     80  C   UNL A   1      46.326  28.658  35.610  1.00  0.00     0.198 A 
ATOM     81  C   UNL A   1      44.838  27.048  36.587  1.00  0.00     0.198 A 
ATOM     82  F   UNL A   1      42.549  27.084  36.053  1.00  0.00    -0.203 F 
ATOM     83  F   UNL A   1      47.565  29.139  35.440  1.00  0.00    -0.200 F 
ATOM     84  C   UNL A   1      46.116  27.564  36.436  1.00  0.00     0.200 A 
ATOM     85  F   UNL A   1      44.629  26.002  37.398  1.00  0.00    -0.200 F 
ATOM     86  F   UNL A   1      47.147  27.004  37.083  1.00  0.00    -0.200 F 
ENDBRANCH  53  76
ENDBRANCH  27  28
ENDBRANCH  19  22
ENDBRANCH  17  18
ENDBRANCH  16  17
ENDBRANCH  15  16
ENDBRANCH   1  15
TORSDOF 15
ENDMDL
MODEL 2
REMARK VINA RESULT:     -10.7      4.578     10.200
REMARK SMILES O=C(CCCC[C@@H]1CCSS1)NCCCCNC(=O)c1ccc(-c2c3nc(c(-c4c(F)c(F)c(F)c(F)c4F)c4ccc([nH]4)c(-c4c(F)c(F)c(F)c(F)c4F)c4nc(c(-c5c(F)c(F)c(F)c(F)c5F)c5ccc2[nH]5)C=C4)C=C3)cc1
REMARK SMILES IDX 13 1 12 2 1 3 2 4 3 6 4 7 5 8 6 9 7 10 8 11 11 12 9 13 10 14
REMARK SMILES IDX 14 15 15 16 16 17 17 18 18 19 19 21 20 22 21 23 82 24 22 25
REMARK SMILES IDX 81 26 23 27 24 28 25 29 75 30 26 31 80 32 74 33 76 34 27 35
REMARK SMILES IDX 79 36 73 37 72 38 28 40 60 41 40 42 59 43 41 44 44 45 58 46
REMARK SMILES IDX 77 47 42 48 43 49 57 51 78 52 45 53 29 54 30 55 38 56 31 57
REMARK SMILES IDX 32 58 36 59 39 60 33 61 34 62 37 63 35 64 61 65 62 66 70 67
REMARK SMILES IDX 63 68 64 69 68 70 71 71 65 72 66 73 69 74 67 75 46 76 47 77
REMARK SMILES IDX 55 78 48 79 49 80 53 81 56 82 50 83 51 84 54 85 52 86
REMARK H PARENT 12 5 17 20 76 39 44 50
REMARK Flexibility Score: inf
ROOT
ATOM      1  C   UNL A   1      32.931  36.153  29.660  1.00  0.00     0.116 C 
ENDROOT
BRANCH   1   2
ATOM      2  N   UNL A   1      33.693  36.318  30.879  1.00  0.00    -0.356 N 
ATOM      3  O   UNL A   1      31.877  36.494  32.273  1.00  0.00    -0.275 OA
ATOM      4  C   UNL A   1      33.091  36.419  32.111  1.00  0.00     0.219 C 
ATOM      5  H   UNL A   1      34.675  36.358  30.826  1.00  0.00     0.163 HD
BRANCH   4   6
ATOM      6  C   UNL A   1      34.054  36.420  33.279  1.00  0.00     0.100 C 
BRANCH   6   7
ATOM      7  C   UNL A   1      35.172  35.383  33.119  1.00  0.00     0.010 C 
BRANCH   7   8
ATOM      8  C   UNL A   1      34.899  33.959  33.639  1.00  0.00     0.002 C 
BRANCH   8   9
ATOM      9  C   UNL A   1      35.381  32.779  32.783  1.00  0.00     0.015 C 
BRANCH   9  10
ATOM     10  C   UNL A   1      36.786  32.223  33.071  1.00  0.00     0.059 C 
ATOM     11  C   UNL A   1      36.961  30.706  33.003  1.00  0.00     0.027 C 
ATOM     12  S   UNL A   1      37.301  32.735  34.752  1.00  0.00    -0.091 SA
ATOM     13  C   UNL A   1      38.301  30.297  33.602  1.00  0.00     0.083 C 
ATOM     14  S   UNL A   1      38.345  31.042  35.245  1.00  0.00    -0.094 SA
ENDBRANCH   9  10
ENDBRANCH   8   9
ENDBRANCH   7   8
ENDBRANCH   6   7
ENDBRANCH   4   6
ENDBRANCH   1   2
BRANCH   1  15
ATOM     15  C   UNL A   1      33.517  35.084  28.743  1.00  0.00     0.023 C 
BRANCH  15  16
ATOM     16  C   UNL A   1      34.345  34.001  29.442  1.00  0.00     0.023 C 
BRANCH  16  17
ATOM     17  C   UNL A   1      35.075  33.030  28.517  1.00  0.00     0.116 C 
BRANCH  17  18
ATOM     18  N   UNL A   1      34.244  31.910  28.109  1.00  0.00    -0.352 N 
ATOM     19  C   UNL A   1      34.577  30.593  27.899  1.00  0.00     0.251 C 
ATOM     20  H   UNL A   1      33.295  32.127  27.959  1.00  0.00     0.163 HD
ATOM     21  O   UNL A   1      33.757  29.829  27.398  1.00  0.00    -0.269 OA
BRANCH  19  22
ATOM     22  C   UNL A   1      35.924  30.089  28.246  1.00  0.00     0.039 A 
ATOM     23  C   UNL A   1      36.936  30.158  27.283  1.00  0.00     0.014 A 
ATOM     24  C   UNL A   1      36.195  29.528  29.497  1.00  0.00     0.014 A 
ATOM     25  C   UNL A   1      38.229  29.732  27.597  1.00  0.00     0.010 A 
ATOM     26  C   UNL A   1      37.500  29.172  29.834  1.00  0.00     0.010 A 
ATOM     27  C   UNL A   1      38.532  29.272  28.889  1.00  0.00    -0.014 A 
BRANCH  27  28
ATOM     28  C   UNL A   1      39.923  28.906  29.270  1.00  0.00     0.031 A 
ATOM     29  C   UNL A   1      40.758  29.842  30.100  1.00  0.00     0.074 A 
ATOM     30  C   UNL A   1      40.458  27.756  28.815  1.00  0.00     0.049 A 
ATOM     31  N   UNL A   1      42.009  29.729  30.471  1.00  0.00    -0.248 NA
ATOM     32  C   UNL A   1      40.109  31.081  30.554  1.00  0.00     0.031 C 
ATOM     33  C   UNL A   1      39.769  26.781  27.967  1.00  0.00     0.029 A 
ATOM     34  N   UNL A   1      41.709  27.218  28.989  1.00  0.00    -0.354 N 
ATOM     35  C   UNL A   1      42.298  30.884  31.186  1.00  0.00     0.074 A 
ATOM     36  C   UNL A   1      41.109  31.709  31.153  1.00  0.00     0.031 C 
ATOM     37  C   UNL A   1      40.597  25.754  27.715  1.00  0.00     0.029 A 
ATOM     38  C   UNL A   1      41.888  26.017  28.345  1.00  0.00     0.049 A 
ATOM     39  H   UNL A   1      42.413  27.650  29.525  1.00  0.00     0.167 HD
ATOM     40  C   UNL A   1      43.444  31.218  31.829  1.00  0.00     0.037 A 
ATOM     41  C   UNL A   1      42.972  25.221  28.261  1.00  0.00     0.037 A 
ATOM     42  C   UNL A   1      44.619  30.385  31.879  1.00  0.00     0.049 A 
ATOM     43  C   UNL A   1      44.238  25.625  28.969  1.00  0.00     0.074 A 
ATOM     44  C   UNL A   1      45.806  30.608  32.556  1.00  0.00     0.029 A 
ATOM     45  N   UNL A   1      44.758  29.172  31.221  1.00  0.00    -0.354 N 
ATOM     46  N   UNL A   1      44.475  26.686  29.699  1.00  0.00    -0.248 NA
ATOM     47  C   UNL A   1      45.385  24.715  28.843  1.00  0.00     0.031 C 
ATOM     48  C   UNL A   1      46.682  29.559  32.262  1.00  0.00     0.029 A 
ATOM     49  C   UNL A   1      46.021  28.649  31.453  1.00  0.00     0.049 A 
ATOM     50  H   UNL A   1      44.062  28.745  30.670  1.00  0.00     0.167 HD
ATOM     51  C   UNL A   1      45.784  26.557  30.146  1.00  0.00     0.074 A 
ATOM     52  C   UNL A   1      46.284  25.306  29.616  1.00  0.00     0.031 C 
ATOM     53  C   UNL A   1      46.505  27.399  30.926  1.00  0.00     0.037 A 
BRANCH  40  54
ATOM     54  C   UNL A   1      43.487  32.545  32.533  1.00  0.00     0.064 A 
ATOM     55  C   UNL A   1      43.115  32.679  33.878  1.00  0.00     0.173 A 
ATOM     56  C   UNL A   1      43.949  33.689  31.865  1.00  0.00     0.173 A 
ATOM     57  F   UNL A   1      42.657  31.619  34.562  1.00  0.00    -0.203 F 
ATOM     58  C   UNL A   1      43.172  33.914  34.520  1.00  0.00     0.198 A 
ATOM     59  C   UNL A   1      44.037  34.916  32.518  1.00  0.00     0.198 A 
ATOM     60  F   UNL A   1      44.326  33.617  30.579  1.00  0.00    -0.203 F 
ATOM     61  F   UNL A   1      42.762  34.028  35.790  1.00  0.00    -0.200 F 
ATOM     62  C   UNL A   1      43.641  35.029  33.841  1.00  0.00     0.200 A 
ATOM     63  F   UNL A   1      44.504  35.989  31.865  1.00  0.00    -0.200 F 
ATOM     64  F   UNL A   1      43.704  36.216  34.462  1.00  0.00    -0.200 F 
ENDBRANCH  40  54
BRANCH  41  65
ATOM     65  C   UNL A   1      42.905  23.951  27.492  1.00  0.00     0.064 A 
ATOM     66  C   UNL A   1      43.222  23.920  26.126  1.00  0.00     0.173 A 
ATOM     67  C   UNL A   1      42.515  22.748  28.097  1.00  0.00     0.173 A 
ATOM     68  F   UNL A   1      43.579  25.049  25.496  1.00  0.00    -0.203 F 
ATOM     69  C   UNL A   1      43.127  22.741  25.391  1.00  0.00     0.198 A 
ATOM     70  C   UNL A   1      42.451  21.562  27.368  1.00  0.00     0.198 A 
ATOM     71  F   UNL A   1      42.206  22.722  29.402  1.00  0.00    -0.203 F 
ATOM     72  F   UNL A   1      43.385  22.751  24.076  1.00  0.00    -0.200 F 
ATOM     73  C   UNL A   1      42.747  21.561  26.014  1.00  0.00     0.200 A 
ATOM     74  F   UNL A   1      42.098  20.422  27.977  1.00  0.00    -0.200 F 
ATOM     75  F   UNL A   1      42.658  20.426  25.307  1.00  0.00    -0.200 F 
ENDBRANCH  41  65
BRANCH  53  76
ATOM     76  C   UNL A   1      47.900  26.977  31.291  1.00  0.00     0.064 A 
ATOM     77  C   UNL A   1      49.018  27.409  30.561  1.00  0.00     0.173 A 
ATOM     78  C   UNL A   1      48.124  26.161  32.412  1.00  0.00     0.173 A 
ATOM     79  F   UNL A   1      48.859  28.178  29.474  1.00  0.00    -0.203 F 
ATOM     80  C   UNL A   1      50.305  27.016  30.923  1.00  0.00     0.198 A 
ATOM     81  C   UNL A   1      49.414  25.797  32.789  1.00  0.00     0.198 A 
ATOM     82  F   UNL A   1      47.092  25.727  33.149  1.00  0.00    -0.203 F 
ATOM     83  F   UNL A   1      51.353  27.398  30.180  1.00  0.00    -0.200 F 
ATOM     84  C   UNL A   1      50.502  26.218  32.040  1.00  0.00     0.200 A 
ATOM     85  F   UNL A   1      49.603  25.040  33.879  1.00  0.00    -0.200 F 
ATOM     86  F   UNL A   1      51.741  25.849  32.391  1.00  0.00    -0.200 F 
ENDBRANCH  53  76
ENDBRANCH  27  28
ENDBRANCH  19  22
ENDBRANCH  17  18
ENDBRANCH  16  17
ENDBRANCH  15  16
ENDBRANCH   1  15
TORSDOF 15
ENDMDL
MODEL 3
REMARK VINA RESULT:     -10.5      2.073      3.532
REMARK SMILES O=C(CCCC[C@@H]1CCSS1)NCCCCNC(=O)c1ccc(-c2c3nc(c(-c4c(F)c(F)c(F)c(F)c4F)c4ccc([nH]4)c(-c4c(F)c(F)c(F)c(F)c4F)c4nc(c(-c5c(F)c(F)c(F)c(F)c5F)c5ccc2[nH]5)C=C4)C=C3)cc1
REMARK SMILES IDX 13 1 12 2 1 3 2 4 3 6 4 7 5 8 6 9 7 10 8 11 11 12 9 13 10 14
REMARK SMILES IDX 14 15 15 16 16 17 17 18 18 19 19 21 20 22 21 23 82 24 22 25
REMARK SMILES IDX 81 26 23 27 24 28 25 29 75 30 26 31 80 32 74 33 76 34 27 35
REMARK SMILES IDX 79 36 73 37 72 38 28 40 60 41 40 42 59 43 41 44 44 45 58 46
REMARK SMILES IDX 77 47 42 48 43 49 57 51 78 52 45 53 29 54 30 55 38 56 31 57
REMARK SMILES IDX 32 58 36 59 39 60 33 61 34 62 37 63 35 64 61 65 62 66 70 67
REMARK SMILES IDX 63 68 64 69 68 70 71 71 65 72 66 73 69 74 67 75 46 76 47 77
REMARK SMILES IDX 55 78 48 79 49 80 53 81 56 82 50 83 51 84 54 85 52 86
REMARK H PARENT 12 5 17 20 76 39 44 50
REMARK Flexibility Score: inf
ROOT
ATOM      1  C   UNL A   1      31.552  30.160  25.071  1.00  0.00     0.116 C 
ENDROOT
BRANCH   1   2
ATOM      2  N   UNL A   1      32.282  28.922  24.901  1.00  0.00    -0.356 N 
ATOM      3  O   UNL A   1      30.508  27.711  24.091  1.00  0.00    -0.275 OA
ATOM      4  C   UNL A   1      31.701  27.798  24.362  1.00  0.00     0.219 C 
ATOM      5  H   UNL A   1      33.225  28.883  25.181  1.00  0.00     0.163 HD
BRANCH   4   6
ATOM      6  C   UNL A   1      32.664  26.657  24.114  1.00  0.00     0.100 C 
BRANCH   6   7
ATOM      7  C   UNL A   1      33.301  26.134  25.406  1.00  0.00     0.010 C 
BRANCH   7   8
ATOM      8  C   UNL A   1      34.409  25.072  25.272  1.00  0.00     0.002 C 
BRANCH   8   9
ATOM      9  C   UNL A   1      34.360  23.862  26.216  1.00  0.00     0.015 C 
BRANCH   9  10
ATOM     10  C   UNL A   1      35.638  23.016  26.347  1.00  0.00     0.059 C 
ATOM     11  C   UNL A   1      36.921  23.598  25.751  1.00  0.00     0.027 C 
ATOM     12  S   UNL A   1      35.373  21.395  25.539  1.00  0.00    -0.091 SA
ATOM     13  C   UNL A   1      38.009  22.534  25.688  1.00  0.00     0.083 C 
ATOM     14  S   UNL A   1      37.272  21.138  24.813  1.00  0.00    -0.094 SA
ENDBRANCH   9  10
ENDBRANCH   8   9
ENDBRANCH   7   8
ENDBRANCH   6   7
ENDBRANCH   4   6
ENDBRANCH   1   2
BRANCH   1  15
ATOM     15  C   UNL A   1      31.544  30.640  26.520  1.00  0.00     0.023 C 
BRANCH  15  16
ATOM     16  C   UNL A   1      31.423  32.155  26.710  1.00  0.00     0.023 C 
BRANCH  16  17
ATOM     17  C   UNL A   1      32.683  32.860  27.205  1.00  0.00     0.116 C 
BRANCH  17  18
ATOM     18  N   UNL A   1      32.436  34.232  27.613  1.00  0.00    -0.352 N 
ATOM     19  C   UNL A   1      33.025  34.979  28.606  1.00  0.00     0.251 C 
ATOM     20  H   UNL A   1      31.739  34.701  27.099  1.00  0.00     0.163 HD
ATOM     21  O   UNL A   1      32.562  36.077  28.899  1.00  0.00    -0.269 OA
BRANCH  19  22
ATOM     22  C   UNL A   1      34.199  34.463  29.345  1.00  0.00     0.039 A 
ATOM     23  C   UNL A   1      33.997  33.855  30.587  1.00  0.00     0.014 A 
ATOM     24  C   UNL A   1      35.496  34.594  28.839  1.00  0.00     0.014 A 
ATOM     25  C   UNL A   1      35.080  33.317  31.287  1.00  0.00     0.010 A 
ATOM     26  C   UNL A   1      36.566  33.993  29.502  1.00  0.00     0.010 A 
ATOM     27  C   UNL A   1      36.370  33.347  30.732  1.00  0.00    -0.014 A 
BRANCH  27  28
ATOM     28  C   UNL A   1      37.519  32.694  31.417  1.00  0.00     0.031 A 
ATOM     29  C   UNL A   1      38.223  31.527  30.781  1.00  0.00     0.074 A 
ATOM     30  C   UNL A   1      37.889  33.113  32.642  1.00  0.00     0.049 A 
ATOM     31  N   UNL A   1      39.194  30.787  31.255  1.00  0.00    -0.248 NA
ATOM     32  C   UNL A   1      37.758  31.121  29.446  1.00  0.00     0.031 C 
ATOM     33  C   UNL A   1      37.262  34.207  33.386  1.00  0.00     0.029 A 
ATOM     34  N   UNL A   1      38.874  32.662  33.486  1.00  0.00    -0.354 N 
ATOM     35  C   UNL A   1      39.444  29.824  30.285  1.00  0.00     0.074 A 
ATOM     36  C   UNL A   1      38.490  30.040  29.219  1.00  0.00     0.031 C 
ATOM     37  C   UNL A   1      37.891  34.357  34.563  1.00  0.00     0.029 A 
ATOM     38  C   UNL A   1      38.936  33.344  34.677  1.00  0.00     0.049 A 
ATOM     39  H   UNL A   1      39.479  31.919  33.259  1.00  0.00     0.167 HD
ATOM     40  C   UNL A   1      40.398  28.861  30.275  1.00  0.00     0.037 A 
ATOM     41  C   UNL A   1      39.737  33.167  35.745  1.00  0.00     0.037 A 
ATOM     42  C   UNL A   1      41.362  28.661  31.327  1.00  0.00     0.049 A 
ATOM     43  C   UNL A   1      40.774  32.076  35.716  1.00  0.00     0.074 A 
ATOM     44  C   UNL A   1      42.405  27.752  31.380  1.00  0.00     0.029 A 
ATOM     45  N   UNL A   1      41.398  29.378  32.514  1.00  0.00    -0.354 N 
ATOM     46  N   UNL A   1      41.046  31.218  34.764  1.00  0.00    -0.248 NA
ATOM     47  C   UNL A   1      41.619  31.935  36.910  1.00  0.00     0.031 C 
ATOM     48  C   UNL A   1      43.036  27.880  32.622  1.00  0.00     0.029 A 
ATOM     49  C   UNL A   1      42.427  28.912  33.318  1.00  0.00     0.049 A 
ATOM     50  H   UNL A   1      40.783  30.110  32.752  1.00  0.00     0.167 HD
ATOM     51  C   UNL A   1      42.112  30.458  35.229  1.00  0.00     0.074 A 
ATOM     52  C   UNL A   1      42.446  30.967  36.543  1.00  0.00     0.031 C 
ATOM     53  C   UNL A   1      42.755  29.432  34.621  1.00  0.00     0.037 A 
BRANCH  40  54
ATOM     54  C   UNL A   1      40.447  27.941  29.088  1.00  0.00     0.064 A 
ATOM     55  C   UNL A   1      39.708  26.750  29.047  1.00  0.00     0.173 A 
ATOM     56  C   UNL A   1      41.208  28.278  27.958  1.00  0.00     0.173 A 
ATOM     57  F   UNL A   1      38.971  26.374  30.103  1.00  0.00    -0.203 F 
ATOM     58  C   UNL A   1      39.755  25.913  27.933  1.00  0.00     0.198 A 
ATOM     59  C   UNL A   1      41.226  27.457  26.834  1.00  0.00     0.198 A 
ATOM     60  F   UNL A   1      41.928  29.410  27.940  1.00  0.00    -0.203 F 
ATOM     61  F   UNL A   1      39.081  24.755  27.938  1.00  0.00    -0.200 F 
ATOM     62  C   UNL A   1      40.507  26.273  26.825  1.00  0.00     0.200 A 
ATOM     63  F   UNL A   1      41.942  27.813  25.757  1.00  0.00    -0.200 F 
ATOM     64  F   UNL A   1      40.544  25.471  25.750  1.00  0.00    -0.200 F 
ENDBRANCH  40  54
BRANCH  41  65
ATOM     65  C   UNL A   1      39.604  34.055  36.930  1.00  0.00     0.064 A 
ATOM     66  C   UNL A   1      40.257  35.296  36.976  1.00  0.00     0.173 A 
ATOM     67  C   UNL A   1      38.834  33.683  38.042  1.00  0.00     0.173 A 
ATOM     68  F   UNL A   1      41.023  35.687  35.947  1.00  0.00    -0.203 F 
ATOM     69  C   UNL A   1      40.166  36.117  38.098  1.00  0.00     0.198 A 
ATOM     70  C   UNL A   1      38.718  34.520  39.150  1.00  0.00     0.198 A 
ATOM     71  F   UNL A   1      38.185  32.510  38.047  1.00  0.00    -0.203 F 
ATOM     72  F   UNL A   1      40.843  37.273  38.135  1.00  0.00    -0.200 F 
ATOM     73  C   UNL A   1      39.392  35.731  39.181  1.00  0.00     0.200 A 
ATOM     74  F   UNL A   1      37.957  34.149  40.189  1.00  0.00    -0.200 F 
ATOM     75  F   UNL A   1      39.302  36.522  40.259  1.00  0.00    -0.200 F 
ENDBRANCH  41  65
BRANCH  53  76
ATOM     76  C   UNL A   1      43.915  28.815  35.350  1.00  0.00     0.064 A 
ATOM     77  C   UNL A   1      43.744  27.749  36.246  1.00  0.00     0.173 A 
ATOM     78  C   UNL A   1      45.223  29.272  35.118  1.00  0.00     0.173 A 
ATOM     79  F   UNL A   1      42.514  27.284  36.515  1.00  0.00    -0.203 F 
ATOM     80  C   UNL A   1      44.834  27.184  36.904  1.00  0.00     0.198 A 
ATOM     81  C   UNL A   1      46.313  28.683  35.753  1.00  0.00     0.198 A 
ATOM     82  F   UNL A   1      45.444  30.283  34.266  1.00  0.00    -0.203 F 
ATOM     83  F   UNL A   1      44.640  26.202  37.795  1.00  0.00    -0.200 F 
ATOM     84  C   UNL A   1      46.117  27.646  36.651  1.00  0.00     0.200 A 
ATOM     85  F   UNL A   1      47.553  29.120  35.493  1.00  0.00    -0.200 F 
ATOM     86  F   UNL A   1      47.164  27.093  37.278  1.00  0.00    -0.200 F 
ENDBRANCH  53  76
ENDBRANCH  27  28
ENDBRANCH  19  22
ENDBRANCH  17  18
ENDBRANCH  16  17
ENDBRANCH  15  16
ENDBRANCH   1  15
TORSDOF 15
ENDMDL
