MODEL 1
REMARK VINA RESULT:     -11.4      0.000      0.000
REMARK SMILES CCN(CCC(=O)NCCCCNC(=O)c1ccc(-c2c3nc(c(-c4c(F)c(F)c(F)c(F)c4F)c4ccc([nH]4)c(-c4c(F)c(F)c(F)c(F)c4F)c4nc(c(-c5c(F)c(F)c(F)c(F)c5F)c5ccc2[nH]5)C=C4)C=C3)cc1)C(=O)c1cc(Cl)ccc1F
REMARK SMILES IDX 9 1 8 2 6 3 7 4 5 6 4 7 3 8 2 9 1 10 79 11 80 12 81 13 82 14
REMARK SMILES IDX 87 15 83 16 86 17 88 18 84 19 85 20 10 21 11 22 12 23 13 24
REMARK SMILES IDX 14 25 15 27 16 28 17 29 78 30 18 31 77 32 19 33 20 34 21 35
REMARK SMILES IDX 71 36 22 37 76 38 70 39 72 40 23 41 75 42 69 43 68 44 24 46
REMARK SMILES IDX 56 47 36 48 55 49 37 50 40 51 54 52 73 53 38 54 39 55 53 57
REMARK SMILES IDX 74 58 41 59 25 60 26 61 34 62 27 63 28 64 32 65 35 66 29 67
REMARK SMILES IDX 30 68 33 69 31 70 57 71 58 72 66 73 59 74 60 75 64 76 67 77
REMARK SMILES IDX 61 78 62 79 65 80 63 81 42 82 43 83 51 84 44 85 45 86 49 87
REMARK SMILES IDX 52 88 46 89 47 90 50 91 48 92
REMARK H PARENT 8 5 13 26 72 45 40 56
REMARK Flexibility Score: inf
ROOT
ATOM      1  C   UNL A   1      33.016  30.191  26.390  1.00  0.00     0.116 C 
ENDROOT
BRANCH   1   2
ATOM      2  N   UNL A   1      33.624  29.549  25.240  1.00  0.00    -0.356 N 
ATOM      3  C   UNL A   1      33.703  28.225  24.932  1.00  0.00     0.221 C 
ATOM      4  O   UNL A   1      34.195  27.907  23.848  1.00  0.00    -0.275 OA
ATOM      5  H   UNL A   1      34.038  30.160  24.588  1.00  0.00     0.163 HD
BRANCH   3   6
ATOM      6  C   UNL A   1      33.182  27.179  25.889  1.00  0.00     0.121 C 
BRANCH   6   7
ATOM      7  C   UNL A   1      31.741  26.754  25.628  1.00  0.00     0.129 C 
BRANCH   7   8
ATOM      8  N   UNL A   1      31.498  25.912  24.448  1.00  0.00    -0.338 N 
BRANCH   8   9
ATOM      9  C   UNL A   1      31.454  24.463  24.756  1.00  0.00     0.116 C 
ATOM     10  C   UNL A   1      30.881  23.970  26.075  1.00  0.00     0.027 C 
ENDBRANCH   8   9
BRANCH   8  11
ATOM     11  C   UNL A   1      31.171  26.408  23.167  1.00  0.00     0.256 C 
ATOM     12  O   UNL A   1      31.764  26.038  22.152  1.00  0.00    -0.269 OA
BRANCH  11  13
ATOM     13  C   UNL A   1      30.299  27.614  22.975  1.00  0.00     0.077 A 
ATOM     14  C   UNL A   1      28.949  27.453  23.363  1.00  0.00     0.037 A 
ATOM     15  C   UNL A   1      30.669  28.857  22.471  1.00  0.00     0.136 A 
ATOM     16  C   UNL A   1      28.003  28.455  23.130  1.00  0.00     0.042 A 
ATOM     17  C   UNL A   1      29.714  29.843  22.191  1.00  0.00     0.041 A 
ATOM     18  F   UNL A   1      31.946  29.201  22.289  1.00  0.00    -0.206 F 
ATOM     19  Cl  UNL A   1      26.361  28.211  23.585  1.00  0.00    -0.084 Cl
ATOM     20  C   UNL A   1      28.373  29.639  22.505  1.00  0.00     0.023 A 
ENDBRANCH  11  13
ENDBRANCH   8  11
ENDBRANCH   7   8
ENDBRANCH   6   7
ENDBRANCH   3   6
ENDBRANCH   1   2
BRANCH   1  21
ATOM     21  C   UNL A   1      31.676  30.827  26.052  1.00  0.00     0.023 C 
BRANCH  21  22
ATOM     22  C   UNL A   1      31.412  32.164  26.724  1.00  0.00     0.023 C 
BRANCH  22  23
ATOM     23  C   UNL A   1      32.660  32.891  27.178  1.00  0.00     0.116 C 
BRANCH  23  24
ATOM     24  N   UNL A   1      32.407  34.254  27.623  1.00  0.00    -0.352 N 
ATOM     25  C   UNL A   1      33.024  34.982  28.613  1.00  0.00     0.251 C 
ATOM     26  H   UNL A   1      31.686  34.724  27.144  1.00  0.00     0.163 HD
ATOM     27  O   UNL A   1      32.607  36.087  28.916  1.00  0.00    -0.269 OA
BRANCH  25  28
ATOM     28  C   UNL A   1      34.174  34.392  29.332  1.00  0.00     0.039 A 
ATOM     29  C   UNL A   1      33.929  33.518  30.393  1.00  0.00     0.014 A 
ATOM     30  C   UNL A   1      35.482  34.659  28.928  1.00  0.00     0.014 A 
ATOM     31  C   UNL A   1      34.999  32.854  30.994  1.00  0.00     0.010 A 
ATOM     32  C   UNL A   1      36.526  33.902  29.436  1.00  0.00     0.010 A 
ATOM     33  C   UNL A   1      36.300  33.005  30.489  1.00  0.00    -0.014 A 
BRANCH  33  34
ATOM     34  C   UNL A   1      37.453  32.273  31.065  1.00  0.00     0.031 A 
ATOM     35  C   UNL A   1      37.963  32.647  32.431  1.00  0.00     0.074 A 
ATOM     36  C   UNL A   1      38.085  31.332  30.336  1.00  0.00     0.049 A 
ATOM     37  N   UNL A   1      39.023  32.219  33.068  1.00  0.00    -0.248 NA
ATOM     38  C   UNL A   1      37.205  33.678  33.160  1.00  0.00     0.031 C 
ATOM     39  C   UNL A   1      37.729  30.932  28.973  1.00  0.00     0.029 A 
ATOM     40  N   UNL A   1      39.170  30.548  30.637  1.00  0.00    -0.354 N 
ATOM     41  C   UNL A   1      39.067  32.944  34.252  1.00  0.00     0.074 A 
ATOM     42  C   UNL A   1      37.978  33.892  34.214  1.00  0.00     0.031 C 
ATOM     43  C   UNL A   1      38.561  29.959  28.567  1.00  0.00     0.029 A 
ATOM     44  C   UNL A   1      39.533  29.695  29.624  1.00  0.00     0.049 A 
ATOM     45  H   UNL A   1      39.645  30.593  31.498  1.00  0.00     0.167 HD
ATOM     46  C   UNL A   1      39.913  32.801  35.298  1.00  0.00     0.037 A 
ATOM     47  C   UNL A   1      40.541  28.805  29.556  1.00  0.00     0.037 A 
ATOM     48  C   UNL A   1      40.965  31.823  35.351  1.00  0.00     0.049 A 
ATOM     49  C   UNL A   1      41.451  28.645  30.745  1.00  0.00     0.074 A 
ATOM     50  C   UNL A   1      41.849  31.559  36.382  1.00  0.00     0.029 A 
ATOM     51  N   UNL A   1      41.265  30.936  34.326  1.00  0.00    -0.354 N 
ATOM     52  N   UNL A   1      41.445  29.294  31.885  1.00  0.00    -0.248 NA
ATOM     53  C   UNL A   1      42.501  27.624  30.643  1.00  0.00     0.031 C 
ATOM     54  C   UNL A   1      42.705  30.533  35.969  1.00  0.00     0.029 A 
ATOM     55  C   UNL A   1      42.324  30.128  34.699  1.00  0.00     0.049 A 
ATOM     56  H   UNL A   1      40.794  30.891  33.463  1.00  0.00     0.167 HD
ATOM     57  C   UNL A   1      42.467  28.743  32.643  1.00  0.00     0.074 A 
ATOM     58  C   UNL A   1      43.061  27.692  31.842  1.00  0.00     0.031 C 
ATOM     59  C   UNL A   1      42.885  29.077  33.889  1.00  0.00     0.037 A 
BRANCH  46  60
ATOM     60  C   UNL A   1      39.712  33.704  36.480  1.00  0.00     0.064 A 
ATOM     61  C   UNL A   1      40.336  34.960  36.556  1.00  0.00     0.173 A 
ATOM     62  C   UNL A   1      38.868  33.329  37.535  1.00  0.00     0.173 A 
ATOM     63  F   UNL A   1      41.167  35.361  35.581  1.00  0.00    -0.203 F 
ATOM     64  C   UNL A   1      40.146  35.791  37.656  1.00  0.00     0.198 A 
ATOM     65  C   UNL A   1      38.654  34.177  38.618  1.00  0.00     0.198 A 
ATOM     66  F   UNL A   1      38.245  32.141  37.513  1.00  0.00    -0.203 F 
ATOM     67  F   UNL A   1      40.796  36.961  37.730  1.00  0.00    -0.200 F 
ATOM     68  C   UNL A   1      39.298  35.403  38.681  1.00  0.00     0.200 A 
ATOM     69  F   UNL A   1      37.825  33.806  39.605  1.00  0.00    -0.200 F 
ATOM     70  F   UNL A   1      39.109  36.208  39.736  1.00  0.00    -0.200 F 
ENDBRANCH  46  60
BRANCH  47  71
ATOM     71  C   UNL A   1      40.731  27.980  28.333  1.00  0.00     0.064 A 
ATOM     72  C   UNL A   1      40.132  26.718  28.214  1.00  0.00     0.173 A 
ATOM     73  C   UNL A   1      41.526  28.426  27.267  1.00  0.00     0.173 A 
ATOM     74  F   UNL A   1      39.376  26.239  29.213  1.00  0.00    -0.203 F 
ATOM     75  C   UNL A   1      40.346  25.921  27.091  1.00  0.00     0.198 A 
ATOM     76  C   UNL A   1      41.715  27.641  26.131  1.00  0.00     0.198 A 
ATOM     77  F   UNL A   1      42.117  29.630  27.328  1.00  0.00    -0.203 F 
ATOM     78  F   UNL A   1      39.809  24.695  27.030  1.00  0.00    -0.200 F 
ATOM     79  C   UNL A   1      41.135  26.385  26.049  1.00  0.00     0.200 A 
ATOM     80  F   UNL A   1      42.467  28.099  25.121  1.00  0.00    -0.200 F 
ATOM     81  F   UNL A   1      41.344  25.617  24.971  1.00  0.00    -0.200 F 
ENDBRANCH  47  71
BRANCH  59  82
ATOM     82  C   UNL A   1      44.008  28.275  34.476  1.00  0.00     0.064 A 
ATOM     83  C   UNL A   1      43.768  27.118  35.230  1.00  0.00     0.173 A 
ATOM     84  C   UNL A   1      45.341  28.645  34.240  1.00  0.00     0.173 A 
ATOM     85  F   UNL A   1      42.510  26.733  35.494  1.00  0.00    -0.203 F 
ATOM     86  C   UNL A   1      44.823  26.374  35.751  1.00  0.00     0.198 A 
ATOM     87  C   UNL A   1      46.393  27.881  34.735  1.00  0.00     0.198 A 
ATOM     88  F   UNL A   1      45.621  29.738  33.515  1.00  0.00    -0.203 F 
ATOM     89  F   UNL A   1      44.571  25.298  36.509  1.00  0.00    -0.200 F 
ATOM     90  C   UNL A   1      46.133  26.751  35.495  1.00  0.00     0.200 A 
ATOM     91  F   UNL A   1      47.659  28.237  34.474  1.00  0.00    -0.200 F 
ATOM     92  F   UNL A   1      47.148  26.028  35.989  1.00  0.00    -0.200 F 
ENDBRANCH  59  82
ENDBRANCH  33  34
ENDBRANCH  25  28
ENDBRANCH  23  24
ENDBRANCH  22  23
ENDBRANCH  21  22
ENDBRANCH   1  21
TORSDOF 16
ENDMDL
MODEL 2
REMARK VINA RESULT:     -11.3      0.606      7.403
REMARK SMILES CCN(CCC(=O)NCCCCNC(=O)c1ccc(-c2c3nc(c(-c4c(F)c(F)c(F)c(F)c4F)c4ccc([nH]4)c(-c4c(F)c(F)c(F)c(F)c4F)c4nc(c(-c5c(F)c(F)c(F)c(F)c5F)c5ccc2[nH]5)C=C4)C=C3)cc1)C(=O)c1cc(Cl)ccc1F
REMARK SMILES IDX 9 1 8 2 6 3 7 4 5 6 4 7 3 8 2 9 1 10 79 11 80 12 81 13 82 14
REMARK SMILES IDX 87 15 83 16 86 17 88 18 84 19 85 20 10 21 11 22 12 23 13 24
REMARK SMILES IDX 14 25 15 27 16 28 17 29 78 30 18 31 77 32 19 33 20 34 21 35
REMARK SMILES IDX 71 36 22 37 76 38 70 39 72 40 23 41 75 42 69 43 68 44 24 46
REMARK SMILES IDX 56 47 36 48 55 49 37 50 40 51 54 52 73 53 38 54 39 55 53 57
REMARK SMILES IDX 74 58 41 59 25 60 26 61 34 62 27 63 28 64 32 65 35 66 29 67
REMARK SMILES IDX 30 68 33 69 31 70 57 71 58 72 66 73 59 74 60 75 64 76 67 77
REMARK SMILES IDX 61 78 62 79 65 80 63 81 42 82 43 83 51 84 44 85 45 86 49 87
REMARK SMILES IDX 52 88 46 89 47 90 50 91 48 92
REMARK H PARENT 8 5 13 26 72 45 40 56
REMARK Flexibility Score: inf
ROOT
ATOM      1  C   UNL A   1      32.384  30.028  25.988  1.00  0.00     0.116 C 
ENDROOT
BRANCH   1   2
ATOM      2  N   UNL A   1      33.205  29.724  24.832  1.00  0.00    -0.356 N 
ATOM      3  C   UNL A   1      33.688  28.523  24.406  1.00  0.00     0.221 C 
ATOM      4  O   UNL A   1      34.300  28.487  23.337  1.00  0.00    -0.275 OA
ATOM      5  H   UNL A   1      33.449  30.498  24.274  1.00  0.00     0.163 HD
BRANCH   3   6
ATOM      6  C   UNL A   1      33.459  27.270  25.218  1.00  0.00     0.121 C 
BRANCH   6   7
ATOM      7  C   UNL A   1      32.083  26.641  25.024  1.00  0.00     0.129 C 
BRANCH   7   8
ATOM      8  N   UNL A   1      31.813  26.020  23.720  1.00  0.00    -0.338 N 
BRANCH   8   9
ATOM      9  C   UNL A   1      31.900  24.541  23.742  1.00  0.00     0.116 C 
ATOM     10  C   UNL A   1      30.656  23.689  23.540  1.00  0.00     0.027 C 
ENDBRANCH   8   9
BRANCH   8  11
ATOM     11  C   UNL A   1      31.352  26.718  22.582  1.00  0.00     0.256 C 
ATOM     12  O   UNL A   1      31.918  26.634  21.490  1.00  0.00    -0.269 OA
BRANCH  11  13
ATOM     13  C   UNL A   1      30.341  27.823  22.677  1.00  0.00     0.077 A 
ATOM     14  C   UNL A   1      29.085  27.450  23.209  1.00  0.00     0.037 A 
ATOM     15  C   UNL A   1      30.502  29.155  22.311  1.00  0.00     0.136 A 
ATOM     16  C   UNL A   1      28.016  28.350  23.246  1.00  0.00     0.042 A 
ATOM     17  C   UNL A   1      29.420  30.044  22.300  1.00  0.00     0.041 A 
ATOM     18  F   UNL A   1      31.697  29.674  22.016  1.00  0.00    -0.206 F 
ATOM     19  Cl  UNL A   1      26.492  27.850  23.869  1.00  0.00    -0.084 Cl
ATOM     20  C   UNL A   1      28.167  29.640  22.752  1.00  0.00     0.023 A 
ENDBRANCH  11  13
ENDBRANCH   8  11
ENDBRANCH   7   8
ENDBRANCH   6   7
ENDBRANCH   3   6
ENDBRANCH   1   2
BRANCH   1  21
ATOM     21  C   UNL A   1      31.170  30.872  25.625  1.00  0.00     0.023 C 
BRANCH  21  22
ATOM     22  C   UNL A   1      31.028  32.163  26.413  1.00  0.00     0.023 C 
BRANCH  22  23
ATOM     23  C   UNL A   1      32.336  32.725  26.931  1.00  0.00     0.116 C 
BRANCH  23  24
ATOM     24  N   UNL A   1      32.205  34.054  27.510  1.00  0.00    -0.352 N 
ATOM     25  C   UNL A   1      32.969  34.668  28.476  1.00  0.00     0.251 C 
ATOM     26  H   UNL A   1      31.460  34.593  27.160  1.00  0.00     0.163 HD
ATOM     27  O   UNL A   1      32.647  35.759  28.914  1.00  0.00    -0.269 OA
BRANCH  25  28
ATOM     28  C   UNL A   1      34.161  33.970  29.004  1.00  0.00     0.039 A 
ATOM     29  C   UNL A   1      35.423  34.519  28.767  1.00  0.00     0.014 A 
ATOM     30  C   UNL A   1      34.029  32.813  29.771  1.00  0.00     0.014 A 
ATOM     31  C   UNL A   1      36.544  33.944  29.368  1.00  0.00     0.010 A 
ATOM     32  C   UNL A   1      35.122  32.325  30.470  1.00  0.00     0.010 A 
ATOM     33  C   UNL A   1      36.396  32.871  30.262  1.00  0.00    -0.014 A 
BRANCH  33  34
ATOM     34  C   UNL A   1      37.556  32.271  30.964  1.00  0.00     0.031 A 
ATOM     35  C   UNL A   1      38.348  31.182  30.291  1.00  0.00     0.074 A 
ATOM     36  C   UNL A   1      37.848  32.646  32.225  1.00  0.00     0.049 A 
ATOM     37  N   UNL A   1      39.318  30.445  30.768  1.00  0.00    -0.248 NA
ATOM     38  C   UNL A   1      37.966  30.843  28.909  1.00  0.00     0.031 C 
ATOM     39  C   UNL A   1      37.109  33.639  33.008  1.00  0.00     0.029 A 
ATOM     40  N   UNL A   1      38.839  32.226  33.074  1.00  0.00    -0.354 N 
ATOM     41  C   UNL A   1      39.640  29.549  29.757  1.00  0.00     0.074 A 
ATOM     42  C   UNL A   1      38.713  29.777  28.672  1.00  0.00     0.031 C 
ATOM     43  C   UNL A   1      37.690  33.771  34.211  1.00  0.00     0.029 A 
ATOM     44  C   UNL A   1      38.815  32.846  34.300  1.00  0.00     0.049 A 
ATOM     45  H   UNL A   1      39.505  31.544  32.830  1.00  0.00     0.167 HD
ATOM     46  C   UNL A   1      40.646  28.645  29.718  1.00  0.00     0.037 A 
ATOM     47  C   UNL A   1      39.609  32.680  35.374  1.00  0.00     0.037 A 
ATOM     48  C   UNL A   1      41.594  28.455  30.781  1.00  0.00     0.049 A 
ATOM     49  C   UNL A   1      40.740  31.688  35.295  1.00  0.00     0.074 A 
ATOM     50  C   UNL A   1      42.682  27.602  30.828  1.00  0.00     0.029 A 
ATOM     51  N   UNL A   1      41.571  29.144  31.986  1.00  0.00    -0.354 N 
ATOM     52  N   UNL A   1      41.072  30.888  34.310  1.00  0.00    -0.248 NA
ATOM     53  C   UNL A   1      41.611  31.582  36.472  1.00  0.00     0.031 C 
ATOM     54  C   UNL A   1      43.300  27.752  32.073  1.00  0.00     0.029 A 
ATOM     55  C   UNL A   1      42.624  28.731  32.784  1.00  0.00     0.049 A 
ATOM     56  H   UNL A   1      40.905  29.825  32.235  1.00  0.00     0.167 HD
ATOM     57  C   UNL A   1      42.203  30.207  34.736  1.00  0.00     0.074 A 
ATOM     58  C   UNL A   1      42.513  30.701  36.062  1.00  0.00     0.031 C 
ATOM     59  C   UNL A   1      42.920  29.252  34.094  1.00  0.00     0.037 A 
BRANCH  46  60
ATOM     60  C   UNL A   1      40.787  27.818  28.474  1.00  0.00     0.064 A 
ATOM     61  C   UNL A   1      40.130  26.585  28.336  1.00  0.00     0.173 A 
ATOM     62  C   UNL A   1      41.562  28.270  27.396  1.00  0.00     0.173 A 
ATOM     63  F   UNL A   1      39.389  26.098  29.344  1.00  0.00    -0.203 F 
ATOM     64  C   UNL A   1      40.267  25.823  27.180  1.00  0.00     0.198 A 
ATOM     65  C   UNL A   1      41.670  27.520  26.227  1.00  0.00     0.198 A 
ATOM     66  F   UNL A   1      42.210  29.442  27.473  1.00  0.00    -0.203 F 
ATOM     67  F   UNL A   1      39.673  24.624  27.094  1.00  0.00    -0.200 F 
ATOM     68  C   UNL A   1      41.029  26.295  26.123  1.00  0.00     0.200 A 
ATOM     69  F   UNL A   1      42.399  27.983  25.201  1.00  0.00    -0.200 F 
ATOM     70  F   UNL A   1      41.154  25.564  25.007  1.00  0.00    -0.200 F 
ENDBRANCH  46  60
BRANCH  47  71
ATOM     71  C   UNL A   1      39.384  33.483  36.605  1.00  0.00     0.064 A 
ATOM     72  C   UNL A   1      38.616  32.980  37.664  1.00  0.00     0.173 A 
ATOM     73  C   UNL A   1      39.915  34.774  36.742  1.00  0.00     0.173 A 
ATOM     74  F   UNL A   1      38.071  31.757  37.574  1.00  0.00    -0.203 F 
ATOM     75  C   UNL A   1      38.361  33.747  38.799  1.00  0.00     0.198 A 
ATOM     76  C   UNL A   1      39.685  35.530  37.890  1.00  0.00     0.198 A 
ATOM     77  F   UNL A   1      40.663  35.301  35.760  1.00  0.00    -0.203 F 
ATOM     78  F   UNL A   1      37.576  33.263  39.770  1.00  0.00    -0.200 F 
ATOM     79  C   UNL A   1      38.899  35.020  38.912  1.00  0.00     0.200 A 
ATOM     80  F   UNL A   1      40.219  36.754  38.002  1.00  0.00    -0.200 F 
ATOM     81  F   UNL A   1      38.651  35.759  40.003  1.00  0.00    -0.200 F 
ENDBRANCH  47  71
BRANCH  59  82
ATOM     82  C   UNL A   1      44.129  28.711  34.797  1.00  0.00     0.064 A 
ATOM     83  C   UNL A   1      44.063  27.557  35.589  1.00  0.00     0.173 A 
ATOM     84  C   UNL A   1      45.377  29.332  34.637  1.00  0.00     0.173 A 
ATOM     85  F   UNL A   1      42.889  26.937  35.783  1.00  0.00    -0.203 F 
ATOM     86  C   UNL A   1      45.200  27.057  36.219  1.00  0.00     0.198 A 
ATOM     87  C   UNL A   1      46.517  28.811  35.242  1.00  0.00     0.198 A 
ATOM     88  F   UNL A   1      45.494  30.433  33.880  1.00  0.00    -0.203 F 
ATOM     89  F   UNL A   1      45.106  25.979  37.009  1.00  0.00    -0.200 F 
ATOM     90  C   UNL A   1      46.426  27.679  36.036  1.00  0.00     0.200 A 
ATOM     91  F   UNL A   1      47.705  29.404  35.052  1.00  0.00    -0.200 F 
ATOM     92  F   UNL A   1      47.521  27.191  36.635  1.00  0.00    -0.200 F 
ENDBRANCH  59  82
ENDBRANCH  33  34
ENDBRANCH  25  28
ENDBRANCH  23  24
ENDBRANCH  22  23
ENDBRANCH  21  22
ENDBRANCH   1  21
TORSDOF 16
ENDMDL
MODEL 3
REMARK VINA RESULT:     -11.3      6.257     10.183
REMARK SMILES CCN(CCC(=O)NCCCCNC(=O)c1ccc(-c2c3nc(c(-c4c(F)c(F)c(F)c(F)c4F)c4ccc([nH]4)c(-c4c(F)c(F)c(F)c(F)c4F)c4nc(c(-c5c(F)c(F)c(F)c(F)c5F)c5ccc2[nH]5)C=C4)C=C3)cc1)C(=O)c1cc(Cl)ccc1F
REMARK SMILES IDX 9 1 8 2 6 3 7 4 5 6 4 7 3 8 2 9 1 10 79 11 80 12 81 13 82 14
REMARK SMILES IDX 87 15 83 16 86 17 88 18 84 19 85 20 10 21 11 22 12 23 13 24
REMARK SMILES IDX 14 25 15 27 16 28 17 29 78 30 18 31 77 32 19 33 20 34 21 35
REMARK SMILES IDX 71 36 22 37 76 38 70 39 72 40 23 41 75 42 69 43 68 44 24 46
REMARK SMILES IDX 56 47 36 48 55 49 37 50 40 51 54 52 73 53 38 54 39 55 53 57
REMARK SMILES IDX 74 58 41 59 25 60 26 61 34 62 27 63 28 64 32 65 35 66 29 67
REMARK SMILES IDX 30 68 33 69 31 70 57 71 58 72 66 73 59 74 60 75 64 76 67 77
REMARK SMILES IDX 61 78 62 79 65 80 63 81 42 82 43 83 51 84 44 85 45 86 49 87
REMARK SMILES IDX 52 88 46 89 47 90 50 91 48 92
REMARK H PARENT 8 5 13 26 72 45 40 56
REMARK Flexibility Score: inf
ROOT
ATOM      1  C   UNL A   1      37.028  22.198  25.641  1.00  0.00     0.116 C 
ENDROOT
BRANCH   1   2
ATOM      2  N   UNL A   1      36.011  21.733  26.564  1.00  0.00    -0.356 N 
ATOM      3  C   UNL A   1      34.807  22.290  26.874  1.00  0.00     0.221 C 
ATOM      4  O   UNL A   1      34.057  21.671  27.632  1.00  0.00    -0.275 OA
ATOM      5  H   UNL A   1      36.221  20.894  27.034  1.00  0.00     0.163 HD
BRANCH   3   6
ATOM      6  C   UNL A   1      34.400  23.621  26.288  1.00  0.00     0.121 C 
BRANCH   6   7
ATOM      7  C   UNL A   1      33.078  23.593  25.529  1.00  0.00     0.129 C 
BRANCH   7   8
ATOM      8  N   UNL A   1      32.889  22.503  24.561  1.00  0.00    -0.338 N 
BRANCH   8   9
ATOM      9  C   UNL A   1      33.812  22.575  23.404  1.00  0.00     0.116 C 
ATOM     10  C   UNL A   1      33.395  23.286  22.126  1.00  0.00     0.027 C 
ENDBRANCH   8   9
BRANCH   8  11
ATOM     11  C   UNL A   1      32.041  21.392  24.765  1.00  0.00     0.256 C 
ATOM     12  O   UNL A   1      31.183  21.379  25.650  1.00  0.00    -0.269 OA
BRANCH  11  13
ATOM     13  C   UNL A   1      32.305  20.057  24.133  1.00  0.00     0.077 A 
ATOM     14  C   UNL A   1      32.721  19.039  25.021  1.00  0.00     0.037 A 
ATOM     15  C   UNL A   1      32.181  19.714  22.791  1.00  0.00     0.136 A 
ATOM     16  C   UNL A   1      33.113  17.782  24.552  1.00  0.00     0.042 A 
ATOM     17  C   UNL A   1      32.620  18.473  22.313  1.00  0.00     0.041 A 
ATOM     18  F   UNL A   1      31.583  20.512  21.903  1.00  0.00    -0.206 F 
ATOM     19  Cl  UNL A   1      33.647  16.579  25.659  1.00  0.00    -0.084 Cl
ATOM     20  C   UNL A   1      33.104  17.507  23.190  1.00  0.00     0.023 A 
ENDBRANCH  11  13
ENDBRANCH   8  11
ENDBRANCH   7   8
ENDBRANCH   6   7
ENDBRANCH   3   6
ENDBRANCH   1   2
BRANCH   1  21
ATOM     21  C   UNL A   1      37.317  21.182  24.544  1.00  0.00     0.023 C 
BRANCH  21  22
ATOM     22  C   UNL A   1      38.094  19.956  24.994  1.00  0.00     0.023 C 
BRANCH  22  23
ATOM     23  C   UNL A   1      39.307  20.264  25.845  1.00  0.00     0.116 C 
BRANCH  23  24
ATOM     24  N   UNL A   1      40.260  19.165  25.914  1.00  0.00    -0.352 N 
ATOM     25  C   UNL A   1      41.619  19.195  26.126  1.00  0.00     0.251 C 
ATOM     26  H   UNL A   1      39.874  18.268  25.789  1.00  0.00     0.163 HD
ATOM     27  O   UNL A   1      42.276  18.171  26.051  1.00  0.00    -0.269 OA
BRANCH  25  28
ATOM     28  C   UNL A   1      42.276  20.489  26.407  1.00  0.00     0.039 A 
ATOM     29  C   UNL A   1      42.710  21.272  25.335  1.00  0.00     0.014 A 
ATOM     30  C   UNL A   1      42.417  20.950  27.716  1.00  0.00     0.014 A 
ATOM     31  C   UNL A   1      43.213  22.550  25.579  1.00  0.00     0.010 A 
ATOM     32  C   UNL A   1      42.791  22.264  27.945  1.00  0.00     0.010 A 
ATOM     33  C   UNL A   1      43.213  23.074  26.882  1.00  0.00    -0.014 A 
BRANCH  33  34
ATOM     34  C   UNL A   1      43.687  24.448  27.172  1.00  0.00     0.031 A 
ATOM     35  C   UNL A   1      42.718  25.470  27.704  1.00  0.00     0.074 A 
ATOM     36  C   UNL A   1      44.957  24.797  26.889  1.00  0.00     0.049 A 
ATOM     37  N   UNL A   1      42.892  26.750  27.913  1.00  0.00    -0.248 NA
ATOM     38  C   UNL A   1      41.353  24.999  27.995  1.00  0.00     0.031 C 
ATOM     39  C   UNL A   1      45.969  23.915  26.304  1.00  0.00     0.029 A 
ATOM     40  N   UNL A   1      45.611  25.993  27.044  1.00  0.00    -0.354 N 
ATOM     41  C   UNL A   1      41.660  27.233  28.334  1.00  0.00     0.074 A 
ATOM     42  C   UNL A   1      40.727  26.132  28.276  1.00  0.00     0.031 C 
ATOM     43  C   UNL A   1      47.123  24.591  26.177  1.00  0.00     0.029 A 
ATOM     44  C   UNL A   1      46.921  25.963  26.632  1.00  0.00     0.049 A 
ATOM     45  H   UNL A   1      45.182  26.797  27.415  1.00  0.00     0.167 HD
ATOM     46  C   UNL A   1      41.343  28.473  28.773  1.00  0.00     0.037 A 
ATOM     47  C   UNL A   1      47.850  26.937  26.619  1.00  0.00     0.037 A 
ATOM     48  C   UNL A   1      42.287  29.552  28.873  1.00  0.00     0.049 A 
ATOM     49  C   UNL A   1      47.481  28.301  27.139  1.00  0.00     0.074 A 
ATOM     50  C   UNL A   1      42.086  30.835  29.350  1.00  0.00     0.029 A 
ATOM     51  N   UNL A   1      43.621  29.467  28.500  1.00  0.00    -0.354 N 
ATOM     52  N   UNL A   1      46.327  28.729  27.592  1.00  0.00    -0.248 NA
ATOM     53  C   UNL A   1      48.544  29.314  27.155  1.00  0.00     0.031 C 
ATOM     54  C   UNL A   1      43.290  31.536  29.236  1.00  0.00     0.029 A 
ATOM     55  C   UNL A   1      44.253  30.676  28.731  1.00  0.00     0.049 A 
ATOM     56  H   UNL A   1      44.052  28.665  28.126  1.00  0.00     0.167 HD
ATOM     57  C   UNL A   1      46.532  30.048  27.972  1.00  0.00     0.074 A 
ATOM     58  C   UNL A   1      47.926  30.344  27.715  1.00  0.00     0.031 C 
ATOM     59  C   UNL A   1      45.647  30.939  28.482  1.00  0.00     0.037 A 
BRANCH  46  60
ATOM     60  C   UNL A   1      39.926  28.715  29.203  1.00  0.00     0.064 A 
ATOM     61  C   UNL A   1      38.960  29.194  28.304  1.00  0.00     0.173 A 
ATOM     62  C   UNL A   1      39.519  28.442  30.518  1.00  0.00     0.173 A 
ATOM     63  F   UNL A   1      39.300  29.487  27.040  1.00  0.00    -0.203 F 
ATOM     64  C   UNL A   1      37.648  29.417  28.712  1.00  0.00     0.198 A 
ATOM     65  C   UNL A   1      38.198  28.636  30.913  1.00  0.00     0.198 A 
ATOM     66  F   UNL A   1      40.401  27.982  31.417  1.00  0.00    -0.203 F 
ATOM     67  F   UNL A   1      36.757  29.926  27.849  1.00  0.00    -0.200 F 
ATOM     68  C   UNL A   1      37.266  29.129  30.013  1.00  0.00     0.200 A 
ATOM     69  F   UNL A   1      37.827  28.346  32.169  1.00  0.00    -0.200 F 
ATOM     70  F   UNL A   1      36.001  29.338  30.402  1.00  0.00    -0.200 F 
ENDBRANCH  46  60
BRANCH  47  71
ATOM     71  C   UNL A   1      49.223  26.656  26.121  1.00  0.00     0.064 A 
ATOM     72  C   UNL A   1      50.196  26.097  26.962  1.00  0.00     0.173 A 
ATOM     73  C   UNL A   1      49.597  26.954  24.803  1.00  0.00     0.173 A 
ATOM     74  F   UNL A   1      49.893  25.810  28.238  1.00  0.00    -0.203 F 
ATOM     75  C   UNL A   1      51.497  25.877  26.515  1.00  0.00     0.198 A 
ATOM     76  C   UNL A   1      50.891  26.705  24.347  1.00  0.00     0.198 A 
ATOM     77  F   UNL A   1      48.703  27.484  23.954  1.00  0.00    -0.203 F 
ATOM     78  F   UNL A   1      52.421  25.396  27.358  1.00  0.00    -0.200 F 
ATOM     79  C   UNL A   1      51.842  26.178  25.206  1.00  0.00     0.200 A 
ATOM     80  F   UNL A   1      51.216  26.985  23.077  1.00  0.00    -0.200 F 
ATOM     81  F   UNL A   1      53.094  25.969  24.777  1.00  0.00    -0.200 F 
ENDBRANCH  47  71
BRANCH  59  82
ATOM     82  C   UNL A   1      46.168  32.302  28.833  1.00  0.00     0.064 A 
ATOM     83  C   UNL A   1      46.703  32.580  30.098  1.00  0.00     0.173 A 
ATOM     84  C   UNL A   1      46.171  33.326  27.874  1.00  0.00     0.173 A 
ATOM     85  F   UNL A   1      46.708  31.636  31.051  1.00  0.00    -0.203 F 
ATOM     86  C   UNL A   1      47.200  33.845  30.400  1.00  0.00     0.198 A 
ATOM     87  C   UNL A   1      46.698  34.579  28.169  1.00  0.00     0.198 A 
ATOM     88  F   UNL A   1      45.679  33.105  26.646  1.00  0.00    -0.203 F 
ATOM     89  F   UNL A   1      47.665  34.103  31.630  1.00  0.00    -0.200 F 
ATOM     90  C   UNL A   1      47.206  34.839  29.433  1.00  0.00     0.200 A 
ATOM     91  F   UNL A   1      46.717  35.535  27.229  1.00  0.00    -0.200 F 
ATOM     92  F   UNL A   1      47.694  36.053  29.722  1.00  0.00    -0.200 F 
ENDBRANCH  59  82
ENDBRANCH  33  34
ENDBRANCH  25  28
ENDBRANCH  23  24
ENDBRANCH  22  23
ENDBRANCH  21  22
ENDBRANCH   1  21
TORSDOF 16
ENDMDL
