MODEL 1
REMARK VINA RESULT:     -13.2      0.000      0.000
REMARK SMILES Cc1cc2c(c(C)c1Br)C=C(C(=O)NCCCCNC(=O)c1ccc(-c3c4nc(c(-c5c(F)c(F)c(F)c(F)c5F)c5ccc([nH]5)c(-c5c(F)c(F)c(F)c(F)c5F)c5nc(c(-c6c(F)c(F)c(F)c(F)c6F)c6ccc3[nH]6)C=C5)C=C4)cc1)[C@@H](C(F)(F)F)O2
REMARK SMILES IDX 17 1 16 2 15 3 14 4 12 5 13 6 11 8 1 9 2 10 3 11 8 12 4 13
REMARK SMILES IDX 6 14 9 15 5 16 90 17 7 18 10 19 85 20 86 21 87 22 88 23
REMARK SMILES IDX 89 24 18 25 19 26 20 27 21 29 22 30 23 31 84 32 24 33 83 34
REMARK SMILES IDX 25 35 26 36 27 37 77 38 28 39 82 40 76 41 78 42 29 43 81 44
REMARK SMILES IDX 75 45 74 46 30 48 62 49 42 50 61 51 43 52 46 53 60 54 79 55
REMARK SMILES IDX 44 56 45 57 59 59 80 60 47 61 31 62 32 63 40 64 33 65 34 66
REMARK SMILES IDX 38 67 41 68 35 69 36 70 39 71 37 72 63 73 64 74 72 75 65 76
REMARK SMILES IDX 66 77 70 78 73 79 67 80 68 81 71 82 69 83 48 84 49 85 57 86
REMARK SMILES IDX 50 87 51 88 55 89 58 90 52 91 53 92 56 93 54 94
REMARK H PARENT 14 7 19 28 78 47 46 58
REMARK Flexibility Score: inf
ROOT
ATOM      1  C   UNL A   1      31.782  31.974  26.640  1.00  0.00     0.023 C 
ENDROOT
BRANCH   1   2
ATOM      2  C   UNL A   1      31.971  30.456  26.679  1.00  0.00     0.023 C 
BRANCH   2   3
ATOM      3  C   UNL A   1      33.361  29.990  26.260  1.00  0.00     0.116 C 
BRANCH   3   4
ATOM      4  N   UNL A   1      33.390  29.536  24.883  1.00  0.00    -0.352 N 
ATOM      5  C   UNL A   1      33.296  28.354  24.232  1.00  0.00     0.251 C 
ATOM      6  O   UNL A   1      33.391  28.427  23.003  1.00  0.00    -0.270 OA
ATOM      7  H   UNL A   1      33.512  30.286  24.257  1.00  0.00     0.163 HD
BRANCH   5   8
ATOM      8  C   UNL A   1      33.091  27.023  24.880  1.00  0.00     0.067 C 
ATOM      9  C   UNL A   1      33.402  20.976  27.257  1.00  0.00     0.046 C 
ATOM     10  C   UNL A   1      33.640  22.250  26.489  1.00  0.00    -0.033 A 
ATOM     11  C   UNL A   1      32.828  23.337  26.835  1.00  0.00     0.051 A 
ATOM     12  C   UNL A   1      34.584  22.412  25.452  1.00  0.00     0.024 A 
ATOM     13  C   UNL A   1      32.956  24.559  26.188  1.00  0.00     0.128 A 
ATOM     14  C   UNL A   1      34.725  23.659  24.782  1.00  0.00    -0.026 A 
ATOM     15  Br  UNL A   1      35.690  20.928  24.966  1.00  0.00    -0.050 Br
ATOM     16  C   UNL A   1      33.907  24.745  25.181  1.00  0.00     0.021 A 
ATOM     17  O   UNL A   1      32.133  25.552  26.637  1.00  0.00    -0.475 OA
ATOM     18  C   UNL A   1      35.733  23.874  23.676  1.00  0.00     0.046 C 
ATOM     19  C   UNL A   1      34.031  26.096  24.619  1.00  0.00     0.026 C 
ATOM     20  C   UNL A   1      31.916  26.670  25.741  1.00  0.00     0.314 C 
BRANCH  20  21
ATOM     21  C   UNL A   1      30.629  26.436  24.925  1.00  0.00     0.429 C 
ATOM     22  F   UNL A   1      29.670  25.879  25.706  1.00  0.00    -0.167 F 
ATOM     23  F   UNL A   1      30.106  27.588  24.443  1.00  0.00    -0.167 F 
ATOM     24  F   UNL A   1      30.820  25.617  23.868  1.00  0.00    -0.167 F 
ENDBRANCH  20  21
ENDBRANCH   5   8
ENDBRANCH   3   4
ENDBRANCH   2   3
ENDBRANCH   1   2
BRANCH   1  25
ATOM     25  C   UNL A   1      32.829  32.781  27.406  1.00  0.00     0.116 C 
BRANCH  25  26
ATOM     26  N   UNL A   1      32.408  34.138  27.731  1.00  0.00    -0.352 N 
ATOM     27  C   UNL A   1      32.976  35.005  28.634  1.00  0.00     0.251 C 
ATOM     28  H   UNL A   1      31.622  34.475  27.243  1.00  0.00     0.163 HD
ATOM     29  O   UNL A   1      32.482  36.105  28.854  1.00  0.00    -0.269 OA
BRANCH  27  30
ATOM     30  C   UNL A   1      34.168  34.558  29.374  1.00  0.00     0.039 A 
ATOM     31  C   UNL A   1      33.989  33.893  30.588  1.00  0.00     0.014 A 
ATOM     32  C   UNL A   1      35.438  34.702  28.810  1.00  0.00     0.014 A 
ATOM     33  C   UNL A   1      35.087  33.295  31.203  1.00  0.00     0.010 A 
ATOM     34  C   UNL A   1      36.520  34.054  29.392  1.00  0.00     0.010 A 
ATOM     35  C   UNL A   1      36.349  33.336  30.586  1.00  0.00    -0.014 A 
BRANCH  35  36
ATOM     36  C   UNL A   1      37.498  32.613  31.177  1.00  0.00     0.031 A 
ATOM     37  C   UNL A   1      37.986  32.972  32.548  1.00  0.00     0.074 A 
ATOM     38  C   UNL A   1      38.120  31.660  30.458  1.00  0.00     0.049 A 
ATOM     39  N   UNL A   1      38.969  32.451  33.236  1.00  0.00    -0.248 NA
ATOM     40  C   UNL A   1      37.292  34.077  33.228  1.00  0.00     0.031 C 
ATOM     41  C   UNL A   1      37.767  31.263  29.095  1.00  0.00     0.029 A 
ATOM     42  N   UNL A   1      39.179  30.847  30.778  1.00  0.00    -0.354 N 
ATOM     43  C   UNL A   1      39.010  33.163  34.426  1.00  0.00     0.074 A 
ATOM     44  C   UNL A   1      37.997  34.192  34.343  1.00  0.00     0.031 C 
ATOM     45  C   UNL A   1      38.563  30.252  28.711  1.00  0.00     0.029 A 
ATOM     46  C   UNL A   1      39.496  29.946  29.792  1.00  0.00     0.049 A 
ATOM     47  H   UNL A   1      39.663  30.904  31.633  1.00  0.00     0.167 HD
ATOM     48  C   UNL A   1      39.800  32.953  35.504  1.00  0.00     0.037 A 
ATOM     49  C   UNL A   1      40.423  28.971  29.773  1.00  0.00     0.037 A 
ATOM     50  C   UNL A   1      40.789  31.915  35.592  1.00  0.00     0.049 A 
ATOM     51  C   UNL A   1      41.296  28.764  30.980  1.00  0.00     0.074 A 
ATOM     52  C   UNL A   1      41.607  31.589  36.660  1.00  0.00     0.029 A 
ATOM     53  N   UNL A   1      41.093  31.030  34.568  1.00  0.00    -0.354 N 
ATOM     54  N   UNL A   1      41.286  29.403  32.123  1.00  0.00    -0.248 NA
ATOM     55  C   UNL A   1      42.306  27.701  30.893  1.00  0.00     0.031 C 
ATOM     56  C   UNL A   1      42.423  30.522  36.273  1.00  0.00     0.029 A 
ATOM     57  C   UNL A   1      42.094  30.166  34.973  1.00  0.00     0.049 A 
ATOM     58  H   UNL A   1      40.659  31.019  33.684  1.00  0.00     0.167 HD
ATOM     59  C   UNL A   1      42.272  28.811  32.900  1.00  0.00     0.074 A 
ATOM     60  C   UNL A   1      42.855  27.754  32.100  1.00  0.00     0.031 C 
ATOM     61  C   UNL A   1      42.658  29.119  34.161  1.00  0.00     0.037 A 
BRANCH  48  62
ATOM     62  C   UNL A   1      39.602  33.857  36.683  1.00  0.00     0.064 A 
ATOM     63  C   UNL A   1      38.798  33.471  37.766  1.00  0.00     0.173 A 
ATOM     64  C   UNL A   1      40.229  35.110  36.739  1.00  0.00     0.173 A 
ATOM     65  F   UNL A   1      38.165  32.288  37.748  1.00  0.00    -0.203 F 
ATOM     66  C   UNL A   1      38.608  34.317  38.853  1.00  0.00     0.198 A 
ATOM     67  C   UNL A   1      40.055  35.945  37.840  1.00  0.00     0.198 A 
ATOM     68  F   UNL A   1      41.007  35.524  35.728  1.00  0.00    -0.203 F 
ATOM     69  F   UNL A   1      37.799  33.947  39.855  1.00  0.00    -0.200 F 
ATOM     70  C   UNL A   1      39.240  35.551  38.892  1.00  0.00     0.200 A 
ATOM     71  F   UNL A   1      40.670  37.134  37.880  1.00  0.00    -0.200 F 
ATOM     72  F   UNL A   1      39.056  36.366  39.940  1.00  0.00    -0.200 F 
ENDBRANCH  48  62
BRANCH  49  73
ATOM     73  C   UNL A   1      40.524  28.076  28.595  1.00  0.00     0.064 A 
ATOM     74  C   UNL A   1      39.840  26.853  28.571  1.00  0.00     0.173 A 
ATOM     75  C   UNL A   1      41.274  28.430  27.465  1.00  0.00     0.173 A 
ATOM     76  F   UNL A   1      39.123  26.467  29.638  1.00  0.00    -0.203 F 
ATOM     77  C   UNL A   1      39.904  26.014  27.462  1.00  0.00     0.198 A 
ATOM     78  C   UNL A   1      41.324  27.597  26.348  1.00  0.00     0.198 A 
ATOM     79  F   UNL A   1      41.942  29.592  27.439  1.00  0.00    -0.203 F 
ATOM     80  F   UNL A   1      39.257  24.841  27.472  1.00  0.00    -0.200 F 
ATOM     81  C   UNL A   1      40.642  26.389  26.348  1.00  0.00     0.200 A 
ATOM     82  F   UNL A   1      42.030  27.967  25.271  1.00  0.00    -0.200 F 
ATOM     83  F   UNL A   1      40.697  25.585  25.278  1.00  0.00    -0.200 F 
ENDBRANCH  49  73
BRANCH  61  84
ATOM     84  C   UNL A   1      43.755  28.297  34.765  1.00  0.00     0.064 A 
ATOM     85  C   UNL A   1      43.477  27.105  35.447  1.00  0.00     0.173 A 
ATOM     86  C   UNL A   1      45.098  28.663  34.588  1.00  0.00     0.173 A 
ATOM     87  F   UNL A   1      42.207  26.725  35.651  1.00  0.00    -0.203 F 
ATOM     88  C   UNL A   1      44.508  26.308  35.937  1.00  0.00     0.198 A 
ATOM     89  C   UNL A   1      46.126  27.853  35.062  1.00  0.00     0.198 A 
ATOM     90  F   UNL A   1      45.411  29.793  33.937  1.00  0.00    -0.203 F 
ATOM     91  F   UNL A   1      44.222  25.182  36.605  1.00  0.00    -0.200 F 
ATOM     92  C   UNL A   1      45.830  26.677  35.735  1.00  0.00     0.200 A 
ATOM     93  F   UNL A   1      47.402  28.206  34.858  1.00  0.00    -0.200 F 
ATOM     94  F   UNL A   1      46.820  25.900  36.193  1.00  0.00    -0.200 F 
ENDBRANCH  61  84
ENDBRANCH  35  36
ENDBRANCH  27  30
ENDBRANCH  25  26
ENDBRANCH   1  25
TORSDOF 12
ENDMDL
MODEL 2
REMARK VINA RESULT:     -13.1      0.877      1.864
REMARK SMILES Cc1cc2c(c(C)c1Br)C=C(C(=O)NCCCCNC(=O)c1ccc(-c3c4nc(c(-c5c(F)c(F)c(F)c(F)c5F)c5ccc([nH]5)c(-c5c(F)c(F)c(F)c(F)c5F)c5nc(c(-c6c(F)c(F)c(F)c(F)c6F)c6ccc3[nH]6)C=C5)C=C4)cc1)[C@@H](C(F)(F)F)O2
REMARK SMILES IDX 17 1 16 2 15 3 14 4 12 5 13 6 11 8 1 9 2 10 3 11 8 12 4 13
REMARK SMILES IDX 6 14 9 15 5 16 90 17 7 18 10 19 85 20 86 21 87 22 88 23
REMARK SMILES IDX 89 24 18 25 19 26 20 27 21 29 22 30 23 31 84 32 24 33 83 34
REMARK SMILES IDX 25 35 26 36 27 37 77 38 28 39 82 40 76 41 78 42 29 43 81 44
REMARK SMILES IDX 75 45 74 46 30 48 62 49 42 50 61 51 43 52 46 53 60 54 79 55
REMARK SMILES IDX 44 56 45 57 59 59 80 60 47 61 31 62 32 63 40 64 33 65 34 66
REMARK SMILES IDX 38 67 41 68 35 69 36 70 39 71 37 72 63 73 64 74 72 75 65 76
REMARK SMILES IDX 66 77 70 78 73 79 67 80 68 81 71 82 69 83 48 84 49 85 57 86
REMARK SMILES IDX 50 87 51 88 55 89 58 90 52 91 53 92 56 93 54 94
REMARK H PARENT 14 7 19 28 78 47 46 58
REMARK Flexibility Score: inf
ROOT
ATOM      1  C   UNL A   1      31.863  31.604  26.522  1.00  0.00     0.023 C 
ENDROOT
BRANCH   1   2
ATOM      2  C   UNL A   1      31.803  30.115  26.866  1.00  0.00     0.023 C 
BRANCH   2   3
ATOM      3  C   UNL A   1      33.130  29.383  26.697  1.00  0.00     0.116 C 
BRANCH   3   4
ATOM      4  N   UNL A   1      33.589  29.399  25.321  1.00  0.00    -0.352 N 
ATOM      5  C   UNL A   1      33.644  28.525  24.289  1.00  0.00     0.251 C 
ATOM      6  O   UNL A   1      34.147  28.973  23.254  1.00  0.00    -0.270 OA
ATOM      7  H   UNL A   1      33.959  30.277  25.073  1.00  0.00     0.163 HD
BRANCH   5   8
ATOM      8  C   UNL A   1      33.152  27.115  24.323  1.00  0.00     0.067 C 
ATOM      9  C   UNL A   1      32.154  20.729  25.058  1.00  0.00     0.046 C 
ATOM     10  C   UNL A   1      32.762  22.104  24.964  1.00  0.00    -0.033 A 
ATOM     11  C   UNL A   1      31.867  23.159  24.749  1.00  0.00     0.051 A 
ATOM     12  C   UNL A   1      34.142  22.392  25.050  1.00  0.00     0.024 A 
ATOM     13  C   UNL A   1      32.319  24.468  24.639  1.00  0.00     0.128 A 
ATOM     14  C   UNL A   1      34.616  23.728  24.940  1.00  0.00    -0.026 A 
ATOM     15  Br  UNL A   1      35.372  20.954  25.334  1.00  0.00    -0.050 Br
ATOM     16  C   UNL A   1      33.678  24.774  24.753  1.00  0.00     0.021 A 
ATOM     17  O   UNL A   1      31.349  25.413  24.465  1.00  0.00    -0.475 OA
ATOM     18  C   UNL A   1      36.085  24.076  25.040  1.00  0.00     0.046 C 
ATOM     19  C   UNL A   1      34.050  26.193  24.716  1.00  0.00     0.026 C 
ATOM     20  C   UNL A   1      31.774  26.686  23.919  1.00  0.00     0.314 C 
BRANCH  20  21
ATOM     21  C   UNL A   1      31.574  26.686  22.391  1.00  0.00     0.429 C 
ATOM     22  F   UNL A   1      30.913  27.805  22.000  1.00  0.00    -0.167 F 
ATOM     23  F   UNL A   1      32.748  26.683  21.716  1.00  0.00    -0.167 F 
ATOM     24  F   UNL A   1      30.867  25.622  21.954  1.00  0.00    -0.167 F 
ENDBRANCH  20  21
ENDBRANCH   5   8
ENDBRANCH   3   4
ENDBRANCH   2   3
ENDBRANCH   1   2
BRANCH   1  25
ATOM     25  C   UNL A   1      32.903  32.412  27.296  1.00  0.00     0.116 C 
BRANCH  25  26
ATOM     26  N   UNL A   1      32.479  33.767  27.620  1.00  0.00    -0.352 N 
ATOM     27  C   UNL A   1      33.034  34.631  28.534  1.00  0.00     0.251 C 
ATOM     28  H   UNL A   1      31.701  34.107  27.121  1.00  0.00     0.163 HD
ATOM     29  O   UNL A   1      32.539  35.731  28.750  1.00  0.00    -0.269 OA
BRANCH  27  30
ATOM     30  C   UNL A   1      34.215  34.180  29.290  1.00  0.00     0.039 A 
ATOM     31  C   UNL A   1      34.019  33.387  30.422  1.00  0.00     0.014 A 
ATOM     32  C   UNL A   1      35.499  34.452  28.812  1.00  0.00     0.014 A 
ATOM     33  C   UNL A   1      35.121  32.794  31.034  1.00  0.00     0.010 A 
ATOM     34  C   UNL A   1      36.589  33.811  29.385  1.00  0.00     0.010 A 
ATOM     35  C   UNL A   1      36.407  32.968  30.493  1.00  0.00    -0.014 A 
BRANCH  35  36
ATOM     36  C   UNL A   1      37.568  32.256  31.071  1.00  0.00     0.031 A 
ATOM     37  C   UNL A   1      38.046  32.596  32.450  1.00  0.00     0.074 A 
ATOM     38  C   UNL A   1      38.210  31.330  30.335  1.00  0.00     0.049 A 
ATOM     39  N   UNL A   1      39.038  32.081  33.130  1.00  0.00    -0.248 NA
ATOM     40  C   UNL A   1      37.331  33.674  33.150  1.00  0.00     0.031 C 
ATOM     41  C   UNL A   1      37.867  30.954  28.963  1.00  0.00     0.029 A 
ATOM     42  N   UNL A   1      39.284  30.531  30.640  1.00  0.00    -0.354 N 
ATOM     43  C   UNL A   1      39.063  32.769  34.334  1.00  0.00     0.074 A 
ATOM     44  C   UNL A   1      38.031  33.780  34.270  1.00  0.00     0.031 C 
ATOM     45  C   UNL A   1      38.683  29.966  28.560  1.00  0.00     0.029 A 
ATOM     46  C   UNL A   1      39.620  29.656  29.637  1.00  0.00     0.049 A 
ATOM     47  H   UNL A   1      39.766  30.580  31.497  1.00  0.00     0.167 HD
ATOM     48  C   UNL A   1      39.855  32.553  35.409  1.00  0.00     0.037 A 
ATOM     49  C   UNL A   1      40.566  28.700  29.601  1.00  0.00     0.037 A 
ATOM     50  C   UNL A   1      40.864  31.533  35.478  1.00  0.00     0.049 A 
ATOM     51  C   UNL A   1      41.440  28.486  30.804  1.00  0.00     0.074 A 
ATOM     52  C   UNL A   1      41.686  31.201  36.541  1.00  0.00     0.029 A 
ATOM     53  N   UNL A   1      41.187  30.674  34.438  1.00  0.00    -0.354 N 
ATOM     54  N   UNL A   1      41.416  29.102  31.961  1.00  0.00    -0.248 NA
ATOM     55  C   UNL A   1      42.472  27.444  30.698  1.00  0.00     0.031 C 
ATOM     56  C   UNL A   1      42.524  30.158  36.134  1.00  0.00     0.029 A 
ATOM     57  C   UNL A   1      42.205  29.822  34.827  1.00  0.00     0.049 A 
ATOM     58  H   UNL A   1      40.755  30.673  33.553  1.00  0.00     0.167 HD
ATOM     59  C   UNL A   1      42.412  28.514  32.727  1.00  0.00     0.074 A 
ATOM     60  C   UNL A   1      43.017  27.484  31.907  1.00  0.00     0.031 C 
ATOM     61  C   UNL A   1      42.790  28.803  33.995  1.00  0.00     0.037 A 
BRANCH  48  62
ATOM     62  C   UNL A   1      39.638  33.429  36.605  1.00  0.00     0.064 A 
ATOM     63  C   UNL A   1      40.311  34.652  36.740  1.00  0.00     0.173 A 
ATOM     64  C   UNL A   1      38.742  33.053  37.616  1.00  0.00     0.173 A 
ATOM     65  F   UNL A   1      41.191  35.045  35.806  1.00  0.00    -0.203 F 
ATOM     66  C   UNL A   1      40.116  35.457  37.858  1.00  0.00     0.198 A 
ATOM     67  C   UNL A   1      38.531  33.873  38.722  1.00  0.00     0.198 A 
ATOM     68  F   UNL A   1      38.074  31.893  37.532  1.00  0.00    -0.203 F 
ATOM     69  F   UNL A   1      40.804  36.599  37.989  1.00  0.00    -0.200 F 
ATOM     70  C   UNL A   1      39.222  35.069  38.846  1.00  0.00     0.200 A 
ATOM     71  F   UNL A   1      37.663  33.501  39.673  1.00  0.00    -0.200 F 
ATOM     72  F   UNL A   1      39.034  35.845  39.922  1.00  0.00    -0.200 F 
ENDBRANCH  48  62
BRANCH  49  73
ATOM     73  C   UNL A   1      40.687  27.831  28.404  1.00  0.00     0.064 A 
ATOM     74  C   UNL A   1      39.998  26.613  28.340  1.00  0.00     0.173 A 
ATOM     75  C   UNL A   1      41.459  28.207  27.298  1.00  0.00     0.173 A 
ATOM     76  F   UNL A   1      39.259  26.206  29.384  1.00  0.00    -0.203 F 
ATOM     77  C   UNL A   1      40.081  25.798  27.214  1.00  0.00     0.198 A 
ATOM     78  C   UNL A   1      41.528  27.399  26.163  1.00  0.00     0.198 A 
ATOM     79  F   UNL A   1      42.132  29.367  27.311  1.00  0.00    -0.203 F 
ATOM     80  F   UNL A   1      39.429  24.628  27.185  1.00  0.00    -0.200 F 
ATOM     81  C   UNL A   1      40.841  26.195  26.124  1.00  0.00     0.200 A 
ATOM     82  F   UNL A   1      42.256  27.790  25.108  1.00  0.00    -0.200 F 
ATOM     83  F   UNL A   1      40.914  25.415  25.036  1.00  0.00    -0.200 F 
ENDBRANCH  49  73
BRANCH  61  84
ATOM     84  C   UNL A   1      43.902  27.991  34.585  1.00  0.00     0.064 A 
ATOM     85  C   UNL A   1      45.226  28.449  34.561  1.00  0.00     0.173 A 
ATOM     86  C   UNL A   1      43.629  26.787  35.250  1.00  0.00     0.173 A 
ATOM     87  F   UNL A   1      45.534  29.589  33.923  1.00  0.00    -0.203 F 
ATOM     88  C   UNL A   1      46.242  27.727  35.180  1.00  0.00     0.198 A 
ATOM     89  C   UNL A   1      44.644  26.077  35.886  1.00  0.00     0.198 A 
ATOM     90  F   UNL A   1      42.376  26.313  35.303  1.00  0.00    -0.203 F 
ATOM     91  F   UNL A   1      47.505  28.171  35.129  1.00  0.00    -0.200 F 
ATOM     92  C   UNL A   1      45.948  26.547  35.849  1.00  0.00     0.200 A 
ATOM     93  F   UNL A   1      44.358  24.944  36.540  1.00  0.00    -0.200 F 
ATOM     94  F   UNL A   1      46.925  25.862  36.459  1.00  0.00    -0.200 F 
ENDBRANCH  61  84
ENDBRANCH  35  36
ENDBRANCH  27  30
ENDBRANCH  25  26
ENDBRANCH   1  25
TORSDOF 12
ENDMDL
MODEL 3
REMARK VINA RESULT:     -13.1      0.548      7.286
REMARK SMILES Cc1cc2c(c(C)c1Br)C=C(C(=O)NCCCCNC(=O)c1ccc(-c3c4nc(c(-c5c(F)c(F)c(F)c(F)c5F)c5ccc([nH]5)c(-c5c(F)c(F)c(F)c(F)c5F)c5nc(c(-c6c(F)c(F)c(F)c(F)c6F)c6ccc3[nH]6)C=C5)C=C4)cc1)[C@@H](C(F)(F)F)O2
REMARK SMILES IDX 17 1 16 2 15 3 14 4 12 5 13 6 11 8 1 9 2 10 3 11 8 12 4 13
REMARK SMILES IDX 6 14 9 15 5 16 90 17 7 18 10 19 85 20 86 21 87 22 88 23
REMARK SMILES IDX 89 24 18 25 19 26 20 27 21 29 22 30 23 31 84 32 24 33 83 34
REMARK SMILES IDX 25 35 26 36 27 37 77 38 28 39 82 40 76 41 78 42 29 43 81 44
REMARK SMILES IDX 75 45 74 46 30 48 62 49 42 50 61 51 43 52 46 53 60 54 79 55
REMARK SMILES IDX 44 56 45 57 59 59 80 60 47 61 31 62 32 63 40 64 33 65 34 66
REMARK SMILES IDX 38 67 41 68 35 69 36 70 39 71 37 72 63 73 64 74 72 75 65 76
REMARK SMILES IDX 66 77 70 78 73 79 67 80 68 81 71 82 69 83 48 84 49 85 57 86
REMARK SMILES IDX 50 87 51 88 55 89 58 90 52 91 53 92 56 93 54 94
REMARK H PARENT 14 7 19 28 78 47 46 58
REMARK Flexibility Score: inf
ROOT
ATOM      1  C   UNL A   1      31.811  31.847  26.843  1.00  0.00     0.023 C 
ENDROOT
BRANCH   1   2
ATOM      2  C   UNL A   1      32.112  30.346  26.876  1.00  0.00     0.023 C 
BRANCH   2   3
ATOM      3  C   UNL A   1      33.494  29.977  26.349  1.00  0.00     0.116 C 
BRANCH   3   4
ATOM      4  N   UNL A   1      33.453  29.558  24.961  1.00  0.00    -0.352 N 
ATOM      5  C   UNL A   1      33.300  28.396  24.285  1.00  0.00     0.251 C 
ATOM      6  O   UNL A   1      33.344  28.499  23.055  1.00  0.00    -0.270 OA
ATOM      7  H   UNL A   1      33.567  30.321  24.349  1.00  0.00     0.163 HD
BRANCH   5   8
ATOM      8  C   UNL A   1      33.088  27.054  24.909  1.00  0.00     0.067 C 
ATOM      9  C   UNL A   1      33.384  20.976  27.207  1.00  0.00     0.046 C 
ATOM     10  C   UNL A   1      33.632  22.263  26.464  1.00  0.00    -0.033 A 
ATOM     11  C   UNL A   1      32.802  23.339  26.803  1.00  0.00     0.051 A 
ATOM     12  C   UNL A   1      34.603  22.447  25.456  1.00  0.00     0.024 A 
ATOM     13  C   UNL A   1      32.938  24.571  26.177  1.00  0.00     0.128 A 
ATOM     14  C   UNL A   1      34.752  23.704  24.808  1.00  0.00    -0.026 A 
ATOM     15  Br  UNL A   1      35.735  20.979  24.980  1.00  0.00    -0.050 Br
ATOM     16  C   UNL A   1      33.914  24.779  25.199  1.00  0.00     0.021 A 
ATOM     17  O   UNL A   1      32.095  25.551  26.618  1.00  0.00    -0.475 OA
ATOM     18  C   UNL A   1      35.789  23.944  23.734  1.00  0.00     0.046 C 
ATOM     19  C   UNL A   1      34.043  26.139  24.661  1.00  0.00     0.026 C 
ATOM     20  C   UNL A   1      31.893  26.680  25.731  1.00  0.00     0.314 C 
BRANCH  20  21
ATOM     21  C   UNL A   1      30.631  26.447  24.877  1.00  0.00     0.429 C 
ATOM     22  F   UNL A   1      29.658  25.864  25.621  1.00  0.00    -0.167 F 
ATOM     23  F   UNL A   1      30.108  27.603  24.403  1.00  0.00    -0.167 F 
ATOM     24  F   UNL A   1      30.859  25.651  23.810  1.00  0.00    -0.167 F 
ENDBRANCH  20  21
ENDBRANCH   5   8
ENDBRANCH   3   4
ENDBRANCH   2   3
ENDBRANCH   1   2
BRANCH   1  25
ATOM     25  C   UNL A   1      32.904  32.744  27.422  1.00  0.00     0.116 C 
BRANCH  25  26
ATOM     26  N   UNL A   1      32.474  34.113  27.672  1.00  0.00    -0.352 N 
ATOM     27  C   UNL A   1      32.996  35.012  28.571  1.00  0.00     0.251 C 
ATOM     28  H   UNL A   1      31.718  34.434  27.129  1.00  0.00     0.163 HD
ATOM     29  O   UNL A   1      32.498  36.121  28.722  1.00  0.00    -0.269 OA
BRANCH  27  30
ATOM     30  C   UNL A   1      34.143  34.589  29.393  1.00  0.00     0.039 A 
ATOM     31  C   UNL A   1      33.900  34.096  30.675  1.00  0.00     0.014 A 
ATOM     32  C   UNL A   1      35.430  34.580  28.848  1.00  0.00     0.014 A 
ATOM     33  C   UNL A   1      34.945  33.514  31.389  1.00  0.00     0.010 A 
ATOM     34  C   UNL A   1      36.456  33.944  29.535  1.00  0.00     0.010 A 
ATOM     35  C   UNL A   1      36.218  33.396  30.805  1.00  0.00    -0.014 A 
BRANCH  35  36
ATOM     36  C   UNL A   1      37.306  32.684  31.511  1.00  0.00     0.031 A 
ATOM     37  C   UNL A   1      38.012  31.543  30.843  1.00  0.00     0.074 A 
ATOM     38  C   UNL A   1      37.628  33.045  32.767  1.00  0.00     0.049 A 
ATOM     39  N   UNL A   1      38.991  30.801  31.294  1.00  0.00    -0.248 NA
ATOM     40  C   UNL A   1      37.542  31.169  29.500  1.00  0.00     0.031 C 
ATOM     41  C   UNL A   1      36.974  34.105  33.536  1.00  0.00     0.029 A 
ATOM     42  N   UNL A   1      38.592  32.563  33.617  1.00  0.00    -0.354 N 
ATOM     43  C   UNL A   1      39.253  29.878  30.292  1.00  0.00     0.074 A 
ATOM     44  C   UNL A   1      38.292  30.110  29.237  1.00  0.00     0.031 C 
ATOM     45  C   UNL A   1      37.585  34.225  34.726  1.00  0.00     0.029 A 
ATOM     46  C   UNL A   1      38.656  33.236  34.812  1.00  0.00     0.049 A 
ATOM     47  H   UNL A   1      39.182  31.808  33.391  1.00  0.00     0.167 HD
ATOM     48  C   UNL A   1      40.230  28.945  30.245  1.00  0.00     0.037 A 
ATOM     49  C   UNL A   1      39.498  33.082  35.850  1.00  0.00     0.037 A 
ATOM     50  C   UNL A   1      41.198  28.732  31.285  1.00  0.00     0.049 A 
ATOM     51  C   UNL A   1      40.569  32.031  35.778  1.00  0.00     0.074 A 
ATOM     52  C   UNL A   1      42.259  27.844  31.310  1.00  0.00     0.029 A 
ATOM     53  N   UNL A   1      41.224  29.423  32.487  1.00  0.00    -0.354 N 
ATOM     54  N   UNL A   1      40.847  31.203  34.801  1.00  0.00    -0.248 NA
ATOM     55  C   UNL A   1      41.444  31.893  36.950  1.00  0.00     0.031 C 
ATOM     56  C   UNL A   1      42.911  27.980  32.540  1.00  0.00     0.029 A 
ATOM     57  C   UNL A   1      42.273  28.973  33.269  1.00  0.00     0.049 A 
ATOM     58  H   UNL A   1      40.588  30.130  32.746  1.00  0.00     0.167 HD
ATOM     59  C   UNL A   1      41.937  30.459  35.228  1.00  0.00     0.074 A 
ATOM     60  C   UNL A   1      42.277  30.940  36.552  1.00  0.00     0.031 C 
ATOM     61  C   UNL A   1      42.594  29.467  34.582  1.00  0.00     0.037 A 
BRANCH  48  62
ATOM     62  C   UNL A   1      40.308  28.099  29.009  1.00  0.00     0.064 A 
ATOM     63  C   UNL A   1      39.615  26.883  28.918  1.00  0.00     0.173 A 
ATOM     64  C   UNL A   1      41.067  28.511  27.905  1.00  0.00     0.173 A 
ATOM     65  F   UNL A   1      38.889  26.440  29.956  1.00  0.00    -0.203 F 
ATOM     66  C   UNL A   1      39.699  26.095  27.775  1.00  0.00     0.198 A 
ATOM     67  C   UNL A   1      41.130  27.732  26.753  1.00  0.00     0.198 A 
ATOM     68  F   UNL A   1      41.748  29.666  27.945  1.00  0.00    -0.203 F 
ATOM     69  F   UNL A   1      39.066  24.916  27.726  1.00  0.00    -0.200 F 
ATOM     70  C   UNL A   1      40.453  26.522  26.691  1.00  0.00     0.200 A 
ATOM     71  F   UNL A   1      41.853  28.147  25.704  1.00  0.00    -0.200 F 
ATOM     72  F   UNL A   1      40.533  25.764  25.589  1.00  0.00    -0.200 F 
ENDBRANCH  48  62
BRANCH  49  73
ATOM     73  C   UNL A   1      39.399  33.994  37.017  1.00  0.00     0.064 A 
ATOM     74  C   UNL A   1      38.676  33.612  38.156  1.00  0.00     0.173 A 
ATOM     75  C   UNL A   1      40.042  35.238  37.035  1.00  0.00     0.173 A 
ATOM     76  F   UNL A   1      38.031  32.436  38.176  1.00  0.00    -0.203 F 
ATOM     77  C   UNL A   1      38.595  34.446  39.268  1.00  0.00     0.198 A 
ATOM     78  C   UNL A   1      39.975  36.065  38.155  1.00  0.00     0.198 A 
ATOM     79  F   UNL A   1      40.749  35.644  35.970  1.00  0.00    -0.203 F 
ATOM     80  F   UNL A   1      37.880  34.068  40.337  1.00  0.00    -0.200 F 
ATOM     81  C   UNL A   1      39.250  35.669  39.270  1.00  0.00     0.200 A 
ATOM     82  F   UNL A   1      40.616  37.241  38.157  1.00  0.00    -0.200 F 
ATOM     83  F   UNL A   1      39.179  36.467  40.344  1.00  0.00    -0.200 F 
ENDBRANCH  49  73
BRANCH  61  84
ATOM     84  C   UNL A   1      43.756  28.838  35.287  1.00  0.00     0.064 A 
ATOM     85  C   UNL A   1      45.060  29.321  35.110  1.00  0.00     0.173 A 
ATOM     86  C   UNL A   1      43.553  27.799  36.207  1.00  0.00     0.173 A 
ATOM     87  F   UNL A   1      45.301  30.305  34.230  1.00  0.00    -0.203 F 
ATOM     88  C   UNL A   1      46.123  28.782  35.828  1.00  0.00     0.198 A 
ATOM     89  C   UNL A   1      44.616  27.276  36.938  1.00  0.00     0.198 A 
ATOM     90  F   UNL A   1      42.322  27.308  36.412  1.00  0.00    -0.203 F 
ATOM     91  F   UNL A   1      47.365  29.244  35.631  1.00  0.00    -0.200 F 
ATOM     92  C   UNL A   1      45.899  27.767  36.748  1.00  0.00     0.200 A 
ATOM     93  F   UNL A   1      44.397  26.303  37.832  1.00  0.00    -0.200 F 
ATOM     94  F   UNL A   1      46.921  27.261  37.450  1.00  0.00    -0.200 F 
ENDBRANCH  61  84
ENDBRANCH  35  36
ENDBRANCH  27  30
ENDBRANCH  25  26
ENDBRANCH   1  25
TORSDOF 12
ENDMDL
