MODEL 1
REMARK VINA RESULT:     -13.0      0.000      0.000
REMARK SMILES Cc1cc(C)c2c(CCCC(=O)NCCCCNC(=O)c3ccc(-c4c5nc(c(-c6c(F)c(F)c(F)c(F)c6F)c6ccc([nH]6)c(-c6c(F)c(F)c(F)c(F)c6F)c6nc(c(-c7c(F)c(F)c(F)c(F)c7F)c7ccc4[nH]7)C=C6)C=C5)cc3)c(-c3ccccn3)[nH]c2c1
REMARK SMILES IDX 14 1 13 2 11 3 12 4 10 6 9 7 8 8 7 9 1 10 2 11 3 12 93 13
REMARK SMILES IDX 4 14 92 15 5 16 6 17 91 18 84 19 85 21 86 22 90 23 87 24
REMARK SMILES IDX 89 25 88 26 15 27 16 28 17 29 18 30 19 31 20 33 21 34 22 35
REMARK SMILES IDX 83 36 23 37 82 38 24 39 25 40 26 41 76 42 27 43 81 44 75 45
REMARK SMILES IDX 77 46 28 47 80 48 74 49 73 50 29 52 61 53 41 54 60 55 42 56
REMARK SMILES IDX 45 57 59 58 78 59 43 60 44 61 58 63 79 64 46 65 30 66 31 67
REMARK SMILES IDX 39 68 32 69 33 70 37 71 40 72 34 73 35 74 38 75 36 76 62 77
REMARK SMILES IDX 63 78 71 79 64 80 65 81 69 82 72 83 66 84 67 85 70 86 68 87
REMARK SMILES IDX 47 88 48 89 56 90 49 91 50 92 54 93 57 94 51 95 52 96 55 97
REMARK SMILES IDX 53 98
REMARK H PARENT 13 5 91 20 18 32 77 51 45 62
REMARK Flexibility Score: inf
ROOT
ATOM      1  C   UNL A   1      40.253  21.142  27.225  1.00  0.00     0.116 C 
ENDROOT
BRANCH   1   2
ATOM      2  N   UNL A   1      39.567  22.370  26.902  1.00  0.00    -0.356 N 
ATOM      3  C   UNL A   1      38.592  22.667  26.012  1.00  0.00     0.220 C 
ATOM      4  O   UNL A   1      38.150  23.823  26.078  1.00  0.00    -0.275 OA
ATOM      5  H   UNL A   1      39.870  23.143  27.432  1.00  0.00     0.163 HD
BRANCH   3   6
ATOM      6  C   UNL A   1      37.929  21.682  25.063  1.00  0.00     0.100 C 
BRANCH   6   7
ATOM      7  C   UNL A   1      36.444  21.571  24.814  1.00  0.00     0.015 C 
BRANCH   7   8
ATOM      8  C   UNL A   1      35.423  21.561  25.934  1.00  0.00     0.039 C 
BRANCH   8   9
ATOM      9  C   UNL A   1      33.914  21.430  25.810  1.00  0.00    -0.013 A 
ATOM     10  C   UNL A   1      29.862  25.519  25.935  1.00  0.00     0.044 C 
ATOM     11  C   UNL A   1      30.968  24.515  25.803  1.00  0.00    -0.049 A 
ATOM     12  C   UNL A   1      32.294  24.949  25.826  1.00  0.00     0.007 A 
ATOM     13  C   UNL A   1      30.688  23.150  25.714  1.00  0.00     0.030 A 
ATOM     14  C   UNL A   1      33.382  24.051  25.778  1.00  0.00    -0.041 A 
ATOM     15  C   UNL A   1      31.765  22.255  25.700  1.00  0.00     0.047 A 
ATOM     16  C   UNL A   1      34.762  24.657  25.726  1.00  0.00     0.045 C 
ATOM     17  C   UNL A   1      33.097  22.650  25.774  1.00  0.00     0.006 A 
ATOM     18  N   UNL A   1      31.754  20.891  25.606  1.00  0.00    -0.353 N 
ATOM     19  C   UNL A   1      33.028  20.369  25.549  1.00  0.00     0.068 A 
ATOM     20  H   UNL A   1      30.933  20.347  25.580  1.00  0.00     0.167 HD
BRANCH  19  21
ATOM     21  C   UNL A   1      33.158  18.969  25.137  1.00  0.00     0.087 A 
ATOM     22  C   UNL A   1      34.195  18.573  24.288  1.00  0.00     0.030 A 
ATOM     23  N   UNL A   1      32.259  18.100  25.636  1.00  0.00    -0.255 NA
ATOM     24  C   UNL A   1      34.419  17.214  24.082  1.00  0.00     0.004 A 
ATOM     25  C   UNL A   1      32.511  16.781  25.433  1.00  0.00     0.112 A 
ATOM     26  C   UNL A   1      33.586  16.295  24.703  1.00  0.00     0.020 A 
ENDBRANCH  19  21
ENDBRANCH   8   9
ENDBRANCH   7   8
ENDBRANCH   6   7
ENDBRANCH   3   6
ENDBRANCH   1   2
BRANCH   1  27
ATOM     27  C   UNL A   1      41.699  21.368  27.676  1.00  0.00     0.023 C 
BRANCH  27  28
ATOM     28  C   UNL A   1      42.682  20.282  27.231  1.00  0.00     0.023 C 
BRANCH  28  29
ATOM     29  C   UNL A   1      42.615  20.004  25.738  1.00  0.00     0.116 C 
BRANCH  29  30
ATOM     30  N   UNL A   1      43.926  19.799  25.106  1.00  0.00    -0.352 N 
ATOM     31  C   UNL A   1      44.764  20.784  24.611  1.00  0.00     0.251 C 
ATOM     32  H   UNL A   1      44.240  18.869  25.028  1.00  0.00     0.163 HD
ATOM     33  O   UNL A   1      45.676  20.548  23.823  1.00  0.00    -0.269 OA
BRANCH  31  34
ATOM     34  C   UNL A   1      44.553  22.143  25.122  1.00  0.00     0.039 A 
ATOM     35  C   UNL A   1      43.551  23.003  24.658  1.00  0.00     0.014 A 
ATOM     36  C   UNL A   1      45.357  22.478  26.204  1.00  0.00     0.014 A 
ATOM     37  C   UNL A   1      43.338  24.196  25.345  1.00  0.00     0.010 A 
ATOM     38  C   UNL A   1      44.976  23.504  27.010  1.00  0.00     0.010 A 
ATOM     39  C   UNL A   1      44.061  24.429  26.522  1.00  0.00    -0.014 A 
BRANCH  39  40
ATOM     40  C   UNL A   1      43.914  25.624  27.334  1.00  0.00     0.031 A 
ATOM     41  C   UNL A   1      44.872  26.722  27.031  1.00  0.00     0.074 A 
ATOM     42  C   UNL A   1      42.778  25.791  28.052  1.00  0.00     0.049 A 
ATOM     43  N   UNL A   1      45.714  27.288  27.830  1.00  0.00    -0.248 NA
ATOM     44  C   UNL A   1      44.990  27.175  25.632  1.00  0.00     0.031 C 
ATOM     45  C   UNL A   1      41.606  24.900  28.139  1.00  0.00     0.029 A 
ATOM     46  N   UNL A   1      42.369  26.869  28.767  1.00  0.00    -0.354 N 
ATOM     47  C   UNL A   1      46.343  28.286  27.088  1.00  0.00     0.074 A 
ATOM     48  C   UNL A   1      45.987  28.057  25.712  1.00  0.00     0.031 C 
ATOM     49  C   UNL A   1      40.554  25.569  28.659  1.00  0.00     0.029 A 
ATOM     50  C   UNL A   1      41.018  26.864  29.110  1.00  0.00     0.049 A 
ATOM     51  H   UNL A   1      42.979  27.598  29.025  1.00  0.00     0.167 HD
ATOM     52  C   UNL A   1      46.930  29.359  27.689  1.00  0.00     0.037 A 
ATOM     53  C   UNL A   1      40.345  27.886  29.696  1.00  0.00     0.037 A 
ATOM     54  C   UNL A   1      47.121  29.123  29.096  1.00  0.00     0.049 A 
ATOM     55  C   UNL A   1      41.370  28.783  30.289  1.00  0.00     0.074 A 
ATOM     56  C   UNL A   1      47.878  28.231  29.829  1.00  0.00     0.029 A 
ATOM     57  N   UNL A   1      46.156  29.587  29.958  1.00  0.00    -0.354 N 
ATOM     58  N   UNL A   1      42.149  28.434  31.277  1.00  0.00    -0.248 NA
ATOM     59  C   UNL A   1      41.863  29.870  29.455  1.00  0.00     0.031 C 
ATOM     60  C   UNL A   1      47.037  27.838  30.913  1.00  0.00     0.029 A 
ATOM     61  C   UNL A   1      45.853  28.572  30.831  1.00  0.00     0.049 A 
ATOM     62  H   UNL A   1      45.755  30.486  29.949  1.00  0.00     0.167 HD
ATOM     63  C   UNL A   1      43.393  28.955  30.951  1.00  0.00     0.074 A 
ATOM     64  C   UNL A   1      43.141  29.877  29.845  1.00  0.00     0.031 C 
ATOM     65  C   UNL A   1      44.541  28.370  31.403  1.00  0.00     0.037 A 
BRANCH  52  66
ATOM     66  C   UNL A   1      47.037  30.734  27.081  1.00  0.00     0.064 A 
ATOM     67  C   UNL A   1      48.281  31.394  27.060  1.00  0.00     0.173 A 
ATOM     68  C   UNL A   1      45.919  31.534  26.762  1.00  0.00     0.173 A 
ATOM     69  F   UNL A   1      49.407  30.739  27.380  1.00  0.00    -0.203 F 
ATOM     70  C   UNL A   1      48.388  32.761  26.786  1.00  0.00     0.198 A 
ATOM     71  C   UNL A   1      46.035  32.884  26.434  1.00  0.00     0.198 A 
ATOM     72  F   UNL A   1      44.666  31.074  26.862  1.00  0.00    -0.203 F 
ATOM     73  F   UNL A   1      49.577  33.370  26.884  1.00  0.00    -0.200 F 
ATOM     74  C   UNL A   1      47.264  33.505  26.472  1.00  0.00     0.200 A 
ATOM     75  F   UNL A   1      44.929  33.590  26.156  1.00  0.00    -0.200 F 
ATOM     76  F   UNL A   1      47.357  34.823  26.256  1.00  0.00    -0.200 F 
ENDBRANCH  52  66
BRANCH  53  77
ATOM     77  C   UNL A   1      38.953  28.332  29.453  1.00  0.00     0.064 A 
ATOM     78  C   UNL A   1      38.078  28.578  30.525  1.00  0.00     0.173 A 
ATOM     79  C   UNL A   1      38.554  28.822  28.194  1.00  0.00     0.173 A 
ATOM     80  F   UNL A   1      38.405  28.180  31.763  1.00  0.00    -0.203 F 
ATOM     81  C   UNL A   1      36.896  29.306  30.356  1.00  0.00     0.198 A 
ATOM     82  C   UNL A   1      37.372  29.547  28.026  1.00  0.00     0.198 A 
ATOM     83  F   UNL A   1      39.353  28.696  27.124  1.00  0.00    -0.203 F 
ATOM     84  F   UNL A   1      36.122  29.582  31.416  1.00  0.00    -0.200 F 
ATOM     85  C   UNL A   1      36.551  29.804  29.110  1.00  0.00     0.200 A 
ATOM     86  F   UNL A   1      37.073  30.058  26.823  1.00  0.00    -0.200 F 
ATOM     87  F   UNL A   1      35.458  30.566  28.960  1.00  0.00    -0.200 F 
ENDBRANCH  53  77
BRANCH  65  88
ATOM     88  C   UNL A   1      44.408  27.272  32.429  1.00  0.00     0.064 A 
ATOM     89  C   UNL A   1      44.352  25.900  32.120  1.00  0.00     0.173 A 
ATOM     90  C   UNL A   1      44.489  27.613  33.784  1.00  0.00     0.173 A 
ATOM     91  F   UNL A   1      44.372  25.479  30.852  1.00  0.00    -0.203 F 
ATOM     92  C   UNL A   1      44.336  24.925  33.117  1.00  0.00     0.198 A 
ATOM     93  C   UNL A   1      44.508  26.638  34.778  1.00  0.00     0.198 A 
ATOM     94  F   UNL A   1      44.601  28.902  34.143  1.00  0.00    -0.203 F 
ATOM     95  F   UNL A   1      44.273  23.626  32.788  1.00  0.00    -0.200 F 
ATOM     96  C   UNL A   1      44.421  25.296  34.446  1.00  0.00     0.200 A 
ATOM     97  F   UNL A   1      44.642  27.001  36.061  1.00  0.00    -0.200 F 
ATOM     98  F   UNL A   1      44.449  24.360  35.407  1.00  0.00    -0.200 F 
ENDBRANCH  65  88
ENDBRANCH  39  40
ENDBRANCH  31  34
ENDBRANCH  29  30
ENDBRANCH  28  29
ENDBRANCH  27  28
ENDBRANCH   1  27
TORSDOF 15
ENDMDL
MODEL 2
REMARK VINA RESULT:     -12.9      3.344      5.615
REMARK SMILES Cc1cc(C)c2c(CCCC(=O)NCCCCNC(=O)c3ccc(-c4c5nc(c(-c6c(F)c(F)c(F)c(F)c6F)c6ccc([nH]6)c(-c6c(F)c(F)c(F)c(F)c6F)c6nc(c(-c7c(F)c(F)c(F)c(F)c7F)c7ccc4[nH]7)C=C6)C=C5)cc3)c(-c3ccccn3)[nH]c2c1
REMARK SMILES IDX 14 1 13 2 11 3 12 4 10 6 9 7 8 8 7 9 1 10 2 11 3 12 93 13
REMARK SMILES IDX 4 14 92 15 5 16 6 17 91 18 84 19 85 21 86 22 90 23 87 24
REMARK SMILES IDX 89 25 88 26 15 27 16 28 17 29 18 30 19 31 20 33 21 34 22 35
REMARK SMILES IDX 83 36 23 37 82 38 24 39 25 40 26 41 76 42 27 43 81 44 75 45
REMARK SMILES IDX 77 46 28 47 80 48 74 49 73 50 29 52 61 53 41 54 60 55 42 56
REMARK SMILES IDX 45 57 59 58 78 59 43 60 44 61 58 63 79 64 46 65 30 66 31 67
REMARK SMILES IDX 39 68 32 69 33 70 37 71 40 72 34 73 35 74 38 75 36 76 62 77
REMARK SMILES IDX 63 78 71 79 64 80 65 81 69 82 72 83 66 84 67 85 70 86 68 87
REMARK SMILES IDX 47 88 48 89 56 90 49 91 50 92 54 93 57 94 51 95 52 96 55 97
REMARK SMILES IDX 53 98
REMARK H PARENT 13 5 91 20 18 32 77 51 45 62
REMARK Flexibility Score: inf
ROOT
ATOM      1  C   UNL A   1      35.019  22.499  24.116  1.00  0.00     0.116 C 
ENDROOT
BRANCH   1   2
ATOM      2  N   UNL A   1      34.462  23.382  23.121  1.00  0.00    -0.356 N 
ATOM      3  C   UNL A   1      34.039  24.667  23.171  1.00  0.00     0.220 C 
ATOM      4  O   UNL A   1      33.714  25.160  22.082  1.00  0.00    -0.275 OA
ATOM      5  H   UNL A   1      34.370  22.969  22.231  1.00  0.00     0.163 HD
BRANCH   3   6
ATOM      6  C   UNL A   1      34.061  25.559  24.401  1.00  0.00     0.100 C 
BRANCH   6   7
ATOM      7  C   UNL A   1      33.073  25.502  25.541  1.00  0.00     0.015 C 
BRANCH   7   8
ATOM      8  C   UNL A   1      31.836  26.376  25.600  1.00  0.00     0.039 C 
BRANCH   8   9
ATOM      9  C   UNL A   1      31.691  27.811  25.122  1.00  0.00    -0.013 A 
ATOM     10  C   UNL A   1      27.825  30.097  21.519  1.00  0.00     0.044 C 
ATOM     11  C   UNL A   1      28.734  29.466  22.531  1.00  0.00    -0.049 A 
ATOM     12  C   UNL A   1      28.549  28.128  22.878  1.00  0.00     0.007 A 
ATOM     13  C   UNL A   1      29.795  30.184  23.086  1.00  0.00     0.030 A 
ATOM     14  C   UNL A   1      29.412  27.454  23.769  1.00  0.00    -0.041 A 
ATOM     15  C   UNL A   1      30.672  29.509  23.943  1.00  0.00     0.047 A 
ATOM     16  C   UNL A   1      29.049  26.032  24.123  1.00  0.00     0.045 C 
ATOM     17  C   UNL A   1      30.548  28.163  24.270  1.00  0.00     0.006 A 
ATOM     18  N   UNL A   1      31.764  29.987  24.614  1.00  0.00    -0.353 N 
ATOM     19  C   UNL A   1      32.330  29.027  25.424  1.00  0.00     0.068 A 
ATOM     20  H   UNL A   1      32.103  30.908  24.530  1.00  0.00     0.167 HD
BRANCH  19  21
ATOM     21  C   UNL A   1      33.300  29.484  26.423  1.00  0.00     0.087 A 
ATOM     22  C   UNL A   1      34.468  28.755  26.662  1.00  0.00     0.030 A 
ATOM     23  N   UNL A   1      33.022  30.636  27.061  1.00  0.00    -0.255 NA
ATOM     24  C   UNL A   1      35.465  29.317  27.457  1.00  0.00     0.004 A 
ATOM     25  C   UNL A   1      34.017  31.168  27.818  1.00  0.00     0.112 A 
ATOM     26  C   UNL A   1      35.254  30.570  28.012  1.00  0.00     0.020 A 
ENDBRANCH  19  21
ENDBRANCH   8   9
ENDBRANCH   7   8
ENDBRANCH   6   7
ENDBRANCH   3   6
ENDBRANCH   1   2
BRANCH   1  27
ATOM     27  C   UNL A   1      36.507  22.754  24.374  1.00  0.00     0.023 C 
BRANCH  27  28
ATOM     28  C   UNL A   1      36.880  22.903  25.851  1.00  0.00     0.023 C 
BRANCH  28  29
ATOM     29  C   UNL A   1      38.187  23.653  26.054  1.00  0.00     0.116 C 
BRANCH  29  30
ATOM     30  N   UNL A   1      39.348  22.783  26.286  1.00  0.00    -0.352 N 
ATOM     31  C   UNL A   1      40.662  23.189  26.451  1.00  0.00     0.251 C 
ATOM     32  H   UNL A   1      39.175  21.814  26.328  1.00  0.00     0.163 HD
ATOM     33  O   UNL A   1      41.616  22.426  26.322  1.00  0.00    -0.269 OA
BRANCH  31  34
ATOM     34  C   UNL A   1      40.871  24.584  26.855  1.00  0.00     0.039 A 
ATOM     35  C   UNL A   1      40.421  25.684  26.117  1.00  0.00     0.014 A 
ATOM     36  C   UNL A   1      41.454  24.736  28.107  1.00  0.00     0.014 A 
ATOM     37  C   UNL A   1      40.522  26.949  26.693  1.00  0.00     0.010 A 
ATOM     38  C   UNL A   1      41.312  25.922  28.756  1.00  0.00     0.010 A 
ATOM     39  C   UNL A   1      40.971  27.048  28.017  1.00  0.00    -0.014 A 
BRANCH  39  40
ATOM     40  C   UNL A   1      41.101  28.306  28.731  1.00  0.00     0.031 A 
ATOM     41  C   UNL A   1      42.232  29.169  28.298  1.00  0.00     0.074 A 
ATOM     42  C   UNL A   1      40.060  28.744  29.479  1.00  0.00     0.049 A 
ATOM     43  N   UNL A   1      43.211  29.618  29.011  1.00  0.00    -0.248 NA
ATOM     44  C   UNL A   1      42.355  29.485  26.862  1.00  0.00     0.031 C 
ATOM     45  C   UNL A   1      38.746  28.108  29.688  1.00  0.00     0.029 A 
ATOM     46  N   UNL A   1      39.906  29.931  30.117  1.00  0.00    -0.354 N 
ATOM     47  C   UNL A   1      43.976  30.416  28.162  1.00  0.00     0.074 A 
ATOM     48  C   UNL A   1      43.506  30.159  26.827  1.00  0.00     0.031 C 
ATOM     49  C   UNL A   1      37.873  29.006  30.193  1.00  0.00     0.029 A 
ATOM     50  C   UNL A   1      38.601  30.215  30.515  1.00  0.00     0.049 A 
ATOM     51  H   UNL A   1      40.658  30.544  30.287  1.00  0.00     0.167 HD
ATOM     52  C   UNL A   1      44.790  31.396  28.647  1.00  0.00     0.037 A 
ATOM     53  C   UNL A   1      38.170  31.389  31.040  1.00  0.00     0.037 A 
ATOM     54  C   UNL A   1      45.012  31.232  30.060  1.00  0.00     0.049 A 
ATOM     55  C   UNL A   1      39.380  32.111  31.513  1.00  0.00     0.074 A 
ATOM     56  C   UNL A   1      45.625  30.266  30.833  1.00  0.00     0.029 A 
ATOM     57  N   UNL A   1      44.204  31.938  30.919  1.00  0.00    -0.354 N 
ATOM     58  N   UNL A   1      40.132  31.691  32.494  1.00  0.00    -0.248 NA
ATOM     59  C   UNL A   1      40.022  33.015  30.571  1.00  0.00     0.031 C 
ATOM     60  C   UNL A   1      44.787  30.127  31.980  1.00  0.00     0.029 A 
ATOM     61  C   UNL A   1      43.762  31.070  31.886  1.00  0.00     0.049 A 
ATOM     62  H   UNL A   1      43.982  32.896  30.851  1.00  0.00     0.167 HD
ATOM     63  C   UNL A   1      41.432  31.934  32.074  1.00  0.00     0.074 A 
ATOM     64  C   UNL A   1      41.299  32.802  30.906  1.00  0.00     0.031 C 
ATOM     65  C   UNL A   1      42.470  31.171  32.526  1.00  0.00     0.037 A 
BRANCH  52  66
ATOM     66  C   UNL A   1      45.124  32.674  27.922  1.00  0.00     0.064 A 
ATOM     67  C   UNL A   1      46.433  32.888  27.449  1.00  0.00     0.173 A 
ATOM     68  C   UNL A   1      44.281  33.805  27.909  1.00  0.00     0.173 A 
ATOM     69  F   UNL A   1      47.330  31.890  27.447  1.00  0.00    -0.203 F 
ATOM     70  C   UNL A   1      46.874  34.151  27.040  1.00  0.00     0.198 A 
ATOM     71  C   UNL A   1      44.706  35.050  27.447  1.00  0.00     0.198 A 
ATOM     72  F   UNL A   1      43.053  33.781  28.443  1.00  0.00    -0.203 F 
ATOM     73  F   UNL A   1      48.158  34.331  26.701  1.00  0.00    -0.200 F 
ATOM     74  C   UNL A   1      46.010  35.231  27.038  1.00  0.00     0.200 A 
ATOM     75  F   UNL A   1      43.858  36.088  27.478  1.00  0.00    -0.200 F 
ATOM     76  F   UNL A   1      46.441  36.450  26.693  1.00  0.00    -0.200 F 
ENDBRANCH  52  66
BRANCH  53  77
ATOM     77  C   UNL A   1      36.877  32.079  30.818  1.00  0.00     0.064 A 
ATOM     78  C   UNL A   1      35.891  32.099  31.818  1.00  0.00     0.173 A 
ATOM     79  C   UNL A   1      36.709  32.988  29.754  1.00  0.00     0.173 A 
ATOM     80  F   UNL A   1      36.000  31.294  32.885  1.00  0.00    -0.203 F 
ATOM     81  C   UNL A   1      34.822  33.002  31.779  1.00  0.00     0.198 A 
ATOM     82  C   UNL A   1      35.641  33.887  29.715  1.00  0.00     0.198 A 
ATOM     83  F   UNL A   1      37.633  33.090  28.787  1.00  0.00    -0.203 F 
ATOM     84  F   UNL A   1      33.940  33.040  32.787  1.00  0.00    -0.200 F 
ATOM     85  C   UNL A   1      34.707  33.906  30.735  1.00  0.00     0.200 A 
ATOM     86  F   UNL A   1      35.565  34.784  28.721  1.00  0.00    -0.200 F 
ATOM     87  F   UNL A   1      33.728  34.821  30.734  1.00  0.00    -0.200 F 
ENDBRANCH  53  77
BRANCH  65  88
ATOM     88  C   UNL A   1      42.188  30.200  33.645  1.00  0.00     0.064 A 
ATOM     89  C   UNL A   1      41.820  28.855  33.454  1.00  0.00     0.173 A 
ATOM     90  C   UNL A   1      42.444  30.606  34.960  1.00  0.00     0.173 A 
ATOM     91  F   UNL A   1      41.652  28.355  32.226  1.00  0.00    -0.203 F 
ATOM     92  C   UNL A   1      41.676  27.976  34.528  1.00  0.00     0.198 A 
ATOM     93  C   UNL A   1      42.334  29.718  36.028  1.00  0.00     0.198 A 
ATOM     94  F   UNL A   1      42.854  31.860  35.204  1.00  0.00    -0.203 F 
ATOM     95  F   UNL A   1      41.314  26.702  34.311  1.00  0.00    -0.200 F 
ATOM     96  C   UNL A   1      41.940  28.408  35.814  1.00  0.00     0.200 A 
ATOM     97  F   UNL A   1      42.641  30.129  37.266  1.00  0.00    -0.200 F 
ATOM     98  F   UNL A   1      41.843  27.556  36.845  1.00  0.00    -0.200 F 
ENDBRANCH  65  88
ENDBRANCH  39  40
ENDBRANCH  31  34
ENDBRANCH  29  30
ENDBRANCH  28  29
ENDBRANCH  27  28
ENDBRANCH   1  27
TORSDOF 15
ENDMDL
MODEL 3
REMARK VINA RESULT:     -12.7      3.171      8.834
REMARK SMILES Cc1cc(C)c2c(CCCC(=O)NCCCCNC(=O)c3ccc(-c4c5nc(c(-c6c(F)c(F)c(F)c(F)c6F)c6ccc([nH]6)c(-c6c(F)c(F)c(F)c(F)c6F)c6nc(c(-c7c(F)c(F)c(F)c(F)c7F)c7ccc4[nH]7)C=C6)C=C5)cc3)c(-c3ccccn3)[nH]c2c1
REMARK SMILES IDX 14 1 13 2 11 3 12 4 10 6 9 7 8 8 7 9 1 10 2 11 3 12 93 13
REMARK SMILES IDX 4 14 92 15 5 16 6 17 91 18 84 19 85 21 86 22 90 23 87 24
REMARK SMILES IDX 89 25 88 26 15 27 16 28 17 29 18 30 19 31 20 33 21 34 22 35
REMARK SMILES IDX 83 36 23 37 82 38 24 39 25 40 26 41 76 42 27 43 81 44 75 45
REMARK SMILES IDX 77 46 28 47 80 48 74 49 73 50 29 52 61 53 41 54 60 55 42 56
REMARK SMILES IDX 45 57 59 58 78 59 43 60 44 61 58 63 79 64 46 65 30 66 31 67
REMARK SMILES IDX 39 68 32 69 33 70 37 71 40 72 34 73 35 74 38 75 36 76 62 77
REMARK SMILES IDX 63 78 71 79 64 80 65 81 69 82 72 83 66 84 67 85 70 86 68 87
REMARK SMILES IDX 47 88 48 89 56 90 49 91 50 92 54 93 57 94 51 95 52 96 55 97
REMARK SMILES IDX 53 98
REMARK H PARENT 13 5 91 20 18 32 77 51 45 62
REMARK Flexibility Score: inf
ROOT
ATOM      1  C   UNL A   1      32.335  29.992  26.103  1.00  0.00     0.116 C 
ENDROOT
BRANCH   1   2
ATOM      2  N   UNL A   1      31.750  28.724  26.468  1.00  0.00    -0.356 N 
ATOM      3  C   UNL A   1      32.180  27.447  26.340  1.00  0.00     0.220 C 
ATOM      4  O   UNL A   1      31.459  26.591  26.872  1.00  0.00    -0.275 OA
ATOM      5  H   UNL A   1      30.864  28.804  26.891  1.00  0.00     0.163 HD
BRANCH   3   6
ATOM      6  C   UNL A   1      33.503  27.015  25.731  1.00  0.00     0.100 C 
BRANCH   6   7
ATOM      7  C   UNL A   1      34.151  25.664  25.914  1.00  0.00     0.015 C 
BRANCH   7   8
ATOM      8  C   UNL A   1      34.369  24.696  24.768  1.00  0.00     0.039 C 
BRANCH   8   9
ATOM      9  C   UNL A   1      33.324  23.860  24.050  1.00  0.00    -0.013 A 
ATOM     10  C   UNL A   1      32.931  18.137  23.541  1.00  0.00     0.044 C 
ATOM     11  C   UNL A   1      33.028  19.612  23.800  1.00  0.00    -0.049 A 
ATOM     12  C   UNL A   1      34.045  20.097  24.623  1.00  0.00     0.007 A 
ATOM     13  C   UNL A   1      32.151  20.505  23.184  1.00  0.00     0.030 A 
ATOM     14  C   UNL A   1      34.237  21.476  24.850  1.00  0.00    -0.041 A 
ATOM     15  C   UNL A   1      32.360  21.876  23.380  1.00  0.00     0.047 A 
ATOM     16  C   UNL A   1      35.320  21.860  25.828  1.00  0.00     0.045 C 
ATOM     17  C   UNL A   1      33.394  22.396  24.152  1.00  0.00     0.006 A 
ATOM     18  N   UNL A   1      31.641  22.937  22.903  1.00  0.00    -0.353 N 
ATOM     19  C   UNL A   1      32.118  24.138  23.381  1.00  0.00     0.068 A 
ATOM     20  H   UNL A   1      30.872  22.853  22.293  1.00  0.00     0.167 HD
BRANCH  19  21
ATOM     21  C   UNL A   1      31.262  25.314  23.205  1.00  0.00     0.087 A 
ATOM     22  C   UNL A   1      30.047  25.415  23.887  1.00  0.00     0.030 A 
ATOM     23  N   UNL A   1      31.718  26.283  22.389  1.00  0.00    -0.255 NA
ATOM     24  C   UNL A   1      29.358  26.627  23.866  1.00  0.00     0.004 A 
ATOM     25  C   UNL A   1      31.035  27.458  22.399  1.00  0.00     0.112 A 
ATOM     26  C   UNL A   1      29.886  27.686  23.142  1.00  0.00     0.020 A 
ENDBRANCH  19  21
ENDBRANCH   8   9
ENDBRANCH   7   8
ENDBRANCH   6   7
ENDBRANCH   3   6
ENDBRANCH   1   2
BRANCH   1  27
ATOM     27  C   UNL A   1      33.134  30.630  27.243  1.00  0.00     0.023 C 
BRANCH  27  28
ATOM     28  C   UNL A   1      34.618  30.253  27.269  1.00  0.00     0.023 C 
BRANCH  28  29
ATOM     29  C   UNL A   1      35.517  31.428  27.621  1.00  0.00     0.116 C 
BRANCH  29  30
ATOM     30  N   UNL A   1      35.083  32.183  28.804  1.00  0.00    -0.352 N 
ATOM     31  C   UNL A   1      35.402  31.903  30.122  1.00  0.00     0.251 C 
ATOM     32  H   UNL A   1      34.507  32.965  28.643  1.00  0.00     0.163 HD
ATOM     33  O   UNL A   1      34.769  32.358  31.071  1.00  0.00    -0.269 OA
BRANCH  31  34
ATOM     34  C   UNL A   1      36.590  31.072  30.347  1.00  0.00     0.039 A 
ATOM     35  C   UNL A   1      36.542  29.698  30.606  1.00  0.00     0.014 A 
ATOM     36  C   UNL A   1      37.796  31.737  30.161  1.00  0.00     0.014 A 
ATOM     37  C   UNL A   1      37.741  28.989  30.622  1.00  0.00     0.010 A 
ATOM     38  C   UNL A   1      38.917  31.005  29.926  1.00  0.00     0.010 A 
ATOM     39  C   UNL A   1      38.921  29.661  30.278  1.00  0.00    -0.014 A 
BRANCH  39  40
ATOM     40  C   UNL A   1      40.227  29.027  30.241  1.00  0.00     0.031 A 
ATOM     41  C   UNL A   1      40.868  28.811  31.567  1.00  0.00     0.074 A 
ATOM     42  C   UNL A   1      40.623  28.410  29.103  1.00  0.00     0.049 A 
ATOM     43  N   UNL A   1      42.011  29.247  31.981  1.00  0.00    -0.248 NA
ATOM     44  C   UNL A   1      40.090  28.113  32.608  1.00  0.00     0.031 C 
ATOM     45  C   UNL A   1      39.892  28.275  27.829  1.00  0.00     0.029 A 
ATOM     46  N   UNL A   1      41.725  27.652  28.879  1.00  0.00    -0.354 N 
ATOM     47  C   UNL A   1      42.179  28.735  33.266  1.00  0.00     0.074 A 
ATOM     48  C   UNL A   1      40.905  28.196  33.661  1.00  0.00     0.031 C 
ATOM     49  C   UNL A   1      40.454  27.306  27.074  1.00  0.00     0.029 A 
ATOM     50  C   UNL A   1      41.681  26.885  27.716  1.00  0.00     0.049 A 
ATOM     51  H   UNL A   1      42.497  27.644  29.491  1.00  0.00     0.167 HD
ATOM     52  C   UNL A   1      43.416  28.594  33.821  1.00  0.00     0.037 A 
ATOM     53  C   UNL A   1      42.591  25.948  27.350  1.00  0.00     0.037 A 
ATOM     54  C   UNL A   1      44.400  29.350  33.090  1.00  0.00     0.049 A 
ATOM     55  C   UNL A   1      43.816  26.211  28.149  1.00  0.00     0.074 A 
ATOM     56  C   UNL A   1      44.600  30.696  32.855  1.00  0.00     0.029 A 
ATOM     57  N   UNL A   1      45.122  28.692  32.124  1.00  0.00    -0.354 N 
ATOM     58  N   UNL A   1      44.542  27.288  28.023  1.00  0.00    -0.248 NA
ATOM     59  C   UNL A   1      43.935  25.518  29.424  1.00  0.00     0.031 C 
ATOM     60  C   UNL A   1      45.008  30.773  31.490  1.00  0.00     0.029 A 
ATOM     61  C   UNL A   1      45.117  29.473  30.995  1.00  0.00     0.049 A 
ATOM     62  H   UNL A   1      45.563  27.817  32.224  1.00  0.00     0.167 HD
ATOM     63  C   UNL A   1      44.884  27.641  29.321  1.00  0.00     0.074 A 
ATOM     64  C   UNL A   1      44.528  26.482  30.136  1.00  0.00     0.031 C 
ATOM     65  C   UNL A   1      45.140  28.941  29.651  1.00  0.00     0.037 A 
BRANCH  52  66
ATOM     66  C   UNL A   1      43.795  27.530  34.818  1.00  0.00     0.064 A 
ATOM     67  C   UNL A   1      43.719  26.171  34.454  1.00  0.00     0.173 A 
ATOM     68  C   UNL A   1      43.972  27.780  36.196  1.00  0.00     0.173 A 
ATOM     69  F   UNL A   1      43.518  25.817  33.175  1.00  0.00    -0.203 F 
ATOM     70  C   UNL A   1      43.769  25.147  35.405  1.00  0.00     0.198 A 
ATOM     71  C   UNL A   1      44.079  26.755  37.134  1.00  0.00     0.198 A 
ATOM     72  F   UNL A   1      43.938  29.019  36.701  1.00  0.00    -0.203 F 
ATOM     73  F   UNL A   1      43.584  23.875  35.025  1.00  0.00    -0.200 F 
ATOM     74  C   UNL A   1      43.950  25.440  36.745  1.00  0.00     0.200 A 
ATOM     75  F   UNL A   1      44.229  27.064  38.431  1.00  0.00    -0.200 F 
ATOM     76  F   UNL A   1      43.951  24.465  37.662  1.00  0.00    -0.200 F 
ENDBRANCH  52  66
BRANCH  53  77
ATOM     77  C   UNL A   1      42.357  24.652  26.669  1.00  0.00     0.064 A 
ATOM     78  C   UNL A   1      43.133  24.270  25.563  1.00  0.00     0.173 A 
ATOM     79  C   UNL A   1      41.589  23.639  27.276  1.00  0.00     0.173 A 
ATOM     80  F   UNL A   1      43.924  25.166  24.955  1.00  0.00    -0.203 F 
ATOM     81  C   UNL A   1      43.172  22.945  25.115  1.00  0.00     0.198 A 
ATOM     82  C   UNL A   1      41.627  22.317  26.827  1.00  0.00     0.198 A 
ATOM     83  F   UNL A   1      40.869  23.892  28.379  1.00  0.00    -0.203 F 
ATOM     84  F   UNL A   1      43.979  22.604  24.100  1.00  0.00    -0.200 F 
ATOM     85  C   UNL A   1      42.430  21.966  25.757  1.00  0.00     0.200 A 
ATOM     86  F   UNL A   1      40.936  21.374  27.484  1.00  0.00    -0.200 F 
ATOM     87  F   UNL A   1      42.524  20.684  25.378  1.00  0.00    -0.200 F 
ENDBRANCH  53  77
BRANCH  65  88
ATOM     88  C   UNL A   1      45.242  29.941  28.526  1.00  0.00     0.064 A 
ATOM     89  C   UNL A   1      44.175  30.743  28.078  1.00  0.00     0.173 A 
ATOM     90  C   UNL A   1      46.503  30.202  27.979  1.00  0.00     0.173 A 
ATOM     91  F   UNL A   1      42.956  30.630  28.616  1.00  0.00    -0.203 F 
ATOM     92  C   UNL A   1      44.356  31.725  27.105  1.00  0.00     0.198 A 
ATOM     93  C   UNL A   1      46.690  31.207  27.033  1.00  0.00     0.198 A 
ATOM     94  F   UNL A   1      47.572  29.511  28.404  1.00  0.00    -0.203 F 
ATOM     95  F   UNL A   1      43.315  32.466  26.694  1.00  0.00    -0.200 F 
ATOM     96  C   UNL A   1      45.616  31.961  26.588  1.00  0.00     0.200 A 
ATOM     97  F   UNL A   1      47.922  31.465  26.573  1.00  0.00    -0.200 F 
ATOM     98  F   UNL A   1      45.803  32.933  25.683  1.00  0.00    -0.200 F 
ENDBRANCH  65  88
ENDBRANCH  39  40
ENDBRANCH  31  34
ENDBRANCH  29  30
ENDBRANCH  28  29
ENDBRANCH  27  28
ENDBRANCH   1  27
TORSDOF 15
ENDMDL
