MODEL 1
REMARK VINA RESULT:     -11.3      0.000      0.000
REMARK SMILES CCCSc1nc(=O)cc(CC(=O)NCCCCNC(=O)c2ccc(-c3c4nc(c(-c5c(F)c(F)c(F)c(F)c5F)c5ccc([nH]5)c(-c5c(F)c(F)c(F)c(F)c5F)c5nc(c(-c6c(F)c(F)c(F)c(F)c6F)c6ccc3[nH]6)C=C5)C=C4)cc2)[nH]1
REMARK SMILES IDX 15 1 14 2 12 3 13 4 11 6 10 7 5 8 6 9 85 10 7 11 8 13 9 14
REMARK SMILES IDX 4 15 3 16 2 17 1 18 16 19 17 20 18 21 19 22 20 23 21 25
REMARK SMILES IDX 22 26 23 27 84 28 24 29 83 30 25 31 26 32 27 33 77 34 28 35
REMARK SMILES IDX 82 36 76 37 78 38 29 39 81 40 75 41 74 42 30 44 62 45 42 46
REMARK SMILES IDX 61 47 43 48 46 49 60 50 79 51 44 52 45 53 59 55 80 56 47 57
REMARK SMILES IDX 31 58 32 59 40 60 33 61 34 62 38 63 41 64 35 65 36 66 39 67
REMARK SMILES IDX 37 68 63 69 64 70 72 71 65 72 66 73 70 74 73 75 67 76 68 77
REMARK SMILES IDX 71 78 69 79 48 80 49 81 57 82 50 83 51 84 55 85 58 86 52 87
REMARK SMILES IDX 53 88 56 89 54 90
REMARK H PARENT 14 5 85 12 19 24 78 43 46 54
REMARK Flexibility Score: inf
ROOT
ATOM      1  C   UNL A   1      32.150  26.364  26.057  1.00  0.00     0.116 C 
ENDROOT
BRANCH   1   2
ATOM      2  N   UNL A   1      31.481  25.363  26.857  1.00  0.00    -0.356 N 
ATOM      3  C   UNL A   1      30.972  24.161  26.455  1.00  0.00     0.225 C 
ATOM      4  O   UNL A   1      30.330  23.490  27.262  1.00  0.00    -0.275 OA
ATOM      5  H   UNL A   1      31.378  25.576  27.813  1.00  0.00     0.163 HD
BRANCH   3   6
ATOM      6  C   UNL A   1      31.220  23.675  25.027  1.00  0.00     0.154 C 
BRANCH   6   7
ATOM      7  C   UNL A   1      32.162  22.498  24.941  1.00  0.00     0.032 A 
ATOM      8  C   UNL A   1      34.377  21.677  24.585  1.00  0.00     0.169 A 
ATOM      9  N   UNL A   1      34.065  20.438  24.762  1.00  0.00    -0.185 NA
ATOM     10  N   UNL A   1      33.494  22.718  24.650  1.00  0.00    -0.337 N 
ATOM     11  C   UNL A   1      32.753  20.122  25.035  1.00  0.00     0.273 A 
ATOM     12  H   UNL A   1      33.811  23.636  24.489  1.00  0.00     0.168 HD
ATOM     13  O   UNL A   1      32.351  18.975  25.181  1.00  0.00    -0.267 OA
ATOM     14  C   UNL A   1      31.765  21.233  25.153  1.00  0.00     0.095 A 
BRANCH   8  15
ATOM     15  S   UNL A   1      36.061  22.055  24.296  1.00  0.00    -0.088 SA
BRANCH  15  16
ATOM     16  C   UNL A   1      36.535  23.017  25.761  1.00  0.00     0.078 C 
BRANCH  16  17
ATOM     17  C   UNL A   1      38.026  23.049  26.105  1.00  0.00     0.008 C 
ATOM     18  C   UNL A   1      38.525  24.417  26.515  1.00  0.00     0.005 C 
ENDBRANCH  16  17
ENDBRANCH  15  16
ENDBRANCH   8  15
ENDBRANCH   6   7
ENDBRANCH   3   6
ENDBRANCH   1   2
BRANCH   1  19
ATOM     19  C   UNL A   1      32.563  27.563  26.901  1.00  0.00     0.023 C 
BRANCH  19  20
ATOM     20  C   UNL A   1      31.846  28.865  26.590  1.00  0.00     0.023 C 
BRANCH  20  21
ATOM     21  C   UNL A   1      32.773  29.959  26.083  1.00  0.00     0.116 C 
BRANCH  21  22
ATOM     22  N   UNL A   1      32.514  31.284  26.649  1.00  0.00    -0.352 N 
ATOM     23  C   UNL A   1      33.336  32.075  27.422  1.00  0.00     0.251 C 
ATOM     24  H   UNL A   1      31.628  31.664  26.449  1.00  0.00     0.163 HD
ATOM     25  O   UNL A   1      32.939  33.140  27.880  1.00  0.00    -0.269 OA
BRANCH  23  26
ATOM     26  C   UNL A   1      34.687  31.575  27.735  1.00  0.00     0.039 A 
ATOM     27  C   UNL A   1      34.864  30.219  28.000  1.00  0.00     0.014 A 
ATOM     28  C   UNL A   1      35.726  32.486  27.932  1.00  0.00     0.014 A 
ATOM     29  C   UNL A   1      35.977  29.820  28.719  1.00  0.00     0.010 A 
ATOM     30  C   UNL A   1      36.908  32.048  28.531  1.00  0.00     0.010 A 
ATOM     31  C   UNL A   1      37.011  30.730  29.000  1.00  0.00    -0.014 A 
BRANCH  31  32
ATOM     32  C   UNL A   1      38.176  30.277  29.803  1.00  0.00     0.031 A 
ATOM     33  C   UNL A   1      38.357  30.725  31.230  1.00  0.00     0.074 A 
ATOM     34  C   UNL A   1      39.043  29.406  29.252  1.00  0.00     0.049 A 
ATOM     35  N   UNL A   1      39.338  30.462  32.057  1.00  0.00    -0.248 NA
ATOM     36  C   UNL A   1      37.306  31.579  31.807  1.00  0.00     0.031 C 
ATOM     37  C   UNL A   1      38.950  28.875  27.889  1.00  0.00     0.029 A 
ATOM     38  N   UNL A   1      40.156  28.797  29.768  1.00  0.00    -0.354 N 
ATOM     39  C   UNL A   1      39.039  31.138  33.234  1.00  0.00     0.074 A 
ATOM     40  C   UNL A   1      37.796  31.843  33.011  1.00  0.00     0.031 C 
ATOM     41  C   UNL A   1      39.926  27.980  27.697  1.00  0.00     0.029 A 
ATOM     42  C   UNL A   1      40.772  27.948  28.883  1.00  0.00     0.049 A 
ATOM     43  H   UNL A   1      40.480  28.951  30.685  1.00  0.00     0.167 HD
ATOM     44  C   UNL A   1      39.736  31.157  34.395  1.00  0.00     0.037 A 
ATOM     45  C   UNL A   1      41.915  27.248  28.994  1.00  0.00     0.037 A 
ATOM     46  C   UNL A   1      40.959  30.426  34.615  1.00  0.00     0.049 A 
ATOM     47  C   UNL A   1      42.699  27.338  30.271  1.00  0.00     0.074 A 
ATOM     48  C   UNL A   1      41.733  30.368  35.762  1.00  0.00     0.029 A 
ATOM     49  N   UNL A   1      41.584  29.622  33.672  1.00  0.00    -0.354 N 
ATOM     50  N   UNL A   1      42.412  27.992  31.371  1.00  0.00    -0.248 NA
ATOM     51  C   UNL A   1      43.966  26.601  30.320  1.00  0.00     0.031 C 
ATOM     52  C   UNL A   1      42.853  29.577  35.494  1.00  0.00     0.029 A 
ATOM     53  C   UNL A   1      42.746  29.085  34.204  1.00  0.00     0.049 A 
ATOM     54  H   UNL A   1      41.250  29.457  32.760  1.00  0.00     0.167 HD
ATOM     55  C   UNL A   1      43.454  27.731  32.249  1.00  0.00     0.074 A 
ATOM     56  C   UNL A   1      44.364  26.838  31.561  1.00  0.00     0.031 C 
ATOM     57  C   UNL A   1      43.641  28.195  33.508  1.00  0.00     0.037 A 
BRANCH  44  58
ATOM     58  C   UNL A   1      39.216  31.999  35.526  1.00  0.00     0.064 A 
ATOM     59  C   UNL A   1      38.403  31.462  36.536  1.00  0.00     0.173 A 
ATOM     60  C   UNL A   1      39.616  33.340  35.654  1.00  0.00     0.173 A 
ATOM     61  F   UNL A   1      37.983  30.190  36.458  1.00  0.00    -0.203 F 
ATOM     62  C   UNL A   1      38.006  32.236  37.625  1.00  0.00     0.198 A 
ATOM     63  C   UNL A   1      39.242  34.101  36.758  1.00  0.00     0.198 A 
ATOM     64  F   UNL A   1      40.399  33.903  34.722  1.00  0.00    -0.203 F 
ATOM     65  F   UNL A   1      37.208  31.707  38.563  1.00  0.00    -0.200 F 
ATOM     66  C   UNL A   1      38.435  33.549  37.742  1.00  0.00     0.200 A 
ATOM     67  F   UNL A   1      39.673  35.363  36.878  1.00  0.00    -0.200 F 
ATOM     68  F   UNL A   1      38.073  34.282  38.803  1.00  0.00    -0.200 F 
ENDBRANCH  44  58
BRANCH  45  69
ATOM     69  C   UNL A   1      42.383  26.422  27.852  1.00  0.00     0.064 A 
ATOM     70  C   UNL A   1      43.264  26.945  26.898  1.00  0.00     0.173 A 
ATOM     71  C   UNL A   1      41.987  25.082  27.711  1.00  0.00     0.173 A 
ATOM     72  F   UNL A   1      43.657  28.225  26.981  1.00  0.00    -0.203 F 
ATOM     73  C   UNL A   1      43.723  26.165  25.839  1.00  0.00     0.198 A 
ATOM     74  C   UNL A   1      42.476  24.292  26.674  1.00  0.00     0.198 A 
ATOM     75  F   UNL A   1      41.153  24.529  28.604  1.00  0.00    -0.203 F 
ATOM     76  F   UNL A   1      44.535  26.700  24.918  1.00  0.00    -0.200 F 
ATOM     77  C   UNL A   1      43.338  24.836  25.734  1.00  0.00     0.200 A 
ATOM     78  F   UNL A   1      42.121  23.002  26.592  1.00  0.00    -0.200 F 
ATOM     79  F   UNL A   1      43.795  24.081  24.727  1.00  0.00    -0.200 F 
ENDBRANCH  45  69
BRANCH  57  80
ATOM     80  C   UNL A   1      44.865  27.724  34.240  1.00  0.00     0.064 A 
ATOM     81  C   UNL A   1      46.086  28.408  34.149  1.00  0.00     0.173 A 
ATOM     82  C   UNL A   1      44.803  26.600  35.077  1.00  0.00     0.173 A 
ATOM     83  F   UNL A   1      46.201  29.480  33.350  1.00  0.00    -0.203 F 
ATOM     84  C   UNL A   1      47.207  27.969  34.847  1.00  0.00     0.198 A 
ATOM     85  C   UNL A   1      45.916  26.184  35.803  1.00  0.00     0.198 A 
ATOM     86  F   UNL A   1      43.658  25.913  35.207  1.00  0.00    -0.203 F 
ATOM     87  F   UNL A   1      48.375  28.608  34.704  1.00  0.00    -0.200 F 
ATOM     88  C   UNL A   1      47.118  26.864  35.682  1.00  0.00     0.200 A 
ATOM     89  F   UNL A   1      45.823  25.128  36.622  1.00  0.00    -0.200 F 
ATOM     90  F   UNL A   1      48.195  26.450  36.362  1.00  0.00    -0.200 F 
ENDBRANCH  57  80
ENDBRANCH  31  32
ENDBRANCH  23  26
ENDBRANCH  21  22
ENDBRANCH  20  21
ENDBRANCH  19  20
ENDBRANCH   1  19
TORSDOF 15
ENDMDL
MODEL 2
REMARK VINA RESULT:     -11.3      0.989      7.648
REMARK SMILES CCCSc1nc(=O)cc(CC(=O)NCCCCNC(=O)c2ccc(-c3c4nc(c(-c5c(F)c(F)c(F)c(F)c5F)c5ccc([nH]5)c(-c5c(F)c(F)c(F)c(F)c5F)c5nc(c(-c6c(F)c(F)c(F)c(F)c6F)c6ccc3[nH]6)C=C5)C=C4)cc2)[nH]1
REMARK SMILES IDX 15 1 14 2 12 3 13 4 11 6 10 7 5 8 6 9 85 10 7 11 8 13 9 14
REMARK SMILES IDX 4 15 3 16 2 17 1 18 16 19 17 20 18 21 19 22 20 23 21 25
REMARK SMILES IDX 22 26 23 27 84 28 24 29 83 30 25 31 26 32 27 33 77 34 28 35
REMARK SMILES IDX 82 36 76 37 78 38 29 39 81 40 75 41 74 42 30 44 62 45 42 46
REMARK SMILES IDX 61 47 43 48 46 49 60 50 79 51 44 52 45 53 59 55 80 56 47 57
REMARK SMILES IDX 31 58 32 59 40 60 33 61 34 62 38 63 41 64 35 65 36 66 39 67
REMARK SMILES IDX 37 68 63 69 64 70 72 71 65 72 66 73 70 74 73 75 67 76 68 77
REMARK SMILES IDX 71 78 69 79 48 80 49 81 57 82 50 83 51 84 55 85 58 86 52 87
REMARK SMILES IDX 53 88 56 89 54 90
REMARK H PARENT 14 5 85 12 19 24 78 43 46 54
REMARK Flexibility Score: inf
ROOT
ATOM      1  C   UNL A   1      32.257  25.942  25.101  1.00  0.00     0.116 C 
ENDROOT
BRANCH   1   2
ATOM      2  N   UNL A   1      33.170  25.731  24.000  1.00  0.00    -0.356 N 
ATOM      3  C   UNL A   1      33.307  24.622  23.215  1.00  0.00     0.225 C 
ATOM      4  O   UNL A   1      34.225  24.585  22.396  1.00  0.00    -0.275 OA
ATOM      5  H   UNL A   1      33.771  26.483  23.791  1.00  0.00     0.163 HD
BRANCH   3   6
ATOM      6  C   UNL A   1      32.318  23.465  23.361  1.00  0.00     0.154 C 
BRANCH   6   7
ATOM      7  C   UNL A   1      32.929  22.214  23.943  1.00  0.00     0.032 A 
ATOM      8  C   UNL A   1      34.872  21.057  24.714  1.00  0.00     0.169 A 
ATOM      9  N   UNL A   1      34.239  19.982  25.039  1.00  0.00    -0.185 NA
ATOM     10  N   UNL A   1      34.290  22.167  24.170  1.00  0.00    -0.337 N 
ATOM     11  C   UNL A   1      32.879  19.929  24.828  1.00  0.00     0.273 A 
ATOM     12  H   UNL A   1      34.849  22.944  23.937  1.00  0.00     0.168 HD
ATOM     13  O   UNL A   1      32.196  18.942  25.068  1.00  0.00    -0.267 OA
ATOM     14  C   UNL A   1      32.200  21.135  24.272  1.00  0.00     0.095 A 
BRANCH   8  15
ATOM     15  S   UNL A   1      36.589  21.117  25.046  1.00  0.00    -0.088 SA
BRANCH  15  16
ATOM     16  C   UNL A   1      37.037  22.830  24.641  1.00  0.00     0.078 C 
BRANCH  16  17
ATOM     17  C   UNL A   1      37.063  23.823  25.805  1.00  0.00     0.008 C 
ATOM     18  C   UNL A   1      38.428  23.983  26.438  1.00  0.00     0.005 C 
ENDBRANCH  16  17
ENDBRANCH  15  16
ENDBRANCH   8  15
ENDBRANCH   6   7
ENDBRANCH   3   6
ENDBRANCH   1   2
BRANCH   1  19
ATOM     19  C   UNL A   1      32.795  26.978  26.077  1.00  0.00     0.023 C 
BRANCH  19  20
ATOM     20  C   UNL A   1      32.035  28.292  26.128  1.00  0.00     0.023 C 
BRANCH  20  21
ATOM     21  C   UNL A   1      32.874  29.491  25.712  1.00  0.00     0.116 C 
BRANCH  21  22
ATOM     22  N   UNL A   1      32.502  30.747  26.366  1.00  0.00    -0.352 N 
ATOM     23  C   UNL A   1      33.237  31.527  27.232  1.00  0.00     0.251 C 
ATOM     24  H   UNL A   1      31.600  31.082  26.157  1.00  0.00     0.163 HD
ATOM     25  O   UNL A   1      32.750  32.524  27.752  1.00  0.00    -0.269 OA
BRANCH  23  26
ATOM     26  C   UNL A   1      34.606  31.095  27.564  1.00  0.00     0.039 A 
ATOM     27  C   UNL A   1      34.845  29.751  27.842  1.00  0.00     0.014 A 
ATOM     28  C   UNL A   1      35.598  32.056  27.766  1.00  0.00     0.014 A 
ATOM     29  C   UNL A   1      35.967  29.411  28.577  1.00  0.00     0.010 A 
ATOM     30  C   UNL A   1      36.793  31.680  28.382  1.00  0.00     0.010 A 
ATOM     31  C   UNL A   1      36.953  30.371  28.863  1.00  0.00    -0.014 A 
BRANCH  31  32
ATOM     32  C   UNL A   1      38.129  29.980  29.682  1.00  0.00     0.031 A 
ATOM     33  C   UNL A   1      39.191  29.067  29.128  1.00  0.00     0.074 A 
ATOM     34  C   UNL A   1      38.264  30.508  30.914  1.00  0.00     0.049 A 
ATOM     35  N   UNL A   1      40.257  28.589  29.721  1.00  0.00    -0.248 NA
ATOM     36  C   UNL A   1      39.040  28.625  27.732  1.00  0.00     0.031 C 
ATOM     37  C   UNL A   1      37.316  31.433  31.542  1.00  0.00     0.029 A 
ATOM     38  N   UNL A   1      39.254  30.364  31.849  1.00  0.00    -0.354 N 
ATOM     39  C   UNL A   1      40.884  27.775  28.786  1.00  0.00     0.074 A 
ATOM     40  C   UNL A   1      40.070  27.801  27.591  1.00  0.00     0.031 C 
ATOM     41  C   UNL A   1      37.797  31.816  32.730  1.00  0.00     0.029 A 
ATOM     42  C   UNL A   1      39.033  31.089  32.993  1.00  0.00     0.049 A 
ATOM     43  H   UNL A   1      40.047  29.797  31.714  1.00  0.00     0.167 HD
ATOM     44  C   UNL A   1      42.039  27.079  28.914  1.00  0.00     0.037 A 
ATOM     45  C   UNL A   1      39.724  31.139  34.146  1.00  0.00     0.037 A 
ATOM     46  C   UNL A   1      42.858  27.084  30.101  1.00  0.00     0.049 A 
ATOM     47  C   UNL A   1      40.967  30.308  34.280  1.00  0.00     0.074 A 
ATOM     48  C   UNL A   1      44.053  26.424  30.325  1.00  0.00     0.029 A 
ATOM     49  N   UNL A   1      42.568  27.787  31.262  1.00  0.00    -0.354 N 
ATOM     50  N   UNL A   1      41.541  29.531  33.394  1.00  0.00    -0.248 NA
ATOM     51  C   UNL A   1      41.651  30.354  35.577  1.00  0.00     0.031 C 
ATOM     52  C   UNL A   1      44.457  26.681  31.638  1.00  0.00     0.029 A 
ATOM     53  C   UNL A   1      43.550  27.556  32.213  1.00  0.00     0.049 A 
ATOM     54  H   UNL A   1      41.781  28.365  31.391  1.00  0.00     0.167 HD
ATOM     55  C   UNL A   1      42.664  29.010  34.018  1.00  0.00     0.074 A 
ATOM     56  C   UNL A   1      42.704  29.580  35.349  1.00  0.00     0.031 C 
ATOM     57  C   UNL A   1      43.577  28.133  33.534  1.00  0.00     0.037 A 
BRANCH  44  58
ATOM     58  C   UNL A   1      42.498  26.238  27.757  1.00  0.00     0.064 A 
ATOM     59  C   UNL A   1      43.456  26.697  26.841  1.00  0.00     0.173 A 
ATOM     60  C   UNL A   1      42.044  24.915  27.618  1.00  0.00     0.173 A 
ATOM     61  F   UNL A   1      43.916  27.955  26.921  1.00  0.00    -0.203 F 
ATOM     62  C   UNL A   1      43.936  25.870  25.828  1.00  0.00     0.198 A 
ATOM     63  C   UNL A   1      42.547  24.082  26.623  1.00  0.00     0.198 A 
ATOM     64  F   UNL A   1      41.133  24.421  28.470  1.00  0.00    -0.203 F 
ATOM     65  F   UNL A   1      44.832  26.340  24.950  1.00  0.00    -0.200 F 
ATOM     66  C   UNL A   1      43.492  24.560  25.727  1.00  0.00     0.200 A 
ATOM     67  F   UNL A   1      42.130  22.811  26.540  1.00  0.00    -0.200 F 
ATOM     68  F   UNL A   1      43.974  23.758  24.769  1.00  0.00    -0.200 F 
ENDBRANCH  44  58
BRANCH  45  69
ATOM     69  C   UNL A   1      39.236  31.994  35.257  1.00  0.00     0.064 A 
ATOM     70  C   UNL A   1      38.485  31.450  36.307  1.00  0.00     0.173 A 
ATOM     71  C   UNL A   1      39.541  33.363  35.312  1.00  0.00     0.173 A 
ATOM     72  F   UNL A   1      38.154  30.150  36.291  1.00  0.00    -0.203 F 
ATOM     73  C   UNL A   1      38.046  32.246  37.363  1.00  0.00     0.198 A 
ATOM     74  C   UNL A   1      39.134  34.149  36.387  1.00  0.00     0.198 A 
ATOM     75  F   UNL A   1      40.266  33.930  34.338  1.00  0.00    -0.203 F 
ATOM     76  F   UNL A   1      37.297  31.710  38.335  1.00  0.00    -0.200 F 
ATOM     77  C   UNL A   1      38.381  33.591  37.408  1.00  0.00     0.200 A 
ATOM     78  F   UNL A   1      39.482  35.442  36.438  1.00  0.00    -0.200 F 
ATOM     79  F   UNL A   1      37.975  34.351  38.435  1.00  0.00    -0.200 F 
ENDBRANCH  45  69
BRANCH  57  80
ATOM     80  C   UNL A   1      44.716  27.756  34.437  1.00  0.00     0.064 A 
ATOM     81  C   UNL A   1      45.926  28.466  34.432  1.00  0.00     0.173 A 
ATOM     82  C   UNL A   1      44.578  26.699  35.349  1.00  0.00     0.173 A 
ATOM     83  F   UNL A   1      46.112  29.476  33.568  1.00  0.00    -0.203 F 
ATOM     84  C   UNL A   1      46.965  28.115  35.288  1.00  0.00     0.198 A 
ATOM     85  C   UNL A   1      45.607  26.373  36.229  1.00  0.00     0.198 A 
ATOM     86  F   UNL A   1      43.440  25.991  35.400  1.00  0.00    -0.203 F 
ATOM     87  F   UNL A   1      48.130  28.774  35.230  1.00  0.00    -0.200 F 
ATOM     88  C   UNL A   1      46.801  27.076  36.192  1.00  0.00     0.200 A 
ATOM     89  F   UNL A   1      45.440  25.381  37.113  1.00  0.00    -0.200 F 
ATOM     90  F   UNL A   1      47.799  26.747  37.024  1.00  0.00    -0.200 F 
ENDBRANCH  57  80
ENDBRANCH  31  32
ENDBRANCH  23  26
ENDBRANCH  21  22
ENDBRANCH  20  21
ENDBRANCH  19  20
ENDBRANCH   1  19
TORSDOF 15
ENDMDL
MODEL 3
REMARK VINA RESULT:     -11.2      3.185      4.735
REMARK SMILES CCCSc1nc(=O)cc(CC(=O)NCCCCNC(=O)c2ccc(-c3c4nc(c(-c5c(F)c(F)c(F)c(F)c5F)c5ccc([nH]5)c(-c5c(F)c(F)c(F)c(F)c5F)c5nc(c(-c6c(F)c(F)c(F)c(F)c6F)c6ccc3[nH]6)C=C5)C=C4)cc2)[nH]1
REMARK SMILES IDX 15 1 14 2 12 3 13 4 11 6 10 7 5 8 6 9 85 10 7 11 8 13 9 14
REMARK SMILES IDX 4 15 3 16 2 17 1 18 16 19 17 20 18 21 19 22 20 23 21 25
REMARK SMILES IDX 22 26 23 27 84 28 24 29 83 30 25 31 26 32 27 33 77 34 28 35
REMARK SMILES IDX 82 36 76 37 78 38 29 39 81 40 75 41 74 42 30 44 62 45 42 46
REMARK SMILES IDX 61 47 43 48 46 49 60 50 79 51 44 52 45 53 59 55 80 56 47 57
REMARK SMILES IDX 31 58 32 59 40 60 33 61 34 62 38 63 41 64 35 65 36 66 39 67
REMARK SMILES IDX 37 68 63 69 64 70 72 71 65 72 66 73 70 74 73 75 67 76 68 77
REMARK SMILES IDX 71 78 69 79 48 80 49 81 57 82 50 83 51 84 55 85 58 86 52 87
REMARK SMILES IDX 53 88 56 89 54 90
REMARK H PARENT 14 5 85 12 19 24 78 43 46 54
REMARK Flexibility Score: inf
ROOT
ATOM      1  C   UNL A   1      34.526  29.834  27.137  1.00  0.00     0.116 C 
ENDROOT
BRANCH   1   2
ATOM      2  N   UNL A   1      33.395  28.991  27.454  1.00  0.00    -0.356 N 
ATOM      3  C   UNL A   1      32.130  29.046  26.940  1.00  0.00     0.225 C 
ATOM      4  O   UNL A   1      31.264  28.314  27.419  1.00  0.00    -0.275 OA
ATOM      5  H   UNL A   1      33.556  28.290  28.126  1.00  0.00     0.163 HD
BRANCH   3   6
ATOM      6  C   UNL A   1      31.824  29.996  25.782  1.00  0.00     0.154 C 
BRANCH   6   7
ATOM      7  C   UNL A   1      31.332  29.298  24.537  1.00  0.00     0.032 A 
ATOM      8  C   UNL A   1      29.728  29.159  22.772  1.00  0.00     0.169 A 
ATOM      9  N   UNL A   1      30.280  28.142  22.202  1.00  0.00    -0.185 NA
ATOM     10  N   UNL A   1      30.189  29.756  23.912  1.00  0.00    -0.337 N 
ATOM     11  C   UNL A   1      31.413  27.604  22.768  1.00  0.00     0.273 A 
ATOM     12  H   UNL A   1      29.701  30.522  24.292  1.00  0.00     0.168 HD
ATOM     13  O   UNL A   1      31.988  26.618  22.325  1.00  0.00    -0.267 OA
ATOM     14  C   UNL A   1      31.971  28.251  23.992  1.00  0.00     0.095 A 
BRANCH   8  15
ATOM     15  S   UNL A   1      28.322  29.857  21.999  1.00  0.00    -0.088 SA
BRANCH  15  16
ATOM     16  C   UNL A   1      28.094  31.429  22.880  1.00  0.00     0.078 C 
BRANCH  16  17
ATOM     17  C   UNL A   1      28.400  32.705  22.092  1.00  0.00     0.008 C 
ATOM     18  C   UNL A   1      28.028  32.618  20.628  1.00  0.00     0.005 C 
ENDBRANCH  16  17
ENDBRANCH  15  16
ENDBRANCH   8  15
ENDBRANCH   6   7
ENDBRANCH   3   6
ENDBRANCH   1   2
BRANCH   1  19
ATOM     19  C   UNL A   1      34.712  30.927  28.180  1.00  0.00     0.023 C 
BRANCH  19  20
ATOM     20  C   UNL A   1      33.554  31.897  28.331  1.00  0.00     0.023 C 
BRANCH  20  21
ATOM     21  C   UNL A   1      33.553  33.004  27.286  1.00  0.00     0.116 C 
BRANCH  21  22
ATOM     22  N   UNL A   1      32.851  34.222  27.694  1.00  0.00    -0.352 N 
ATOM     23  C   UNL A   1      33.121  35.069  28.747  1.00  0.00     0.251 C 
ATOM     24  H   UNL A   1      32.078  34.471  27.137  1.00  0.00     0.163 HD
ATOM     25  O   UNL A   1      32.387  36.019  28.996  1.00  0.00    -0.269 OA
BRANCH  23  26
ATOM     26  C   UNL A   1      34.281  34.767  29.602  1.00  0.00     0.039 A 
ATOM     27  C   UNL A   1      35.561  34.830  29.056  1.00  0.00     0.014 A 
ATOM     28  C   UNL A   1      34.074  34.255  30.884  1.00  0.00     0.014 A 
ATOM     29  C   UNL A   1      36.585  34.133  29.673  1.00  0.00     0.010 A 
ATOM     30  C   UNL A   1      35.145  33.678  31.567  1.00  0.00     0.010 A 
ATOM     31  C   UNL A   1      36.390  33.542  30.933  1.00  0.00    -0.014 A 
BRANCH  31  32
ATOM     32  C   UNL A   1      37.500  32.773  31.552  1.00  0.00     0.031 A 
ATOM     33  C   UNL A   1      37.969  33.078  32.950  1.00  0.00     0.074 A 
ATOM     34  C   UNL A   1      38.043  31.751  30.864  1.00  0.00     0.049 A 
ATOM     35  N   UNL A   1      38.953  32.537  33.625  1.00  0.00    -0.248 NA
ATOM     36  C   UNL A   1      37.248  34.128  33.690  1.00  0.00     0.031 C 
ATOM     37  C   UNL A   1      37.644  31.339  29.514  1.00  0.00     0.029 A 
ATOM     38  N   UNL A   1      39.026  30.860  31.204  1.00  0.00    -0.354 N 
ATOM     39  C   UNL A   1      38.987  33.195  34.849  1.00  0.00     0.074 A 
ATOM     40  C   UNL A   1      37.941  34.193  34.820  1.00  0.00     0.031 C 
ATOM     41  C   UNL A   1      38.334  30.247  29.166  1.00  0.00     0.029 A 
ATOM     42  C   UNL A   1      39.292  29.940  30.221  1.00  0.00     0.049 A 
ATOM     43  H   UNL A   1      39.494  30.876  32.070  1.00  0.00     0.167 HD
ATOM     44  C   UNL A   1      39.811  32.975  35.901  1.00  0.00     0.037 A 
ATOM     45  C   UNL A   1      40.229  28.977  30.153  1.00  0.00     0.037 A 
ATOM     46  C   UNL A   1      40.831  31.957  35.930  1.00  0.00     0.049 A 
ATOM     47  C   UNL A   1      41.168  28.799  31.309  1.00  0.00     0.074 A 
ATOM     48  C   UNL A   1      41.708  31.645  36.954  1.00  0.00     0.029 A 
ATOM     49  N   UNL A   1      41.108  31.082  34.889  1.00  0.00    -0.354 N 
ATOM     50  N   UNL A   1      41.199  29.437  32.454  1.00  0.00    -0.248 NA
ATOM     51  C   UNL A   1      42.207  27.774  31.161  1.00  0.00     0.031 C 
ATOM     52  C   UNL A   1      42.551  30.622  36.513  1.00  0.00     0.029 A 
ATOM     53  C   UNL A   1      42.159  30.248  35.239  1.00  0.00     0.049 A 
ATOM     54  H   UNL A   1      40.629  31.057  34.029  1.00  0.00     0.167 HD
ATOM     55  C   UNL A   1      42.247  28.880  33.171  1.00  0.00     0.074 A 
ATOM     56  C   UNL A   1      42.809  27.834  32.341  1.00  0.00     0.031 C 
ATOM     57  C   UNL A   1      42.706  29.209  34.403  1.00  0.00     0.037 A 
BRANCH  44  58
ATOM     58  C   UNL A   1      39.668  33.850  37.115  1.00  0.00     0.064 A 
ATOM     59  C   UNL A   1      40.270  35.115  37.190  1.00  0.00     0.173 A 
ATOM     60  C   UNL A   1      38.836  33.459  38.177  1.00  0.00     0.173 A 
ATOM     61  F   UNL A   1      41.083  35.535  36.209  1.00  0.00    -0.203 F 
ATOM     62  C   UNL A   1      40.052  35.950  38.285  1.00  0.00     0.198 A 
ATOM     63  C   UNL A   1      38.597  34.306  39.255  1.00  0.00     0.198 A 
ATOM     64  F   UNL A   1      38.229  32.262  38.154  1.00  0.00    -0.203 F 
ATOM     65  F   UNL A   1      40.660  37.143  38.347  1.00  0.00    -0.200 F 
ATOM     66  C   UNL A   1      39.207  35.551  39.309  1.00  0.00     0.200 A 
ATOM     67  F   UNL A   1      37.765  33.927  40.234  1.00  0.00    -0.200 F 
ATOM     68  F   UNL A   1      38.977  36.366  40.348  1.00  0.00    -0.200 F 
ENDBRANCH  44  58
BRANCH  45  69
ATOM     69  C   UNL A   1      40.323  28.131  28.936  1.00  0.00     0.064 A 
ATOM     70  C   UNL A   1      41.110  28.523  27.846  1.00  0.00     0.173 A 
ATOM     71  C   UNL A   1      39.659  26.897  28.853  1.00  0.00     0.173 A 
ATOM     72  F   UNL A   1      41.751  29.701  27.872  1.00  0.00    -0.203 F 
ATOM     73  C   UNL A   1      41.220  27.719  26.714  1.00  0.00     0.198 A 
ATOM     74  C   UNL A   1      39.800  26.077  27.736  1.00  0.00     0.198 A 
ATOM     75  F   UNL A   1      38.902  26.470  29.874  1.00  0.00    -0.203 F 
ATOM     76  F   UNL A   1      41.948  28.134  25.669  1.00  0.00    -0.200 F 
ATOM     77  C   UNL A   1      40.574  26.492  26.664  1.00  0.00     0.200 A 
ATOM     78  F   UNL A   1      39.194  24.882  27.705  1.00  0.00    -0.200 F 
ATOM     79  F   UNL A   1      40.696  25.711  25.582  1.00  0.00    -0.200 F 
ENDBRANCH  45  69
BRANCH  57  80
ATOM     80  C   UNL A   1      43.857  28.412  34.944  1.00  0.00     0.064 A 
ATOM     81  C   UNL A   1      45.186  28.834  34.781  1.00  0.00     0.173 A 
ATOM     82  C   UNL A   1      43.627  27.235  35.672  1.00  0.00     0.173 A 
ATOM     83  F   UNL A   1      45.460  29.945  34.080  1.00  0.00    -0.203 F 
ATOM     84  C   UNL A   1      46.241  28.093  35.304  1.00  0.00     0.198 A 
ATOM     85  C   UNL A   1      44.684  26.516  36.225  1.00  0.00     0.198 A 
ATOM     86  F   UNL A   1      42.376  26.791  35.864  1.00  0.00    -0.203 F 
ATOM     87  F   UNL A   1      47.504  28.488  35.092  1.00  0.00    -0.200 F 
ATOM     88  C   UNL A   1      45.989  26.941  36.034  1.00  0.00     0.200 A 
ATOM     89  F   UNL A   1      44.436  25.413  36.945  1.00  0.00    -0.200 F 
ATOM     90  F   UNL A   1      47.006  26.236  36.547  1.00  0.00    -0.200 F 
ENDBRANCH  57  80
ENDBRANCH  31  32
ENDBRANCH  23  26
ENDBRANCH  21  22
ENDBRANCH  20  21
ENDBRANCH  19  20
ENDBRANCH   1  19
TORSDOF 15
ENDMDL
