MODEL 1
REMARK VINA RESULT:     -13.2      0.000      0.000
REMARK SMILES Cc1oc(C)c(C(=O)Nc2cc(C(=O)NCCCCNC(=O)c3ccc(-c4c5nc(c(-c6c(F)c(F)c(F)c(F)c6F)c6ccc([nH]6)c(-c6c(F)c(F)c(F)c(F)c6F)c6nc(c(-c7c(F)c(F)c(F)c(F)c7F)c7ccc4[nH]7)C=C6)C=C5)cc3)ccc2Cl)c1C
REMARK SMILES IDX 17 1 16 2 15 3 13 4 14 5 12 7 10 8 11 9 88 10 87 11 89 12
REMARK SMILES IDX 86 13 9 14 7 15 8 16 6 18 1 19 2 20 3 21 90 22 4 23 91 24
REMARK SMILES IDX 5 25 18 26 19 27 20 28 21 29 22 31 23 32 24 33 85 34 25 35
REMARK SMILES IDX 84 36 26 37 27 38 28 39 78 40 29 41 83 42 77 43 79 44 30 45
REMARK SMILES IDX 82 46 76 47 75 48 31 50 63 51 43 52 62 53 44 54 47 55 61 56
REMARK SMILES IDX 80 57 45 58 46 59 60 61 81 62 48 63 32 64 33 65 41 66 34 67
REMARK SMILES IDX 35 68 39 69 42 70 36 71 37 72 40 73 38 74 64 75 65 76 73 77
REMARK SMILES IDX 66 78 67 79 71 80 74 81 68 82 69 83 72 84 70 85 49 86 50 87
REMARK SMILES IDX 58 88 51 89 52 90 56 91 59 92 53 93 54 94 57 95 55 96
REMARK H PARENT 15 6 9 17 20 30 79 49 47 60
REMARK Flexibility Score: inf
ROOT
ATOM      1  C   UNL A   1      40.557  21.222  25.848  1.00  0.00     0.023 C 
ENDROOT
BRANCH   1   2
ATOM      2  C   UNL A   1      39.070  21.503  26.088  1.00  0.00     0.116 C 
BRANCH   2   3
ATOM      3  N   UNL A   1      38.837  22.874  26.504  1.00  0.00    -0.352 N 
ATOM      4  C   UNL A   1      37.870  23.801  26.206  1.00  0.00     0.251 C 
ATOM      5  O   UNL A   1      37.954  24.888  26.782  1.00  0.00    -0.269 OA
ATOM      6  H   UNL A   1      39.515  23.210  27.132  1.00  0.00     0.163 HD
BRANCH   4   7
ATOM      7  C   UNL A   1      36.694  23.556  25.314  1.00  0.00     0.041 A 
ATOM      8  C   UNL A   1      34.265  23.249  25.284  1.00  0.00     0.061 A 
ATOM      9  C   UNL A   1      35.429  23.713  25.914  1.00  0.00     0.041 A 
ATOM     10  C   UNL A   1      34.332  22.810  23.956  1.00  0.00     0.064 A 
ATOM     11  C   UNL A   1      35.571  22.756  23.311  1.00  0.00     0.023 A 
ATOM     12  Cl  UNL A   1      32.928  22.415  23.034  1.00  0.00    -0.082 Cl
ATOM     13  C   UNL A   1      36.745  23.104  23.994  1.00  0.00     0.015 A 
BRANCH   8  14
ATOM     14  N   UNL A   1      33.122  23.167  26.100  1.00  0.00    -0.320 N 
ATOM     15  C   UNL A   1      32.105  24.092  26.277  1.00  0.00     0.259 C 
ATOM     16  O   UNL A   1      31.274  23.865  27.157  1.00  0.00    -0.269 OA
ATOM     17  H   UNL A   1      33.031  22.335  26.618  1.00  0.00     0.170 HD
BRANCH  15  18
ATOM     18  C   UNL A   1      32.001  25.258  25.397  1.00  0.00     0.084 A 
ATOM     19  C   UNL A   1      32.081  28.768  24.213  1.00  0.00     0.088 C 
ATOM     20  C   UNL A   1      32.015  27.323  24.508  1.00  0.00     0.104 A 
ATOM     21  O   UNL A   1      31.141  26.584  23.782  1.00  0.00    -0.466 OA
ATOM     22  C   UNL A   1      32.725  26.505  25.365  1.00  0.00     0.003 A 
ATOM     23  C   UNL A   1      31.209  25.309  24.257  1.00  0.00     0.114 A 
ATOM     24  C   UNL A   1      33.973  26.905  26.057  1.00  0.00     0.049 C 
ATOM     25  C   UNL A   1      30.466  24.309  23.461  1.00  0.00     0.088 C 
ENDBRANCH  15  18
ENDBRANCH   8  14
ENDBRANCH   4   7
ENDBRANCH   2   3
ENDBRANCH   1   2
BRANCH   1  26
ATOM     26  C   UNL A   1      41.073  19.850  26.305  1.00  0.00     0.023 C 
BRANCH  26  27
ATOM     27  C   UNL A   1      42.490  19.837  26.861  1.00  0.00     0.116 C 
BRANCH  27  28
ATOM     28  N   UNL A   1      43.519  19.537  25.858  1.00  0.00    -0.352 N 
ATOM     29  C   UNL A   1      44.148  20.418  24.985  1.00  0.00     0.251 C 
ATOM     30  H   UNL A   1      43.797  18.596  25.795  1.00  0.00     0.163 HD
ATOM     31  O   UNL A   1      44.699  20.040  23.972  1.00  0.00    -0.269 OA
BRANCH  29  32
ATOM     32  C   UNL A   1      44.146  21.845  25.350  1.00  0.00     0.039 A 
ATOM     33  C   UNL A   1      43.382  22.800  24.676  1.00  0.00     0.014 A 
ATOM     34  C   UNL A   1      44.868  22.175  26.487  1.00  0.00     0.014 A 
ATOM     35  C   UNL A   1      43.278  24.078  25.226  1.00  0.00     0.010 A 
ATOM     36  C   UNL A   1      44.575  23.337  27.137  1.00  0.00     0.010 A 
ATOM     37  C   UNL A   1      43.862  24.331  26.477  1.00  0.00    -0.014 A 
BRANCH  37  38
ATOM     38  C   UNL A   1      43.701  25.603  27.172  1.00  0.00     0.031 A 
ATOM     39  C   UNL A   1      44.675  26.661  26.798  1.00  0.00     0.074 A 
ATOM     40  C   UNL A   1      42.602  25.867  27.916  1.00  0.00     0.049 A 
ATOM     41  N   UNL A   1      45.587  27.193  27.543  1.00  0.00    -0.248 NA
ATOM     42  C   UNL A   1      44.715  27.116  25.399  1.00  0.00     0.031 C 
ATOM     43  C   UNL A   1      41.415  25.016  28.118  1.00  0.00     0.029 A 
ATOM     44  N   UNL A   1      42.259  27.006  28.577  1.00  0.00    -0.354 N 
ATOM     45  C   UNL A   1      46.179  28.194  26.774  1.00  0.00     0.074 A 
ATOM     46  C   UNL A   1      45.732  27.982  25.424  1.00  0.00     0.031 C 
ATOM     47  C   UNL A   1      40.404  25.748  28.627  1.00  0.00     0.029 A 
ATOM     48  C   UNL A   1      40.934  27.045  28.992  1.00  0.00     0.049 A 
ATOM     49  H   UNL A   1      42.894  27.740  28.746  1.00  0.00     0.167 HD
ATOM     50  C   UNL A   1      46.750  29.277  27.372  1.00  0.00     0.037 A 
ATOM     51  C   UNL A   1      40.308  28.061  29.625  1.00  0.00     0.037 A 
ATOM     52  C   UNL A   1      46.922  29.045  28.784  1.00  0.00     0.049 A 
ATOM     53  C   UNL A   1      41.356  28.868  30.282  1.00  0.00     0.074 A 
ATOM     54  C   UNL A   1      47.760  28.300  29.583  1.00  0.00     0.029 A 
ATOM     55  N   UNL A   1      45.829  29.379  29.537  1.00  0.00    -0.354 N 
ATOM     56  N   UNL A   1      42.113  28.414  31.243  1.00  0.00    -0.248 NA
ATOM     57  C   UNL A   1      41.831  30.083  29.632  1.00  0.00     0.031 C 
ATOM     58  C   UNL A   1      47.012  28.002  30.763  1.00  0.00     0.029 A 
ATOM     59  C   UNL A   1      45.758  28.603  30.661  1.00  0.00     0.049 A 
ATOM     60  H   UNL A   1      45.180  30.081  29.301  1.00  0.00     0.167 HD
ATOM     61  C   UNL A   1      43.336  29.023  31.035  1.00  0.00     0.074 A 
ATOM     62  C   UNL A   1      43.055  30.157  30.164  1.00  0.00     0.031 C 
ATOM     63  C   UNL A   1      44.497  28.371  31.329  1.00  0.00     0.037 A 
BRANCH  50  64
ATOM     64  C   UNL A   1      46.694  30.697  26.840  1.00  0.00     0.064 A 
ATOM     65  C   UNL A   1      47.864  31.488  26.879  1.00  0.00     0.173 A 
ATOM     66  C   UNL A   1      45.494  31.410  26.626  1.00  0.00     0.173 A 
ATOM     67  F   UNL A   1      49.063  30.922  27.093  1.00  0.00    -0.203 F 
ATOM     68  C   UNL A   1      47.821  32.883  26.798  1.00  0.00     0.198 A 
ATOM     69  C   UNL A   1      45.461  32.798  26.494  1.00  0.00     0.198 A 
ATOM     70  F   UNL A   1      44.296  30.816  26.655  1.00  0.00    -0.203 F 
ATOM     71  F   UNL A   1      48.942  33.597  26.969  1.00  0.00    -0.200 F 
ATOM     72  C   UNL A   1      46.618  33.538  26.613  1.00  0.00     0.200 A 
ATOM     73  F   UNL A   1      44.281  33.416  26.340  1.00  0.00    -0.200 F 
ATOM     74  F   UNL A   1      46.563  34.876  26.601  1.00  0.00    -0.200 F 
ENDBRANCH  50  64
BRANCH  51  75
ATOM     75  C   UNL A   1      38.906  28.502  29.481  1.00  0.00     0.064 A 
ATOM     76  C   UNL A   1      38.085  28.698  30.601  1.00  0.00     0.173 A 
ATOM     77  C   UNL A   1      38.439  29.019  28.256  1.00  0.00     0.173 A 
ATOM     78  F   UNL A   1      38.478  28.260  31.807  1.00  0.00    -0.203 F 
ATOM     79  C   UNL A   1      36.885  29.410  30.511  1.00  0.00     0.198 A 
ATOM     80  C   UNL A   1      37.241  29.729  28.168  1.00  0.00     0.198 A 
ATOM     81  F   UNL A   1      39.186  28.929  27.145  1.00  0.00    -0.203 F 
ATOM     82  F   UNL A   1      36.159  29.637  31.615  1.00  0.00    -0.200 F 
ATOM     83  C   UNL A   1      36.473  29.939  29.298  1.00  0.00     0.200 A 
ATOM     84  F   UNL A   1      36.871  30.265  26.996  1.00  0.00    -0.200 F 
ATOM     85  F   UNL A   1      35.362  30.683  29.226  1.00  0.00    -0.200 F 
ENDBRANCH  51  75
BRANCH  63  86
ATOM     86  C   UNL A   1      44.411  27.215  32.277  1.00  0.00     0.064 A 
ATOM     87  C   UNL A   1      44.347  25.870  31.881  1.00  0.00     0.173 A 
ATOM     88  C   UNL A   1      44.482  27.481  33.649  1.00  0.00     0.173 A 
ATOM     89  F   UNL A   1      44.357  25.532  30.589  1.00  0.00    -0.203 F 
ATOM     90  C   UNL A   1      44.318  24.839  32.821  1.00  0.00     0.198 A 
ATOM     91  C   UNL A   1      44.485  26.451  34.585  1.00  0.00     0.198 A 
ATOM     92  F   UNL A   1      44.591  28.747  34.081  1.00  0.00    -0.203 F 
ATOM     93  F   UNL A   1      44.243  23.563  32.415  1.00  0.00    -0.200 F 
ATOM     94  C   UNL A   1      44.393  25.131  34.171  1.00  0.00     0.200 A 
ATOM     95  F   UNL A   1      44.601  26.738  35.888  1.00  0.00    -0.200 F 
ATOM     96  F   UNL A   1      44.399  24.141  35.075  1.00  0.00    -0.200 F 
ENDBRANCH  63  86
ENDBRANCH  37  38
ENDBRANCH  29  32
ENDBRANCH  27  28
ENDBRANCH  26  27
ENDBRANCH   1  26
TORSDOF 13
ENDMDL
MODEL 2
REMARK VINA RESULT:     -12.9      3.998      9.574
REMARK SMILES Cc1oc(C)c(C(=O)Nc2cc(C(=O)NCCCCNC(=O)c3ccc(-c4c5nc(c(-c6c(F)c(F)c(F)c(F)c6F)c6ccc([nH]6)c(-c6c(F)c(F)c(F)c(F)c6F)c6nc(c(-c7c(F)c(F)c(F)c(F)c7F)c7ccc4[nH]7)C=C6)C=C5)cc3)ccc2Cl)c1C
REMARK SMILES IDX 17 1 16 2 15 3 13 4 14 5 12 7 10 8 11 9 88 10 87 11 89 12
REMARK SMILES IDX 86 13 9 14 7 15 8 16 6 18 1 19 2 20 3 21 90 22 4 23 91 24
REMARK SMILES IDX 5 25 18 26 19 27 20 28 21 29 22 31 23 32 24 33 85 34 25 35
REMARK SMILES IDX 84 36 26 37 27 38 28 39 78 40 29 41 83 42 77 43 79 44 30 45
REMARK SMILES IDX 82 46 76 47 75 48 31 50 63 51 43 52 62 53 44 54 47 55 61 56
REMARK SMILES IDX 80 57 45 58 46 59 60 61 81 62 48 63 32 64 33 65 41 66 34 67
REMARK SMILES IDX 35 68 39 69 42 70 36 71 37 72 40 73 38 74 64 75 65 76 73 77
REMARK SMILES IDX 66 78 67 79 71 80 74 81 68 82 69 83 72 84 70 85 49 86 50 87
REMARK SMILES IDX 58 88 51 89 52 90 56 91 59 92 53 93 54 94 57 95 55 96
REMARK H PARENT 15 6 9 17 20 30 79 49 47 60
REMARK Flexibility Score: inf
ROOT
ATOM      1  C   UNL A   1      35.141  33.466  28.036  1.00  0.00     0.023 C 
ENDROOT
BRANCH   1   2
ATOM      2  C   UNL A   1      34.181  32.276  27.921  1.00  0.00     0.116 C 
BRANCH   2   3
ATOM      3  N   UNL A   1      34.890  31.012  27.859  1.00  0.00    -0.352 N 
ATOM      4  C   UNL A   1      34.645  29.821  27.222  1.00  0.00     0.251 C 
ATOM      5  O   UNL A   1      35.498  28.941  27.355  1.00  0.00    -0.269 OA
ATOM      6  H   UNL A   1      35.722  31.006  28.385  1.00  0.00     0.163 HD
BRANCH   4   7
ATOM      7  C   UNL A   1      33.480  29.554  26.322  1.00  0.00     0.041 A 
ATOM      8  C   UNL A   1      32.798  28.460  24.240  1.00  0.00     0.061 A 
ATOM      9  C   UNL A   1      33.696  28.600  25.310  1.00  0.00     0.041 A 
ATOM     10  C   UNL A   1      31.570  29.132  24.284  1.00  0.00     0.064 A 
ATOM     11  C   UNL A   1      31.298  29.999  25.345  1.00  0.00     0.023 A 
ATOM     12  Cl  UNL A   1      30.322  28.866  23.122  1.00  0.00    -0.082 Cl
ATOM     13  C   UNL A   1      32.256  30.225  26.343  1.00  0.00     0.015 A 
BRANCH   8  14
ATOM     14  N   UNL A   1      33.270  27.719  23.141  1.00  0.00    -0.320 N 
ATOM     15  C   UNL A   1      33.435  26.349  23.016  1.00  0.00     0.259 C 
ATOM     16  O   UNL A   1      34.003  25.933  22.005  1.00  0.00    -0.269 OA
ATOM     17  H   UNL A   1      33.517  28.248  22.349  1.00  0.00     0.170 HD
BRANCH  15  18
ATOM     18  C   UNL A   1      32.890  25.440  24.027  1.00  0.00     0.084 A 
ATOM     19  C   UNL A   1      30.541  23.885  26.433  1.00  0.00     0.088 C 
ATOM     20  C   UNL A   1      31.591  24.363  25.512  1.00  0.00     0.104 A 
ATOM     21  O   UNL A   1      32.877  24.137  25.873  1.00  0.00    -0.466 OA
ATOM     22  C   UNL A   1      31.549  24.969  24.272  1.00  0.00     0.003 A 
ATOM     23  C   UNL A   1      33.664  24.705  24.916  1.00  0.00     0.114 A 
ATOM     24  C   UNL A   1      30.334  25.060  23.428  1.00  0.00     0.049 C 
ATOM     25  C   UNL A   1      35.106  24.398  25.033  1.00  0.00     0.088 C 
ENDBRANCH  15  18
ENDBRANCH   8  14
ENDBRANCH   4   7
ENDBRANCH   2   3
ENDBRANCH   1   2
BRANCH   1  26
ATOM     26  C   UNL A   1      34.595  34.713  28.746  1.00  0.00     0.023 C 
BRANCH  26  27
ATOM     27  C   UNL A   1      33.294  34.511  29.512  1.00  0.00     0.116 C 
BRANCH  27  28
ATOM     28  N   UNL A   1      33.144  35.400  30.671  1.00  0.00    -0.352 N 
ATOM     29  C   UNL A   1      33.614  35.207  31.965  1.00  0.00     0.251 C 
ATOM     30  H   UNL A   1      32.650  36.236  30.511  1.00  0.00     0.163 HD
ATOM     31  O   UNL A   1      33.145  35.798  32.916  1.00  0.00    -0.269 OA
BRANCH  29  32
ATOM     32  C   UNL A   1      34.735  34.268  32.143  1.00  0.00     0.039 A 
ATOM     33  C   UNL A   1      34.602  32.888  31.974  1.00  0.00     0.014 A 
ATOM     34  C   UNL A   1      35.972  34.848  32.380  1.00  0.00     0.014 A 
ATOM     35  C   UNL A   1      35.758  32.107  31.949  1.00  0.00     0.010 A 
ATOM     36  C   UNL A   1      37.098  34.122  32.121  1.00  0.00     0.010 A 
ATOM     37  C   UNL A   1      37.010  32.740  32.000  1.00  0.00    -0.014 A 
BRANCH  37  38
ATOM     38  C   UNL A   1      38.262  32.007  31.864  1.00  0.00     0.031 A 
ATOM     39  C   UNL A   1      38.974  31.719  33.136  1.00  0.00     0.074 A 
ATOM     40  C   UNL A   1      38.619  31.427  30.694  1.00  0.00     0.049 A 
ATOM     41  N   UNL A   1      40.120  32.177  33.521  1.00  0.00    -0.248 NA
ATOM     42  C   UNL A   1      38.290  30.907  34.155  1.00  0.00     0.031 C 
ATOM     43  C   UNL A   1      37.852  31.376  29.435  1.00  0.00     0.029 A 
ATOM     44  N   UNL A   1      39.707  30.663  30.404  1.00  0.00    -0.354 N 
ATOM     45  C   UNL A   1      40.399  31.551  34.735  1.00  0.00     0.074 A 
ATOM     46  C   UNL A   1      39.173  30.929  35.158  1.00  0.00     0.031 C 
ATOM     47  C   UNL A   1      38.368  30.435  28.619  1.00  0.00     0.029 A 
ATOM     48  C   UNL A   1      39.617  29.983  29.196  1.00  0.00     0.049 A 
ATOM     49  H   UNL A   1      40.490  30.598  30.998  1.00  0.00     0.167 HD
ATOM     50  C   UNL A   1      41.688  31.360  35.133  1.00  0.00     0.037 A 
ATOM     51  C   UNL A   1      40.519  29.122  28.677  1.00  0.00     0.037 A 
ATOM     52  C   UNL A   1      42.589  32.150  34.332  1.00  0.00     0.049 A 
ATOM     53  C   UNL A   1      41.821  29.438  29.301  1.00  0.00     0.074 A 
ATOM     54  C   UNL A   1      42.934  33.479  34.226  1.00  0.00     0.029 A 
ATOM     55  N   UNL A   1      42.997  31.528  33.182  1.00  0.00    -0.354 N 
ATOM     56  N   UNL A   1      42.441  30.573  29.129  1.00  0.00    -0.248 NA
ATOM     57  C   UNL A   1      42.284  28.635  30.425  1.00  0.00     0.031 C 
ATOM     58  C   UNL A   1      43.346  33.668  32.871  1.00  0.00     0.029 A 
ATOM     59  C   UNL A   1      43.272  32.445  32.206  1.00  0.00     0.049 A 
ATOM     60  H   UNL A   1      43.080  30.553  33.073  1.00  0.00     0.167 HD
ATOM     61  C   UNL A   1      43.060  30.813  30.341  1.00  0.00     0.074 A 
ATOM     62  C   UNL A   1      43.083  29.524  31.021  1.00  0.00     0.031 C 
ATOM     63  C   UNL A   1      43.208  32.087  30.807  1.00  0.00     0.037 A 
BRANCH  50  64
ATOM     64  C   UNL A   1      42.202  30.132  35.862  1.00  0.00     0.064 A 
ATOM     65  C   UNL A   1      43.188  30.295  36.860  1.00  0.00     0.173 A 
ATOM     66  C   UNL A   1      42.032  28.811  35.395  1.00  0.00     0.173 A 
ATOM     67  F   UNL A   1      43.450  31.510  37.369  1.00  0.00    -0.203 F 
ATOM     68  C   UNL A   1      43.994  29.235  37.288  1.00  0.00     0.198 A 
ATOM     69  C   UNL A   1      42.804  27.747  35.861  1.00  0.00     0.198 A 
ATOM     70  F   UNL A   1      41.204  28.512  34.388  1.00  0.00    -0.203 F 
ATOM     71  F   UNL A   1      45.001  29.465  38.142  1.00  0.00    -0.200 F 
ATOM     72  C   UNL A   1      43.806  27.963  36.783  1.00  0.00     0.200 A 
ATOM     73  F   UNL A   1      42.622  26.525  35.340  1.00  0.00    -0.200 F 
ATOM     74  F   UNL A   1      44.618  26.959  37.139  1.00  0.00    -0.200 F 
ENDBRANCH  50  64
BRANCH  51  75
ATOM     75  C   UNL A   1      40.269  27.905  27.878  1.00  0.00     0.064 A 
ATOM     76  C   UNL A   1      40.970  27.657  26.690  1.00  0.00     0.173 A 
ATOM     77  C   UNL A   1      39.545  26.827  28.423  1.00  0.00     0.173 A 
ATOM     78  F   UNL A   1      41.707  28.627  26.129  1.00  0.00    -0.203 F 
ATOM     79  C   UNL A   1      40.983  26.388  26.102  1.00  0.00     0.198 A 
ATOM     80  C   UNL A   1      39.558  25.562  27.835  1.00  0.00     0.198 A 
ATOM     81  F   UNL A   1      38.892  26.958  29.588  1.00  0.00    -0.203 F 
ATOM     82  F   UNL A   1      41.720  26.169  25.004  1.00  0.00    -0.200 F 
ATOM     83  C   UNL A   1      40.291  25.338  26.684  1.00  0.00     0.200 A 
ATOM     84  F   UNL A   1      38.913  24.547  28.428  1.00  0.00    -0.200 F 
ATOM     85  F   UNL A   1      40.364  24.107  26.163  1.00  0.00    -0.200 F 
ENDBRANCH  51  75
BRANCH  63  86
ATOM     86  C   UNL A   1      43.112  33.196  29.805  1.00  0.00     0.064 A 
ATOM     87  C   UNL A   1      41.974  33.997  29.617  1.00  0.00     0.173 A 
ATOM     88  C   UNL A   1      44.254  33.514  29.063  1.00  0.00     0.173 A 
ATOM     89  F   UNL A   1      40.871  33.806  30.346  1.00  0.00    -0.203 F 
ATOM     90  C   UNL A   1      41.971  35.046  28.698  1.00  0.00     0.198 A 
ATOM     91  C   UNL A   1      44.260  34.582  28.170  1.00  0.00     0.198 A 
ATOM     92  F   UNL A   1      45.384  32.811  29.237  1.00  0.00    -0.203 F 
ATOM     93  F   UNL A   1      40.865  35.787  28.529  1.00  0.00    -0.200 F 
ATOM     94  C   UNL A   1      43.116  35.341  27.981  1.00  0.00     0.200 A 
ATOM     95  F   UNL A   1      45.384  34.888  27.509  1.00  0.00    -0.200 F 
ATOM     96  F   UNL A   1      43.126  36.370  27.121  1.00  0.00    -0.200 F 
ENDBRANCH  63  86
ENDBRANCH  37  38
ENDBRANCH  29  32
ENDBRANCH  27  28
ENDBRANCH  26  27
ENDBRANCH   1  26
TORSDOF 13
ENDMDL
MODEL 3
REMARK VINA RESULT:     -12.8      2.318      6.847
REMARK SMILES Cc1oc(C)c(C(=O)Nc2cc(C(=O)NCCCCNC(=O)c3ccc(-c4c5nc(c(-c6c(F)c(F)c(F)c(F)c6F)c6ccc([nH]6)c(-c6c(F)c(F)c(F)c(F)c6F)c6nc(c(-c7c(F)c(F)c(F)c(F)c7F)c7ccc4[nH]7)C=C6)C=C5)cc3)ccc2Cl)c1C
REMARK SMILES IDX 17 1 16 2 15 3 13 4 14 5 12 7 10 8 11 9 88 10 87 11 89 12
REMARK SMILES IDX 86 13 9 14 7 15 8 16 6 18 1 19 2 20 3 21 90 22 4 23 91 24
REMARK SMILES IDX 5 25 18 26 19 27 20 28 21 29 22 31 23 32 24 33 85 34 25 35
REMARK SMILES IDX 84 36 26 37 27 38 28 39 78 40 29 41 83 42 77 43 79 44 30 45
REMARK SMILES IDX 82 46 76 47 75 48 31 50 63 51 43 52 62 53 44 54 47 55 61 56
REMARK SMILES IDX 80 57 45 58 46 59 60 61 81 62 48 63 32 64 33 65 41 66 34 67
REMARK SMILES IDX 35 68 39 69 42 70 36 71 37 72 40 73 38 74 64 75 65 76 73 77
REMARK SMILES IDX 66 78 67 79 71 80 74 81 68 82 69 83 72 84 70 85 49 86 50 87
REMARK SMILES IDX 58 88 51 89 52 90 56 91 59 92 53 93 54 94 57 95 55 96
REMARK H PARENT 15 6 9 17 20 30 79 49 47 60
REMARK Flexibility Score: inf
ROOT
ATOM      1  C   UNL A   1      36.814  19.238  24.879  1.00  0.00     0.023 C 
ENDROOT
BRANCH   1   2
ATOM      2  C   UNL A   1      35.437  19.902  24.996  1.00  0.00     0.116 C 
BRANCH   2   3
ATOM      3  N   UNL A   1      34.365  18.997  24.629  1.00  0.00    -0.352 N 
ATOM      4  C   UNL A   1      33.017  19.159  24.432  1.00  0.00     0.251 C 
ATOM      5  O   UNL A   1      32.388  18.159  24.077  1.00  0.00    -0.269 OA
ATOM      6  H   UNL A   1      34.668  18.070  24.492  1.00  0.00     0.163 HD
BRANCH   4   7
ATOM      7  C   UNL A   1      32.287  20.461  24.528  1.00  0.00     0.041 A 
ATOM      8  C   UNL A   1      31.998  22.650  23.469  1.00  0.00     0.061 A 
ATOM      9  C   UNL A   1      32.391  21.305  23.405  1.00  0.00     0.041 A 
ATOM     10  C   UNL A   1      31.304  23.109  24.596  1.00  0.00     0.064 A 
ATOM     11  C   UNL A   1      31.095  22.244  25.674  1.00  0.00     0.023 A 
ATOM     12  Cl  UNL A   1      30.604  24.684  24.681  1.00  0.00    -0.082 Cl
ATOM     13  C   UNL A   1      31.603  20.938  25.648  1.00  0.00     0.015 A 
BRANCH   8  14
ATOM     14  N   UNL A   1      32.441  23.466  22.412  1.00  0.00    -0.320 N 
ATOM     15  C   UNL A   1      33.464  24.400  22.397  1.00  0.00     0.259 C 
ATOM     16  O   UNL A   1      33.579  25.104  21.393  1.00  0.00    -0.269 OA
ATOM     17  H   UNL A   1      31.956  23.357  21.562  1.00  0.00     0.170 HD
BRANCH  15  18
ATOM     18  C   UNL A   1      34.404  24.489  23.516  1.00  0.00     0.084 A 
ATOM     19  C   UNL A   1      36.904  23.521  26.073  1.00  0.00     0.088 C 
ATOM     20  C   UNL A   1      35.931  24.081  25.114  1.00  0.00     0.104 A 
ATOM     21  O   UNL A   1      35.197  25.141  25.529  1.00  0.00    -0.466 OA
ATOM     22  C   UNL A   1      35.630  23.784  23.800  1.00  0.00     0.003 A 
ATOM     23  C   UNL A   1      34.340  25.451  24.516  1.00  0.00     0.114 A 
ATOM     24  C   UNL A   1      36.460  22.919  22.928  1.00  0.00     0.049 C 
ATOM     25  C   UNL A   1      33.584  26.708  24.704  1.00  0.00     0.088 C 
ENDBRANCH  15  18
ENDBRANCH   8  14
ENDBRANCH   4   7
ENDBRANCH   2   3
ENDBRANCH   1   2
BRANCH   1  26
ATOM     26  C   UNL A   1      38.009  20.182  24.680  1.00  0.00     0.023 C 
BRANCH  26  27
ATOM     27  C   UNL A   1      38.980  20.260  25.851  1.00  0.00     0.116 C 
BRANCH  27  28
ATOM     28  N   UNL A   1      40.014  19.219  25.835  1.00  0.00    -0.352 N 
ATOM     29  C   UNL A   1      41.393  19.378  25.913  1.00  0.00     0.251 C 
ATOM     30  H   UNL A   1      39.691  18.292  25.759  1.00  0.00     0.163 HD
ATOM     31  O   UNL A   1      42.164  18.522  25.535  1.00  0.00    -0.269 OA
BRANCH  29  32
ATOM     32  C   UNL A   1      41.894  20.631  26.504  1.00  0.00     0.039 A 
ATOM     33  C   UNL A   1      42.435  21.668  25.740  1.00  0.00     0.014 A 
ATOM     34  C   UNL A   1      41.694  20.773  27.869  1.00  0.00     0.014 A 
ATOM     35  C   UNL A   1      42.680  22.893  26.361  1.00  0.00     0.010 A 
ATOM     36  C   UNL A   1      41.712  22.026  28.409  1.00  0.00     0.010 A 
ATOM     37  C   UNL A   1      42.290  23.070  27.698  1.00  0.00    -0.014 A 
BRANCH  37  38
ATOM     38  C   UNL A   1      42.406  24.352  28.382  1.00  0.00     0.031 A 
ATOM     39  C   UNL A   1      41.296  25.310  28.136  1.00  0.00     0.074 A 
ATOM     40  C   UNL A   1      43.327  24.555  29.353  1.00  0.00     0.049 A 
ATOM     41  N   UNL A   1      41.356  26.447  27.525  1.00  0.00    -0.248 NA
ATOM     42  C   UNL A   1      39.931  24.916  28.519  1.00  0.00     0.031 C 
ATOM     43  C   UNL A   1      44.288  23.585  29.909  1.00  0.00     0.029 A 
ATOM     44  N   UNL A   1      43.537  25.651  30.130  1.00  0.00    -0.354 N 
ATOM     45  C   UNL A   1      40.084  27.009  27.628  1.00  0.00     0.074 A 
ATOM     46  C   UNL A   1      39.215  25.957  28.084  1.00  0.00     0.031 C 
ATOM     47  C   UNL A   1      44.790  24.048  31.071  1.00  0.00     0.029 A 
ATOM     48  C   UNL A   1      44.363  25.422  31.224  1.00  0.00     0.049 A 
ATOM     49  H   UNL A   1      43.139  26.531  29.935  1.00  0.00     0.167 HD
ATOM     50  C   UNL A   1      39.923  28.361  27.606  1.00  0.00     0.037 A 
ATOM     51  C   UNL A   1      44.706  26.308  32.185  1.00  0.00     0.037 A 
ATOM     52  C   UNL A   1      41.128  29.008  27.152  1.00  0.00     0.049 A 
ATOM     53  C   UNL A   1      44.529  27.656  31.608  1.00  0.00     0.074 A 
ATOM     54  C   UNL A   1      41.785  29.178  25.953  1.00  0.00     0.029 A 
ATOM     55  N   UNL A   1      42.027  29.270  28.151  1.00  0.00    -0.354 N 
ATOM     56  N   UNL A   1      45.231  28.104  30.604  1.00  0.00    -0.248 NA
ATOM     57  C   UNL A   1      43.312  28.402  31.903  1.00  0.00     0.031 C 
ATOM     58  C   UNL A   1      43.169  29.315  26.282  1.00  0.00     0.029 A 
ATOM     59  C   UNL A   1      43.306  29.260  27.669  1.00  0.00     0.049 A 
ATOM     60  H   UNL A   1      41.785  29.441  29.090  1.00  0.00     0.167 HD
ATOM     61  C   UNL A   1      44.351  28.900  29.896  1.00  0.00     0.074 A 
ATOM     62  C   UNL A   1      43.266  29.190  30.825  1.00  0.00     0.031 C 
ATOM     63  C   UNL A   1      44.429  28.985  28.537  1.00  0.00     0.037 A 
BRANCH  50  64
ATOM     64  C   UNL A   1      38.919  29.134  28.442  1.00  0.00     0.064 A 
ATOM     65  C   UNL A   1      38.920  28.958  29.843  1.00  0.00     0.173 A 
ATOM     66  C   UNL A   1      37.763  29.748  27.914  1.00  0.00     0.173 A 
ATOM     67  F   UNL A   1      39.959  28.370  30.457  1.00  0.00    -0.203 F 
ATOM     68  C   UNL A   1      37.817  29.292  30.635  1.00  0.00     0.198 A 
ATOM     69  C   UNL A   1      36.684  30.127  28.713  1.00  0.00     0.198 A 
ATOM     70  F   UNL A   1      37.573  29.899  26.599  1.00  0.00    -0.203 F 
ATOM     71  F   UNL A   1      37.814  28.988  31.940  1.00  0.00    -0.200 F 
ATOM     72  C   UNL A   1      36.696  29.870  30.068  1.00  0.00     0.200 A 
ATOM     73  F   UNL A   1      35.597  30.663  28.140  1.00  0.00    -0.200 F 
ATOM     74  F   UNL A   1      35.611  30.130  30.809  1.00  0.00    -0.200 F 
ENDBRANCH  50  64
BRANCH  51  75
ATOM     75  C   UNL A   1      44.930  26.056  33.623  1.00  0.00     0.064 A 
ATOM     76  C   UNL A   1      46.223  26.015  34.162  1.00  0.00     0.173 A 
ATOM     77  C   UNL A   1      43.864  26.140  34.539  1.00  0.00     0.173 A 
ATOM     78  F   UNL A   1      47.289  25.964  33.350  1.00  0.00    -0.203 F 
ATOM     79  C   UNL A   1      46.442  26.099  35.541  1.00  0.00     0.198 A 
ATOM     80  C   UNL A   1      44.083  26.224  35.915  1.00  0.00     0.198 A 
ATOM     81  F   UNL A   1      42.597  26.243  34.110  1.00  0.00    -0.203 F 
ATOM     82  F   UNL A   1      47.694  26.126  36.018  1.00  0.00    -0.200 F 
ATOM     83  C   UNL A   1      45.373  26.221  36.414  1.00  0.00     0.200 A 
ATOM     84  F   UNL A   1      43.042  26.377  36.746  1.00  0.00    -0.200 F 
ATOM     85  F   UNL A   1      45.585  26.376  37.728  1.00  0.00    -0.200 F 
ENDBRANCH  51  75
BRANCH  63  86
ATOM     86  C   UNL A   1      45.724  28.586  27.900  1.00  0.00     0.064 A 
ATOM     87  C   UNL A   1      45.979  27.319  27.352  1.00  0.00     0.173 A 
ATOM     88  C   UNL A   1      46.719  29.560  27.764  1.00  0.00     0.173 A 
ATOM     89  F   UNL A   1      45.048  26.361  27.371  1.00  0.00    -0.203 F 
ATOM     90  C   UNL A   1      47.193  27.031  26.729  1.00  0.00     0.198 A 
ATOM     91  C   UNL A   1      47.918  29.281  27.114  1.00  0.00     0.198 A 
ATOM     92  F   UNL A   1      46.509  30.802  28.228  1.00  0.00    -0.203 F 
ATOM     93  F   UNL A   1      47.417  25.807  26.226  1.00  0.00    -0.200 F 
ATOM     94  C   UNL A   1      48.158  28.015  26.606  1.00  0.00     0.200 A 
ATOM     95  F   UNL A   1      48.831  30.249  26.961  1.00  0.00    -0.200 F 
ATOM     96  F   UNL A   1      49.313  27.750  25.978  1.00  0.00    -0.200 F 
ENDBRANCH  63  86
ENDBRANCH  37  38
ENDBRANCH  29  32
ENDBRANCH  27  28
ENDBRANCH  26  27
ENDBRANCH   1  26
TORSDOF 13
ENDMDL
