MODEL 1
REMARK VINA RESULT:     -12.8      0.000      0.000
REMARK SMILES CC(=O)N[C@H](CSCC(=O)Nc1ccc2c(c1)N1CC[NH+]=C1S2)C(=O)NCCCCNC(=O)c1ccc(-c2c3nc(c(-c4c(F)c(F)c(F)c(F)c4F)c4ccc([nH]4)c(-c4c(F)c(F)c(F)c(F)c4F)c4nc(c(-c5c(F)c(F)c(F)c(F)c5F)c5ccc2[nH]5)C=C4)C=C3)cc1
REMARK SMILES IDX 27 1 26 2 24 3 25 4 5 6 4 7 1 8 2 9 3 10 6 12 7 13 8 14 9 15
REMARK SMILES IDX 10 16 11 17 12 19 13 20 17 21 14 22 16 23 15 24 18 25 23 26
REMARK SMILES IDX 19 27 22 28 20 29 21 30 28 32 29 33 30 34 31 35 32 36 33 38
REMARK SMILES IDX 34 39 35 40 96 41 36 42 95 43 37 44 38 45 39 46 89 47 40 48
REMARK SMILES IDX 94 49 88 50 90 51 41 52 93 53 87 54 86 55 42 57 74 58 54 59
REMARK SMILES IDX 73 60 55 61 58 62 72 63 91 64 56 65 57 66 71 68 92 69 59 70
REMARK SMILES IDX 43 71 44 72 52 73 45 74 46 75 50 76 53 77 47 78 48 79 51 80
REMARK SMILES IDX 49 81 75 82 76 83 84 84 77 85 78 86 82 87 85 88 79 89 80 90
REMARK SMILES IDX 83 91 81 92 60 93 61 94 69 95 62 96 63 97 67 98 70 99 64 100
REMARK SMILES IDX 65 101 68 102 66 103
REMARK H PARENT 26 5 4 11 11 18 21 31 31 37 90 56 58 67
REMARK Flexibility Score: inf
ROOT
ATOM      1  C   UNL A   1      30.635  28.511  23.326  1.00  0.00     0.116 C 
ENDROOT
BRANCH   1   2
ATOM      2  N   UNL A   1      30.962  27.855  22.078  1.00  0.00    -0.354 N 
ATOM      3  C   UNL A   1      31.346  26.564  21.858  1.00  0.00     0.243 C 
ATOM      4  O   UNL A   1      31.732  26.273  20.723  1.00  0.00    -0.273 OA
ATOM      5  H   UNL A   1      30.900  28.419  21.274  1.00  0.00     0.163 HD
BRANCH   3   6
ATOM      6  C   UNL A   1      31.388  25.517  22.995  1.00  0.00     0.181 C 
BRANCH   6   7
ATOM      7  N   UNL A   1      31.747  24.172  22.537  1.00  0.00    -0.344 N 
ATOM      8  C   UNL A   1      34.159  24.334  23.035  1.00  0.00     0.114 C 
ATOM      9  C   UNL A   1      32.934  23.527  22.711  1.00  0.00     0.217 C 
ATOM     10  O   UNL A   1      32.980  22.309  22.548  1.00  0.00    -0.275 OA
ATOM     11  H   UNL A   1      31.050  23.679  22.047  1.00  0.00     0.164 HD
ENDBRANCH   6   7
BRANCH   6  12
ATOM     12  C   UNL A   1      30.050  25.560  23.760  1.00  0.00     0.105 C 
BRANCH  12  13
ATOM     13  S   UNL A   1      30.217  25.539  25.586  1.00  0.00    -0.149 SA
BRANCH  13  14
ATOM     14  C   UNL A   1      31.597  24.387  25.921  1.00  0.00     0.169 C 
BRANCH  14  15
ATOM     15  C   UNL A   1      31.372  23.277  26.922  1.00  0.00     0.234 C 
ATOM     16  O   UNL A   1      30.330  23.260  27.591  1.00  0.00    -0.274 OA
ATOM     17  N   UNL A   1      32.186  22.189  27.055  1.00  0.00    -0.325 N 
ATOM     18  H   UNL A   1      31.982  21.610  27.824  1.00  0.00     0.169 HD
BRANCH  17  19
ATOM     19  C   UNL A   1      33.265  21.772  26.270  1.00  0.00     0.045 A 
ATOM     20  C   UNL A   1      33.325  20.540  25.606  1.00  0.00     0.027 A 
ATOM     21  C   UNL A   1      34.355  22.648  26.236  1.00  0.00     0.079 A 
ATOM     22  C   UNL A   1      34.510  20.103  25.009  1.00  0.00     0.022 A 
ATOM     23  C   UNL A   1      35.549  22.196  25.713  1.00  0.00     0.144 A 
ATOM     24  C   UNL A   1      35.617  20.922  25.107  1.00  0.00     0.067 A 
ATOM     25  N   UNL A   1      36.771  22.801  25.812  1.00  0.00    -0.216 N 
ATOM     26  S   UNL A   1      37.318  20.546  24.654  1.00  0.00     0.002 SA
ATOM     27  C   UNL A   1      37.237  24.015  26.398  1.00  0.00     0.289 C 
ATOM     28  C   UNL A   1      37.824  22.030  25.430  1.00  0.00     0.316 C 
ATOM     29  C   UNL A   1      38.741  23.671  26.539  1.00  0.00     0.280 C 
ATOM     30  N   UNL A   1      39.026  22.430  25.721  1.00  0.00    -0.264 N 
ATOM     31  H   UNL A   1      39.891  22.030  25.476  1.00  0.00     0.305 HD
ENDBRANCH  17  19
ENDBRANCH  14  15
ENDBRANCH  13  14
ENDBRANCH  12  13
ENDBRANCH   6  12
ENDBRANCH   3   6
ENDBRANCH   1   2
BRANCH   1  32
ATOM     32  C   UNL A   1      31.911  28.928  24.066  1.00  0.00     0.023 C 
BRANCH  32  33
ATOM     33  C   UNL A   1      31.709  29.193  25.550  1.00  0.00     0.023 C 
BRANCH  33  34
ATOM     34  C   UNL A   1      32.866  29.903  26.243  1.00  0.00     0.116 C 
BRANCH  34  35
ATOM     35  N   UNL A   1      32.561  31.232  26.757  1.00  0.00    -0.352 N 
ATOM     36  C   UNL A   1      33.394  32.067  27.484  1.00  0.00     0.251 C 
ATOM     37  H   UNL A   1      31.658  31.577  26.566  1.00  0.00     0.163 HD
ATOM     38  O   UNL A   1      32.987  33.119  27.954  1.00  0.00    -0.269 OA
BRANCH  36  39
ATOM     39  C   UNL A   1      34.788  31.619  27.726  1.00  0.00     0.039 A 
ATOM     40  C   UNL A   1      35.043  30.267  27.952  1.00  0.00     0.014 A 
ATOM     41  C   UNL A   1      35.804  32.564  27.886  1.00  0.00     0.014 A 
ATOM     42  C   UNL A   1      36.220  29.897  28.588  1.00  0.00     0.010 A 
ATOM     43  C   UNL A   1      37.038  32.165  28.416  1.00  0.00     0.010 A 
ATOM     44  C   UNL A   1      37.225  30.844  28.855  1.00  0.00    -0.014 A 
BRANCH  44  45
ATOM     45  C   UNL A   1      38.418  30.426  29.645  1.00  0.00     0.031 A 
ATOM     46  C   UNL A   1      38.567  30.820  31.095  1.00  0.00     0.074 A 
ATOM     47  C   UNL A   1      39.319  29.593  29.089  1.00  0.00     0.049 A 
ATOM     48  N   UNL A   1      39.516  30.502  31.944  1.00  0.00    -0.248 NA
ATOM     49  C   UNL A   1      37.525  31.684  31.672  1.00  0.00     0.031 C 
ATOM     50  C   UNL A   1      39.276  29.115  27.706  1.00  0.00     0.029 A 
ATOM     51  N   UNL A   1      40.412  28.958  29.625  1.00  0.00    -0.354 N 
ATOM     52  C   UNL A   1      39.201  31.148  33.133  1.00  0.00     0.074 A 
ATOM     53  C   UNL A   1      37.984  31.893  32.898  1.00  0.00     0.031 C 
ATOM     54  C   UNL A   1      40.239  28.200  27.528  1.00  0.00     0.029 A 
ATOM     55  C   UNL A   1      41.016  28.082  28.757  1.00  0.00     0.049 A 
ATOM     56  H   UNL A   1      40.731  29.117  30.543  1.00  0.00     0.167 HD
ATOM     57  C   UNL A   1      39.860  31.114  34.316  1.00  0.00     0.037 A 
ATOM     58  C   UNL A   1      42.082  27.276  28.924  1.00  0.00     0.037 A 
ATOM     59  C   UNL A   1      41.044  30.337  34.569  1.00  0.00     0.049 A 
ATOM     60  C   UNL A   1      42.805  27.275  30.238  1.00  0.00     0.074 A 
ATOM     61  C   UNL A   1      41.773  30.232  35.743  1.00  0.00     0.029 A 
ATOM     62  N   UNL A   1      41.667  29.518  33.640  1.00  0.00    -0.354 N 
ATOM     63  N   UNL A   1      42.510  27.916  31.342  1.00  0.00    -0.248 NA
ATOM     64  C   UNL A   1      44.020  26.453  30.325  1.00  0.00     0.031 C 
ATOM     65  C   UNL A   1      42.854  29.375  35.514  1.00  0.00     0.029 A 
ATOM     66  C   UNL A   1      42.777  28.915  34.210  1.00  0.00     0.049 A 
ATOM     67  H   UNL A   1      41.365  29.385  32.712  1.00  0.00     0.167 HD
ATOM     68  C   UNL A   1      43.497  27.574  32.254  1.00  0.00     0.074 A 
ATOM     69  C   UNL A   1      44.389  26.651  31.583  1.00  0.00     0.031 C 
ATOM     70  C   UNL A   1      43.654  27.998  33.531  1.00  0.00     0.037 A 
BRANCH  57  71
ATOM     71  C   UNL A   1      39.327  31.948  35.445  1.00  0.00     0.064 A 
ATOM     72  C   UNL A   1      38.451  31.416  36.403  1.00  0.00     0.173 A 
ATOM     73  C   UNL A   1      39.763  33.271  35.618  1.00  0.00     0.173 A 
ATOM     74  F   UNL A   1      37.996  30.161  36.277  1.00  0.00    -0.203 F 
ATOM     75  C   UNL A   1      38.026  32.181  37.487  1.00  0.00     0.198 A 
ATOM     76  C   UNL A   1      39.354  34.024  36.715  1.00  0.00     0.198 A 
ATOM     77  F   UNL A   1      40.607  33.824  34.734  1.00  0.00    -0.203 F 
ATOM     78  F   UNL A   1      37.168  31.660  38.376  1.00  0.00    -0.200 F 
ATOM     79  C   UNL A   1      38.484  33.480  37.647  1.00  0.00     0.200 A 
ATOM     80  F   UNL A   1      39.808  35.276  36.874  1.00  0.00    -0.200 F 
ATOM     81  F   UNL A   1      38.085  34.209  38.699  1.00  0.00    -0.200 F 
ENDBRANCH  57  71
BRANCH  58  82
ATOM     82  C   UNL A   1      42.516  26.403  27.805  1.00  0.00     0.064 A 
ATOM     83  C   UNL A   1      43.417  26.869  26.839  1.00  0.00     0.173 A 
ATOM     84  C   UNL A   1      42.077  25.075  27.704  1.00  0.00     0.173 A 
ATOM     85  F   UNL A   1      43.849  28.139  26.883  1.00  0.00    -0.203 F 
ATOM     86  C   UNL A   1      43.866  26.037  25.815  1.00  0.00     0.198 A 
ATOM     87  C   UNL A   1      42.548  24.236  26.697  1.00  0.00     0.198 A 
ATOM     88  F   UNL A   1      41.216  24.583  28.607  1.00  0.00    -0.203 F 
ATOM     89  F   UNL A   1      44.713  26.512  24.891  1.00  0.00    -0.200 F 
ATOM     90  C   UNL A   1      43.440  24.719  25.752  1.00  0.00     0.200 A 
ATOM     91  F   UNL A   1      42.146  22.959  26.651  1.00  0.00    -0.200 F 
ATOM     92  F   UNL A   1      43.888  23.913  24.780  1.00  0.00    -0.200 F 
ENDBRANCH  58  82
BRANCH  70  93
ATOM     93  C   UNL A   1      44.826  27.465  34.298  1.00  0.00     0.064 A 
ATOM     94  C   UNL A   1      46.039  28.166  34.350  1.00  0.00     0.173 A 
ATOM     95  C   UNL A   1      44.712  26.283  35.043  1.00  0.00     0.173 A 
ATOM     96  F   UNL A   1      46.197  29.296  33.643  1.00  0.00    -0.203 F 
ATOM     97  C   UNL A   1      47.102  27.696  35.116  1.00  0.00     0.198 A 
ATOM     98  C   UNL A   1      45.770  25.826  35.824  1.00  0.00     0.198 A 
ATOM     99  F   UNL A   1      43.568  25.582  35.028  1.00  0.00    -0.203 F 
ATOM    100  F   UNL A   1      48.262  28.367  35.133  1.00  0.00    -0.200 F 
ATOM    101  C   UNL A   1      46.964  26.532  35.858  1.00  0.00     0.200 A 
ATOM    102  F   UNL A   1      45.631  24.708  36.550  1.00  0.00    -0.200 F 
ATOM    103  F   UNL A   1      47.984  26.088  36.605  1.00  0.00    -0.200 F 
ENDBRANCH  70  93
ENDBRANCH  44  45
ENDBRANCH  36  39
ENDBRANCH  34  35
ENDBRANCH  33  34
ENDBRANCH  32  33
ENDBRANCH   1  32
TORSDOF 17
ENDMDL
MODEL 2
REMARK VINA RESULT:     -12.7      0.419      7.204
REMARK SMILES CC(=O)N[C@H](CSCC(=O)Nc1ccc2c(c1)N1CC[NH+]=C1S2)C(=O)NCCCCNC(=O)c1ccc(-c2c3nc(c(-c4c(F)c(F)c(F)c(F)c4F)c4ccc([nH]4)c(-c4c(F)c(F)c(F)c(F)c4F)c4nc(c(-c5c(F)c(F)c(F)c(F)c5F)c5ccc2[nH]5)C=C4)C=C3)cc1
REMARK SMILES IDX 27 1 26 2 24 3 25 4 5 6 4 7 1 8 2 9 3 10 6 12 7 13 8 14 9 15
REMARK SMILES IDX 10 16 11 17 12 19 13 20 17 21 14 22 16 23 15 24 18 25 23 26
REMARK SMILES IDX 19 27 22 28 20 29 21 30 28 32 29 33 30 34 31 35 32 36 33 38
REMARK SMILES IDX 34 39 35 40 96 41 36 42 95 43 37 44 38 45 39 46 89 47 40 48
REMARK SMILES IDX 94 49 88 50 90 51 41 52 93 53 87 54 86 55 42 57 74 58 54 59
REMARK SMILES IDX 73 60 55 61 58 62 72 63 91 64 56 65 57 66 71 68 92 69 59 70
REMARK SMILES IDX 43 71 44 72 52 73 45 74 46 75 50 76 53 77 47 78 48 79 51 80
REMARK SMILES IDX 49 81 75 82 76 83 84 84 77 85 78 86 82 87 85 88 79 89 80 90
REMARK SMILES IDX 83 91 81 92 60 93 61 94 69 95 62 96 63 97 67 98 70 99 64 100
REMARK SMILES IDX 65 101 68 102 66 103
REMARK H PARENT 26 5 4 11 11 18 21 31 31 37 90 56 58 67
REMARK Flexibility Score: inf
ROOT
ATOM      1  C   UNL A   1      31.417  28.364  23.037  1.00  0.00     0.116 C 
ENDROOT
BRANCH   1   2
ATOM      2  N   UNL A   1      32.154  27.716  21.974  1.00  0.00    -0.354 N 
ATOM      3  C   UNL A   1      32.502  26.403  21.842  1.00  0.00     0.243 C 
ATOM      4  O   UNL A   1      33.274  26.110  20.926  1.00  0.00    -0.273 OA
ATOM      5  H   UNL A   1      32.446  28.305  21.241  1.00  0.00     0.163 HD
BRANCH   3   6
ATOM      6  C   UNL A   1      32.028  25.326  22.846  1.00  0.00     0.181 C 
BRANCH   6   7
ATOM      7  N   UNL A   1      31.964  23.980  22.270  1.00  0.00    -0.344 N 
ATOM      8  C   UNL A   1      34.294  23.341  22.774  1.00  0.00     0.114 C 
ATOM      9  C   UNL A   1      32.887  22.986  22.382  1.00  0.00     0.217 C 
ATOM     10  O   UNL A   1      32.557  21.832  22.113  1.00  0.00    -0.275 OA
ATOM     11  H   UNL A   1      31.160  23.772  21.740  1.00  0.00     0.164 HD
ENDBRANCH   6   7
BRANCH   6  12
ATOM     12  C   UNL A   1      30.696  25.782  23.473  1.00  0.00     0.105 C 
BRANCH  12  13
ATOM     13  S   UNL A   1      30.531  25.413  25.261  1.00  0.00    -0.149 SA
BRANCH  13  14
ATOM     14  C   UNL A   1      30.908  23.630  25.412  1.00  0.00     0.169 C 
BRANCH  14  15
ATOM     15  C   UNL A   1      31.149  23.067  26.795  1.00  0.00     0.234 C 
ATOM     16  O   UNL A   1      30.246  23.119  27.641  1.00  0.00    -0.274 OA
ATOM     17  N   UNL A   1      32.265  22.369  27.154  1.00  0.00    -0.325 N 
ATOM     18  H   UNL A   1      32.337  22.168  28.114  1.00  0.00     0.169 HD
BRANCH  17  19
ATOM     19  C   UNL A   1      33.322  21.898  26.370  1.00  0.00     0.045 A 
ATOM     20  C   UNL A   1      33.333  20.652  25.729  1.00  0.00     0.027 A 
ATOM     21  C   UNL A   1      34.443  22.734  26.311  1.00  0.00     0.079 A 
ATOM     22  C   UNL A   1      34.498  20.162  25.132  1.00  0.00     0.022 A 
ATOM     23  C   UNL A   1      35.616  22.229  25.788  1.00  0.00     0.144 A 
ATOM     24  C   UNL A   1      35.634  20.942  25.206  1.00  0.00     0.067 A 
ATOM     25  N   UNL A   1      36.859  22.792  25.866  1.00  0.00    -0.216 N 
ATOM     26  S   UNL A   1      37.316  20.496  24.749  1.00  0.00     0.002 SA
ATOM     27  C   UNL A   1      37.373  23.999  26.425  1.00  0.00     0.289 C 
ATOM     28  C   UNL A   1      37.881  21.976  25.492  1.00  0.00     0.316 C 
ATOM     29  C   UNL A   1      38.865  23.604  26.563  1.00  0.00     0.280 C 
ATOM     30  N   UNL A   1      39.099  22.338  25.767  1.00  0.00    -0.264 N 
ATOM     31  H   UNL A   1      39.947  21.903  25.524  1.00  0.00     0.305 HD
ENDBRANCH  17  19
ENDBRANCH  14  15
ENDBRANCH  13  14
ENDBRANCH  12  13
ENDBRANCH   6  12
ENDBRANCH   3   6
ENDBRANCH   1   2
BRANCH   1  32
ATOM     32  C   UNL A   1      32.377  28.936  24.087  1.00  0.00     0.023 C 
BRANCH  32  33
ATOM     33  C   UNL A   1      31.690  29.462  25.337  1.00  0.00     0.023 C 
BRANCH  33  34
ATOM     34  C   UNL A   1      32.628  29.953  26.433  1.00  0.00     0.116 C 
BRANCH  34  35
ATOM     35  N   UNL A   1      32.459  31.349  26.817  1.00  0.00    -0.352 N 
ATOM     36  C   UNL A   1      33.368  32.158  27.480  1.00  0.00     0.251 C 
ATOM     37  H   UNL A   1      31.598  31.765  26.580  1.00  0.00     0.163 HD
ATOM     38  O   UNL A   1      33.068  33.285  27.843  1.00  0.00    -0.269 OA
BRANCH  36  39
ATOM     39  C   UNL A   1      34.705  31.593  27.787  1.00  0.00     0.039 A 
ATOM     40  C   UNL A   1      34.832  30.226  28.033  1.00  0.00     0.014 A 
ATOM     41  C   UNL A   1      35.791  32.448  27.986  1.00  0.00     0.014 A 
ATOM     42  C   UNL A   1      35.943  29.762  28.723  1.00  0.00     0.010 A 
ATOM     43  C   UNL A   1      36.961  31.949  28.574  1.00  0.00     0.010 A 
ATOM     44  C   UNL A   1      37.013  30.622  29.029  1.00  0.00    -0.014 A 
BRANCH  44  45
ATOM     45  C   UNL A   1      38.130  30.110  29.874  1.00  0.00     0.031 A 
ATOM     46  C   UNL A   1      39.211  29.234  29.288  1.00  0.00     0.074 A 
ATOM     47  C   UNL A   1      38.235  30.527  31.151  1.00  0.00     0.049 A 
ATOM     48  N   UNL A   1      40.281  28.742  29.867  1.00  0.00    -0.248 NA
ATOM     49  C   UNL A   1      39.080  28.855  27.872  1.00  0.00     0.031 C 
ATOM     50  C   UNL A   1      37.273  31.396  31.831  1.00  0.00     0.029 A 
ATOM     51  N   UNL A   1      39.218  30.324  32.087  1.00  0.00    -0.354 N 
ATOM     52  C   UNL A   1      40.924  27.978  28.902  1.00  0.00     0.074 A 
ATOM     53  C   UNL A   1      40.121  28.051  27.702  1.00  0.00     0.031 C 
ATOM     54  C   UNL A   1      37.753  31.722  33.039  1.00  0.00     0.029 A 
ATOM     55  C   UNL A   1      39.018  31.025  33.252  1.00  0.00     0.049 A 
ATOM     56  H   UNL A   1      39.991  29.733  31.939  1.00  0.00     0.167 HD
ATOM     57  C   UNL A   1      42.085  27.287  29.003  1.00  0.00     0.037 A 
ATOM     58  C   UNL A   1      39.761  31.097  34.372  1.00  0.00     0.037 A 
ATOM     59  C   UNL A   1      42.913  27.249  30.180  1.00  0.00     0.049 A 
ATOM     60  C   UNL A   1      41.031  30.305  34.465  1.00  0.00     0.074 A 
ATOM     61  C   UNL A   1      44.113  26.584  30.369  1.00  0.00     0.029 A 
ATOM     62  N   UNL A   1      42.635  27.916  31.364  1.00  0.00    -0.354 N 
ATOM     63  N   UNL A   1      41.609  29.563  33.552  1.00  0.00    -0.248 NA
ATOM     64  C   UNL A   1      41.744  30.344  35.749  1.00  0.00     0.031 C 
ATOM     65  C   UNL A   1      44.546  26.823  31.677  1.00  0.00     0.029 A 
ATOM     66  C   UNL A   1      43.635  27.667  32.291  1.00  0.00     0.049 A 
ATOM     67  H   UNL A   1      41.845  28.481  31.522  1.00  0.00     0.167 HD
ATOM     68  C   UNL A   1      42.751  29.050  34.147  1.00  0.00     0.074 A 
ATOM     69  C   UNL A   1      42.800  29.582  35.494  1.00  0.00     0.031 C 
ATOM     70  C   UNL A   1      43.671  28.205  33.626  1.00  0.00     0.037 A 
BRANCH  57  71
ATOM     71  C   UNL A   1      42.543  26.497  27.811  1.00  0.00     0.064 A 
ATOM     72  C   UNL A   1      43.409  27.047  26.854  1.00  0.00     0.173 A 
ATOM     73  C   UNL A   1      42.178  25.150  27.669  1.00  0.00     0.173 A 
ATOM     74  F   UNL A   1      43.778  28.333  26.938  1.00  0.00    -0.203 F 
ATOM     75  C   UNL A   1      43.886  26.277  25.795  1.00  0.00     0.198 A 
ATOM     76  C   UNL A   1      42.675  24.378  26.623  1.00  0.00     0.198 A 
ATOM     77  F   UNL A   1      41.359  24.574  28.562  1.00  0.00    -0.203 F 
ATOM     78  F   UNL A   1      44.691  26.831  24.877  1.00  0.00    -0.200 F 
ATOM     79  C   UNL A   1      43.525  24.943  25.684  1.00  0.00     0.200 A 
ATOM     80  F   UNL A   1      42.335  23.085  26.525  1.00  0.00    -0.200 F 
ATOM     81  F   UNL A   1      43.997  24.201  24.673  1.00  0.00    -0.200 F 
ENDBRANCH  57  71
BRANCH  58  82
ATOM     82  C   UNL A   1      39.310  31.963  35.490  1.00  0.00     0.064 A 
ATOM     83  C   UNL A   1      38.444  31.471  36.475  1.00  0.00     0.173 A 
ATOM     84  C   UNL A   1      39.770  33.282  35.623  1.00  0.00     0.173 A 
ATOM     85  F   UNL A   1      37.962  30.222  36.380  1.00  0.00    -0.203 F 
ATOM     86  C   UNL A   1      38.058  32.264  37.554  1.00  0.00     0.198 A 
ATOM     87  C   UNL A   1      39.405  34.064  36.715  1.00  0.00     0.198 A 
ATOM     88  F   UNL A   1      40.603  33.797  34.706  1.00  0.00    -0.203 F 
ATOM     89  F   UNL A   1      37.212  31.777  38.472  1.00  0.00    -0.200 F 
ATOM     90  C   UNL A   1      38.547  33.555  37.678  1.00  0.00     0.200 A 
ATOM     91  F   UNL A   1      39.896  35.305  36.840  1.00  0.00    -0.200 F 
ATOM     92  F   UNL A   1      38.193  34.311  38.726  1.00  0.00    -0.200 F 
ENDBRANCH  58  82
BRANCH  70  93
ATOM     93  C   UNL A   1      44.818  27.804  34.502  1.00  0.00     0.064 A 
ATOM     94  C   UNL A   1      44.764  26.641  35.284  1.00  0.00     0.173 A 
ATOM     95  C   UNL A   1      46.007  28.549  34.505  1.00  0.00     0.173 A 
ATOM     96  F   UNL A   1      43.643  25.905  35.321  1.00  0.00    -0.203 F 
ATOM     97  C   UNL A   1      45.857  26.242  36.047  1.00  0.00     0.198 A 
ATOM     98  C   UNL A   1      47.106  28.136  35.254  1.00  0.00     0.198 A 
ATOM     99  F   UNL A   1      46.107  29.664  33.768  1.00  0.00    -0.203 F 
ATOM    100  F   UNL A   1      45.777  25.142  36.808  1.00  0.00    -0.200 F 
ATOM    101  C   UNL A   1      47.030  26.985  36.024  1.00  0.00     0.200 A 
ATOM    102  F   UNL A   1      48.241  28.847  35.222  1.00  0.00    -0.200 F 
ATOM    103  F   UNL A   1      48.086  26.592  36.750  1.00  0.00    -0.200 F 
ENDBRANCH  70  93
ENDBRANCH  44  45
ENDBRANCH  36  39
ENDBRANCH  34  35
ENDBRANCH  33  34
ENDBRANCH  32  33
ENDBRANCH   1  32
TORSDOF 17
ENDMDL
MODEL 3
REMARK VINA RESULT:     -12.4      4.233      7.808
REMARK SMILES CC(=O)N[C@H](CSCC(=O)Nc1ccc2c(c1)N1CC[NH+]=C1S2)C(=O)NCCCCNC(=O)c1ccc(-c2c3nc(c(-c4c(F)c(F)c(F)c(F)c4F)c4ccc([nH]4)c(-c4c(F)c(F)c(F)c(F)c4F)c4nc(c(-c5c(F)c(F)c(F)c(F)c5F)c5ccc2[nH]5)C=C4)C=C3)cc1
REMARK SMILES IDX 27 1 26 2 24 3 25 4 5 6 4 7 1 8 2 9 3 10 6 12 7 13 8 14 9 15
REMARK SMILES IDX 10 16 11 17 12 19 13 20 17 21 14 22 16 23 15 24 18 25 23 26
REMARK SMILES IDX 19 27 22 28 20 29 21 30 28 32 29 33 30 34 31 35 32 36 33 38
REMARK SMILES IDX 34 39 35 40 96 41 36 42 95 43 37 44 38 45 39 46 89 47 40 48
REMARK SMILES IDX 94 49 88 50 90 51 41 52 93 53 87 54 86 55 42 57 74 58 54 59
REMARK SMILES IDX 73 60 55 61 58 62 72 63 91 64 56 65 57 66 71 68 92 69 59 70
REMARK SMILES IDX 43 71 44 72 52 73 45 74 46 75 50 76 53 77 47 78 48 79 51 80
REMARK SMILES IDX 49 81 75 82 76 83 84 84 77 85 78 86 82 87 85 88 79 89 80 90
REMARK SMILES IDX 83 91 81 92 60 93 61 94 69 95 62 96 63 97 67 98 70 99 64 100
REMARK SMILES IDX 65 101 68 102 66 103
REMARK H PARENT 26 5 4 11 11 18 21 31 31 37 90 56 58 67
REMARK Flexibility Score: inf
ROOT
ATOM      1  C   UNL A   1      37.424  21.900  25.188  1.00  0.00     0.116 C 
ENDROOT
BRANCH   1   2
ATOM      2  N   UNL A   1      36.936  22.919  24.284  1.00  0.00    -0.354 N 
ATOM      3  C   UNL A   1      35.650  23.256  23.977  1.00  0.00     0.243 C 
ATOM      4  O   UNL A   1      35.478  24.052  23.051  1.00  0.00    -0.273 OA
ATOM      5  H   UNL A   1      37.631  23.445  23.824  1.00  0.00     0.163 HD
BRANCH   3   6
ATOM      6  C   UNL A   1      34.442  22.606  24.690  1.00  0.00     0.181 C 
BRANCH   6   7
ATOM      7  N   UNL A   1      33.619  21.777  23.806  1.00  0.00    -0.344 N 
ATOM      8  C   UNL A   1      33.604  19.763  25.233  1.00  0.00     0.114 C 
ATOM      9  C   UNL A   1      33.058  20.568  24.088  1.00  0.00     0.217 C 
ATOM     10  O   UNL A   1      32.153  20.148  23.369  1.00  0.00    -0.275 OA
ATOM     11  H   UNL A   1      33.453  22.134  22.904  1.00  0.00     0.164 HD
ENDBRANCH   6   7
BRANCH   6  12
ATOM     12  C   UNL A   1      33.638  23.707  25.410  1.00  0.00     0.105 C 
BRANCH  12  13
ATOM     13  S   UNL A   1      32.774  23.150  26.927  1.00  0.00    -0.149 SA
BRANCH  13  14
ATOM     14  C   UNL A   1      31.134  22.579  26.355  1.00  0.00     0.169 C 
BRANCH  14  15
ATOM     15  C   UNL A   1      29.908  23.291  26.880  1.00  0.00     0.234 C 
ATOM     16  O   UNL A   1      29.267  22.793  27.817  1.00  0.00    -0.274 OA
ATOM     17  N   UNL A   1      29.517  24.537  26.484  1.00  0.00    -0.325 N 
ATOM     18  H   UNL A   1      28.638  24.823  26.822  1.00  0.00     0.169 HD
BRANCH  17  19
ATOM     19  C   UNL A   1      30.169  25.468  25.671  1.00  0.00     0.045 A 
ATOM     20  C   UNL A   1      30.264  25.367  24.277  1.00  0.00     0.027 A 
ATOM     21  C   UNL A   1      30.810  26.510  26.349  1.00  0.00     0.079 A 
ATOM     22  C   UNL A   1      31.100  26.219  23.550  1.00  0.00     0.022 A 
ATOM     23  C   UNL A   1      31.692  27.309  25.651  1.00  0.00     0.144 A 
ATOM     24  C   UNL A   1      31.833  27.152  24.255  1.00  0.00     0.067 A 
ATOM     25  N   UNL A   1      32.583  28.203  26.176  1.00  0.00    -0.216 N 
ATOM     26  S   UNL A   1      33.149  28.218  23.645  1.00  0.00     0.002 SA
ATOM     27  C   UNL A   1      32.896  28.638  27.497  1.00  0.00     0.289 C 
ATOM     28  C   UNL A   1      33.506  28.675  25.295  1.00  0.00     0.316 C 
ATOM     29  C   UNL A   1      34.318  29.204  27.251  1.00  0.00     0.280 C 
ATOM     30  N   UNL A   1      34.530  29.328  25.758  1.00  0.00    -0.264 N 
ATOM     31  H   UNL A   1      35.253  29.781  25.267  1.00  0.00     0.305 HD
ENDBRANCH  17  19
ENDBRANCH  14  15
ENDBRANCH  13  14
ENDBRANCH  12  13
ENDBRANCH   6  12
ENDBRANCH   3   6
ENDBRANCH   1   2
BRANCH   1  32
ATOM     32  C   UNL A   1      37.144  20.502  24.625  1.00  0.00     0.023 C 
BRANCH  32  33
ATOM     33  C   UNL A   1      38.255  19.496  24.880  1.00  0.00     0.023 C 
BRANCH  33  34
ATOM     34  C   UNL A   1      39.086  19.754  26.131  1.00  0.00     0.116 C 
BRANCH  34  35
ATOM     35  N   UNL A   1      40.423  19.173  26.120  1.00  0.00    -0.352 N 
ATOM     36  C   UNL A   1      41.622  19.808  26.403  1.00  0.00     0.251 C 
ATOM     37  H   UNL A   1      40.482  18.218  25.882  1.00  0.00     0.163 HD
ATOM     38  O   UNL A   1      42.693  19.238  26.254  1.00  0.00    -0.269 OA
BRANCH  36  39
ATOM     39  C   UNL A   1      41.571  21.225  26.840  1.00  0.00     0.039 A 
ATOM     40  C   UNL A   1      40.986  22.178  26.007  1.00  0.00     0.014 A 
ATOM     41  C   UNL A   1      42.246  21.619  27.998  1.00  0.00     0.014 A 
ATOM     42  C   UNL A   1      41.303  23.518  26.185  1.00  0.00     0.010 A 
ATOM     43  C   UNL A   1      42.459  22.982  28.239  1.00  0.00     0.010 A 
ATOM     44  C   UNL A   1      42.067  23.939  27.288  1.00  0.00    -0.014 A 
BRANCH  44  45
ATOM     45  C   UNL A   1      42.483  25.368  27.374  1.00  0.00     0.031 A 
ATOM     46  C   UNL A   1      41.675  26.366  28.169  1.00  0.00     0.074 A 
ATOM     47  C   UNL A   1      43.654  25.748  26.827  1.00  0.00     0.049 A 
ATOM     48  N   UNL A   1      41.919  27.636  28.390  1.00  0.00    -0.248 NA
ATOM     49  C   UNL A   1      40.434  25.885  28.796  1.00  0.00     0.031 C 
ATOM     50  C   UNL A   1      44.542  24.876  26.057  1.00  0.00     0.029 A 
ATOM     51  N   UNL A   1      44.326  26.944  26.878  1.00  0.00    -0.354 N 
ATOM     52  C   UNL A   1      40.853  28.106  29.148  1.00  0.00     0.074 A 
ATOM     53  C   UNL A   1      39.948  26.994  29.336  1.00  0.00     0.031 C 
ATOM     54  C   UNL A   1      45.676  25.535  25.783  1.00  0.00     0.029 A 
ATOM     55  C   UNL A   1      45.566  26.900  26.288  1.00  0.00     0.049 A 
ATOM     56  H   UNL A   1      43.955  27.755  27.295  1.00  0.00     0.167 HD
ATOM     57  C   UNL A   1      40.653  29.348  29.650  1.00  0.00     0.037 A 
ATOM     58  C   UNL A   1      46.511  27.850  26.159  1.00  0.00     0.037 A 
ATOM     59  C   UNL A   1      41.573  30.446  29.505  1.00  0.00     0.049 A 
ATOM     60  C   UNL A   1      46.254  29.223  26.707  1.00  0.00     0.074 A 
ATOM     61  C   UNL A   1      41.458  31.738  29.992  1.00  0.00     0.029 A 
ATOM     62  N   UNL A   1      42.786  30.378  28.838  1.00  0.00    -0.354 N 
ATOM     63  N   UNL A   1      45.226  29.657  27.394  1.00  0.00    -0.248 NA
ATOM     64  C   UNL A   1      47.278  30.244  26.445  1.00  0.00     0.031 C 
ATOM     65  C   UNL A   1      42.587  32.460  29.592  1.00  0.00     0.029 A 
ATOM     66  C   UNL A   1      43.422  31.608  28.889  1.00  0.00     0.049 A 
ATOM     67  H   UNL A   1      43.142  29.575  28.393  1.00  0.00     0.167 HD
ATOM     68  C   UNL A   1      45.479  30.997  27.649  1.00  0.00     0.074 A 
ATOM     69  C   UNL A   1      46.768  31.301  27.063  1.00  0.00     0.031 C 
ATOM     70  C   UNL A   1      44.706  31.895  28.303  1.00  0.00     0.037 A 
BRANCH  57  71
ATOM     71  C   UNL A   1      39.381  29.608  30.405  1.00  0.00     0.064 A 
ATOM     72  C   UNL A   1      39.329  29.530  31.804  1.00  0.00     0.173 A 
ATOM     73  C   UNL A   1      38.225  30.021  29.726  1.00  0.00     0.173 A 
ATOM     74  F   UNL A   1      40.404  29.130  32.499  1.00  0.00    -0.203 F 
ATOM     75  C   UNL A   1      38.161  29.849  32.495  1.00  0.00     0.198 A 
ATOM     76  C   UNL A   1      37.067  30.360  30.421  1.00  0.00     0.198 A 
ATOM     77  F   UNL A   1      38.225  30.119  28.388  1.00  0.00    -0.203 F 
ATOM     78  F   UNL A   1      38.125  29.742  33.831  1.00  0.00    -0.200 F 
ATOM     79  C   UNL A   1      37.035  30.271  31.805  1.00  0.00     0.200 A 
ATOM     80  F   UNL A   1      35.984  30.780  29.752  1.00  0.00    -0.200 F 
ATOM     81  F   UNL A   1      35.918  30.591  32.472  1.00  0.00    -0.200 F 
ENDBRANCH  57  71
BRANCH  58  82
ATOM     82  C   UNL A   1      47.790  27.518  25.482  1.00  0.00     0.064 A 
ATOM     83  C   UNL A   1      47.897  27.570  24.086  1.00  0.00     0.173 A 
ATOM     84  C   UNL A   1      48.939  27.188  26.216  1.00  0.00     0.173 A 
ATOM     85  F   UNL A   1      46.820  27.861  23.342  1.00  0.00    -0.203 F 
ATOM     86  C   UNL A   1      49.109  27.308  23.450  1.00  0.00     0.198 A 
ATOM     87  C   UNL A   1      50.155  26.954  25.580  1.00  0.00     0.198 A 
ATOM     88  F   UNL A   1      48.886  27.129  27.555  1.00  0.00    -0.203 F 
ATOM     89  F   UNL A   1      49.181  27.344  22.112  1.00  0.00    -0.200 F 
ATOM     90  C   UNL A   1      50.238  27.011  24.197  1.00  0.00     0.200 A 
ATOM     91  F   UNL A   1      51.247  26.686  26.308  1.00  0.00    -0.200 F 
ATOM     92  F   UNL A   1      51.408  26.780  23.586  1.00  0.00    -0.200 F 
ENDBRANCH  58  82
BRANCH  70  93
ATOM     93  C   UNL A   1      45.227  33.293  28.432  1.00  0.00     0.064 A 
ATOM     94  C   UNL A   1      44.895  34.283  27.496  1.00  0.00     0.173 A 
ATOM     95  C   UNL A   1      46.007  33.664  29.538  1.00  0.00     0.173 A 
ATOM     96  F   UNL A   1      44.161  33.971  26.416  1.00  0.00    -0.203 F 
ATOM     97  C   UNL A   1      45.332  35.594  27.658  1.00  0.00     0.198 A 
ATOM     98  C   UNL A   1      46.426  34.981  29.707  1.00  0.00     0.198 A 
ATOM     99  F   UNL A   1      46.345  32.753  30.462  1.00  0.00    -0.203 F 
ATOM    100  F   UNL A   1      45.025  36.520  26.738  1.00  0.00    -0.200 F 
ATOM    101  C   UNL A   1      46.090  35.944  28.766  1.00  0.00     0.200 A 
ATOM    102  F   UNL A   1      47.148  35.319  30.784  1.00  0.00    -0.200 F 
ATOM    103  F   UNL A   1      46.500  37.210  28.927  1.00  0.00    -0.200 F 
ENDBRANCH  70  93
ENDBRANCH  44  45
ENDBRANCH  36  39
ENDBRANCH  34  35
ENDBRANCH  33  34
ENDBRANCH  32  33
ENDBRANCH   1  32
TORSDOF 17
ENDMDL
