MODEL 1
REMARK VINA RESULT:     -11.9      0.000      0.000
REMARK SMILES COc1ccccc1N1CC[NH+]([C@@H](C(=O)NCCCCNC(=O)c2ccc(-c3c4nc(c(-c5c(F)c(F)c(F)c(F)c5F)c5ccc([nH]5)c(-c5c(F)c(F)c(F)c(F)c5F)c5nc(c(-c6c(F)c(F)c(F)c(F)c6F)c6ccc3[nH]6)C=C5)C=C4)cc2)c2c[nH]c3ccc(OCC#N)cc23)CC1
REMARK SMILES IDX 17 1 16 2 14 3 15 4 13 6 12 7 9 8 10 9 101 10 11 11 100 12
REMARK SMILES IDX 8 14 3 15 4 16 5 17 7 18 6 19 2 20 1 21 87 22 88 23 99 24
REMARK SMILES IDX 89 25 90 26 98 27 91 29 93 30 92 31 94 32 95 33 96 34 97 35
REMARK SMILES IDX 18 36 19 37 20 38 21 39 22 40 23 42 24 43 25 44 86 45 26 46
REMARK SMILES IDX 85 47 27 48 28 49 29 50 79 51 30 52 84 53 78 54 80 55 31 56
REMARK SMILES IDX 83 57 77 58 76 59 32 61 64 62 44 63 63 64 45 65 48 66 62 67
REMARK SMILES IDX 81 68 46 69 47 70 61 72 82 73 49 74 33 75 34 76 42 77 35 78
REMARK SMILES IDX 36 79 40 80 43 81 37 82 38 83 41 84 39 85 65 86 66 87 74 88
REMARK SMILES IDX 67 89 68 90 72 91 75 92 69 93 70 94 73 95 71 96 50 97 51 98
REMARK SMILES IDX 59 99 52 100 53 101 57 102 60 103 54 104 55 105 58 106
REMARK SMILES IDX 56 107
REMARK H PARENT 16 5 12 13 89 28 21 41 80 60 48 71
REMARK Flexibility Score: inf
ROOT
ATOM      1  C   UNL A   1      37.319  23.088  25.101  1.00  0.00     0.116 C 
ENDROOT
BRANCH   1   2
ATOM      2  N   UNL A   1      36.317  23.443  24.053  1.00  0.00    -0.351 N 
ATOM      3  C   UNL A   1      34.974  23.752  23.863  1.00  0.00     0.283 C 
ATOM      4  O   UNL A   1      34.748  24.154  22.709  1.00  0.00    -0.268 OA
ATOM      5  H   UNL A   1      36.771  23.470  23.180  1.00  0.00     0.163 HD
BRANCH   3   6
ATOM      6  C   UNL A   1      33.793  23.720  24.922  1.00  0.00     0.307 C 
BRANCH   6   7
ATOM      7  N   UNL A   1      33.665  24.819  25.956  1.00  0.00    -0.318 N 
ATOM      8  N   UNL A   1      31.875  26.928  24.996  1.00  0.00    -0.357 N 
ATOM      9  C   UNL A   1      33.246  26.829  24.499  1.00  0.00     0.178 C 
ATOM     10  C   UNL A   1      31.316  25.701  25.565  1.00  0.00     0.178 C 
ATOM     11  C   UNL A   1      34.062  26.197  25.626  1.00  0.00     0.284 C 
ATOM     12  C   UNL A   1      32.319  24.978  26.510  1.00  0.00     0.284 C 
ATOM     13  H   UNL A   1      34.352  24.429  26.600  1.00  0.00     0.349 HD
BRANCH   8  14
ATOM     14  C   UNL A   1      30.941  27.700  24.317  1.00  0.00     0.080 A 
ATOM     15  C   UNL A   1      31.034  29.107  24.277  1.00  0.00     0.142 A 
ATOM     16  C   UNL A   1      30.012  29.851  23.674  1.00  0.00     0.048 A 
ATOM     17  C   UNL A   1      28.901  29.224  23.112  1.00  0.00     0.004 A 
ATOM     18  C   UNL A   1      29.804  27.089  23.753  1.00  0.00     0.030 A 
ATOM     19  C   UNL A   1      28.793  27.841  23.158  1.00  0.00     0.002 A 
BRANCH  15  20
ATOM     20  O   UNL A   1      32.017  29.894  24.827  1.00  0.00    -0.495 OA
ATOM     21  C   UNL A   1      31.763  30.501  26.087  1.00  0.00     0.278 C 
ENDBRANCH  15  20
ENDBRANCH   8  14
ENDBRANCH   6   7
BRANCH   6  22
ATOM     22  C   UNL A   1      33.368  22.216  25.495  1.00  0.00     0.044 A 
ATOM     23  C   UNL A   1      33.774  21.966  26.817  1.00  0.00     0.094 A 
ATOM     24  C   UNL A   1      33.565  20.827  24.967  1.00  0.00     0.013 A 
ATOM     25  N   UNL A   1      34.969  21.285  26.625  1.00  0.00    -0.361 N 
ATOM     26  C   UNL A   1      34.753  20.408  25.574  1.00  0.00     0.046 A 
ATOM     27  C   UNL A   1      32.857  19.753  24.292  1.00  0.00     0.057 A 
ATOM     28  H   UNL A   1      35.802  21.401  27.135  1.00  0.00     0.166 HD
ATOM     29  C   UNL A   1      35.507  19.322  25.118  1.00  0.00     0.030 A 
ATOM     30  C   UNL A   1      33.502  18.478  24.071  1.00  0.00     0.121 A 
ATOM     31  C   UNL A   1      34.864  18.377  24.318  1.00  0.00     0.048 A 
BRANCH  30  32
ATOM     32  O   UNL A   1      32.790  17.355  23.629  1.00  0.00    -0.479 OA
BRANCH  32  33
ATOM     33  C   UNL A   1      33.333  15.964  23.970  1.00  0.00     0.349 C 
BRANCH  33  34
ATOM     34  C   UNL A   1      32.652  15.500  25.248  1.00  0.00     0.104 C 
ATOM     35  N   UNL A   1      32.086  15.115  26.308  1.00  0.00    -0.195 NA
ENDBRANCH  33  34
ENDBRANCH  32  33
ENDBRANCH  30  32
ENDBRANCH   6  22
ENDBRANCH   3   6
ENDBRANCH   1   2
BRANCH   1  36
ATOM     36  C   UNL A   1      37.957  21.653  25.090  1.00  0.00     0.023 C 
BRANCH  36  37
ATOM     37  C   UNL A   1      39.356  21.479  25.702  1.00  0.00     0.023 C 
BRANCH  37  38
ATOM     38  C   UNL A   1      39.543  20.216  26.526  1.00  0.00     0.116 C 
BRANCH  38  39
ATOM     39  N   UNL A   1      40.662  19.398  26.071  1.00  0.00    -0.352 N 
ATOM     40  C   UNL A   1      41.987  19.752  25.898  1.00  0.00     0.251 C 
ATOM     41  H   UNL A   1      40.443  18.463  25.856  1.00  0.00     0.163 HD
ATOM     42  O   UNL A   1      42.770  18.979  25.375  1.00  0.00    -0.269 OA
BRANCH  40  43
ATOM     43  C   UNL A   1      42.447  21.093  26.333  1.00  0.00     0.039 A 
ATOM     44  C   UNL A   1      42.827  22.033  25.369  1.00  0.00     0.014 A 
ATOM     45  C   UNL A   1      42.484  21.427  27.686  1.00  0.00     0.014 A 
ATOM     46  C   UNL A   1      43.173  23.328  25.763  1.00  0.00     0.010 A 
ATOM     47  C   UNL A   1      42.727  22.740  28.069  1.00  0.00     0.010 A 
ATOM     48  C   UNL A   1      43.085  23.700  27.114  1.00  0.00    -0.014 A 
BRANCH  48  49
ATOM     49  C   UNL A   1      43.380  25.081  27.568  1.00  0.00     0.031 A 
ATOM     50  C   UNL A   1      44.808  25.510  27.760  1.00  0.00     0.074 A 
ATOM     51  C   UNL A   1      42.368  25.909  27.889  1.00  0.00     0.049 A 
ATOM     52  N   UNL A   1      45.282  26.628  28.247  1.00  0.00    -0.248 NA
ATOM     53  C   UNL A   1      45.843  24.532  27.388  1.00  0.00     0.031 C 
ATOM     54  C   UNL A   1      40.945  25.585  27.785  1.00  0.00     0.029 A 
ATOM     55  N   UNL A   1      42.383  27.190  28.381  1.00  0.00    -0.354 N 
ATOM     56  C   UNL A   1      46.663  26.478  28.251  1.00  0.00     0.074 A 
ATOM     57  C   UNL A   1      46.947  25.138  27.793  1.00  0.00     0.031 C 
ATOM     58  C   UNL A   1      40.223  26.650  28.167  1.00  0.00     0.029 A 
ATOM     59  C   UNL A   1      41.130  27.713  28.588  1.00  0.00     0.049 A 
ATOM     60  H   UNL A   1      43.213  27.687  28.565  1.00  0.00     0.167 HD
ATOM     61  C   UNL A   1      47.609  27.390  28.579  1.00  0.00     0.037 A 
ATOM     62  C   UNL A   1      40.761  28.914  29.071  1.00  0.00     0.037 A 
ATOM     63  C   UNL A   1      47.312  28.726  29.023  1.00  0.00     0.049 A 
ATOM     64  C   UNL A   1      41.829  29.894  29.474  1.00  0.00     0.074 A 
ATOM     65  C   UNL A   1      48.188  29.751  29.328  1.00  0.00     0.029 A 
ATOM     66  N   UNL A   1      46.030  29.218  29.231  1.00  0.00    -0.354 N 
ATOM     67  N   UNL A   1      43.133  29.774  29.405  1.00  0.00    -0.248 NA
ATOM     68  C   UNL A   1      41.373  31.177  30.026  1.00  0.00     0.031 C 
ATOM     69  C   UNL A   1      47.439  30.844  29.779  1.00  0.00     0.029 A 
ATOM     70  C   UNL A   1      46.093  30.520  29.699  1.00  0.00     0.049 A 
ATOM     71  H   UNL A   1      45.199  28.714  29.071  1.00  0.00     0.167 HD
ATOM     72  C   UNL A   1      43.653  30.968  29.882  1.00  0.00     0.074 A 
ATOM     73  C   UNL A   1      42.523  31.809  30.220  1.00  0.00     0.031 C 
ATOM     74  C   UNL A   1      44.950  31.336  30.031  1.00  0.00     0.037 A 
BRANCH  61  75
ATOM     75  C   UNL A   1      49.047  26.960  28.472  1.00  0.00     0.064 A 
ATOM     76  C   UNL A   1      49.748  26.451  29.576  1.00  0.00     0.173 A 
ATOM     77  C   UNL A   1      49.735  27.067  27.254  1.00  0.00     0.173 A 
ATOM     78  F   UNL A   1      49.144  26.337  30.768  1.00  0.00    -0.203 F 
ATOM     79  C   UNL A   1      51.097  26.115  29.479  1.00  0.00     0.198 A 
ATOM     80  C   UNL A   1      51.073  26.694  27.151  1.00  0.00     0.198 A 
ATOM     81  F   UNL A   1      49.114  27.540  26.163  1.00  0.00    -0.203 F 
ATOM     82  F   UNL A   1      51.764  25.704  30.567  1.00  0.00    -0.200 F 
ATOM     83  C   UNL A   1      51.757  26.231  28.266  1.00  0.00     0.200 A 
ATOM     84  F   UNL A   1      51.706  26.793  25.974  1.00  0.00    -0.200 F 
ATOM     85  F   UNL A   1      53.054  25.912  28.173  1.00  0.00    -0.200 F 
ENDBRANCH  61  75
BRANCH  62  86
ATOM     86  C   UNL A   1      39.318  29.264  29.167  1.00  0.00     0.064 A 
ATOM     87  C   UNL A   1      38.669  29.278  30.409  1.00  0.00     0.173 A 
ATOM     88  C   UNL A   1      38.566  29.605  28.034  1.00  0.00     0.173 A 
ATOM     89  F   UNL A   1      39.341  28.940  31.519  1.00  0.00    -0.203 F 
ATOM     90  C   UNL A   1      37.319  29.609  30.513  1.00  0.00     0.198 A 
ATOM     91  C   UNL A   1      37.223  29.964  28.143  1.00  0.00     0.198 A 
ATOM     92  F   UNL A   1      39.139  29.612  26.821  1.00  0.00    -0.203 F 
ATOM     93  F   UNL A   1      36.715  29.577  31.708  1.00  0.00    -0.200 F 
ATOM     94  C   UNL A   1      36.599  29.959  29.381  1.00  0.00     0.200 A 
ATOM     95  F   UNL A   1      36.535  30.318  27.049  1.00  0.00    -0.200 F 
ATOM     96  F   UNL A   1      35.303  30.286  29.483  1.00  0.00    -0.200 F 
ENDBRANCH  62  86
BRANCH  74  97
ATOM     97  C   UNL A   1      45.216  32.713  30.570  1.00  0.00     0.064 A 
ATOM     98  C   UNL A   1      45.401  32.940  31.941  1.00  0.00     0.173 A 
ATOM     99  C   UNL A   1      45.344  33.806  29.699  1.00  0.00     0.173 A 
ATOM    100  F   UNL A   1      45.273  31.931  32.817  1.00  0.00    -0.203 F 
ATOM    101  C   UNL A   1      45.685  34.215  32.423  1.00  0.00     0.198 A 
ATOM    102  C   UNL A   1      45.660  35.072  30.180  1.00  0.00     0.198 A 
ATOM    103  F   UNL A   1      45.182  33.640  28.377  1.00  0.00    -0.203 F 
ATOM    104  F   UNL A   1      45.814  34.418  33.741  1.00  0.00    -0.200 F 
ATOM    105  C   UNL A   1      45.824  35.278  31.542  1.00  0.00     0.200 A 
ATOM    106  F   UNL A   1      45.811  36.093  29.326  1.00  0.00    -0.200 F 
ATOM    107  F   UNL A   1      46.112  36.501  32.006  1.00  0.00    -0.200 F 
ENDBRANCH  74  97
ENDBRANCH  48  49
ENDBRANCH  40  43
ENDBRANCH  38  39
ENDBRANCH  37  38
ENDBRANCH  36  37
ENDBRANCH   1  36
TORSDOF 18
ENDMDL
MODEL 2
REMARK VINA RESULT:     -11.6      0.648      7.069
REMARK SMILES COc1ccccc1N1CC[NH+]([C@@H](C(=O)NCCCCNC(=O)c2ccc(-c3c4nc(c(-c5c(F)c(F)c(F)c(F)c5F)c5ccc([nH]5)c(-c5c(F)c(F)c(F)c(F)c5F)c5nc(c(-c6c(F)c(F)c(F)c(F)c6F)c6ccc3[nH]6)C=C5)C=C4)cc2)c2c[nH]c3ccc(OCC#N)cc23)CC1
REMARK SMILES IDX 17 1 16 2 14 3 15 4 13 6 12 7 9 8 10 9 101 10 11 11 100 12
REMARK SMILES IDX 8 14 3 15 4 16 5 17 7 18 6 19 2 20 1 21 87 22 88 23 99 24
REMARK SMILES IDX 89 25 90 26 98 27 91 29 93 30 92 31 94 32 95 33 96 34 97 35
REMARK SMILES IDX 18 36 19 37 20 38 21 39 22 40 23 42 24 43 25 44 86 45 26 46
REMARK SMILES IDX 85 47 27 48 28 49 29 50 79 51 30 52 84 53 78 54 80 55 31 56
REMARK SMILES IDX 83 57 77 58 76 59 32 61 64 62 44 63 63 64 45 65 48 66 62 67
REMARK SMILES IDX 81 68 46 69 47 70 61 72 82 73 49 74 33 75 34 76 42 77 35 78
REMARK SMILES IDX 36 79 40 80 43 81 37 82 38 83 41 84 39 85 65 86 66 87 74 88
REMARK SMILES IDX 67 89 68 90 72 91 75 92 69 93 70 94 73 95 71 96 50 97 51 98
REMARK SMILES IDX 59 99 52 100 53 101 57 102 60 103 54 104 55 105 58 106
REMARK SMILES IDX 56 107
REMARK H PARENT 16 5 12 13 89 28 21 41 80 60 48 71
REMARK Flexibility Score: inf
ROOT
ATOM      1  C   UNL A   1      36.615  23.279  23.934  1.00  0.00     0.116 C 
ENDROOT
BRANCH   1   2
ATOM      2  N   UNL A   1      35.299  23.321  23.230  1.00  0.00    -0.351 N 
ATOM      3  C   UNL A   1      33.927  23.391  23.449  1.00  0.00     0.283 C 
ATOM      4  O   UNL A   1      33.296  23.582  22.395  1.00  0.00    -0.268 OA
ATOM      5  H   UNL A   1      35.460  23.289  22.259  1.00  0.00     0.163 HD
BRANCH   3   6
ATOM      6  C   UNL A   1      33.142  23.334  24.826  1.00  0.00     0.307 C 
BRANCH   6   7
ATOM      7  N   UNL A   1      33.307  24.443  25.845  1.00  0.00    -0.318 N 
ATOM      8  N   UNL A   1      32.127  26.933  24.854  1.00  0.00    -0.357 N 
ATOM      9  C   UNL A   1      33.423  26.473  24.360  1.00  0.00     0.178 C 
ATOM     10  C   UNL A   1      31.269  25.901  25.439  1.00  0.00     0.178 C 
ATOM     11  C   UNL A   1      34.049  25.665  25.497  1.00  0.00     0.284 C 
ATOM     12  C   UNL A   1      32.051  24.955  26.395  1.00  0.00     0.284 C 
ATOM     13  H   UNL A   1      33.870  23.896  26.496  1.00  0.00     0.349 HD
BRANCH   8  14
ATOM     14  C   UNL A   1      31.425  27.912  24.164  1.00  0.00     0.080 A 
ATOM     15  C   UNL A   1      31.094  29.145  24.763  1.00  0.00     0.142 A 
ATOM     16  C   UNL A   1      30.291  30.059  24.068  1.00  0.00     0.048 A 
ATOM     17  C   UNL A   1      29.815  29.772  22.791  1.00  0.00     0.004 A 
ATOM     18  C   UNL A   1      30.923  27.638  22.876  1.00  0.00     0.030 A 
ATOM     19  C   UNL A   1      30.123  28.555  22.196  1.00  0.00     0.002 A 
BRANCH  15  20
ATOM     20  O   UNL A   1      31.421  29.572  26.027  1.00  0.00    -0.495 OA
ATOM     21  C   UNL A   1      31.720  30.950  26.213  1.00  0.00     0.278 C 
ENDBRANCH  15  20
ENDBRANCH   8  14
ENDBRANCH   6   7
BRANCH   6  22
ATOM     22  C   UNL A   1      32.973  21.825  25.508  1.00  0.00     0.044 A 
ATOM     23  C   UNL A   1      33.577  21.691  26.770  1.00  0.00     0.094 A 
ATOM     24  C   UNL A   1      33.257  20.440  25.010  1.00  0.00     0.013 A 
ATOM     25  N   UNL A   1      34.806  21.135  26.441  1.00  0.00    -0.361 N 
ATOM     26  C   UNL A   1      34.556  20.186  25.464  1.00  0.00     0.046 A 
ATOM     27  C   UNL A   1      32.595  19.261  24.480  1.00  0.00     0.057 A 
ATOM     28  H   UNL A   1      35.681  21.368  26.827  1.00  0.00     0.166 HD
ATOM     29  C   UNL A   1      35.363  19.166  24.949  1.00  0.00     0.030 A 
ATOM     30  C   UNL A   1      33.347  18.054  24.220  1.00  0.00     0.121 A 
ATOM     31  C   UNL A   1      34.733  18.117  24.281  1.00  0.00     0.048 A 
BRANCH  30  32
ATOM     32  O   UNL A   1      32.718  16.839  23.922  1.00  0.00    -0.479 OA
BRANCH  32  33
ATOM     33  C   UNL A   1      33.288  15.553  24.527  1.00  0.00     0.349 C 
BRANCH  33  34
ATOM     34  C   UNL A   1      32.442  15.192  25.737  1.00  0.00     0.104 C 
ATOM     35  N   UNL A   1      31.739  14.893  26.741  1.00  0.00    -0.195 NA
ENDBRANCH  33  34
ENDBRANCH  32  33
ENDBRANCH  30  32
ENDBRANCH   6  22
ENDBRANCH   3   6
ENDBRANCH   1   2
BRANCH   1  36
ATOM     36  C   UNL A   1      37.289  21.887  24.206  1.00  0.00     0.023 C 
BRANCH  36  37
ATOM     37  C   UNL A   1      38.578  21.858  25.041  1.00  0.00     0.023 C 
BRANCH  37  38
ATOM     38  C   UNL A   1      38.596  20.830  26.160  1.00  0.00     0.116 C 
BRANCH  38  39
ATOM     39  N   UNL A   1      39.589  19.782  25.957  1.00  0.00    -0.352 N 
ATOM     40  C   UNL A   1      40.967  19.860  26.037  1.00  0.00     0.251 C 
ATOM     41  H   UNL A   1      39.229  18.895  25.730  1.00  0.00     0.163 HD
ATOM     42  O   UNL A   1      41.661  18.916  25.700  1.00  0.00    -0.269 OA
BRANCH  40  43
ATOM     43  C   UNL A   1      41.601  21.113  26.514  1.00  0.00     0.039 A 
ATOM     44  C   UNL A   1      42.101  22.026  25.580  1.00  0.00     0.014 A 
ATOM     45  C   UNL A   1      41.685  21.392  27.878  1.00  0.00     0.014 A 
ATOM     46  C   UNL A   1      42.616  23.251  26.016  1.00  0.00     0.010 A 
ATOM     47  C   UNL A   1      42.100  22.647  28.303  1.00  0.00     0.010 A 
ATOM     48  C   UNL A   1      42.580  23.584  27.379  1.00  0.00    -0.014 A 
BRANCH  48  49
ATOM     49  C   UNL A   1      43.056  24.897  27.878  1.00  0.00     0.031 A 
ATOM     50  C   UNL A   1      42.057  25.962  28.235  1.00  0.00     0.074 A 
ATOM     51  C   UNL A   1      44.376  25.156  27.923  1.00  0.00     0.049 A 
ATOM     52  N   UNL A   1      42.257  27.207  28.587  1.00  0.00    -0.248 NA
ATOM     53  C   UNL A   1      40.636  25.585  28.147  1.00  0.00     0.031 C 
ATOM     54  C   UNL A   1      45.435  24.215  27.558  1.00  0.00     0.029 A 
ATOM     55  N   UNL A   1      45.052  26.294  28.283  1.00  0.00    -0.354 N 
ATOM     56  C   UNL A   1      40.993  27.758  28.746  1.00  0.00     0.074 A 
ATOM     57  C   UNL A   1      40.034  26.741  28.379  1.00  0.00     0.031 C 
ATOM     58  C   UNL A   1      46.628  24.801  27.746  1.00  0.00     0.029 A 
ATOM     59  C   UNL A   1      46.418  26.173  28.197  1.00  0.00     0.049 A 
ATOM     60  H   UNL A   1      44.602  27.119  28.577  1.00  0.00     0.167 HD
ATOM     61  C   UNL A   1      40.661  28.995  29.189  1.00  0.00     0.037 A 
ATOM     62  C   UNL A   1      47.386  27.074  28.448  1.00  0.00     0.037 A 
ATOM     63  C   UNL A   1      41.626  29.995  29.563  1.00  0.00     0.049 A 
ATOM     64  C   UNL A   1      46.994  28.456  28.893  1.00  0.00     0.074 A 
ATOM     65  C   UNL A   1      41.407  31.259  30.078  1.00  0.00     0.029 A 
ATOM     66  N   UNL A   1      43.002  29.839  29.452  1.00  0.00    -0.354 N 
ATOM     67  N   UNL A   1      45.799  28.948  29.114  1.00  0.00    -0.248 NA
ATOM     68  C   UNL A   1      48.088  29.411  29.121  1.00  0.00     0.031 C 
ATOM     69  C   UNL A   1      42.647  31.891  30.221  1.00  0.00     0.029 A 
ATOM     70  C   UNL A   1      43.643  31.000  29.852  1.00  0.00     0.049 A 
ATOM     71  H   UNL A   1      43.454  29.024  29.135  1.00  0.00     0.167 HD
ATOM     72  C   UNL A   1      45.994  30.258  29.526  1.00  0.00     0.074 A 
ATOM     73  C   UNL A   1      47.426  30.479  29.544  1.00  0.00     0.031 C 
ATOM     74  C   UNL A   1      45.072  31.196  29.858  1.00  0.00     0.037 A 
BRANCH  61  75
ATOM     75  C   UNL A   1      39.197  29.323  29.285  1.00  0.00     0.064 A 
ATOM     76  C   UNL A   1      38.437  29.642  28.147  1.00  0.00     0.173 A 
ATOM     77  C   UNL A   1      38.545  29.329  30.527  1.00  0.00     0.173 A 
ATOM     78  F   UNL A   1      39.011  29.663  26.935  1.00  0.00    -0.203 F 
ATOM     79  C   UNL A   1      37.097  30.005  28.256  1.00  0.00     0.198 A 
ATOM     80  C   UNL A   1      37.195  29.655  30.627  1.00  0.00     0.198 A 
ATOM     81  F   UNL A   1      39.218  29.026  31.647  1.00  0.00    -0.203 F 
ATOM     82  F   UNL A   1      36.415  30.380  27.165  1.00  0.00    -0.200 F 
ATOM     83  C   UNL A   1      36.474  30.006  29.495  1.00  0.00     0.200 A 
ATOM     84  F   UNL A   1      36.591  29.642  31.824  1.00  0.00    -0.200 F 
ATOM     85  F   UNL A   1      35.187  30.359  29.600  1.00  0.00    -0.200 F 
ENDBRANCH  61  75
BRANCH  62  86
ATOM     86  C   UNL A   1      48.815  26.683  28.314  1.00  0.00     0.064 A 
ATOM     87  C   UNL A   1      49.463  26.763  27.073  1.00  0.00     0.173 A 
ATOM     88  C   UNL A   1      49.565  26.242  29.414  1.00  0.00     0.173 A 
ATOM     89  F   UNL A   1      48.784  27.160  25.988  1.00  0.00    -0.203 F 
ATOM     90  C   UNL A   1      50.803  26.404  26.936  1.00  0.00     0.198 A 
ATOM     91  C   UNL A   1      50.913  25.912  29.281  1.00  0.00     0.198 A 
ATOM     92  F   UNL A   1      48.995  26.152  30.625  1.00  0.00    -0.203 F 
ATOM     93  F   UNL A   1      51.386  26.454  25.731  1.00  0.00    -0.200 F 
ATOM     94  C   UNL A   1      51.529  25.987  28.041  1.00  0.00     0.200 A 
ATOM     95  F   UNL A   1      51.615  25.525  30.354  1.00  0.00    -0.200 F 
ATOM     96  F   UNL A   1      52.820  25.652  27.910  1.00  0.00    -0.200 F 
ENDBRANCH  62  86
BRANCH  74  97
ATOM     97  C   UNL A   1      45.585  32.543  30.282  1.00  0.00     0.064 A 
ATOM     98  C   UNL A   1      45.755  33.586  29.360  1.00  0.00     0.173 A 
ATOM     99  C   UNL A   1      45.852  32.810  31.633  1.00  0.00     0.173 A 
ATOM    100  F   UNL A   1      45.528  33.377  28.054  1.00  0.00    -0.203 F 
ATOM    101  C   UNL A   1      46.195  34.841  29.773  1.00  0.00     0.198 A 
ATOM    102  C   UNL A   1      46.259  34.074  32.047  1.00  0.00     0.198 A 
ATOM    103  F   UNL A   1      45.699  31.847  32.556  1.00  0.00    -0.203 F 
ATOM    104  F   UNL A   1      46.393  35.810  28.869  1.00  0.00    -0.200 F 
ATOM    105  C   UNL A   1      46.436  35.086  31.117  1.00  0.00     0.200 A 
ATOM    106  F   UNL A   1      46.475  34.314  33.348  1.00  0.00    -0.200 F 
ATOM    107  F   UNL A   1      46.844  36.299  31.514  1.00  0.00    -0.200 F 
ENDBRANCH  74  97
ENDBRANCH  48  49
ENDBRANCH  40  43
ENDBRANCH  38  39
ENDBRANCH  37  38
ENDBRANCH  36  37
ENDBRANCH   1  36
TORSDOF 18
ENDMDL
MODEL 3
REMARK VINA RESULT:     -11.5      8.786     14.651
REMARK SMILES COc1ccccc1N1CC[NH+]([C@@H](C(=O)NCCCCNC(=O)c2ccc(-c3c4nc(c(-c5c(F)c(F)c(F)c(F)c5F)c5ccc([nH]5)c(-c5c(F)c(F)c(F)c(F)c5F)c5nc(c(-c6c(F)c(F)c(F)c(F)c6F)c6ccc3[nH]6)C=C5)C=C4)cc2)c2c[nH]c3ccc(OCC#N)cc23)CC1
REMARK SMILES IDX 17 1 16 2 14 3 15 4 13 6 12 7 9 8 10 9 101 10 11 11 100 12
REMARK SMILES IDX 8 14 3 15 4 16 5 17 7 18 6 19 2 20 1 21 87 22 88 23 99 24
REMARK SMILES IDX 89 25 90 26 98 27 91 29 93 30 92 31 94 32 95 33 96 34 97 35
REMARK SMILES IDX 18 36 19 37 20 38 21 39 22 40 23 42 24 43 25 44 86 45 26 46
REMARK SMILES IDX 85 47 27 48 28 49 29 50 79 51 30 52 84 53 78 54 80 55 31 56
REMARK SMILES IDX 83 57 77 58 76 59 32 61 64 62 44 63 63 64 45 65 48 66 62 67
REMARK SMILES IDX 81 68 46 69 47 70 61 72 82 73 49 74 33 75 34 76 42 77 35 78
REMARK SMILES IDX 36 79 40 80 43 81 37 82 38 83 41 84 39 85 65 86 66 87 74 88
REMARK SMILES IDX 67 89 68 90 72 91 75 92 69 93 70 94 73 95 71 96 50 97 51 98
REMARK SMILES IDX 59 99 52 100 53 101 57 102 60 103 54 104 55 105 58 106
REMARK SMILES IDX 56 107
REMARK H PARENT 16 5 12 13 89 28 21 41 80 60 48 71
REMARK Flexibility Score: inf
ROOT
ATOM      1  C   UNL A   1      46.506  20.681  37.248  1.00  0.00     0.116 C 
ENDROOT
BRANCH   1   2
ATOM      2  N   UNL A   1      46.192  21.129  38.637  1.00  0.00    -0.351 N 
ATOM      3  C   UNL A   1      46.414  20.826  39.976  1.00  0.00     0.283 C 
ATOM      4  O   UNL A   1      46.008  21.726  40.731  1.00  0.00    -0.268 OA
ATOM      5  H   UNL A   1      45.622  21.931  38.588  1.00  0.00     0.163 HD
BRANCH   3   6
ATOM      6  C   UNL A   1      47.155  19.566  40.594  1.00  0.00     0.307 C 
BRANCH   6   7
ATOM      7  N   UNL A   1      46.794  19.071  41.979  1.00  0.00    -0.318 N 
ATOM      8  N   UNL A   1      44.603  17.133  41.839  1.00  0.00    -0.357 N 
ATOM      9  C   UNL A   1      44.343  18.565  41.706  1.00  0.00     0.178 C 
ATOM     10  C   UNL A   1      45.973  16.708  41.546  1.00  0.00     0.178 C 
ATOM     11  C   UNL A   1      45.435  19.272  42.508  1.00  0.00     0.284 C 
ATOM     12  C   UNL A   1      47.033  17.644  42.196  1.00  0.00     0.284 C 
ATOM     13  H   UNL A   1      47.431  19.694  42.475  1.00  0.00     0.349 HD
BRANCH   8  14
ATOM     14  C   UNL A   1      43.641  16.210  41.451  1.00  0.00     0.080 A 
ATOM     15  C   UNL A   1      42.902  15.470  42.397  1.00  0.00     0.142 A 
ATOM     16  C   UNL A   1      42.022  14.473  41.961  1.00  0.00     0.048 A 
ATOM     17  C   UNL A   1      41.860  14.198  40.604  1.00  0.00     0.004 A 
ATOM     18  C   UNL A   1      43.472  15.907  40.085  1.00  0.00     0.030 A 
ATOM     19  C   UNL A   1      42.593  14.910  39.664  1.00  0.00     0.002 A 
BRANCH  15  20
ATOM     20  O   UNL A   1      42.974  15.561  43.766  1.00  0.00    -0.495 OA
ATOM     21  C   UNL A   1      42.993  14.355  44.518  1.00  0.00     0.278 C 
ENDBRANCH  15  20
ENDBRANCH   8  14
ENDBRANCH   6   7
BRANCH   6  22
ATOM     22  C   UNL A   1      48.776  19.428  40.240  1.00  0.00     0.044 A 
ATOM     23  C   UNL A   1      49.629  19.922  41.242  1.00  0.00     0.094 A 
ATOM     24  C   UNL A   1      49.604  19.839  39.061  1.00  0.00     0.013 A 
ATOM     25  N   UNL A   1      49.891  21.207  40.787  1.00  0.00    -0.361 N 
ATOM     26  C   UNL A   1      50.082  21.105  39.419  1.00  0.00     0.046 A 
ATOM     27  C   UNL A   1      50.243  19.301  37.872  1.00  0.00     0.057 A 
ATOM     28  H   UNL A   1      49.933  22.027  41.329  1.00  0.00     0.166 HD
ATOM     29  C   UNL A   1      50.608  22.015  38.497  1.00  0.00     0.030 A 
ATOM     30  C   UNL A   1      51.070  20.146  37.040  1.00  0.00     0.121 A 
ATOM     31  C   UNL A   1      51.061  21.514  37.277  1.00  0.00     0.048 A 
BRANCH  30  32
ATOM     32  O   UNL A   1      51.875  19.621  36.021  1.00  0.00    -0.479 OA
BRANCH  32  33
ATOM     33  C   UNL A   1      52.078  20.450  34.750  1.00  0.00     0.349 C 
BRANCH  33  34
ATOM     34  C   UNL A   1      50.802  20.360  33.927  1.00  0.00     0.104 C 
ATOM     35  N   UNL A   1      49.744  20.284  33.245  1.00  0.00    -0.195 NA
ENDBRANCH  33  34
ENDBRANCH  32  33
ENDBRANCH  30  32
ENDBRANCH   6  22
ENDBRANCH   3   6
ENDBRANCH   1   2
BRANCH   1  36
ATOM     36  C   UNL A   1      47.529  21.510  36.392  1.00  0.00     0.023 C 
BRANCH  36  37
ATOM     37  C   UNL A   1      47.103  21.953  34.984  1.00  0.00     0.023 C 
BRANCH  37  38
ATOM     38  C   UNL A   1      47.264  23.437  34.702  1.00  0.00     0.116 C 
BRANCH  38  39
ATOM     39  N   UNL A   1      47.817  24.176  35.831  1.00  0.00    -0.352 N 
ATOM     40  C   UNL A   1      47.486  25.436  36.295  1.00  0.00     0.251 C 
ATOM     41  H   UNL A   1      48.526  23.715  36.333  1.00  0.00     0.163 HD
ATOM     42  O   UNL A   1      48.145  25.966  37.172  1.00  0.00    -0.269 OA
BRANCH  40  43
ATOM     43  C   UNL A   1      46.332  26.153  35.700  1.00  0.00     0.039 A 
ATOM     44  C   UNL A   1      46.561  27.291  34.920  1.00  0.00     0.014 A 
ATOM     45  C   UNL A   1      45.030  25.692  35.897  1.00  0.00     0.014 A 
ATOM     46  C   UNL A   1      45.489  27.919  34.279  1.00  0.00     0.010 A 
ATOM     47  C   UNL A   1      43.982  26.251  35.180  1.00  0.00     0.010 A 
ATOM     48  C   UNL A   1      44.197  27.376  34.373  1.00  0.00    -0.014 A 
BRANCH  48  49
ATOM     49  C   UNL A   1      43.042  27.972  33.658  1.00  0.00     0.031 A 
ATOM     50  C   UNL A   1      42.839  27.673  32.199  1.00  0.00     0.074 A 
ATOM     51  C   UNL A   1      42.239  28.844  34.296  1.00  0.00     0.049 A 
ATOM     52  N   UNL A   1      41.962  28.169  31.363  1.00  0.00    -0.248 NA
ATOM     53  C   UNL A   1      43.773  26.712  31.589  1.00  0.00     0.031 C 
ATOM     54  C   UNL A   1      42.369  29.244  35.697  1.00  0.00     0.029 A 
ATOM     55  N   UNL A   1      41.161  29.562  33.844  1.00  0.00    -0.354 N 
ATOM     56  C   UNL A   1      42.251  27.592  30.133  1.00  0.00     0.074 A 
ATOM     57  C   UNL A   1      43.427  26.771  30.313  1.00  0.00     0.031 C 
ATOM     58  C   UNL A   1      41.388  30.107  36.001  1.00  0.00     0.029 A 
ATOM     59  C   UNL A   1      40.591  30.361  34.805  1.00  0.00     0.049 A 
ATOM     60  H   UNL A   1      40.828  29.509  32.919  1.00  0.00     0.167 HD
ATOM     61  C   UNL A   1      41.576  27.712  28.965  1.00  0.00     0.037 A 
ATOM     62  C   UNL A   1      39.546  31.205  34.722  1.00  0.00     0.037 A 
ATOM     63  C   UNL A   1      40.399  28.524  28.803  1.00  0.00     0.049 A 
ATOM     64  C   UNL A   1      38.840  31.360  33.403  1.00  0.00     0.074 A 
ATOM     65  C   UNL A   1      39.601  28.677  27.684  1.00  0.00     0.029 A 
ATOM     66  N   UNL A   1      39.856  29.327  29.797  1.00  0.00    -0.354 N 
ATOM     67  N   UNL A   1      39.071  30.754  32.263  1.00  0.00    -0.248 NA
ATOM     68  C   UNL A   1      37.727  32.319  33.358  1.00  0.00     0.031 C 
ATOM     69  C   UNL A   1      38.611  29.620  27.982  1.00  0.00     0.029 A 
ATOM     70  C   UNL A   1      38.755  30.010  29.305  1.00  0.00     0.049 A 
ATOM     71  H   UNL A   1      40.202  29.401  30.715  1.00  0.00     0.167 HD
ATOM     72  C   UNL A   1      38.124  31.240  31.372  1.00  0.00     0.074 A 
ATOM     73  C   UNL A   1      37.302  32.176  32.110  1.00  0.00     0.031 C 
ATOM     74  C   UNL A   1      37.953  30.941  30.060  1.00  0.00     0.037 A 
BRANCH  61  75
ATOM     75  C   UNL A   1      42.105  26.950  27.781  1.00  0.00     0.064 A 
ATOM     76  C   UNL A   1      41.712  25.628  27.520  1.00  0.00     0.173 A 
ATOM     77  C   UNL A   1      43.023  27.544  26.901  1.00  0.00     0.173 A 
ATOM     78  F   UNL A   1      40.846  25.006  28.334  1.00  0.00    -0.203 F 
ATOM     79  C   UNL A   1      42.257  24.913  26.456  1.00  0.00     0.198 A 
ATOM     80  C   UNL A   1      43.535  26.839  25.816  1.00  0.00     0.198 A 
ATOM     81  F   UNL A   1      43.429  28.808  27.097  1.00  0.00    -0.203 F 
ATOM     82  F   UNL A   1      41.924  23.627  26.274  1.00  0.00    -0.200 F 
ATOM     83  C   UNL A   1      43.164  25.520  25.601  1.00  0.00     0.200 A 
ATOM     84  F   UNL A   1      44.402  27.431  24.982  1.00  0.00    -0.200 F 
ATOM     85  F   UNL A   1      43.691  24.831  24.581  1.00  0.00    -0.200 F 
ENDBRANCH  61  75
BRANCH  62  86
ATOM     86  C   UNL A   1      39.089  31.941  35.932  1.00  0.00     0.064 A 
ATOM     87  C   UNL A   1      39.498  33.262  36.160  1.00  0.00     0.173 A 
ATOM     88  C   UNL A   1      38.228  31.353  36.870  1.00  0.00     0.173 A 
ATOM     89  F   UNL A   1      40.336  33.861  35.301  1.00  0.00    -0.203 F 
ATOM     90  C   UNL A   1      39.073  33.963  37.286  1.00  0.00     0.198 A 
ATOM     91  C   UNL A   1      37.781  32.067  37.981  1.00  0.00     0.198 A 
ATOM     92  F   UNL A   1      37.802  30.093  36.698  1.00  0.00    -0.203 F 
ATOM     93  F   UNL A   1      39.510  35.212  37.498  1.00  0.00    -0.200 F 
ATOM     94  C   UNL A   1      38.209  33.369  38.193  1.00  0.00     0.200 A 
ATOM     95  F   UNL A   1      36.932  31.493  38.845  1.00  0.00    -0.200 F 
ATOM     96  F   UNL A   1      37.793  34.047  39.270  1.00  0.00    -0.200 F 
ENDBRANCH  62  86
BRANCH  74  97
ATOM     97  C   UNL A   1      36.823  31.623  29.343  1.00  0.00     0.064 A 
ATOM     98  C   UNL A   1      35.664  30.926  28.973  1.00  0.00     0.173 A 
ATOM     99  C   UNL A   1      36.878  32.999  29.074  1.00  0.00     0.173 A 
ATOM    100  F   UNL A   1      35.569  29.606  29.193  1.00  0.00    -0.203 F 
ATOM    101  C   UNL A   1      34.608  31.579  28.341  1.00  0.00     0.198 A 
ATOM    102  C   UNL A   1      35.808  33.655  28.473  1.00  0.00     0.198 A 
ATOM    103  F   UNL A   1      37.963  33.712  29.414  1.00  0.00    -0.203 F 
ATOM    104  F   UNL A   1      33.528  30.886  27.957  1.00  0.00    -0.200 F 
ATOM    105  C   UNL A   1      34.677  32.944  28.102  1.00  0.00     0.200 A 
ATOM    106  F   UNL A   1      35.870  34.976  28.258  1.00  0.00    -0.200 F 
ATOM    107  F   UNL A   1      33.654  33.573  27.508  1.00  0.00    -0.200 F 
ENDBRANCH  74  97
ENDBRANCH  48  49
ENDBRANCH  40  43
ENDBRANCH  38  39
ENDBRANCH  37  38
ENDBRANCH  36  37
ENDBRANCH   1  36
TORSDOF 18
ENDMDL
