MODEL 1
REMARK VINA RESULT:     -13.0      0.000      0.000
REMARK SMILES CCc1c(Cl)ccc2c1C=C(C(=O)NCCCCNC(=O)c1ccc(-c3c4nc(c(-c5c(F)c(F)c(F)c(F)c5F)c5ccc([nH]5)c(-c5c(F)c(F)c(F)c(F)c5F)c5nc(c(-c6c(F)c(F)c(F)c(F)c6F)c6ccc3[nH]6)C=C5)C=C4)cc1)[C@@H](C(F)(F)F)O2
REMARK SMILES IDX 17 1 16 2 15 3 14 4 12 5 13 6 11 8 3 9 4 10 9 11 5 12 6 13
REMARK SMILES IDX 8 14 10 15 7 16 90 17 85 18 2 19 1 20 86 21 87 22 88 23
REMARK SMILES IDX 89 24 18 25 19 26 20 27 21 29 22 30 23 31 84 32 24 33 83 34
REMARK SMILES IDX 25 35 26 36 27 37 77 38 28 39 82 40 76 41 78 42 29 43 81 44
REMARK SMILES IDX 75 45 74 46 30 48 62 49 42 50 61 51 43 52 46 53 60 54 79 55
REMARK SMILES IDX 44 56 45 57 59 59 80 60 47 61 31 62 32 63 40 64 33 65 34 66
REMARK SMILES IDX 38 67 41 68 35 69 36 70 39 71 37 72 63 73 64 74 72 75 65 76
REMARK SMILES IDX 66 77 70 78 73 79 67 80 68 81 71 82 69 83 48 84 49 85 57 86
REMARK SMILES IDX 50 87 51 88 55 89 58 90 52 91 53 92 56 93 54 94
REMARK H PARENT 14 7 19 28 78 47 46 58
REMARK Flexibility Score: inf
ROOT
ATOM      1  C   UNL A   1      31.884  31.705  26.887  1.00  0.00     0.023 C 
ENDROOT
BRANCH   1   2
ATOM      2  C   UNL A   1      32.181  30.214  27.067  1.00  0.00     0.023 C 
BRANCH   2   3
ATOM      3  C   UNL A   1      33.635  29.824  26.816  1.00  0.00     0.116 C 
BRANCH   3   4
ATOM      4  N   UNL A   1      33.867  29.417  25.439  1.00  0.00    -0.352 N 
ATOM      5  C   UNL A   1      33.735  28.289  24.701  1.00  0.00     0.251 C 
ATOM      6  O   UNL A   1      34.051  28.406  23.513  1.00  0.00    -0.270 OA
ATOM      7  H   UNL A   1      34.213  30.163  24.897  1.00  0.00     0.163 HD
BRANCH   5   8
ATOM      8  C   UNL A   1      33.259  26.965  25.210  1.00  0.00     0.067 C 
ATOM      9  C   UNL A   1      34.532  23.426  25.283  1.00  0.00    -0.019 A 
ATOM     10  C   UNL A   1      34.101  22.201  25.848  1.00  0.00     0.045 A 
ATOM     11  C   UNL A   1      33.753  24.590  25.524  1.00  0.00     0.022 A 
ATOM     12  Cl  UNL A   1      34.978  20.721  25.642  1.00  0.00    -0.084 Cl
ATOM     13  C   UNL A   1      32.941  22.126  26.622  1.00  0.00     0.024 A 
ATOM     14  C   UNL A   1      32.590  24.483  26.305  1.00  0.00     0.128 A 
ATOM     15  C   UNL A   1      34.112  25.933  25.053  1.00  0.00     0.026 C 
ATOM     16  C   UNL A   1      32.188  23.267  26.852  1.00  0.00     0.048 A 
ATOM     17  O   UNL A   1      31.798  25.544  26.635  1.00  0.00    -0.475 OA
ATOM     18  C   UNL A   1      31.915  26.743  25.832  1.00  0.00     0.314 C 
BRANCH   9  19
ATOM     19  C   UNL A   1      35.784  23.451  24.424  1.00  0.00     0.034 C 
ATOM     20  C   UNL A   1      37.044  23.693  25.245  1.00  0.00     0.009 C 
ENDBRANCH   9  19
BRANCH  18  21
ATOM     21  C   UNL A   1      30.770  26.777  24.804  1.00  0.00     0.429 C 
ATOM     22  F   UNL A   1      29.656  26.198  25.316  1.00  0.00    -0.167 F 
ATOM     23  F   UNL A   1      30.418  28.038  24.460  1.00  0.00    -0.167 F 
ATOM     24  F   UNL A   1      31.077  26.126  23.660  1.00  0.00    -0.167 F 
ENDBRANCH  18  21
ENDBRANCH   5   8
ENDBRANCH   3   4
ENDBRANCH   2   3
ENDBRANCH   1   2
BRANCH   1  25
ATOM     25  C   UNL A   1      32.951  32.661  27.419  1.00  0.00     0.116 C 
BRANCH  25  26
ATOM     26  N   UNL A   1      32.467  34.004  27.708  1.00  0.00    -0.352 N 
ATOM     27  C   UNL A   1      32.983  34.922  28.595  1.00  0.00     0.251 C 
ATOM     28  H   UNL A   1      31.671  34.291  27.206  1.00  0.00     0.163 HD
ATOM     29  O   UNL A   1      32.426  36.000  28.778  1.00  0.00    -0.269 OA
BRANCH  27  30
ATOM     30  C   UNL A   1      34.186  34.565  29.373  1.00  0.00     0.039 A 
ATOM     31  C   UNL A   1      35.457  34.788  28.843  1.00  0.00     0.014 A 
ATOM     32  C   UNL A   1      34.033  33.918  30.601  1.00  0.00     0.014 A 
ATOM     33  C   UNL A   1      36.561  34.201  29.448  1.00  0.00     0.010 A 
ATOM     34  C   UNL A   1      35.154  33.394  31.249  1.00  0.00     0.010 A 
ATOM     35  C   UNL A   1      36.418  33.476  30.644  1.00  0.00    -0.014 A 
BRANCH  35  36
ATOM     36  C   UNL A   1      37.602  32.782  31.211  1.00  0.00     0.031 A 
ATOM     37  C   UNL A   1      38.082  33.097  32.602  1.00  0.00     0.074 A 
ATOM     38  C   UNL A   1      38.184  31.798  30.502  1.00  0.00     0.049 A 
ATOM     39  N   UNL A   1      39.050  32.538  33.286  1.00  0.00    -0.248 NA
ATOM     40  C   UNL A   1      37.391  34.178  33.323  1.00  0.00     0.031 C 
ATOM     41  C   UNL A   1      37.795  31.395  29.150  1.00  0.00     0.029 A 
ATOM     42  N   UNL A   1      39.195  30.931  30.832  1.00  0.00    -0.354 N 
ATOM     43  C   UNL A   1      39.094  33.209  34.501  1.00  0.00     0.074 A 
ATOM     44  C   UNL A   1      38.074  34.233  34.458  1.00  0.00     0.031 C 
ATOM     45  C   UNL A   1      38.509  30.317  28.793  1.00  0.00     0.029 A 
ATOM     46  C   UNL A   1      39.441  29.986  29.867  1.00  0.00     0.049 A 
ATOM     47  H   UNL A   1      39.696  30.983  31.678  1.00  0.00     0.167 HD
ATOM     48  C   UNL A   1      39.905  32.981  35.562  1.00  0.00     0.037 A 
ATOM     49  C   UNL A   1      40.316  28.964  29.850  1.00  0.00     0.037 A 
ATOM     50  C   UNL A   1      40.897  31.940  35.619  1.00  0.00     0.049 A 
ATOM     51  C   UNL A   1      41.216  28.748  31.031  1.00  0.00     0.074 A 
ATOM     52  C   UNL A   1      41.750  31.617  36.661  1.00  0.00     0.029 A 
ATOM     53  N   UNL A   1      41.161  31.044  34.594  1.00  0.00    -0.354 N 
ATOM     54  N   UNL A   1      41.250  29.392  32.171  1.00  0.00    -0.248 NA
ATOM     55  C   UNL A   1      42.210  27.671  30.918  1.00  0.00     0.031 C 
ATOM     56  C   UNL A   1      42.553  30.548  36.253  1.00  0.00     0.029 A 
ATOM     57  C   UNL A   1      42.175  30.181  34.972  1.00  0.00     0.049 A 
ATOM     58  H   UNL A   1      40.696  31.026  33.726  1.00  0.00     0.167 HD
ATOM     59  C   UNL A   1      42.263  28.802  32.912  1.00  0.00     0.074 A 
ATOM     60  C   UNL A   1      42.806  27.731  32.102  1.00  0.00     0.031 C 
ATOM     61  C   UNL A   1      42.707  29.125  34.150  1.00  0.00     0.037 A 
BRANCH  48  62
ATOM     62  C   UNL A   1      39.763  33.875  36.758  1.00  0.00     0.064 A 
ATOM     63  C   UNL A   1      40.391  35.126  36.816  1.00  0.00     0.173 A 
ATOM     64  C   UNL A   1      38.927  33.507  37.823  1.00  0.00     0.173 A 
ATOM     65  F   UNL A   1      41.209  35.518  35.827  1.00  0.00    -0.203 F 
ATOM     66  C   UNL A   1      40.197  35.974  37.904  1.00  0.00     0.198 A 
ATOM     67  C   UNL A   1      38.719  34.365  38.899  1.00  0.00     0.198 A 
ATOM     68  F   UNL A   1      38.299  32.322  37.812  1.00  0.00    -0.203 F 
ATOM     69  F   UNL A   1      40.828  37.155  37.952  1.00  0.00    -0.200 F 
ATOM     70  C   UNL A   1      39.355  35.597  38.940  1.00  0.00     0.200 A 
ATOM     71  F   UNL A   1      37.897  34.004  39.894  1.00  0.00    -0.200 F 
ATOM     72  F   UNL A   1      39.159  36.420  39.979  1.00  0.00    -0.200 F 
ENDBRANCH  48  62
BRANCH  49  73
ATOM     73  C   UNL A   1      40.358  28.061  28.673  1.00  0.00     0.064 A 
ATOM     74  C   UNL A   1      41.110  28.397  27.539  1.00  0.00     0.173 A 
ATOM     75  C   UNL A   1      39.688  26.830  28.676  1.00  0.00     0.173 A 
ATOM     76  F   UNL A   1      41.752  29.572  27.486  1.00  0.00    -0.203 F 
ATOM     77  C   UNL A   1      41.191  27.531  26.451  1.00  0.00     0.198 A 
ATOM     78  C   UNL A   1      39.789  25.955  27.598  1.00  0.00     0.198 A 
ATOM     79  F   UNL A   1      38.959  26.466  29.741  1.00  0.00    -0.203 F 
ATOM     80  F   UNL A   1      41.901  27.882  25.370  1.00  0.00    -0.200 F 
ATOM     81  C   UNL A   1      40.540  26.307  26.485  1.00  0.00     0.200 A 
ATOM     82  F   UNL A   1      39.171  24.767  27.641  1.00  0.00    -0.200 F 
ATOM     83  F   UNL A   1      40.632  25.467  25.446  1.00  0.00    -0.200 F 
ENDBRANCH  49  73
BRANCH  61  84
ATOM     84  C   UNL A   1      43.836  28.316  34.709  1.00  0.00     0.064 A 
ATOM     85  C   UNL A   1      45.166  28.737  34.571  1.00  0.00     0.173 A 
ATOM     86  C   UNL A   1      43.583  27.153  35.450  1.00  0.00     0.173 A 
ATOM     87  F   UNL A   1      45.455  29.837  33.860  1.00  0.00    -0.203 F 
ATOM     88  C   UNL A   1      46.205  28.015  35.149  1.00  0.00     0.198 A 
ATOM     89  C   UNL A   1      44.624  26.445  36.043  1.00  0.00     0.198 A 
ATOM     90  F   UNL A   1      42.325  26.716  35.614  1.00  0.00    -0.203 F 
ATOM     91  F   UNL A   1      47.473  28.420  34.986  1.00  0.00    -0.200 F 
ATOM     92  C   UNL A   1      45.933  26.875  35.891  1.00  0.00     0.200 A 
ATOM     93  F   UNL A   1      44.359  25.348  36.769  1.00  0.00    -0.200 F 
ATOM     94  F   UNL A   1      46.935  26.188  36.457  1.00  0.00    -0.200 F 
ENDBRANCH  61  84
ENDBRANCH  35  36
ENDBRANCH  27  30
ENDBRANCH  25  26
ENDBRANCH   1  25
TORSDOF 13
ENDMDL
MODEL 2
REMARK VINA RESULT:     -13.0      0.166      1.198
REMARK SMILES CCc1c(Cl)ccc2c1C=C(C(=O)NCCCCNC(=O)c1ccc(-c3c4nc(c(-c5c(F)c(F)c(F)c(F)c5F)c5ccc([nH]5)c(-c5c(F)c(F)c(F)c(F)c5F)c5nc(c(-c6c(F)c(F)c(F)c(F)c6F)c6ccc3[nH]6)C=C5)C=C4)cc1)[C@@H](C(F)(F)F)O2
REMARK SMILES IDX 17 1 16 2 15 3 14 4 12 5 13 6 11 8 3 9 4 10 9 11 5 12 6 13
REMARK SMILES IDX 8 14 10 15 7 16 90 17 85 18 2 19 1 20 86 21 87 22 88 23
REMARK SMILES IDX 89 24 18 25 19 26 20 27 21 29 22 30 23 31 84 32 24 33 83 34
REMARK SMILES IDX 25 35 26 36 27 37 77 38 28 39 82 40 76 41 78 42 29 43 81 44
REMARK SMILES IDX 75 45 74 46 30 48 62 49 42 50 61 51 43 52 46 53 60 54 79 55
REMARK SMILES IDX 44 56 45 57 59 59 80 60 47 61 31 62 32 63 40 64 33 65 34 66
REMARK SMILES IDX 38 67 41 68 35 69 36 70 39 71 37 72 63 73 64 74 72 75 65 76
REMARK SMILES IDX 66 77 70 78 73 79 67 80 68 81 71 82 69 83 48 84 49 85 57 86
REMARK SMILES IDX 50 87 51 88 55 89 58 90 52 91 53 92 56 93 54 94
REMARK H PARENT 14 7 19 28 78 47 46 58
REMARK Flexibility Score: inf
ROOT
ATOM      1  C   UNL A   1      31.809  31.784  26.890  1.00  0.00     0.023 C 
ENDROOT
BRANCH   1   2
ATOM      2  C   UNL A   1      32.129  30.292  27.006  1.00  0.00     0.023 C 
BRANCH   2   3
ATOM      3  C   UNL A   1      33.589  29.936  26.738  1.00  0.00     0.116 C 
BRANCH   3   4
ATOM      4  N   UNL A   1      33.808  29.503  25.367  1.00  0.00    -0.352 N 
ATOM      5  C   UNL A   1      33.674  28.360  24.653  1.00  0.00     0.251 C 
ATOM      6  O   UNL A   1      33.977  28.455  23.459  1.00  0.00    -0.270 OA
ATOM      7  H   UNL A   1      34.145  30.240  24.807  1.00  0.00     0.163 HD
BRANCH   5   8
ATOM      8  C   UNL A   1      33.208  27.044  25.193  1.00  0.00     0.067 C 
ATOM      9  C   UNL A   1      34.510  23.518  25.344  1.00  0.00    -0.019 A 
ATOM     10  C   UNL A   1      34.089  22.303  25.939  1.00  0.00     0.045 A 
ATOM     11  C   UNL A   1      33.722  24.681  25.561  1.00  0.00     0.022 A 
ATOM     12  Cl  UNL A   1      34.977  20.826  25.764  1.00  0.00    -0.084 Cl
ATOM     13  C   UNL A   1      32.931  22.237  26.716  1.00  0.00     0.024 A 
ATOM     14  C   UNL A   1      32.561  24.583  26.346  1.00  0.00     0.128 A 
ATOM     15  C   UNL A   1      34.069  26.016  25.058  1.00  0.00     0.026 C 
ATOM     16  C   UNL A   1      32.170  23.377  26.921  1.00  0.00     0.048 A 
ATOM     17  O   UNL A   1      31.761  25.645  26.653  1.00  0.00    -0.475 OA
ATOM     18  C   UNL A   1      31.868  26.826  25.822  1.00  0.00     0.314 C 
BRANCH   9  19
ATOM     19  C   UNL A   1      35.760  23.533  24.482  1.00  0.00     0.034 C 
ATOM     20  C   UNL A   1      37.025  23.753  25.302  1.00  0.00     0.009 C 
ENDBRANCH   9  19
BRANCH  18  21
ATOM     21  C   UNL A   1      30.721  26.827  24.796  1.00  0.00     0.429 C 
ATOM     22  F   UNL A   1      30.370  28.099  24.479  1.00  0.00    -0.167 F 
ATOM     23  F   UNL A   1      31.065  26.228  23.631  1.00  0.00    -0.167 F 
ATOM     24  F   UNL A   1      29.613  26.201  25.250  1.00  0.00    -0.167 F 
ENDBRANCH  18  21
ENDBRANCH   5   8
ENDBRANCH   3   4
ENDBRANCH   2   3
ENDBRANCH   1   2
BRANCH   1  25
ATOM     25  C   UNL A   1      32.875  32.735  27.433  1.00  0.00     0.116 C 
BRANCH  25  26
ATOM     26  N   UNL A   1      32.398  34.083  27.707  1.00  0.00    -0.352 N 
ATOM     27  C   UNL A   1      32.928  35.014  28.572  1.00  0.00     0.251 C 
ATOM     28  H   UNL A   1      31.596  34.364  27.212  1.00  0.00     0.163 HD
ATOM     29  O   UNL A   1      32.376  36.097  28.744  1.00  0.00    -0.269 OA
BRANCH  27  30
ATOM     30  C   UNL A   1      34.141  34.668  29.338  1.00  0.00     0.039 A 
ATOM     31  C   UNL A   1      35.401  34.776  28.748  1.00  0.00     0.014 A 
ATOM     32  C   UNL A   1      34.004  34.143  30.626  1.00  0.00     0.014 A 
ATOM     33  C   UNL A   1      36.497  34.190  29.368  1.00  0.00     0.010 A 
ATOM     34  C   UNL A   1      35.123  33.623  31.282  1.00  0.00     0.010 A 
ATOM     35  C   UNL A   1      36.365  33.585  30.630  1.00  0.00    -0.014 A 
BRANCH  35  36
ATOM     36  C   UNL A   1      37.535  32.885  31.218  1.00  0.00     0.031 A 
ATOM     37  C   UNL A   1      38.002  33.211  32.611  1.00  0.00     0.074 A 
ATOM     38  C   UNL A   1      38.114  31.886  30.528  1.00  0.00     0.049 A 
ATOM     39  N   UNL A   1      38.956  32.650  33.313  1.00  0.00    -0.248 NA
ATOM     40  C   UNL A   1      37.315  34.308  33.311  1.00  0.00     0.031 C 
ATOM     41  C   UNL A   1      37.736  31.471  29.176  1.00  0.00     0.029 A 
ATOM     42  N   UNL A   1      39.112  31.013  30.880  1.00  0.00    -0.354 N 
ATOM     43  C   UNL A   1      38.994  33.335  34.520  1.00  0.00     0.074 A 
ATOM     44  C   UNL A   1      37.985  34.369  34.453  1.00  0.00     0.031 C 
ATOM     45  C   UNL A   1      38.442  30.381  28.840  1.00  0.00     0.029 A 
ATOM     46  C   UNL A   1      39.358  30.053  29.929  1.00  0.00     0.049 A 
ATOM     47  H   UNL A   1      39.603  31.069  31.731  1.00  0.00     0.167 HD
ATOM     48  C   UNL A   1      39.790  33.111  35.593  1.00  0.00     0.037 A 
ATOM     49  C   UNL A   1      40.222  29.022  29.934  1.00  0.00     0.037 A 
ATOM     50  C   UNL A   1      40.769  32.059  35.674  1.00  0.00     0.049 A 
ATOM     51  C   UNL A   1      41.106  28.810  31.127  1.00  0.00     0.074 A 
ATOM     52  C   UNL A   1      41.606  31.740  36.729  1.00  0.00     0.029 A 
ATOM     53  N   UNL A   1      41.035  31.149  34.662  1.00  0.00    -0.354 N 
ATOM     54  N   UNL A   1      41.133  29.467  32.260  1.00  0.00    -0.248 NA
ATOM     55  C   UNL A   1      42.089  27.720  31.039  1.00  0.00     0.031 C 
ATOM     56  C   UNL A   1      42.402  30.658  36.344  1.00  0.00     0.029 A 
ATOM     57  C   UNL A   1      42.035  30.280  35.062  1.00  0.00     0.049 A 
ATOM     58  H   UNL A   1      40.580  31.125  33.789  1.00  0.00     0.167 HD
ATOM     59  C   UNL A   1      42.131  28.875  33.020  1.00  0.00     0.074 A 
ATOM     60  C   UNL A   1      42.672  27.788  32.229  1.00  0.00     0.031 C 
ATOM     61  C   UNL A   1      42.565  29.207  34.260  1.00  0.00     0.037 A 
BRANCH  48  62
ATOM     62  C   UNL A   1      39.644  34.020  36.777  1.00  0.00     0.064 A 
ATOM     63  C   UNL A   1      38.851  33.668  37.878  1.00  0.00     0.173 A 
ATOM     64  C   UNL A   1      40.364  35.222  36.841  1.00  0.00     0.173 A 
ATOM     65  F   UNL A   1      38.135  32.534  37.858  1.00  0.00    -0.203 F 
ATOM     66  C   UNL A   1      38.777  34.492  38.998  1.00  0.00     0.198 A 
ATOM     67  C   UNL A   1      40.304  36.034  37.971  1.00  0.00     0.198 A 
ATOM     68  F   UNL A   1      41.140  35.601  35.815  1.00  0.00    -0.203 F 
ATOM     69  F   UNL A   1      37.994  34.148  40.029  1.00  0.00    -0.200 F 
ATOM     70  C   UNL A   1      39.509  35.669  39.047  1.00  0.00     0.200 A 
ATOM     71  F   UNL A   1      41.019  37.166  38.020  1.00  0.00    -0.200 F 
ATOM     72  F   UNL A   1      39.447  36.454  40.131  1.00  0.00    -0.200 F 
ENDBRANCH  48  62
BRANCH  49  73
ATOM     73  C   UNL A   1      40.267  28.104  28.768  1.00  0.00     0.064 A 
ATOM     74  C   UNL A   1      41.020  28.427  27.631  1.00  0.00     0.173 A 
ATOM     75  C   UNL A   1      39.600  26.872  28.786  1.00  0.00     0.173 A 
ATOM     76  F   UNL A   1      41.661  29.603  27.565  1.00  0.00    -0.203 F 
ATOM     77  C   UNL A   1      41.105  27.548  26.554  1.00  0.00     0.198 A 
ATOM     78  C   UNL A   1      39.704  25.984  27.718  1.00  0.00     0.198 A 
ATOM     79  F   UNL A   1      38.870  26.519  29.854  1.00  0.00    -0.203 F 
ATOM     80  F   UNL A   1      41.816  27.887  25.470  1.00  0.00    -0.200 F 
ATOM     81  C   UNL A   1      40.456  26.323  26.603  1.00  0.00     0.200 A 
ATOM     82  F   UNL A   1      39.087  24.795  27.775  1.00  0.00    -0.200 F 
ATOM     83  F   UNL A   1      40.551  25.471  25.574  1.00  0.00    -0.200 F 
ENDBRANCH  49  73
BRANCH  61  84
ATOM     84  C   UNL A   1      43.678  28.394  34.841  1.00  0.00     0.064 A 
ATOM     85  C   UNL A   1      45.014  28.803  34.721  1.00  0.00     0.173 A 
ATOM     86  C   UNL A   1      43.405  27.237  35.585  1.00  0.00     0.173 A 
ATOM     87  F   UNL A   1      45.323  29.896  34.008  1.00  0.00    -0.203 F 
ATOM     88  C   UNL A   1      46.038  28.076  35.319  1.00  0.00     0.198 A 
ATOM     89  C   UNL A   1      44.430  26.524  36.199  1.00  0.00     0.198 A 
ATOM     90  F   UNL A   1      42.141  26.811  35.732  1.00  0.00    -0.203 F 
ATOM     91  F   UNL A   1      47.312  28.470  35.173  1.00  0.00    -0.200 F 
ATOM     92  C   UNL A   1      45.746  26.943  36.064  1.00  0.00     0.200 A 
ATOM     93  F   UNL A   1      44.145  25.435  36.927  1.00  0.00    -0.200 F 
ATOM     94  F   UNL A   1      46.733  26.251  36.650  1.00  0.00    -0.200 F 
ENDBRANCH  61  84
ENDBRANCH  35  36
ENDBRANCH  27  30
ENDBRANCH  25  26
ENDBRANCH   1  25
TORSDOF 13
ENDMDL
MODEL 3
REMARK VINA RESULT:     -13.0      0.510      7.289
REMARK SMILES CCc1c(Cl)ccc2c1C=C(C(=O)NCCCCNC(=O)c1ccc(-c3c4nc(c(-c5c(F)c(F)c(F)c(F)c5F)c5ccc([nH]5)c(-c5c(F)c(F)c(F)c(F)c5F)c5nc(c(-c6c(F)c(F)c(F)c(F)c6F)c6ccc3[nH]6)C=C5)C=C4)cc1)[C@@H](C(F)(F)F)O2
REMARK SMILES IDX 17 1 16 2 15 3 14 4 12 5 13 6 11 8 3 9 4 10 9 11 5 12 6 13
REMARK SMILES IDX 8 14 10 15 7 16 90 17 85 18 2 19 1 20 86 21 87 22 88 23
REMARK SMILES IDX 89 24 18 25 19 26 20 27 21 29 22 30 23 31 84 32 24 33 83 34
REMARK SMILES IDX 25 35 26 36 27 37 77 38 28 39 82 40 76 41 78 42 29 43 81 44
REMARK SMILES IDX 75 45 74 46 30 48 62 49 42 50 61 51 43 52 46 53 60 54 79 55
REMARK SMILES IDX 44 56 45 57 59 59 80 60 47 61 31 62 32 63 40 64 33 65 34 66
REMARK SMILES IDX 38 67 41 68 35 69 36 70 39 71 37 72 63 73 64 74 72 75 65 76
REMARK SMILES IDX 66 77 70 78 73 79 67 80 68 81 71 82 69 83 48 84 49 85 57 86
REMARK SMILES IDX 50 87 51 88 55 89 58 90 52 91 53 92 56 93 54 94
REMARK H PARENT 14 7 19 28 78 47 46 58
REMARK Flexibility Score: inf
ROOT
ATOM      1  C   UNL A   1      31.740  32.001  26.810  1.00  0.00     0.023 C 
ENDROOT
BRANCH   1   2
ATOM      2  C   UNL A   1      31.949  30.486  26.877  1.00  0.00     0.023 C 
BRANCH   2   3
ATOM      3  C   UNL A   1      33.404  30.043  26.750  1.00  0.00     0.116 C 
BRANCH   3   4
ATOM      4  N   UNL A   1      33.728  29.591  25.407  1.00  0.00    -0.352 N 
ATOM      5  C   UNL A   1      33.662  28.435  24.704  1.00  0.00     0.251 C 
ATOM      6  O   UNL A   1      34.049  28.515  23.534  1.00  0.00    -0.270 OA
ATOM      7  H   UNL A   1      34.093  30.324  24.859  1.00  0.00     0.163 HD
BRANCH   5   8
ATOM      8  C   UNL A   1      33.180  27.120  25.233  1.00  0.00     0.067 C 
ATOM      9  C   UNL A   1      34.474  23.594  25.434  1.00  0.00    -0.019 A 
ATOM     10  C   UNL A   1      34.034  22.381  26.017  1.00  0.00     0.045 A 
ATOM     11  C   UNL A   1      33.680  24.758  25.622  1.00  0.00     0.022 A 
ATOM     12  Cl  UNL A   1      34.927  20.902  25.875  1.00  0.00    -0.084 Cl
ATOM     13  C   UNL A   1      32.852  22.316  26.758  1.00  0.00     0.024 A 
ATOM     14  C   UNL A   1      32.495  24.663  26.370  1.00  0.00     0.128 A 
ATOM     15  C   UNL A   1      34.044  26.092  25.128  1.00  0.00     0.026 C 
ATOM     16  C   UNL A   1      32.085  23.457  26.935  1.00  0.00     0.048 A 
ATOM     17  O   UNL A   1      31.686  25.725  26.650  1.00  0.00    -0.475 OA
ATOM     18  C   UNL A   1      31.820  26.904  25.819  1.00  0.00     0.314 C 
BRANCH   9  19
ATOM     19  C   UNL A   1      35.751  23.607  24.612  1.00  0.00     0.034 C 
ATOM     20  C   UNL A   1      36.995  23.756  25.478  1.00  0.00     0.009 C 
ENDBRANCH   9  19
BRANCH  18  21
ATOM     21  C   UNL A   1      30.706  26.903  24.757  1.00  0.00     0.429 C 
ATOM     22  F   UNL A   1      30.393  28.173  24.398  1.00  0.00    -0.167 F 
ATOM     23  F   UNL A   1      31.074  26.267  23.619  1.00  0.00    -0.167 F 
ATOM     24  F   UNL A   1      29.571  26.312  25.192  1.00  0.00    -0.167 F 
ENDBRANCH  18  21
ENDBRANCH   5   8
ENDBRANCH   3   4
ENDBRANCH   2   3
ENDBRANCH   1   2
BRANCH   1  25
ATOM     25  C   UNL A   1      32.806  32.848  27.502  1.00  0.00     0.116 C 
BRANCH  25  26
ATOM     26  N   UNL A   1      32.422  34.235  27.727  1.00  0.00    -0.352 N 
ATOM     27  C   UNL A   1      32.961  35.133  28.621  1.00  0.00     0.251 C 
ATOM     28  H   UNL A   1      31.684  34.572  27.171  1.00  0.00     0.163 HD
ATOM     29  O   UNL A   1      32.488  36.259  28.742  1.00  0.00    -0.269 OA
BRANCH  27  30
ATOM     30  C   UNL A   1      34.082  34.701  29.478  1.00  0.00     0.039 A 
ATOM     31  C   UNL A   1      35.380  34.652  28.968  1.00  0.00     0.014 A 
ATOM     32  C   UNL A   1      33.812  34.255  30.774  1.00  0.00     0.014 A 
ATOM     33  C   UNL A   1      36.369  33.987  29.682  1.00  0.00     0.010 A 
ATOM     34  C   UNL A   1      34.828  33.655  31.523  1.00  0.00     0.010 A 
ATOM     35  C   UNL A   1      36.097  33.460  30.956  1.00  0.00    -0.014 A 
BRANCH  35  36
ATOM     36  C   UNL A   1      37.149  32.672  31.648  1.00  0.00     0.031 A 
ATOM     37  C   UNL A   1      37.855  31.548  30.940  1.00  0.00     0.074 A 
ATOM     38  C   UNL A   1      37.531  33.036  32.886  1.00  0.00     0.049 A 
ATOM     39  N   UNL A   1      38.847  30.802  31.361  1.00  0.00    -0.248 NA
ATOM     40  C   UNL A   1      37.391  31.211  29.584  1.00  0.00     0.031 C 
ATOM     41  C   UNL A   1      36.928  34.119  33.664  1.00  0.00     0.029 A 
ATOM     42  N   UNL A   1      38.540  32.567  33.688  1.00  0.00    -0.354 N 
ATOM     43  C   UNL A   1      39.111  29.904  30.336  1.00  0.00     0.074 A 
ATOM     44  C   UNL A   1      38.162  30.177  29.278  1.00  0.00     0.031 C 
ATOM     45  C   UNL A   1      37.623  34.279  34.801  1.00  0.00     0.029 A 
ATOM     46  C   UNL A   1      38.683  33.276  34.855  1.00  0.00     0.049 A 
ATOM     47  H   UNL A   1      39.104  31.797  33.450  1.00  0.00     0.167 HD
ATOM     48  C   UNL A   1      40.068  28.947  30.278  1.00  0.00     0.037 A 
ATOM     49  C   UNL A   1      39.572  33.138  35.856  1.00  0.00     0.037 A 
ATOM     50  C   UNL A   1      41.034  28.699  31.314  1.00  0.00     0.049 A 
ATOM     51  C   UNL A   1      40.608  32.056  35.774  1.00  0.00     0.074 A 
ATOM     52  C   UNL A   1      42.057  27.766  31.334  1.00  0.00     0.029 A 
ATOM     53  N   UNL A   1      41.104  29.396  32.511  1.00  0.00    -0.354 N 
ATOM     54  N   UNL A   1      40.843  31.212  34.800  1.00  0.00    -0.248 NA
ATOM     55  C   UNL A   1      41.495  31.898  36.936  1.00  0.00     0.031 C 
ATOM     56  C   UNL A   1      42.725  27.876  32.557  1.00  0.00     0.029 A 
ATOM     57  C   UNL A   1      42.142  28.901  33.283  1.00  0.00     0.049 A 
ATOM     58  H   UNL A   1      40.505  30.132  32.772  1.00  0.00     0.167 HD
ATOM     59  C   UNL A   1      41.902  30.423  35.227  1.00  0.00     0.074 A 
ATOM     60  C   UNL A   1      42.281  30.905  36.540  1.00  0.00     0.031 C 
ATOM     61  C   UNL A   1      42.501  29.389  34.590  1.00  0.00     0.037 A 
BRANCH  48  62
ATOM     62  C   UNL A   1      40.123  28.085  29.051  1.00  0.00     0.064 A 
ATOM     63  C   UNL A   1      40.875  28.457  27.928  1.00  0.00     0.173 A 
ATOM     64  C   UNL A   1      39.478  26.840  29.029  1.00  0.00     0.173 A 
ATOM     65  F   UNL A   1      41.500  29.644  27.897  1.00  0.00    -0.203 F 
ATOM     66  C   UNL A   1      40.971  27.617  26.822  1.00  0.00     0.198 A 
ATOM     67  C   UNL A   1      39.593  25.993  27.930  1.00  0.00     0.198 A 
ATOM     68  F   UNL A   1      38.751  26.436  30.081  1.00  0.00    -0.203 F 
ATOM     69  F   UNL A   1      41.674  28.003  25.748  1.00  0.00    -0.200 F 
ATOM     70  C   UNL A   1      40.338  26.383  26.827  1.00  0.00     0.200 A 
ATOM     71  F   UNL A   1      38.989  24.797  27.940  1.00  0.00    -0.200 F 
ATOM     72  F   UNL A   1      40.442  25.570  25.766  1.00  0.00    -0.200 F 
ENDBRANCH  48  62
BRANCH  49  73
ATOM     73  C   UNL A   1      39.522  34.071  37.009  1.00  0.00     0.064 A 
ATOM     74  C   UNL A   1      38.798  33.745  38.164  1.00  0.00     0.173 A 
ATOM     75  C   UNL A   1      40.229  35.281  36.997  1.00  0.00     0.173 A 
ATOM     76  F   UNL A   1      38.093  32.605  38.212  1.00  0.00    -0.203 F 
ATOM     77  C   UNL A   1      38.787  34.595  39.267  1.00  0.00     0.198 A 
ATOM     78  C   UNL A   1      40.235  36.119  38.109  1.00  0.00     0.198 A 
ATOM     79  F   UNL A   1      40.937  35.634  35.915  1.00  0.00    -0.203 F 
ATOM     80  F   UNL A   1      38.073  34.270  40.353  1.00  0.00    -0.200 F 
ATOM     81  C   UNL A   1      39.513  35.776  39.243  1.00  0.00     0.200 A 
ATOM     82  F   UNL A   1      40.951  37.253  38.088  1.00  0.00    -0.200 F 
ATOM     83  F   UNL A   1      39.516  36.585  40.310  1.00  0.00    -0.200 F 
ENDBRANCH  49  73
BRANCH  61  84
ATOM     84  C   UNL A   1      43.626  28.702  35.298  1.00  0.00     0.064 A 
ATOM     85  C   UNL A   1      44.956  29.106  35.109  1.00  0.00     0.173 A 
ATOM     86  C   UNL A   1      43.370  27.684  36.228  1.00  0.00     0.173 A 
ATOM     87  F   UNL A   1      45.248  30.068  34.222  1.00  0.00    -0.203 F 
ATOM     88  C   UNL A   1      45.990  28.507  35.821  1.00  0.00     0.198 A 
ATOM     89  C   UNL A   1      44.405  27.101  36.952  1.00  0.00     0.198 A 
ATOM     90  F   UNL A   1      42.112  27.269  36.446  1.00  0.00    -0.203 F 
ATOM     91  F   UNL A   1      47.257  28.890  35.608  1.00  0.00    -0.200 F 
ATOM     92  C   UNL A   1      45.714  27.512  36.746  1.00  0.00     0.200 A 
ATOM     93  F   UNL A   1      44.136  26.145  37.853  1.00  0.00    -0.200 F 
ATOM     94  F   UNL A   1      46.711  26.944  37.439  1.00  0.00    -0.200 F 
ENDBRANCH  61  84
ENDBRANCH  35  36
ENDBRANCH  27  30
ENDBRANCH  25  26
ENDBRANCH   1  25
TORSDOF 13
ENDMDL
