MODEL 1
REMARK VINA RESULT:     -13.2      0.000      0.000
REMARK SMILES O=C(NCCCCNC(=O)c1cc(/N=C/c2ccc([N+](=O)[O-])cc2)ccc1O)c1ccc(-c2c3nc(c(-c4c(F)c(F)c(F)c(F)c4F)c4ccc([nH]4)c(-c4c(F)c(F)c(F)c(F)c4F)c4nc(c(-c5c(F)c(F)c(F)c(F)c5F)c5ccc2[nH]5)C=C4)C=C3)cc1
REMARK SMILES IDX 6 1 5 2 4 3 3 4 1 5 2 6 29 8 30 9 91 10 31 11 90 12 32 13
REMARK SMILES IDX 33 14 34 15 84 16 35 17 89 18 83 19 85 20 36 21 88 22 82 23
REMARK SMILES IDX 81 24 37 26 69 27 49 28 68 29 50 30 53 31 67 32 86 33 51 34
REMARK SMILES IDX 52 35 66 37 87 38 54 39 38 40 39 41 47 42 40 43 41 44 45 45
REMARK SMILES IDX 48 46 42 47 43 48 46 49 44 50 70 51 71 52 79 53 72 54 73 55
REMARK SMILES IDX 77 56 80 57 74 58 75 59 78 60 76 61 55 62 56 63 64 64 57 65
REMARK SMILES IDX 58 66 62 67 65 68 59 69 60 70 63 71 61 72 7 73 8 74 9 75
REMARK SMILES IDX 10 77 11 78 12 79 27 80 13 81 26 82 25 83 28 84 14 86 15 87
REMARK SMILES IDX 16 88 17 89 24 90 18 91 23 92 19 93 20 94 21 95 22 96
REMARK H PARENT 3 7 85 25 53 36 8 76 28 85
REMARK Flexibility Score: inf
ROOT
ATOM      1  C   UNL A   1      33.847  28.698  23.617  1.00  0.00     0.023 C 
ENDROOT
BRANCH   1   2
ATOM      2  C   UNL A   1      32.713  29.297  24.445  1.00  0.00     0.023 C 
BRANCH   2   3
ATOM      3  C   UNL A   1      33.040  29.544  25.912  1.00  0.00     0.116 C 
BRANCH   3   4
ATOM      4  N   UNL A   1      32.700  30.889  26.357  1.00  0.00    -0.352 N 
ATOM      5  O   UNL A   1      32.844  32.773  27.593  1.00  0.00    -0.269 OA
ATOM      6  C   UNL A   1      33.352  31.710  27.247  1.00  0.00     0.251 C 
ATOM      7  H   UNL A   1      31.882  31.267  25.960  1.00  0.00     0.163 HD
BRANCH   6   8
ATOM      8  C   UNL A   1      34.652  31.297  27.817  1.00  0.00     0.039 A 
ATOM      9  C   UNL A   1      34.858  29.985  28.246  1.00  0.00     0.014 A 
ATOM     10  C   UNL A   1      35.675  32.242  27.939  1.00  0.00     0.014 A 
ATOM     11  C   UNL A   1      36.012  29.664  28.950  1.00  0.00     0.010 A 
ATOM     12  C   UNL A   1      36.875  31.892  28.565  1.00  0.00     0.010 A 
ATOM     13  C   UNL A   1      37.035  30.612  29.117  1.00  0.00    -0.014 A 
BRANCH  13  14
ATOM     14  C   UNL A   1      38.270  30.222  29.846  1.00  0.00     0.031 A 
ATOM     15  C   UNL A   1      38.513  30.666  31.261  1.00  0.00     0.074 A 
ATOM     16  C   UNL A   1      39.154  29.412  29.231  1.00  0.00     0.049 A 
ATOM     17  N   UNL A   1      39.509  30.368  32.059  1.00  0.00    -0.248 NA
ATOM     18  C   UNL A   1      37.518  31.568  31.859  1.00  0.00     0.031 C 
ATOM     19  C   UNL A   1      39.030  28.924  27.856  1.00  0.00     0.029 A 
ATOM     20  N   UNL A   1      40.309  28.832  29.688  1.00  0.00    -0.354 N 
ATOM     21  C   UNL A   1      39.274  31.061  33.239  1.00  0.00     0.074 A 
ATOM     22  C   UNL A   1      38.052  31.813  33.047  1.00  0.00     0.031 C 
ATOM     23  C   UNL A   1      40.032  28.072  27.601  1.00  0.00     0.029 A 
ATOM     24  C   UNL A   1      40.899  27.996  28.771  1.00  0.00     0.049 A 
ATOM     25  H   UNL A   1      40.680  28.998  30.585  1.00  0.00     0.167 HD
ATOM     26  C   UNL A   1      40.006  31.061  34.379  1.00  0.00     0.037 A 
ATOM     27  C   UNL A   1      42.018  27.254  28.861  1.00  0.00     0.037 A 
ATOM     28  C   UNL A   1      41.206  30.288  34.576  1.00  0.00     0.049 A 
ATOM     29  C   UNL A   1      42.812  27.279  30.135  1.00  0.00     0.074 A 
ATOM     30  C   UNL A   1      41.991  30.186  35.712  1.00  0.00     0.029 A 
ATOM     31  N   UNL A   1      41.794  29.483  33.612  1.00  0.00    -0.354 N 
ATOM     32  N   UNL A   1      42.558  27.911  31.254  1.00  0.00    -0.248 NA
ATOM     33  C   UNL A   1      44.049  26.490  30.154  1.00  0.00     0.031 C 
ATOM     34  C   UNL A   1      43.078  29.351  35.422  1.00  0.00     0.029 A 
ATOM     35  C   UNL A   1      42.946  28.899  34.119  1.00  0.00     0.049 A 
ATOM     36  H   UNL A   1      41.446  29.347  32.701  1.00  0.00     0.167 HD
ATOM     37  C   UNL A   1      43.595  27.587  32.116  1.00  0.00     0.074 A 
ATOM     38  C   UNL A   1      44.470  26.684  31.397  1.00  0.00     0.031 C 
ATOM     39  C   UNL A   1      43.805  28.004  33.389  1.00  0.00     0.037 A 
BRANCH  26  40
ATOM     40  C   UNL A   1      39.543  31.941  35.505  1.00  0.00     0.064 A 
ATOM     41  C   UNL A   1      40.003  33.257  35.652  1.00  0.00     0.173 A 
ATOM     42  C   UNL A   1      38.590  31.473  36.423  1.00  0.00     0.173 A 
ATOM     43  F   UNL A   1      40.922  33.749  34.807  1.00  0.00    -0.203 F 
ATOM     44  C   UNL A   1      39.546  34.065  36.691  1.00  0.00     0.198 A 
ATOM     45  C   UNL A   1      38.115  32.292  37.445  1.00  0.00     0.198 A 
ATOM     46  F   UNL A   1      38.111  30.224  36.323  1.00  0.00    -0.203 F 
ATOM     47  F   UNL A   1      40.030  35.307  36.835  1.00  0.00    -0.200 F 
ATOM     48  C   UNL A   1      38.597  33.584  37.582  1.00  0.00     0.200 A 
ATOM     49  F   UNL A   1      37.191  31.829  38.298  1.00  0.00    -0.200 F 
ATOM     50  F   UNL A   1      38.154  34.365  38.577  1.00  0.00    -0.200 F 
ENDBRANCH  26  40
BRANCH  27  51
ATOM     51  C   UNL A   1      42.436  26.415  27.711  1.00  0.00     0.064 A 
ATOM     52  C   UNL A   1      43.387  26.878  26.792  1.00  0.00     0.173 A 
ATOM     53  C   UNL A   1      41.912  25.128  27.519  1.00  0.00     0.173 A 
ATOM     54  F   UNL A   1      43.902  28.110  26.924  1.00  0.00    -0.203 F 
ATOM     55  C   UNL A   1      43.792  26.088  25.719  1.00  0.00     0.198 A 
ATOM     56  C   UNL A   1      42.338  24.330  26.461  1.00  0.00     0.198 A 
ATOM     57  F   UNL A   1      41.002  24.640  28.376  1.00  0.00    -0.203 F 
ATOM     58  F   UNL A   1      44.678  26.567  24.834  1.00  0.00    -0.200 F 
ATOM     59  C   UNL A   1      43.273  24.812  25.558  1.00  0.00     0.200 A 
ATOM     60  F   UNL A   1      41.846  23.091  26.321  1.00  0.00    -0.200 F 
ATOM     61  F   UNL A   1      43.671  24.048  24.532  1.00  0.00    -0.200 F 
ENDBRANCH  27  51
BRANCH  39  62
ATOM     62  C   UNL A   1      45.018  27.466  34.087  1.00  0.00     0.064 A 
ATOM     63  C   UNL A   1      44.975  26.262  34.806  1.00  0.00     0.173 A 
ATOM     64  C   UNL A   1      46.239  28.153  34.024  1.00  0.00     0.173 A 
ATOM     65  F   UNL A   1      43.826  25.579  34.911  1.00  0.00    -0.203 F 
ATOM     66  C   UNL A   1      46.106  25.781  35.461  1.00  0.00     0.198 A 
ATOM     67  C   UNL A   1      47.374  27.656  34.658  1.00  0.00     0.198 A 
ATOM     68  F   UNL A   1      46.330  29.306  33.345  1.00  0.00    -0.203 F 
ATOM     69  F   UNL A   1      46.030  24.655  36.184  1.00  0.00    -0.200 F 
ATOM     70  C   UNL A   1      47.304  26.475  35.382  1.00  0.00     0.200 A 
ATOM     71  F   UNL A   1      48.533  28.322  34.573  1.00  0.00    -0.200 F 
ATOM     72  F   UNL A   1      48.391  26.010  36.013  1.00  0.00    -0.200 F 
ENDBRANCH  39  62
ENDBRANCH  13  14
ENDBRANCH   6   8
ENDBRANCH   3   4
ENDBRANCH   2   3
ENDBRANCH   1   2
BRANCH   1  73
ATOM     73  C   UNL A   1      33.799  27.184  23.448  1.00  0.00     0.116 C 
BRANCH  73  74
ATOM     74  N   UNL A   1      33.728  26.771  22.057  1.00  0.00    -0.352 N 
ATOM     75  C   UNL A   1      33.013  25.721  21.530  1.00  0.00     0.255 C 
ATOM     76  H   UNL A   1      34.251  27.306  21.417  1.00  0.00     0.163 HD
ATOM     77  O   UNL A   1      33.060  25.464  20.331  1.00  0.00    -0.269 OA
BRANCH  75  78
ATOM     78  C   UNL A   1      32.254  24.850  22.444  1.00  0.00     0.083 A 
ATOM     79  C   UNL A   1      32.792  23.590  22.728  1.00  0.00     0.046 A 
ATOM     80  C   UNL A   1      31.082  25.280  23.075  1.00  0.00     0.128 A 
ATOM     81  C   UNL A   1      32.195  22.775  23.687  1.00  0.00     0.064 A 
ATOM     82  C   UNL A   1      30.486  24.479  24.044  1.00  0.00     0.049 A 
ATOM     83  C   UNL A   1      31.058  23.244  24.363  1.00  0.00     0.032 A 
BRANCH  80  84
ATOM     84  O   UNL A   1      30.545  26.502  22.780  1.00  0.00    -0.507 OA
ATOM     85  H   UNL A   1      30.482  26.783  21.889  1.00  0.00     0.293 HD
ENDBRANCH  80  84
BRANCH  81  86
ATOM     86  N   UNL A   1      32.805  21.547  23.994  1.00  0.00    -0.256 NA
ATOM     87  C   UNL A   1      32.089  20.473  23.902  1.00  0.00     0.119 C 
BRANCH  87  88
ATOM     88  C   UNL A   1      32.640  19.138  24.197  1.00  0.00    -0.007 A 
ATOM     89  C   UNL A   1      32.648  18.700  25.527  1.00  0.00     0.017 A 
ATOM     90  C   UNL A   1      33.130  18.316  23.176  1.00  0.00     0.017 A 
ATOM     91  C   UNL A   1      33.139  17.429  25.837  1.00  0.00     0.086 A 
ATOM     92  C   UNL A   1      33.617  17.042  23.480  1.00  0.00     0.086 A 
ATOM     93  C   UNL A   1      33.616  16.602  24.811  1.00  0.00     0.269 A 
BRANCH  93  94
ATOM     94  N   UNL A   1      34.111  15.257  25.136  1.00  0.00     0.062 N 
ATOM     95  O   UNL A   1      35.336  15.073  25.108  1.00  0.00    -0.258 OA
ATOM     96  O   UNL A   1      33.275  14.388  25.422  1.00  0.00    -0.258 OA
ENDBRANCH  93  94
ENDBRANCH  87  88
ENDBRANCH  81  86
ENDBRANCH  75  78
ENDBRANCH  73  74
ENDBRANCH   1  73
TORSDOF 15
ENDMDL
MODEL 2
REMARK VINA RESULT:     -13.0      2.007      2.902
REMARK SMILES O=C(NCCCCNC(=O)c1cc(/N=C/c2ccc([N+](=O)[O-])cc2)ccc1O)c1ccc(-c2c3nc(c(-c4c(F)c(F)c(F)c(F)c4F)c4ccc([nH]4)c(-c4c(F)c(F)c(F)c(F)c4F)c4nc(c(-c5c(F)c(F)c(F)c(F)c5F)c5ccc2[nH]5)C=C4)C=C3)cc1
REMARK SMILES IDX 6 1 5 2 4 3 3 4 1 5 2 6 29 8 30 9 91 10 31 11 90 12 32 13
REMARK SMILES IDX 33 14 34 15 84 16 35 17 89 18 83 19 85 20 36 21 88 22 82 23
REMARK SMILES IDX 81 24 37 26 69 27 49 28 68 29 50 30 53 31 67 32 86 33 51 34
REMARK SMILES IDX 52 35 66 37 87 38 54 39 38 40 39 41 47 42 40 43 41 44 45 45
REMARK SMILES IDX 48 46 42 47 43 48 46 49 44 50 70 51 71 52 79 53 72 54 73 55
REMARK SMILES IDX 77 56 80 57 74 58 75 59 78 60 76 61 55 62 56 63 64 64 57 65
REMARK SMILES IDX 58 66 62 67 65 68 59 69 60 70 63 71 61 72 7 73 8 74 9 75
REMARK SMILES IDX 10 77 11 78 12 79 27 80 13 81 26 82 25 83 28 84 14 86 15 87
REMARK SMILES IDX 16 88 17 89 24 90 18 91 23 92 19 93 20 94 21 95 22 96
REMARK H PARENT 3 7 85 25 53 36 8 76 28 85
REMARK Flexibility Score: inf
ROOT
ATOM      1  C   UNL A   1      31.378  31.069  25.780  1.00  0.00     0.023 C 
ENDROOT
BRANCH   1   2
ATOM      2  C   UNL A   1      31.412  31.957  27.021  1.00  0.00     0.023 C 
BRANCH   2   3
ATOM      3  C   UNL A   1      32.670  32.800  27.183  1.00  0.00     0.116 C 
BRANCH   3   4
ATOM      4  N   UNL A   1      32.395  34.165  27.612  1.00  0.00    -0.352 N 
ATOM      5  O   UNL A   1      32.554  36.019  28.892  1.00  0.00    -0.269 OA
ATOM      6  C   UNL A   1      33.007  34.920  28.584  1.00  0.00     0.251 C 
ATOM      7  H   UNL A   1      31.661  34.615  27.133  1.00  0.00     0.163 HD
BRANCH   6   8
ATOM      8  C   UNL A   1      34.195  34.393  29.289  1.00  0.00     0.039 A 
ATOM      9  C   UNL A   1      35.478  34.605  28.781  1.00  0.00     0.014 A 
ATOM     10  C   UNL A   1      34.021  33.661  30.467  1.00  0.00     0.014 A 
ATOM     11  C   UNL A   1      36.561  33.944  29.349  1.00  0.00     0.010 A 
ATOM     12  C   UNL A   1      35.126  33.073  31.091  1.00  0.00     0.010 A 
ATOM     13  C   UNL A   1      36.399  33.172  30.511  1.00  0.00    -0.014 A 
BRANCH  13  14
ATOM     14  C   UNL A   1      37.587  32.509  31.109  1.00  0.00     0.031 A 
ATOM     15  C   UNL A   1      38.048  32.843  32.500  1.00  0.00     0.074 A 
ATOM     16  C   UNL A   1      38.221  31.556  30.398  1.00  0.00     0.049 A 
ATOM     17  N   UNL A   1      39.029  32.317  33.192  1.00  0.00    -0.248 NA
ATOM     18  C   UNL A   1      37.323  33.909  33.207  1.00  0.00     0.031 C 
ATOM     19  C   UNL A   1      37.871  31.155  29.034  1.00  0.00     0.029 A 
ATOM     20  N   UNL A   1      39.267  30.735  30.730  1.00  0.00    -0.354 N 
ATOM     21  C   UNL A   1      39.054  33.001  34.401  1.00  0.00     0.074 A 
ATOM     22  C   UNL A   1      38.004  33.996  34.341  1.00  0.00     0.031 C 
ATOM     23  C   UNL A   1      38.645  30.123  28.669  1.00  0.00     0.029 A 
ATOM     24  C   UNL A   1      39.582  29.828  29.747  1.00  0.00     0.049 A 
ATOM     25  H   UNL A   1      39.745  30.789  31.589  1.00  0.00     0.167 HD
ATOM     26  C   UNL A   1      39.872  32.809  35.463  1.00  0.00     0.037 A 
ATOM     27  C   UNL A   1      40.524  28.869  29.715  1.00  0.00     0.037 A 
ATOM     28  C   UNL A   1      40.897  31.798  35.529  1.00  0.00     0.049 A 
ATOM     29  C   UNL A   1      41.420  28.683  30.905  1.00  0.00     0.074 A 
ATOM     30  C   UNL A   1      41.746  31.495  36.581  1.00  0.00     0.029 A 
ATOM     31  N   UNL A   1      41.212  30.924  34.499  1.00  0.00    -0.354 N 
ATOM     32  N   UNL A   1      41.409  29.313  32.054  1.00  0.00    -0.248 NA
ATOM     33  C   UNL A   1      42.461  27.655  30.791  1.00  0.00     0.031 C 
ATOM     34  C   UNL A   1      42.602  30.465  36.172  1.00  0.00     0.029 A 
ATOM     35  C   UNL A   1      42.258  30.097  34.882  1.00  0.00     0.049 A 
ATOM     36  H   UNL A   1      40.760  30.895  33.625  1.00  0.00     0.167 HD
ATOM     37  C   UNL A   1      42.431  28.752  32.805  1.00  0.00     0.074 A 
ATOM     38  C   UNL A   1      43.027  27.713  31.989  1.00  0.00     0.031 C 
ATOM     39  C   UNL A   1      42.840  29.070  34.057  1.00  0.00     0.037 A 
BRANCH  26  40
ATOM     40  C   UNL A   1      39.710  33.724  36.643  1.00  0.00     0.064 A 
ATOM     41  C   UNL A   1      40.343  34.974  36.701  1.00  0.00     0.173 A 
ATOM     42  C   UNL A   1      38.872  33.363  37.709  1.00  0.00     0.173 A 
ATOM     43  F   UNL A   1      41.163  35.363  35.712  1.00  0.00    -0.203 F 
ATOM     44  C   UNL A   1      40.162  35.818  37.794  1.00  0.00     0.198 A 
ATOM     45  C   UNL A   1      38.674  34.221  38.788  1.00  0.00     0.198 A 
ATOM     46  F   UNL A   1      38.236  32.182  37.699  1.00  0.00    -0.203 F 
ATOM     47  F   UNL A   1      40.809  36.992  37.847  1.00  0.00    -0.200 F 
ATOM     48  C   UNL A   1      39.323  35.444  38.833  1.00  0.00     0.200 A 
ATOM     49  F   UNL A   1      37.853  33.862  39.785  1.00  0.00    -0.200 F 
ATOM     50  F   UNL A   1      39.146  36.261  39.881  1.00  0.00    -0.200 F 
ENDBRANCH  26  40
BRANCH  27  51
ATOM     51  C   UNL A   1      40.649  28.003  28.516  1.00  0.00     0.064 A 
ATOM     52  C   UNL A   1      41.443  28.392  27.429  1.00  0.00     0.173 A 
ATOM     53  C   UNL A   1      39.997  26.763  28.442  1.00  0.00     0.173 A 
ATOM     54  F   UNL A   1      42.069  29.578  27.447  1.00  0.00    -0.203 F 
ATOM     55  C   UNL A   1      41.573  27.576  26.308  1.00  0.00     0.198 A 
ATOM     56  C   UNL A   1      40.151  25.936  27.332  1.00  0.00     0.198 A 
ATOM     57  F   UNL A   1      39.230  26.346  29.460  1.00  0.00    -0.203 F 
ATOM     58  F   UNL A   1      42.311  27.985  25.267  1.00  0.00    -0.200 F 
ATOM     59  C   UNL A   1      40.933  26.346  26.263  1.00  0.00     0.200 A 
ATOM     60  F   UNL A   1      39.544  24.742  27.301  1.00  0.00    -0.200 F 
ATOM     61  F   UNL A   1      41.068  25.556  25.189  1.00  0.00    -0.200 F 
ENDBRANCH  27  51
BRANCH  39  62
ATOM     62  C   UNL A   1      43.973  28.268  34.624  1.00  0.00     0.064 A 
ATOM     63  C   UNL A   1      43.747  27.069  35.316  1.00  0.00     0.173 A 
ATOM     64  C   UNL A   1      45.299  28.695  34.462  1.00  0.00     0.173 A 
ATOM     65  F   UNL A   1      42.495  26.629  35.514  1.00  0.00    -0.203 F 
ATOM     66  C   UNL A   1      44.807  26.342  35.850  1.00  0.00     0.198 A 
ATOM     67  C   UNL A   1      46.358  27.952  34.973  1.00  0.00     0.198 A 
ATOM     68  F   UNL A   1      45.565  29.834  33.803  1.00  0.00    -0.203 F 
ATOM     69  F   UNL A   1      44.565  25.225  36.551  1.00  0.00    -0.200 F 
ATOM     70  C   UNL A   1      46.111  26.781  35.673  1.00  0.00     0.200 A 
ATOM     71  F   UNL A   1      47.617  28.372  34.794  1.00  0.00    -0.200 F 
ATOM     72  F   UNL A   1      47.130  26.079  36.188  1.00  0.00    -0.200 F 
ENDBRANCH  39  62
ENDBRANCH  13  14
ENDBRANCH   6   8
ENDBRANCH   3   4
ENDBRANCH   2   3
ENDBRANCH   1   2
BRANCH   1  73
ATOM     73  C   UNL A   1      32.290  29.848  25.828  1.00  0.00     0.116 C 
BRANCH  73  74
ATOM     74  N   UNL A   1      33.162  29.748  24.671  1.00  0.00    -0.352 N 
ATOM     75  C   UNL A   1      32.941  29.040  23.513  1.00  0.00     0.255 C 
ATOM     76  H   UNL A   1      34.011  30.245  24.721  1.00  0.00     0.163 HD
ATOM     77  O   UNL A   1      33.778  29.019  22.616  1.00  0.00    -0.269 OA
BRANCH  75  78
ATOM     78  C   UNL A   1      31.714  28.233  23.399  1.00  0.00     0.083 A 
ATOM     79  C   UNL A   1      31.818  26.864  23.672  1.00  0.00     0.046 A 
ATOM     80  C   UNL A   1      30.472  28.806  23.111  1.00  0.00     0.128 A 
ATOM     81  C   UNL A   1      30.673  26.071  23.714  1.00  0.00     0.064 A 
ATOM     82  C   UNL A   1      29.321  28.026  23.165  1.00  0.00     0.049 A 
ATOM     83  C   UNL A   1      29.424  26.670  23.490  1.00  0.00     0.032 A 
BRANCH  80  84
ATOM     84  O   UNL A   1      30.375  30.139  22.824  1.00  0.00    -0.507 OA
ATOM     85  H   UNL A   1      30.091  30.416  21.975  1.00  0.00     0.293 HD
ENDBRANCH  80  84
BRANCH  81  86
ATOM     86  N   UNL A   1      30.811  24.716  24.060  1.00  0.00    -0.256 NA
ATOM     87  C   UNL A   1      31.724  24.025  23.458  1.00  0.00     0.119 C 
BRANCH  87  88
ATOM     88  C   UNL A   1      31.951  22.599  23.756  1.00  0.00    -0.007 A 
ATOM     89  C   UNL A   1      32.058  21.704  22.686  1.00  0.00     0.017 A 
ATOM     90  C   UNL A   1      32.074  22.147  25.076  1.00  0.00     0.017 A 
ATOM     91  C   UNL A   1      32.299  20.350  22.933  1.00  0.00     0.086 A 
ATOM     92  C   UNL A   1      32.320  20.795  25.329  1.00  0.00     0.086 A 
ATOM     93  C   UNL A   1      32.436  19.901  24.255  1.00  0.00     0.269 A 
BRANCH  93  94
ATOM     94  N   UNL A   1      32.712  18.482  24.512  1.00  0.00     0.062 N 
ATOM     95  O   UNL A   1      33.548  17.919  23.792  1.00  0.00    -0.258 OA
ATOM     96  O   UNL A   1      32.093  17.932  25.434  1.00  0.00    -0.258 OA
ENDBRANCH  93  94
ENDBRANCH  87  88
ENDBRANCH  81  86
ENDBRANCH  75  78
ENDBRANCH  73  74
ENDBRANCH   1  73
TORSDOF 15
ENDMDL
MODEL 3
REMARK VINA RESULT:     -13.0      2.288      3.220
REMARK SMILES O=C(NCCCCNC(=O)c1cc(/N=C/c2ccc([N+](=O)[O-])cc2)ccc1O)c1ccc(-c2c3nc(c(-c4c(F)c(F)c(F)c(F)c4F)c4ccc([nH]4)c(-c4c(F)c(F)c(F)c(F)c4F)c4nc(c(-c5c(F)c(F)c(F)c(F)c5F)c5ccc2[nH]5)C=C4)C=C3)cc1
REMARK SMILES IDX 6 1 5 2 4 3 3 4 1 5 2 6 29 8 30 9 91 10 31 11 90 12 32 13
REMARK SMILES IDX 33 14 34 15 84 16 35 17 89 18 83 19 85 20 36 21 88 22 82 23
REMARK SMILES IDX 81 24 37 26 69 27 49 28 68 29 50 30 53 31 67 32 86 33 51 34
REMARK SMILES IDX 52 35 66 37 87 38 54 39 38 40 39 41 47 42 40 43 41 44 45 45
REMARK SMILES IDX 48 46 42 47 43 48 46 49 44 50 70 51 71 52 79 53 72 54 73 55
REMARK SMILES IDX 77 56 80 57 74 58 75 59 78 60 76 61 55 62 56 63 64 64 57 65
REMARK SMILES IDX 58 66 62 67 65 68 59 69 60 70 63 71 61 72 7 73 8 74 9 75
REMARK SMILES IDX 10 77 11 78 12 79 27 80 13 81 26 82 25 83 28 84 14 86 15 87
REMARK SMILES IDX 16 88 17 89 24 90 18 91 23 92 19 93 20 94 21 95 22 96
REMARK H PARENT 3 7 85 25 53 36 8 76 28 85
REMARK Flexibility Score: inf
ROOT
ATOM      1  C   UNL A   1      31.571  27.699  26.381  1.00  0.00     0.023 C 
ENDROOT
BRANCH   1   2
ATOM      2  C   UNL A   1      31.879  28.835  25.410  1.00  0.00     0.023 C 
BRANCH   2   3
ATOM      3  C   UNL A   1      33.073  29.703  25.783  1.00  0.00     0.116 C 
BRANCH   3   4
ATOM      4  N   UNL A   1      32.694  31.023  26.270  1.00  0.00    -0.352 N 
ATOM      5  O   UNL A   1      32.767  32.861  27.580  1.00  0.00    -0.269 OA
ATOM      6  C   UNL A   1      33.305  31.822  27.206  1.00  0.00     0.251 C 
ATOM      7  H   UNL A   1      31.878  31.399  25.866  1.00  0.00     0.163 HD
BRANCH   6   8
ATOM      8  C   UNL A   1      34.599  31.414  27.794  1.00  0.00     0.039 A 
ATOM      9  C   UNL A   1      34.799  30.107  28.240  1.00  0.00     0.014 A 
ATOM     10  C   UNL A   1      35.622  32.360  27.914  1.00  0.00     0.014 A 
ATOM     11  C   UNL A   1      35.946  29.793  28.959  1.00  0.00     0.010 A 
ATOM     12  C   UNL A   1      36.816  32.015  28.557  1.00  0.00     0.010 A 
ATOM     13  C   UNL A   1      36.969  30.742  29.125  1.00  0.00    -0.014 A 
BRANCH  13  14
ATOM     14  C   UNL A   1      38.196  30.358  29.870  1.00  0.00     0.031 A 
ATOM     15  C   UNL A   1      38.402  30.775  31.299  1.00  0.00     0.074 A 
ATOM     16  C   UNL A   1      39.107  29.579  29.256  1.00  0.00     0.049 A 
ATOM     17  N   UNL A   1      39.387  30.478  32.111  1.00  0.00    -0.248 NA
ATOM     18  C   UNL A   1      37.378  31.644  31.897  1.00  0.00     0.031 C 
ATOM     19  C   UNL A   1      39.021  29.121  27.868  1.00  0.00     0.029 A 
ATOM     20  N   UNL A   1      40.265  29.011  29.723  1.00  0.00    -0.354 N 
ATOM     21  C   UNL A   1      39.115  31.139  33.301  1.00  0.00     0.074 A 
ATOM     22  C   UNL A   1      37.883  31.872  33.101  1.00  0.00     0.031 C 
ATOM     23  C   UNL A   1      40.045  28.293  27.614  1.00  0.00     0.029 A 
ATOM     24  C   UNL A   1      40.889  28.208  28.800  1.00  0.00     0.049 A 
ATOM     25  H   UNL A   1      40.613  29.164  30.631  1.00  0.00     0.167 HD
ATOM     26  C   UNL A   1      39.823  31.127  34.456  1.00  0.00     0.037 A 
ATOM     27  C   UNL A   1      42.020  27.486  28.897  1.00  0.00     0.037 A 
ATOM     28  C   UNL A   1      41.034  30.373  34.660  1.00  0.00     0.049 A 
ATOM     29  C   UNL A   1      42.787  27.496  30.187  1.00  0.00     0.074 A 
ATOM     30  C   UNL A   1      41.798  30.259  35.810  1.00  0.00     0.029 A 
ATOM     31  N   UNL A   1      41.657  29.601  33.690  1.00  0.00    -0.354 N 
ATOM     32  N   UNL A   1      42.499  28.098  31.314  1.00  0.00    -0.248 NA
ATOM     33  C   UNL A   1      44.039  26.730  30.214  1.00  0.00     0.031 C 
ATOM     34  C   UNL A   1      42.906  29.453  35.523  1.00  0.00     0.029 A 
ATOM     35  C   UNL A   1      42.809  29.028  34.208  1.00  0.00     0.049 A 
ATOM     36  H   UNL A   1      41.330  29.479  32.770  1.00  0.00     0.167 HD
ATOM     37  C   UNL A   1      43.525  27.774  32.190  1.00  0.00     0.074 A 
ATOM     38  C   UNL A   1      44.431  26.904  31.469  1.00  0.00     0.031 C 
ATOM     39  C   UNL A   1      43.700  28.166  33.476  1.00  0.00     0.037 A 
BRANCH  26  40
ATOM     40  C   UNL A   1      39.321  31.972  35.592  1.00  0.00     0.064 A 
ATOM     41  C   UNL A   1      38.412  31.474  36.537  1.00  0.00     0.173 A 
ATOM     42  C   UNL A   1      39.791  33.283  35.761  1.00  0.00     0.173 A 
ATOM     43  F   UNL A   1      37.925  30.230  36.414  1.00  0.00    -0.203 F 
ATOM     44  C   UNL A   1      37.974  32.266  37.596  1.00  0.00     0.198 A 
ATOM     45  C   UNL A   1      39.370  34.063  36.836  1.00  0.00     0.198 A 
ATOM     46  F   UNL A   1      40.667  33.806  34.889  1.00  0.00    -0.203 F 
ATOM     47  F   UNL A   1      37.075  31.782  38.465  1.00  0.00    -0.200 F 
ATOM     48  C   UNL A   1      38.458  33.557  37.748  1.00  0.00     0.200 A 
ATOM     49  F   UNL A   1      39.848  35.306  36.987  1.00  0.00    -0.200 F 
ATOM     50  F   UNL A   1      38.040  34.315  38.771  1.00  0.00    -0.200 F 
ENDBRANCH  26  40
BRANCH  27  51
ATOM     51  C   UNL A   1      42.477  26.681  27.737  1.00  0.00     0.064 A 
ATOM     52  C   UNL A   1      43.299  27.244  26.751  1.00  0.00     0.173 A 
ATOM     53  C   UNL A   1      42.122  25.330  27.602  1.00  0.00     0.173 A 
ATOM     54  F   UNL A   1      43.648  28.536  26.828  1.00  0.00    -0.203 F 
ATOM     55  C   UNL A   1      43.741  26.488  25.668  1.00  0.00     0.198 A 
ATOM     56  C   UNL A   1      42.587  24.569  26.533  1.00  0.00     0.198 A 
ATOM     57  F   UNL A   1      41.341  24.746  28.523  1.00  0.00    -0.203 F 
ATOM     58  F   UNL A   1      44.498  27.058  24.720  1.00  0.00    -0.200 F 
ATOM     59  C   UNL A   1      43.391  25.149  25.564  1.00  0.00     0.200 A 
ATOM     60  F   UNL A   1      42.261  23.272  26.445  1.00  0.00    -0.200 F 
ATOM     61  F   UNL A   1      43.826  24.420  24.527  1.00  0.00    -0.200 F 
ENDBRANCH  27  51
BRANCH  39  62
ATOM     62  C   UNL A   1      44.909  27.635  34.186  1.00  0.00     0.064 A 
ATOM     63  C   UNL A   1      46.120  28.345  34.203  1.00  0.00     0.173 A 
ATOM     64  C   UNL A   1      44.854  26.411  34.869  1.00  0.00     0.173 A 
ATOM     65  F   UNL A   1      46.228  29.510  33.548  1.00  0.00    -0.203 F 
ATOM     66  C   UNL A   1      47.238  27.834  34.855  1.00  0.00     0.198 A 
ATOM     67  C   UNL A   1      45.967  25.916  35.542  1.00  0.00     0.198 A 
ATOM     68  F   UNL A   1      43.718  25.698  34.885  1.00  0.00    -0.203 F 
ATOM     69  F   UNL A   1      48.398  28.504  34.816  1.00  0.00    -0.200 F 
ATOM     70  C   UNL A   1      47.160  26.623  35.528  1.00  0.00     0.200 A 
ATOM     71  F   UNL A   1      45.887  24.751  36.199  1.00  0.00    -0.200 F 
ATOM     72  F   UNL A   1      48.238  26.133  36.155  1.00  0.00    -0.200 F 
ENDBRANCH  39  62
ENDBRANCH  13  14
ENDBRANCH   6   8
ENDBRANCH   3   4
ENDBRANCH   2   3
ENDBRANCH   1   2
BRANCH   1  73
ATOM     73  C   UNL A   1      31.548  26.304  25.765  1.00  0.00     0.116 C 
BRANCH  73  74
ATOM     74  N   UNL A   1      30.884  25.325  26.607  1.00  0.00    -0.352 N 
ATOM     75  C   UNL A   1      31.001  23.955  26.552  1.00  0.00     0.255 C 
ATOM     76  H   UNL A   1      30.279  25.682  27.297  1.00  0.00     0.163 HD
ATOM     77  O   UNL A   1      30.360  23.236  27.311  1.00  0.00    -0.269 OA
BRANCH  75  78
ATOM     78  C   UNL A   1      31.848  23.357  25.506  1.00  0.00     0.083 A 
ATOM     79  C   UNL A   1      33.078  22.821  25.902  1.00  0.00     0.046 A 
ATOM     80  C   UNL A   1      31.422  23.249  24.179  1.00  0.00     0.128 A 
ATOM     81  C   UNL A   1      33.864  22.122  24.988  1.00  0.00     0.064 A 
ATOM     82  C   UNL A   1      32.192  22.541  23.261  1.00  0.00     0.049 A 
ATOM     83  C   UNL A   1      33.394  21.961  23.675  1.00  0.00     0.032 A 
BRANCH  80  84
ATOM     84  O   UNL A   1      30.230  23.792  23.788  1.00  0.00    -0.507 OA
ATOM     85  H   UNL A   1      29.463  23.256  23.743  1.00  0.00     0.293 HD
ENDBRANCH  80  84
BRANCH  81  86
ATOM     86  N   UNL A   1      35.058  21.538  25.441  1.00  0.00    -0.256 NA
ATOM     87  C   UNL A   1      36.135  21.744  24.753  1.00  0.00     0.119 C 
BRANCH  87  88
ATOM     88  C   UNL A   1      37.437  21.180  25.150  1.00  0.00    -0.007 A 
ATOM     89  C   UNL A   1      38.383  22.034  25.729  1.00  0.00     0.017 A 
ATOM     90  C   UNL A   1      37.722  19.821  24.971  1.00  0.00     0.017 A 
ATOM     91  C   UNL A   1      39.619  21.526  26.141  1.00  0.00     0.086 A 
ATOM     92  C   UNL A   1      38.953  19.307  25.387  1.00  0.00     0.086 A 
ATOM     93  C   UNL A   1      39.896  20.162  25.974  1.00  0.00     0.269 A 
BRANCH  93  94
ATOM     94  N   UNL A   1      41.186  19.625  26.429  1.00  0.00     0.062 N 
ATOM     95  O   UNL A   1      41.803  18.879  25.656  1.00  0.00    -0.258 OA
ATOM     96  O   UNL A   1      41.582  19.953  27.557  1.00  0.00    -0.258 OA
ENDBRANCH  93  94
ENDBRANCH  87  88
ENDBRANCH  81  86
ENDBRANCH  75  78
ENDBRANCH  73  74
ENDBRANCH   1  73
TORSDOF 15
ENDMDL
