MODEL 1
REMARK VINA RESULT:     -11.1      0.000      0.000
REMARK SMILES [N-]=[N+]=NC[C@H](NC=O)C(=O)NCCCCNC(=O)c1ccc(-c2c3nc(c(-c4c(F)c(F)c(F)c(F)c4F)c4ccc([nH]4)c(-c4c(F)c(F)c(F)c(F)c4F)c4nc(c(-c5c(F)c(F)c(F)c(F)c5F)c5ccc2[nH]5)C=C4)C=C3)cc1
REMARK SMILES IDX 13 1 12 2 11 3 9 4 10 5 5 7 4 8 3 9 1 10 2 11 6 12 7 13 8 15
REMARK SMILES IDX 14 16 15 17 16 18 17 19 18 21 19 22 20 23 81 24 21 25 80 26
REMARK SMILES IDX 22 27 23 28 24 29 74 30 25 31 79 32 73 33 75 34 26 35 78 36
REMARK SMILES IDX 72 37 71 38 27 40 59 41 39 42 58 43 40 44 43 45 57 46 76 47
REMARK SMILES IDX 41 48 42 49 56 51 77 52 44 53 28 54 29 55 37 56 30 57 31 58
REMARK SMILES IDX 35 59 38 60 32 61 33 62 36 63 34 64 60 65 61 66 69 67 62 68
REMARK SMILES IDX 63 69 67 70 70 71 64 72 65 73 68 74 66 75 45 76 46 77 54 78
REMARK SMILES IDX 47 79 48 80 52 81 55 82 49 83 50 84 53 85 51 86
REMARK H PARENT 11 6 6 14 16 20 75 39 43 50
REMARK Flexibility Score: inf
ROOT
ATOM      1  C   UNL A   1      34.779  34.646  27.996  1.00  0.00     0.023 C 
ENDROOT
BRANCH   1   2
ATOM      2  C   UNL A   1      33.351  34.737  28.512  1.00  0.00     0.116 C 
BRANCH   2   3
ATOM      3  N   UNL A   1      33.041  36.029  29.085  1.00  0.00    -0.354 N 
ATOM      4  C   UNL A   1      33.120  36.460  30.375  1.00  0.00     0.242 C 
ATOM      5  O   UNL A   1      32.964  37.668  30.578  1.00  0.00    -0.273 OA
ATOM      6  H   UNL A   1      32.722  36.703  28.442  1.00  0.00     0.163 HD
BRANCH   4   7
ATOM      7  C   UNL A   1      33.463  35.514  31.542  1.00  0.00     0.176 C 
BRANCH   7   8
ATOM      8  C   UNL A   1      32.524  35.669  32.758  1.00  0.00     0.125 C 
BRANCH   8   9
ATOM      9  N   UNL A   1      31.085  35.724  32.435  1.00  0.00    -0.091 NA
ATOM     10  N   UNL A   1      29.675  36.958  33.911  1.00  0.00    -0.003 NA
ATOM     11  N   UNL A   1      30.353  36.355  33.220  1.00  0.00     0.001 N 
ENDBRANCH   8   9
ENDBRANCH   7   8
BRANCH   7  12
ATOM     12  N   UNL A   1      34.887  35.523  31.854  1.00  0.00    -0.347 N 
ATOM     13  C   UNL A   1      35.411  35.178  33.062  1.00  0.00     0.337 C 
ATOM     14  H   UNL A   1      35.511  35.795  31.143  1.00  0.00     0.164 HD
ATOM     15  O   UNL A   1      36.615  35.084  33.246  1.00  0.00    -0.279 OA
ENDBRANCH   7  12
ENDBRANCH   4   7
ENDBRANCH   2   3
ENDBRANCH   1   2
BRANCH   1  16
ATOM     16  C   UNL A   1      35.440  33.290  28.204  1.00  0.00     0.023 C 
BRANCH  16  17
ATOM     17  C   UNL A   1      34.656  32.329  29.087  1.00  0.00     0.116 C 
BRANCH  17  18
ATOM     18  N   UNL A   1      34.105  31.194  28.357  1.00  0.00    -0.352 N 
ATOM     19  C   UNL A   1      34.747  30.047  27.956  1.00  0.00     0.251 C 
ATOM     20  H   UNL A   1      33.151  31.257  28.123  1.00  0.00     0.163 HD
ATOM     21  O   UNL A   1      34.190  29.229  27.234  1.00  0.00    -0.269 OA
BRANCH  19  22
ATOM     22  C   UNL A   1      36.143  29.835  28.388  1.00  0.00     0.039 A 
ATOM     23  C   UNL A   1      36.395  29.321  29.661  1.00  0.00     0.014 A 
ATOM     24  C   UNL A   1      37.189  30.068  27.492  1.00  0.00     0.014 A 
ATOM     25  C   UNL A   1      37.699  28.968  30.011  1.00  0.00     0.010 A 
ATOM     26  C   UNL A   1      38.466  29.626  27.806  1.00  0.00     0.010 A 
ATOM     27  C   UNL A   1      38.737  29.079  29.071  1.00  0.00    -0.014 A 
BRANCH  27  28
ATOM     28  C   UNL A   1      40.129  28.669  29.382  1.00  0.00     0.031 A 
ATOM     29  C   UNL A   1      41.013  29.607  30.156  1.00  0.00     0.074 A 
ATOM     30  C   UNL A   1      40.624  27.513  28.899  1.00  0.00     0.049 A 
ATOM     31  N   UNL A   1      42.295  29.528  30.404  1.00  0.00    -0.248 NA
ATOM     32  C   UNL A   1      40.372  30.820  30.693  1.00  0.00     0.031 C 
ATOM     33  C   UNL A   1      39.876  26.531  28.114  1.00  0.00     0.029 A 
ATOM     34  N   UNL A   1      41.887  26.977  28.983  1.00  0.00    -0.354 N 
ATOM     35  C   UNL A   1      42.615  30.684  31.102  1.00  0.00     0.074 A 
ATOM     36  C   UNL A   1      41.410  31.480  31.184  1.00  0.00     0.031 C 
ATOM     37  C   UNL A   1      40.687  25.507  27.801  1.00  0.00     0.029 A 
ATOM     38  C   UNL A   1      42.025  25.784  28.317  1.00  0.00     0.049 A 
ATOM     39  H   UNL A   1      42.623  27.409  29.474  1.00  0.00     0.167 HD
ATOM     40  C   UNL A   1      43.800  31.040  31.648  1.00  0.00     0.037 A 
ATOM     41  C   UNL A   1      43.113  25.011  28.128  1.00  0.00     0.037 A 
ATOM     42  C   UNL A   1      44.989  30.232  31.584  1.00  0.00     0.049 A 
ATOM     43  C   UNL A   1      44.433  25.448  28.716  1.00  0.00     0.074 A 
ATOM     44  C   UNL A   1      46.229  30.479  32.143  1.00  0.00     0.029 A 
ATOM     45  N   UNL A   1      45.082  29.019  30.917  1.00  0.00    -0.354 N 
ATOM     46  N   UNL A   1      44.713  26.519  29.417  1.00  0.00    -0.248 NA
ATOM     47  C   UNL A   1      45.586  24.566  28.486  1.00  0.00     0.031 C 
ATOM     48  C   UNL A   1      47.091  29.448  31.763  1.00  0.00     0.029 A 
ATOM     49  C   UNL A   1      46.367  28.518  31.032  1.00  0.00     0.049 A 
ATOM     50  H   UNL A   1      44.345  28.581  30.434  1.00  0.00     0.167 HD
ATOM     51  C   UNL A   1      46.057  26.416  29.754  1.00  0.00     0.074 A 
ATOM     52  C   UNL A   1      46.538  25.178  29.178  1.00  0.00     0.031 C 
ATOM     53  C   UNL A   1      46.820  27.266  30.482  1.00  0.00     0.037 A 
BRANCH  40  54
ATOM     54  C   UNL A   1      43.872  32.359  32.361  1.00  0.00     0.064 A 
ATOM     55  C   UNL A   1      44.211  33.545  31.690  1.00  0.00     0.173 A 
ATOM     56  C   UNL A   1      43.563  32.447  33.727  1.00  0.00     0.173 A 
ATOM     57  F   UNL A   1      44.528  33.517  30.386  1.00  0.00    -0.203 F 
ATOM     58  C   UNL A   1      44.272  34.760  32.367  1.00  0.00     0.198 A 
ATOM     59  C   UNL A   1      43.588  33.670  34.392  1.00  0.00     0.198 A 
ATOM     60  F   UNL A   1      43.227  31.347  34.417  1.00  0.00    -0.203 F 
ATOM     61  F   UNL A   1      44.656  35.867  31.716  1.00  0.00    -0.200 F 
ATOM     62  C   UNL A   1      43.951  34.823  33.714  1.00  0.00     0.200 A 
ATOM     63  F   UNL A   1      43.261  33.732  35.690  1.00  0.00    -0.200 F 
ATOM     64  F   UNL A   1      44.001  35.996  34.361  1.00  0.00    -0.200 F 
ENDBRANCH  40  54
BRANCH  41  65
ATOM     65  C   UNL A   1      43.008  23.741  27.360  1.00  0.00     0.064 A 
ATOM     66  C   UNL A   1      42.553  22.565  27.973  1.00  0.00     0.173 A 
ATOM     67  C   UNL A   1      43.382  23.667  26.010  1.00  0.00     0.173 A 
ATOM     68  F   UNL A   1      42.202  22.577  29.268  1.00  0.00    -0.203 F 
ATOM     69  C   UNL A   1      42.503  21.360  27.276  1.00  0.00     0.198 A 
ATOM     70  C   UNL A   1      43.299  22.469  25.304  1.00  0.00     0.198 A 
ATOM     71  F   UNL A   1      43.820  24.763  25.373  1.00  0.00    -0.203 F 
ATOM     72  F   UNL A   1      42.120  20.239  27.904  1.00  0.00    -0.200 F 
ATOM     73  C   UNL A   1      42.872  21.313  25.940  1.00  0.00     0.200 A 
ATOM     74  F   UNL A   1      43.641  22.432  24.008  1.00  0.00    -0.200 F 
ATOM     75  F   UNL A   1      42.825  20.154  25.269  1.00  0.00    -0.200 F 
ENDBRANCH  41  65
BRANCH  53  76
ATOM     76  C   UNL A   1      48.237  26.863  30.776  1.00  0.00     0.064 A 
ATOM     77  C   UNL A   1      48.562  25.995  31.827  1.00  0.00     0.173 A 
ATOM     78  C   UNL A   1      49.274  27.289  29.929  1.00  0.00     0.173 A 
ATOM     79  F   UNL A   1      47.611  25.570  32.671  1.00  0.00    -0.203 F 
ATOM     80  C   UNL A   1      49.875  25.577  32.028  1.00  0.00     0.198 A 
ATOM     81  C   UNL A   1      50.578  26.842  30.113  1.00  0.00     0.198 A 
ATOM     82  F   UNL A   1      49.014  28.113  28.904  1.00  0.00    -0.203 F 
ATOM     83  F   UNL A   1      50.170  24.775  33.059  1.00  0.00    -0.200 F 
ATOM     84  C   UNL A   1      50.880  25.990  31.163  1.00  0.00     0.200 A 
ATOM     85  F   UNL A   1      51.542  27.226  29.264  1.00  0.00    -0.200 F 
ATOM     86  F   UNL A   1      52.138  25.567  31.344  1.00  0.00    -0.200 F 
ENDBRANCH  53  76
ENDBRANCH  27  28
ENDBRANCH  19  22
ENDBRANCH  17  18
ENDBRANCH  16  17
ENDBRANCH   1  16
TORSDOF 14
ENDMDL
MODEL 2
REMARK VINA RESULT:     -10.6      4.476     10.079
REMARK SMILES [N-]=[N+]=NC[C@H](NC=O)C(=O)NCCCCNC(=O)c1ccc(-c2c3nc(c(-c4c(F)c(F)c(F)c(F)c4F)c4ccc([nH]4)c(-c4c(F)c(F)c(F)c(F)c4F)c4nc(c(-c5c(F)c(F)c(F)c(F)c5F)c5ccc2[nH]5)C=C4)C=C3)cc1
REMARK SMILES IDX 13 1 12 2 11 3 9 4 10 5 5 7 4 8 3 9 1 10 2 11 6 12 7 13 8 15
REMARK SMILES IDX 14 16 15 17 16 18 17 19 18 21 19 22 20 23 81 24 21 25 80 26
REMARK SMILES IDX 22 27 23 28 24 29 74 30 25 31 79 32 73 33 75 34 26 35 78 36
REMARK SMILES IDX 72 37 71 38 27 40 59 41 39 42 58 43 40 44 43 45 57 46 76 47
REMARK SMILES IDX 41 48 42 49 56 51 77 52 44 53 28 54 29 55 37 56 30 57 31 58
REMARK SMILES IDX 35 59 38 60 32 61 33 62 36 63 34 64 60 65 61 66 69 67 62 68
REMARK SMILES IDX 63 69 67 70 70 71 64 72 65 73 68 74 66 75 45 76 46 77 54 78
REMARK SMILES IDX 47 79 48 80 52 81 55 82 49 83 50 84 53 85 51 86
REMARK H PARENT 11 6 6 14 16 20 75 39 43 50
REMARK Flexibility Score: inf
ROOT
ATOM      1  C   UNL A   1      32.375  30.255  25.969  1.00  0.00     0.023 C 
ENDROOT
BRANCH   1   2
ATOM      2  C   UNL A   1      31.291  29.371  25.369  1.00  0.00     0.116 C 
BRANCH   2   3
ATOM      3  N   UNL A   1      31.316  29.354  23.923  1.00  0.00    -0.354 N 
ATOM      4  C   UNL A   1      30.393  29.795  23.023  1.00  0.00     0.242 C 
ATOM      5  O   UNL A   1      30.729  29.827  21.836  1.00  0.00    -0.273 OA
ATOM      6  H   UNL A   1      32.127  28.962  23.526  1.00  0.00     0.163 HD
BRANCH   4   7
ATOM      7  C   UNL A   1      29.004  30.309  23.450  1.00  0.00     0.176 C 
BRANCH   7   8
ATOM      8  C   UNL A   1      27.853  29.781  22.568  1.00  0.00     0.125 C 
BRANCH   8   9
ATOM      9  N   UNL A   1      27.106  28.638  23.130  1.00  0.00    -0.091 NA
ATOM     10  N   UNL A   1      28.368  26.734  23.817  1.00  0.00    -0.003 NA
ATOM     11  N   UNL A   1      27.771  27.641  23.469  1.00  0.00     0.001 N 
ENDBRANCH   8   9
ENDBRANCH   7   8
BRANCH   7  12
ATOM     12  N   UNL A   1      28.999  31.749  23.678  1.00  0.00    -0.347 N 
ATOM     13  C   UNL A   1      28.776  32.680  22.710  1.00  0.00     0.337 C 
ATOM     14  H   UNL A   1      29.168  32.070  24.594  1.00  0.00     0.164 HD
ATOM     15  O   UNL A   1      28.662  33.870  22.965  1.00  0.00    -0.279 OA
ENDBRANCH   7  12
ENDBRANCH   4   7
ENDBRANCH   2   3
ENDBRANCH   1   2
BRANCH   1  16
ATOM     16  C   UNL A   1      31.859  31.538  26.608  1.00  0.00     0.023 C 
BRANCH  16  17
ATOM     17  C   UNL A   1      32.925  32.379  27.297  1.00  0.00     0.116 C 
BRANCH  17  18
ATOM     18  N   UNL A   1      32.507  33.754  27.541  1.00  0.00    -0.352 N 
ATOM     19  C   UNL A   1      32.995  34.640  28.471  1.00  0.00     0.251 C 
ATOM     20  H   UNL A   1      31.783  34.090  26.965  1.00  0.00     0.163 HD
ATOM     21  O   UNL A   1      32.460  35.726  28.653  1.00  0.00    -0.269 OA
BRANCH  19  22
ATOM     22  C   UNL A   1      34.166  34.240  29.277  1.00  0.00     0.039 A 
ATOM     23  C   UNL A   1      33.974  33.492  30.439  1.00  0.00     0.014 A 
ATOM     24  C   UNL A   1      35.453  34.539  28.824  1.00  0.00     0.014 A 
ATOM     25  C   UNL A   1      35.082  32.975  31.111  1.00  0.00     0.010 A 
ATOM     26  C   UNL A   1      36.546  33.944  29.438  1.00  0.00     0.010 A 
ATOM     27  C   UNL A   1      36.374  33.162  30.592  1.00  0.00    -0.014 A 
BRANCH  27  28
ATOM     28  C   UNL A   1      37.577  32.590  31.246  1.00  0.00     0.031 A 
ATOM     29  C   UNL A   1      38.311  31.464  30.572  1.00  0.00     0.074 A 
ATOM     30  C   UNL A   1      37.955  33.010  32.469  1.00  0.00     0.049 A 
ATOM     31  N   UNL A   1      39.282  30.714  31.027  1.00  0.00    -0.248 NA
ATOM     32  C   UNL A   1      37.865  31.109  29.214  1.00  0.00     0.031 C 
ATOM     33  C   UNL A   1      37.310  34.077  33.237  1.00  0.00     0.029 A 
ATOM     34  N   UNL A   1      38.965  32.575  33.292  1.00  0.00    -0.354 N 
ATOM     35  C   UNL A   1      39.544  29.791  30.024  1.00  0.00     0.074 A 
ATOM     36  C   UNL A   1      38.590  30.030  28.963  1.00  0.00     0.031 C 
ATOM     37  C   UNL A   1      37.948  34.222  34.410  1.00  0.00     0.029 A 
ATOM     38  C   UNL A   1      39.012  33.226  34.500  1.00  0.00     0.049 A 
ATOM     39  H   UNL A   1      39.595  31.861  33.039  1.00  0.00     0.167 HD
ATOM     40  C   UNL A   1      40.510  28.844  29.980  1.00  0.00     0.037 A 
ATOM     41  C   UNL A   1      39.811  33.027  35.567  1.00  0.00     0.037 A 
ATOM     42  C   UNL A   1      41.470  28.628  31.028  1.00  0.00     0.049 A 
ATOM     43  C   UNL A   1      40.856  31.941  35.508  1.00  0.00     0.074 A 
ATOM     44  C   UNL A   1      42.518  27.725  31.063  1.00  0.00     0.029 A 
ATOM     45  N   UNL A   1      41.498  29.322  32.229  1.00  0.00    -0.354 N 
ATOM     46  N   UNL A   1      41.129  31.106  34.535  1.00  0.00    -0.248 NA
ATOM     47  C   UNL A   1      41.706  31.771  36.696  1.00  0.00     0.031 C 
ATOM     48  C   UNL A   1      43.141  27.830  32.308  1.00  0.00     0.029 A 
ATOM     49  C   UNL A   1      42.531  28.852  33.020  1.00  0.00     0.049 A 
ATOM     50  H   UNL A   1      40.875  30.043  32.480  1.00  0.00     0.167 HD
ATOM     51  C   UNL A   1      42.209  30.349  34.971  1.00  0.00     0.074 A 
ATOM     52  C   UNL A   1      42.541  30.821  36.299  1.00  0.00     0.031 C 
ATOM     53  C   UNL A   1      42.870  29.358  34.326  1.00  0.00     0.037 A 
BRANCH  40  54
ATOM     54  C   UNL A   1      40.575  27.971  28.760  1.00  0.00     0.064 A 
ATOM     55  C   UNL A   1      39.851  26.770  28.671  1.00  0.00     0.173 A 
ATOM     56  C   UNL A   1      41.343  28.354  27.651  1.00  0.00     0.173 A 
ATOM     57  F   UNL A   1      39.110  26.350  29.707  1.00  0.00    -0.203 F 
ATOM     58  C   UNL A   1      39.923  25.973  27.532  1.00  0.00     0.198 A 
ATOM     59  C   UNL A   1      41.382  27.573  26.499  1.00  0.00     0.198 A 
ATOM     60  F   UNL A   1      42.050  29.493  27.679  1.00  0.00    -0.203 F 
ATOM     61  F   UNL A   1      39.269  24.803  27.495  1.00  0.00    -0.200 F 
ATOM     62  C   UNL A   1      40.679  26.379  26.445  1.00  0.00     0.200 A 
ATOM     63  F   UNL A   1      42.101  27.976  25.442  1.00  0.00    -0.200 F 
ATOM     64  F   UNL A   1      40.739  25.615  25.345  1.00  0.00    -0.200 F 
ENDBRANCH  40  54
BRANCH  41  65
ATOM     65  C   UNL A   1      39.669  33.877  36.780  1.00  0.00     0.064 A 
ATOM     66  C   UNL A   1      38.890  33.456  37.868  1.00  0.00     0.173 A 
ATOM     67  C   UNL A   1      40.284  35.135  36.870  1.00  0.00     0.173 A 
ATOM     68  F   UNL A   1      38.265  32.270  37.824  1.00  0.00    -0.203 F 
ATOM     69  C   UNL A   1      38.708  34.270  38.984  1.00  0.00     0.198 A 
ATOM     70  C   UNL A   1      40.129  35.934  38.002  1.00  0.00     0.198 A 
ATOM     71  F   UNL A   1      41.044  35.586  35.861  1.00  0.00    -0.203 F 
ATOM     72  F   UNL A   1      37.910  33.866  39.983  1.00  0.00    -0.200 F 
ATOM     73  C   UNL A   1      39.331  35.507  39.052  1.00  0.00     0.200 A 
ATOM     74  F   UNL A   1      40.747  37.122  38.071  1.00  0.00    -0.200 F 
ATOM     75  F   UNL A   1      39.156  36.290  40.125  1.00  0.00    -0.200 F 
ENDBRANCH  41  65
BRANCH  53  76
ATOM     76  C   UNL A   1      44.073  28.761  34.998  1.00  0.00     0.064 A 
ATOM     77  C   UNL A   1      43.981  27.636  35.829  1.00  0.00     0.173 A 
ATOM     78  C   UNL A   1      45.352  29.278  34.729  1.00  0.00     0.173 A 
ATOM     79  F   UNL A   1      42.783  27.113  36.127  1.00  0.00    -0.203 F 
ATOM     80  C   UNL A   1      45.124  27.057  36.377  1.00  0.00     0.198 A 
ATOM     81  C   UNL A   1      46.492  28.675  35.250  1.00  0.00     0.198 A 
ATOM     82  F   UNL A   1      45.494  30.348  33.934  1.00  0.00    -0.203 F 
ATOM     83  F   UNL A   1      45.011  26.003  37.196  1.00  0.00    -0.200 F 
ATOM     84  C   UNL A   1      46.378  27.569  36.076  1.00  0.00     0.200 A 
ATOM     85  F   UNL A   1      47.704  29.160  34.942  1.00  0.00    -0.200 F 
ATOM     86  F   UNL A   1      47.478  26.994  36.584  1.00  0.00    -0.200 F 
ENDBRANCH  53  76
ENDBRANCH  27  28
ENDBRANCH  19  22
ENDBRANCH  17  18
ENDBRANCH  16  17
ENDBRANCH   1  16
TORSDOF 14
ENDMDL
MODEL 3
REMARK VINA RESULT:     -10.6      4.269      7.344
REMARK SMILES [N-]=[N+]=NC[C@H](NC=O)C(=O)NCCCCNC(=O)c1ccc(-c2c3nc(c(-c4c(F)c(F)c(F)c(F)c4F)c4ccc([nH]4)c(-c4c(F)c(F)c(F)c(F)c4F)c4nc(c(-c5c(F)c(F)c(F)c(F)c5F)c5ccc2[nH]5)C=C4)C=C3)cc1
REMARK SMILES IDX 13 1 12 2 11 3 9 4 10 5 5 7 4 8 3 9 1 10 2 11 6 12 7 13 8 15
REMARK SMILES IDX 14 16 15 17 16 18 17 19 18 21 19 22 20 23 81 24 21 25 80 26
REMARK SMILES IDX 22 27 23 28 24 29 74 30 25 31 79 32 73 33 75 34 26 35 78 36
REMARK SMILES IDX 72 37 71 38 27 40 59 41 39 42 58 43 40 44 43 45 57 46 76 47
REMARK SMILES IDX 41 48 42 49 56 51 77 52 44 53 28 54 29 55 37 56 30 57 31 58
REMARK SMILES IDX 35 59 38 60 32 61 33 62 36 63 34 64 60 65 61 66 69 67 62 68
REMARK SMILES IDX 63 69 67 70 70 71 64 72 65 73 68 74 66 75 45 76 46 77 54 78
REMARK SMILES IDX 47 79 48 80 52 81 55 82 49 83 50 84 53 85 51 86
REMARK H PARENT 11 6 6 14 16 20 75 39 43 50
REMARK Flexibility Score: inf
ROOT
ATOM      1  C   UNL A   1      34.228  33.356  29.158  1.00  0.00     0.023 C 
ENDROOT
BRANCH   1   2
ATOM      2  C   UNL A   1      34.786  32.681  27.914  1.00  0.00     0.116 C 
BRANCH   2   3
ATOM      3  N   UNL A   1      35.139  31.295  28.136  1.00  0.00    -0.354 N 
ATOM      4  C   UNL A   1      34.662  30.162  27.549  1.00  0.00     0.242 C 
ATOM      5  O   UNL A   1      35.255  29.107  27.791  1.00  0.00    -0.273 OA
ATOM      6  H   UNL A   1      35.832  31.148  28.819  1.00  0.00     0.163 HD
BRANCH   4   7
ATOM      7  C   UNL A   1      33.480  30.179  26.560  1.00  0.00     0.176 C 
BRANCH   7   8
ATOM      8  C   UNL A   1      32.156  29.676  27.173  1.00  0.00     0.125 C 
BRANCH   8   9
ATOM      9  N   UNL A   1      32.192  28.297  27.699  1.00  0.00    -0.091 NA
ATOM     10  N   UNL A   1      30.913  26.647  26.546  1.00  0.00    -0.003 NA
ATOM     11  N   UNL A   1      31.508  27.446  27.102  1.00  0.00     0.001 N 
ENDBRANCH   8   9
ENDBRANCH   7   8
BRANCH   7  12
ATOM     12  N   UNL A   1      33.832  29.587  25.275  1.00  0.00    -0.347 N 
ATOM     13  C   UNL A   1      32.931  29.251  24.311  1.00  0.00     0.337 C 
ATOM     14  H   UNL A   1      34.785  29.420  25.092  1.00  0.00     0.164 HD
ATOM     15  O   UNL A   1      33.276  28.869  23.203  1.00  0.00    -0.279 OA
ENDBRANCH   7  12
ENDBRANCH   4   7
ENDBRANCH   2   3
ENDBRANCH   1   2
BRANCH   1  16
ATOM     16  C   UNL A   1      33.228  34.470  28.877  1.00  0.00     0.023 C 
BRANCH  16  17
ATOM     17  C   UNL A   1      33.565  35.805  29.526  1.00  0.00     0.116 C 
BRANCH  17  18
ATOM     18  N   UNL A   1      32.586  36.225  30.521  1.00  0.00    -0.352 N 
ATOM     19  C   UNL A   1      32.547  35.918  31.860  1.00  0.00     0.251 C 
ATOM     20  H   UNL A   1      31.860  36.803  30.191  1.00  0.00     0.163 HD
ATOM     21  O   UNL A   1      31.590  36.236  32.555  1.00  0.00    -0.269 OA
BRANCH  19  22
ATOM     22  C   UNL A   1      33.675  35.163  32.441  1.00  0.00     0.039 A 
ATOM     23  C   UNL A   1      33.475  33.846  32.857  1.00  0.00     0.014 A 
ATOM     24  C   UNL A   1      34.945  35.742  32.488  1.00  0.00     0.014 A 
ATOM     25  C   UNL A   1      34.571  33.079  33.254  1.00  0.00     0.010 A 
ATOM     26  C   UNL A   1      36.043  34.949  32.789  1.00  0.00     0.010 A 
ATOM     27  C   UNL A   1      35.869  33.613  33.182  1.00  0.00    -0.014 A 
BRANCH  27  28
ATOM     28  C   UNL A   1      37.069  32.819  33.546  1.00  0.00     0.031 A 
ATOM     29  C   UNL A   1      37.787  33.123  34.832  1.00  0.00     0.074 A 
ATOM     30  C   UNL A   1      37.562  31.899  32.695  1.00  0.00     0.049 A 
ATOM     31  N   UNL A   1      38.932  32.671  35.272  1.00  0.00    -0.248 NA
ATOM     32  C   UNL A   1      37.145  34.102  35.726  1.00  0.00     0.031 C 
ATOM     33  C   UNL A   1      36.972  31.530  31.407  1.00  0.00     0.029 A 
ATOM     34  N   UNL A   1      38.690  31.118  32.778  1.00  0.00    -0.354 N 
ATOM     35  C   UNL A   1      39.155  33.323  36.476  1.00  0.00     0.074 A 
ATOM     36  C   UNL A   1      38.062  34.250  36.669  1.00  0.00     0.031 C 
ATOM     37  C   UNL A   1      37.733  30.586  30.829  1.00  0.00     0.029 A 
ATOM     38  C   UNL A   1      38.891  30.320  31.678  1.00  0.00     0.049 A 
ATOM     39  H   UNL A   1      39.297  31.130  33.552  1.00  0.00     0.167 HD
ATOM     40  C   UNL A   1      40.168  33.147  37.357  1.00  0.00     0.037 A 
ATOM     41  C   UNL A   1      39.906  29.486  31.380  1.00  0.00     0.037 A 
ATOM     42  C   UNL A   1      41.240  32.206  37.170  1.00  0.00     0.049 A 
ATOM     43  C   UNL A   1      41.043  29.334  32.360  1.00  0.00     0.074 A 
ATOM     44  C   UNL A   1      42.290  31.918  38.022  1.00  0.00     0.029 A 
ATOM     45  N   UNL A   1      41.397  31.402  36.051  1.00  0.00    -0.354 N 
ATOM     46  N   UNL A   1      41.219  29.918  33.520  1.00  0.00    -0.248 NA
ATOM     47  C   UNL A   1      42.120  28.405  31.990  1.00  0.00     0.031 C 
ATOM     48  C   UNL A   1      43.117  30.985  37.393  1.00  0.00     0.029 A 
ATOM     49  C   UNL A   1      42.540  30.633  36.182  1.00  0.00     0.049 A 
ATOM     50  H   UNL A   1      40.786  31.381  35.279  1.00  0.00     0.167 HD
ATOM     51  C   UNL A   1      42.396  29.394  34.039  1.00  0.00     0.074 A 
ATOM     52  C   UNL A   1      42.894  28.445  33.066  1.00  0.00     0.031 C 
ATOM     53  C   UNL A   1      43.003  29.667  35.218  1.00  0.00     0.037 A 
BRANCH  40  54
ATOM     54  C   UNL A   1      40.166  33.990  38.599  1.00  0.00     0.064 A 
ATOM     55  C   UNL A   1      40.846  35.218  38.662  1.00  0.00     0.173 A 
ATOM     56  C   UNL A   1      39.447  33.584  39.733  1.00  0.00     0.173 A 
ATOM     57  F   UNL A   1      41.560  35.648  37.610  1.00  0.00    -0.203 F 
ATOM     58  C   UNL A   1      40.834  35.986  39.822  1.00  0.00     0.198 A 
ATOM     59  C   UNL A   1      39.405  34.374  40.879  1.00  0.00     0.198 A 
ATOM     60  F   UNL A   1      38.775  32.423  39.728  1.00  0.00    -0.203 F 
ATOM     61  F   UNL A   1      41.539  37.125  39.875  1.00  0.00    -0.200 F 
ATOM     62  C   UNL A   1      40.105  35.569  40.925  1.00  0.00     0.200 A 
ATOM     63  F   UNL A   1      38.687  33.977  41.938  1.00  0.00    -0.200 F 
ATOM     64  F   UNL A   1      40.087  36.317  42.038  1.00  0.00    -0.200 F 
ENDBRANCH  40  54
BRANCH  41  65
ATOM     65  C   UNL A   1      39.896  28.716  30.106  1.00  0.00     0.064 A 
ATOM     66  C   UNL A   1      39.333  27.434  30.043  1.00  0.00     0.173 A 
ATOM     67  C   UNL A   1      40.468  29.232  28.933  1.00  0.00     0.173 A 
ATOM     68  F   UNL A   1      38.791  26.886  31.142  1.00  0.00    -0.203 F 
ATOM     69  C   UNL A   1      39.369  26.686  28.869  1.00  0.00     0.198 A 
ATOM     70  C   UNL A   1      40.472  28.497  27.749  1.00  0.00     0.198 A 
ATOM     71  F   UNL A   1      41.016  30.456  28.934  1.00  0.00    -0.203 F 
ATOM     72  F   UNL A   1      38.876  25.439  28.855  1.00  0.00    -0.200 F 
ATOM     73  C   UNL A   1      39.934  27.220  27.721  1.00  0.00     0.200 A 
ATOM     74  F   UNL A   1      41.005  29.024  26.638  1.00  0.00    -0.200 F 
ATOM     75  F   UNL A   1      39.969  26.500  26.591  1.00  0.00    -0.200 F 
ENDBRANCH  41  65
BRANCH  53  76
ATOM     76  C   UNL A   1      44.232  28.881  35.576  1.00  0.00     0.064 A 
ATOM     77  C   UNL A   1      45.519  29.313  35.231  1.00  0.00     0.173 A 
ATOM     78  C   UNL A   1      44.115  27.719  36.357  1.00  0.00     0.173 A 
ATOM     79  F   UNL A   1      45.685  30.409  34.476  1.00  0.00    -0.203 F 
ATOM     80  C   UNL A   1      46.646  28.604  35.643  1.00  0.00     0.198 A 
ATOM     81  C   UNL A   1      45.243  27.034  36.796  1.00  0.00     0.198 A 
ATOM     82  F   UNL A   1      42.906  27.268  36.721  1.00  0.00    -0.203 F 
ATOM     83  F   UNL A   1      47.866  29.015  35.273  1.00  0.00    -0.200 F 
ATOM     84  C   UNL A   1      46.507  27.474  36.437  1.00  0.00     0.200 A 
ATOM     85  F   UNL A   1      45.107  25.954  37.578  1.00  0.00    -0.200 F 
ATOM     86  F   UNL A   1      47.593  26.808  36.852  1.00  0.00    -0.200 F 
ENDBRANCH  53  76
ENDBRANCH  27  28
ENDBRANCH  19  22
ENDBRANCH  17  18
ENDBRANCH  16  17
ENDBRANCH   1  16
TORSDOF 14
ENDMDL
