MODEL 1
REMARK VINA RESULT:     -10.8      0.000      0.000
REMARK SMILES O=C(Cc1ccc(-c2ccc(Cl)cc2)cc1)NCCCCNC(=O)c1ccc(-c2c3nc(c(-c4c(F)c(F)c(F)c(F)c4F)c4ccc([nH]4)c(-c4c(F)c(F)c(F)c(F)c4F)c4nc(c(-c5c(F)c(F)c(F)c(F)c5F)c5ccc2[nH]5)C=C4)C=C3)cc1
REMARK SMILES IDX 19 1 18 2 17 3 1 4 2 5 3 7 4 8 5 9 16 10 6 11 15 12 7 13
REMARK SMILES IDX 8 14 9 15 14 16 10 17 13 18 11 19 12 20 20 21 21 22 22 23
REMARK SMILES IDX 23 24 24 26 25 27 26 28 87 29 27 30 86 31 28 32 29 33 30 34
REMARK SMILES IDX 80 35 31 36 85 37 79 38 81 39 32 40 84 41 78 42 77 43 33 45
REMARK SMILES IDX 65 46 45 47 64 48 46 49 49 50 63 51 82 52 47 53 48 54 62 56
REMARK SMILES IDX 83 57 50 58 34 59 35 60 43 61 36 62 37 63 41 64 44 65 38 66
REMARK SMILES IDX 39 67 42 68 40 69 66 70 67 71 75 72 68 73 69 74 73 75 76 76
REMARK SMILES IDX 70 77 71 78 74 79 72 80 51 81 52 82 60 83 53 84 54 85 58 86
REMARK SMILES IDX 61 87 55 88 56 89 59 90 57 91
REMARK H PARENT 17 6 22 25 81 44 49 55
REMARK Flexibility Score: inf
ROOT
ATOM      1  C   UNL A   1      33.277  34.704  28.760  1.00  0.00     0.023 C 
ENDROOT
BRANCH   1   2
ATOM      2  C   UNL A   1      33.067  36.083  29.384  1.00  0.00     0.116 C 
BRANCH   2   3
ATOM      3  N   UNL A   1      33.735  36.217  30.661  1.00  0.00    -0.356 N 
ATOM      4  O   UNL A   1      31.824  36.243  31.942  1.00  0.00    -0.275 OA
ATOM      5  C   UNL A   1      33.048  36.234  31.860  1.00  0.00     0.224 C 
ATOM      6  H   UNL A   1      34.715  36.300  30.677  1.00  0.00     0.163 HD
BRANCH   5   7
ATOM      7  C   UNL A   1      33.954  36.210  33.084  1.00  0.00     0.135 C 
BRANCH   7   8
ATOM      8  C   UNL A   1      34.911  35.040  33.060  1.00  0.00    -0.039 A 
ATOM      9  C   UNL A   1      34.442  33.730  33.211  1.00  0.00     0.005 A 
ATOM     10  C   UNL A   1      36.287  35.246  32.923  1.00  0.00     0.005 A 
ATOM     11  C   UNL A   1      35.332  32.657  33.275  1.00  0.00     0.009 A 
ATOM     12  C   UNL A   1      37.176  34.165  32.970  1.00  0.00     0.009 A 
ATOM     13  C   UNL A   1      36.718  32.853  33.167  1.00  0.00    -0.018 A 
BRANCH  13  14
ATOM     14  C   UNL A   1      37.646  31.716  33.306  1.00  0.00    -0.018 A 
ATOM     15  C   UNL A   1      38.952  31.898  33.798  1.00  0.00     0.010 A 
ATOM     16  C   UNL A   1      37.272  30.423  32.900  1.00  0.00     0.010 A 
ATOM     17  C   UNL A   1      39.857  30.834  33.859  1.00  0.00     0.021 A 
ATOM     18  C   UNL A   1      38.173  29.355  32.963  1.00  0.00     0.021 A 
ATOM     19  C   UNL A   1      39.465  29.569  33.436  1.00  0.00     0.041 A 
ATOM     20  Cl  UNL A   1      40.584  28.264  33.486  1.00  0.00    -0.084 Cl
ENDBRANCH  13  14
ENDBRANCH   7   8
ENDBRANCH   5   7
ENDBRANCH   2   3
ENDBRANCH   1   2
BRANCH   1  21
ATOM     21  C   UNL A   1      34.507  33.933  29.258  1.00  0.00     0.023 C 
BRANCH  21  22
ATOM     22  C   UNL A   1      35.150  32.991  28.246  1.00  0.00     0.116 C 
BRANCH  22  23
ATOM     23  N   UNL A   1      34.310  31.846  27.934  1.00  0.00    -0.352 N 
ATOM     24  C   UNL A   1      34.641  30.521  27.789  1.00  0.00     0.251 C 
ATOM     25  H   UNL A   1      33.356  32.053  27.807  1.00  0.00     0.163 HD
ATOM     26  O   UNL A   1      33.805  29.729  27.358  1.00  0.00    -0.269 OA
BRANCH  24  27
ATOM     27  C   UNL A   1      36.001  30.035  28.117  1.00  0.00     0.039 A 
ATOM     28  C   UNL A   1      37.010  30.167  27.157  1.00  0.00     0.014 A 
ATOM     29  C   UNL A   1      36.284  29.423  29.341  1.00  0.00     0.014 A 
ATOM     30  C   UNL A   1      38.313  29.749  27.449  1.00  0.00     0.010 A 
ATOM     31  C   UNL A   1      37.596  29.068  29.656  1.00  0.00     0.010 A 
ATOM     32  C   UNL A   1      38.625  29.230  28.716  1.00  0.00    -0.014 A 
BRANCH  32  33
ATOM     33  C   UNL A   1      40.022  28.866  29.075  1.00  0.00     0.031 A 
ATOM     34  C   UNL A   1      40.887  29.823  29.845  1.00  0.00     0.074 A 
ATOM     35  C   UNL A   1      40.535  27.695  28.648  1.00  0.00     0.049 A 
ATOM     36  N   UNL A   1      42.149  29.718  30.177  1.00  0.00    -0.248 NA
ATOM     37  C   UNL A   1      40.256  31.079  30.278  1.00  0.00     0.031 C 
ATOM     38  C   UNL A   1      39.817  26.695  27.858  1.00  0.00     0.029 A 
ATOM     39  N   UNL A   1      41.788  27.154  28.808  1.00  0.00    -0.354 N 
ATOM     40  C   UNL A   1      42.466  30.894  30.845  1.00  0.00     0.074 A 
ATOM     41  C   UNL A   1      41.278  31.720  30.827  1.00  0.00     0.031 C 
ATOM     42  C   UNL A   1      40.633  25.658  27.614  1.00  0.00     0.029 A 
ATOM     43  C   UNL A   1      41.943  25.934  28.197  1.00  0.00     0.049 A 
ATOM     44  H   UNL A   1      42.506  27.599  29.313  1.00  0.00     0.167 HD
ATOM     45  C   UNL A   1      43.634  31.243  31.438  1.00  0.00     0.037 A 
ATOM     46  C   UNL A   1      43.021  25.132  28.106  1.00  0.00     0.037 A 
ATOM     47  C   UNL A   1      44.809  30.412  31.475  1.00  0.00     0.049 A 
ATOM     48  C   UNL A   1      44.308  25.546  28.768  1.00  0.00     0.074 A 
ATOM     49  C   UNL A   1      46.021  30.658  32.095  1.00  0.00     0.029 A 
ATOM     50  N   UNL A   1      44.920  29.172  30.863  1.00  0.00    -0.354 N 
ATOM     51  N   UNL A   1      44.576  26.634  29.445  1.00  0.00    -0.248 NA
ATOM     52  C   UNL A   1      45.440  24.614  28.654  1.00  0.00     0.031 C 
ATOM     53  C   UNL A   1      46.880  29.587  31.824  1.00  0.00     0.029 A 
ATOM     54  C   UNL A   1      46.187  28.650  31.074  1.00  0.00     0.049 A 
ATOM     55  H   UNL A   1      44.204  28.728  30.352  1.00  0.00     0.167 HD
ATOM     56  C   UNL A   1      45.895  26.508  29.862  1.00  0.00     0.074 A 
ATOM     57  C   UNL A   1      46.369  25.231  29.373  1.00  0.00     0.031 C 
ATOM     58  C   UNL A   1      46.645  27.375  30.586  1.00  0.00     0.037 A 
BRANCH  45  59
ATOM     59  C   UNL A   1      43.697  32.588  32.101  1.00  0.00     0.064 A 
ATOM     60  C   UNL A   1      44.053  33.743  31.388  1.00  0.00     0.173 A 
ATOM     61  C   UNL A   1      43.361  32.733  33.456  1.00  0.00     0.173 A 
ATOM     62  F   UNL A   1      44.393  33.659  30.093  1.00  0.00    -0.203 F 
ATOM     63  C   UNL A   1      44.100  34.987  32.014  1.00  0.00     0.198 A 
ATOM     64  C   UNL A   1      43.380  33.983  34.070  1.00  0.00     0.198 A 
ATOM     65  F   UNL A   1      43.005  31.662  34.183  1.00  0.00    -0.203 F 
ATOM     66  F   UNL A   1      44.492  36.067  31.324  1.00  0.00    -0.200 F 
ATOM     67  C   UNL A   1      43.757  35.106  33.352  1.00  0.00     0.200 A 
ATOM     68  F   UNL A   1      43.034  34.098  35.361  1.00  0.00    -0.200 F 
ATOM     69  F   UNL A   1      43.797  36.304  33.951  1.00  0.00    -0.200 F 
ENDBRANCH  45  59
BRANCH  46  70
ATOM     70  C   UNL A   1      42.924  23.844  27.371  1.00  0.00     0.064 A 
ATOM     71  C   UNL A   1      42.451  22.687  28.006  1.00  0.00     0.173 A 
ATOM     72  C   UNL A   1      43.301  23.742  26.024  1.00  0.00     0.173 A 
ATOM     73  F   UNL A   1      42.100  22.731  29.299  1.00  0.00    -0.203 F 
ATOM     74  C   UNL A   1      42.375  21.474  27.327  1.00  0.00     0.198 A 
ATOM     75  C   UNL A   1      43.198  22.534  25.338  1.00  0.00     0.198 A 
ATOM     76  F   UNL A   1      43.755  24.821  25.370  1.00  0.00    -0.203 F 
ATOM     77  F   UNL A   1      41.960  20.373  27.969  1.00  0.00    -0.200 F 
ATOM     78  C   UNL A   1      42.743  21.399  25.992  1.00  0.00     0.200 A 
ATOM     79  F   UNL A   1      43.541  22.470  24.044  1.00  0.00    -0.200 F 
ATOM     80  F   UNL A   1      42.664  20.233  25.336  1.00  0.00    -0.200 F 
ENDBRANCH  46  70
BRANCH  58  81
ATOM     81  C   UNL A   1      48.047  26.959  30.921  1.00  0.00     0.064 A 
ATOM     82  C   UNL A   1      49.136  27.322  30.115  1.00  0.00     0.173 A 
ATOM     83  C   UNL A   1      48.309  26.219  32.085  1.00  0.00     0.173 A 
ATOM     84  F   UNL A   1      48.936  28.015  28.984  1.00  0.00    -0.203 F 
ATOM     85  C   UNL A   1      50.432  26.940  30.449  1.00  0.00     0.198 A 
ATOM     86  C   UNL A   1      49.610  25.863  32.431  1.00  0.00     0.198 A 
ATOM     87  F   UNL A   1      47.304  25.851  32.893  1.00  0.00    -0.203 F 
ATOM     88  F   UNL A   1      51.452  27.259  29.639  1.00  0.00    -0.200 F 
ATOM     89  C   UNL A   1      50.669  26.217  31.609  1.00  0.00     0.200 A 
ATOM     90  F   UNL A   1      49.838  25.175  33.558  1.00  0.00    -0.200 F 
ATOM     91  F   UNL A   1      51.919  25.856  31.932  1.00  0.00    -0.200 F 
ENDBRANCH  58  81
ENDBRANCH  32  33
ENDBRANCH  24  27
ENDBRANCH  22  23
ENDBRANCH  21  22
ENDBRANCH   1  21
TORSDOF 13
ENDMDL
MODEL 2
REMARK VINA RESULT:     -10.7      0.273      1.633
REMARK SMILES O=C(Cc1ccc(-c2ccc(Cl)cc2)cc1)NCCCCNC(=O)c1ccc(-c2c3nc(c(-c4c(F)c(F)c(F)c(F)c4F)c4ccc([nH]4)c(-c4c(F)c(F)c(F)c(F)c4F)c4nc(c(-c5c(F)c(F)c(F)c(F)c5F)c5ccc2[nH]5)C=C4)C=C3)cc1
REMARK SMILES IDX 19 1 18 2 17 3 1 4 2 5 3 7 4 8 5 9 16 10 6 11 15 12 7 13
REMARK SMILES IDX 8 14 9 15 14 16 10 17 13 18 11 19 12 20 20 21 21 22 22 23
REMARK SMILES IDX 23 24 24 26 25 27 26 28 87 29 27 30 86 31 28 32 29 33 30 34
REMARK SMILES IDX 80 35 31 36 85 37 79 38 81 39 32 40 84 41 78 42 77 43 33 45
REMARK SMILES IDX 65 46 45 47 64 48 46 49 49 50 63 51 82 52 47 53 48 54 62 56
REMARK SMILES IDX 83 57 50 58 34 59 35 60 43 61 36 62 37 63 41 64 44 65 38 66
REMARK SMILES IDX 39 67 42 68 40 69 66 70 67 71 75 72 68 73 69 74 73 75 76 76
REMARK SMILES IDX 70 77 71 78 74 79 72 80 51 81 52 82 60 83 53 84 54 85 58 86
REMARK SMILES IDX 61 87 55 88 56 89 59 90 57 91
REMARK H PARENT 17 6 22 25 81 44 49 55
REMARK Flexibility Score: inf
ROOT
ATOM      1  C   UNL A   1      33.366  34.614  28.866  1.00  0.00     0.023 C 
ENDROOT
BRANCH   1   2
ATOM      2  C   UNL A   1      33.084  35.954  29.545  1.00  0.00     0.116 C 
BRANCH   2   3
ATOM      3  N   UNL A   1      33.769  36.084  30.814  1.00  0.00    -0.356 N 
ATOM      4  O   UNL A   1      32.033  35.318  32.114  1.00  0.00    -0.275 OA
ATOM      5  C   UNL A   1      33.194  35.698  32.010  1.00  0.00     0.224 C 
ATOM      6  H   UNL A   1      34.678  36.460  30.825  1.00  0.00     0.163 HD
BRANCH   5   7
ATOM      7  C   UNL A   1      34.149  35.760  33.195  1.00  0.00     0.135 C 
BRANCH   7   8
ATOM      8  C   UNL A   1      35.165  34.642  33.165  1.00  0.00    -0.039 A 
ATOM      9  C   UNL A   1      34.783  33.338  32.828  1.00  0.00     0.005 A 
ATOM     10  C   UNL A   1      36.500  34.880  33.509  1.00  0.00     0.005 A 
ATOM     11  C   UNL A   1      35.702  32.290  32.884  1.00  0.00     0.009 A 
ATOM     12  C   UNL A   1      37.423  33.827  33.547  1.00  0.00     0.009 A 
ATOM     13  C   UNL A   1      37.037  32.510  33.255  1.00  0.00    -0.018 A 
BRANCH  13  14
ATOM     14  C   UNL A   1      37.976  31.378  33.375  1.00  0.00    -0.018 A 
ATOM     15  C   UNL A   1      39.281  31.565  33.865  1.00  0.00     0.010 A 
ATOM     16  C   UNL A   1      37.611  30.088  32.952  1.00  0.00     0.010 A 
ATOM     17  C   UNL A   1      40.196  30.508  33.907  1.00  0.00     0.021 A 
ATOM     18  C   UNL A   1      38.522  29.028  32.997  1.00  0.00     0.021 A 
ATOM     19  C   UNL A   1      39.813  29.245  33.468  1.00  0.00     0.041 A 
ATOM     20  Cl  UNL A   1      40.944  27.950  33.496  1.00  0.00    -0.084 Cl
ENDBRANCH  13  14
ENDBRANCH   7   8
ENDBRANCH   5   7
ENDBRANCH   2   3
ENDBRANCH   1   2
BRANCH   1  21
ATOM     21  C   UNL A   1      34.790  34.072  29.039  1.00  0.00     0.023 C 
BRANCH  21  22
ATOM     22  C   UNL A   1      35.262  33.097  27.964  1.00  0.00     0.116 C 
BRANCH  22  23
ATOM     23  N   UNL A   1      34.373  31.956  27.816  1.00  0.00    -0.352 N 
ATOM     24  C   UNL A   1      34.657  30.612  27.811  1.00  0.00     0.251 C 
ATOM     25  H   UNL A   1      33.422  32.181  27.702  1.00  0.00     0.163 HD
ATOM     26  O   UNL A   1      33.778  29.807  27.504  1.00  0.00    -0.269 OA
BRANCH  24  27
ATOM     27  C   UNL A   1      36.013  30.117  28.142  1.00  0.00     0.039 A 
ATOM     28  C   UNL A   1      37.008  30.185  27.163  1.00  0.00     0.014 A 
ATOM     29  C   UNL A   1      36.303  29.558  29.389  1.00  0.00     0.014 A 
ATOM     30  C   UNL A   1      38.308  29.758  27.455  1.00  0.00     0.010 A 
ATOM     31  C   UNL A   1      37.614  29.195  29.702  1.00  0.00     0.010 A 
ATOM     32  C   UNL A   1      38.631  29.294  28.740  1.00  0.00    -0.014 A 
BRANCH  32  33
ATOM     33  C   UNL A   1      40.026  28.921  29.096  1.00  0.00     0.031 A 
ATOM     34  C   UNL A   1      40.899  29.874  29.863  1.00  0.00     0.074 A 
ATOM     35  C   UNL A   1      40.532  27.748  28.668  1.00  0.00     0.049 A 
ATOM     36  N   UNL A   1      42.161  29.761  30.192  1.00  0.00    -0.248 NA
ATOM     37  C   UNL A   1      40.276  31.134  30.297  1.00  0.00     0.031 C 
ATOM     38  C   UNL A   1      39.806  26.751  27.879  1.00  0.00     0.029 A 
ATOM     39  N   UNL A   1      41.782  27.200  28.824  1.00  0.00    -0.354 N 
ATOM     40  C   UNL A   1      42.487  30.935  30.859  1.00  0.00     0.074 A 
ATOM     41  C   UNL A   1      41.303  31.769  30.844  1.00  0.00     0.031 C 
ATOM     42  C   UNL A   1      40.616  25.710  27.633  1.00  0.00     0.029 A 
ATOM     43  C   UNL A   1      41.928  25.979  28.213  1.00  0.00     0.049 A 
ATOM     44  H   UNL A   1      42.504  27.641  29.327  1.00  0.00     0.167 HD
ATOM     45  C   UNL A   1      43.658  31.278  31.449  1.00  0.00     0.037 A 
ATOM     46  C   UNL A   1      43.002  25.171  28.119  1.00  0.00     0.037 A 
ATOM     47  C   UNL A   1      44.828  30.440  31.483  1.00  0.00     0.049 A 
ATOM     48  C   UNL A   1      44.293  25.577  28.777  1.00  0.00     0.074 A 
ATOM     49  C   UNL A   1      46.044  30.680  32.101  1.00  0.00     0.029 A 
ATOM     50  N   UNL A   1      44.931  29.200  30.871  1.00  0.00    -0.354 N 
ATOM     51  N   UNL A   1      44.569  26.664  29.454  1.00  0.00    -0.248 NA
ATOM     52  C   UNL A   1      45.419  24.639  28.661  1.00  0.00     0.031 C 
ATOM     53  C   UNL A   1      46.895  29.603  31.827  1.00  0.00     0.029 A 
ATOM     54  C   UNL A   1      46.195  28.671  31.079  1.00  0.00     0.049 A 
ATOM     55  H   UNL A   1      44.211  28.760  30.361  1.00  0.00     0.167 HD
ATOM     56  C   UNL A   1      45.888  26.530  29.868  1.00  0.00     0.074 A 
ATOM     57  C   UNL A   1      46.353  25.250  29.377  1.00  0.00     0.031 C 
ATOM     58  C   UNL A   1      46.645  27.392  30.590  1.00  0.00     0.037 A 
BRANCH  45  59
ATOM     59  C   UNL A   1      43.731  32.623  32.112  1.00  0.00     0.064 A 
ATOM     60  C   UNL A   1      43.502  32.777  33.488  1.00  0.00     0.173 A 
ATOM     61  C   UNL A   1      44.070  33.767  31.373  1.00  0.00     0.173 A 
ATOM     62  F   UNL A   1      43.165  31.717  34.239  1.00  0.00    -0.203 F 
ATOM     63  C   UNL A   1      43.580  34.029  34.093  1.00  0.00     0.198 A 
ATOM     64  C   UNL A   1      44.177  35.012  31.987  1.00  0.00     0.198 A 
ATOM     65  F   UNL A   1      44.307  33.675  30.055  1.00  0.00    -0.203 F 
ATOM     66  F   UNL A   1      43.308  34.158  35.399  1.00  0.00    -0.200 F 
ATOM     67  C   UNL A   1      43.924  35.144  33.343  1.00  0.00     0.200 A 
ATOM     68  F   UNL A   1      44.523  36.086  31.263  1.00  0.00    -0.200 F 
ATOM     69  F   UNL A   1      44.004  36.347  33.928  1.00  0.00    -0.200 F 
ENDBRANCH  45  59
BRANCH  46  70
ATOM     70  C   UNL A   1      42.896  23.883  27.384  1.00  0.00     0.064 A 
ATOM     71  C   UNL A   1      42.448  22.721  28.029  1.00  0.00     0.173 A 
ATOM     72  C   UNL A   1      43.237  23.786  26.028  1.00  0.00     0.173 A 
ATOM     73  F   UNL A   1      42.131  22.760  29.332  1.00  0.00    -0.203 F 
ATOM     74  C   UNL A   1      42.365  21.508  27.350  1.00  0.00     0.198 A 
ATOM     75  C   UNL A   1      43.125  22.579  25.342  1.00  0.00     0.198 A 
ATOM     76  F   UNL A   1      43.665  24.870  25.364  1.00  0.00    -0.203 F 
ATOM     77  F   UNL A   1      41.975  20.404  28.001  1.00  0.00    -0.200 F 
ATOM     78  C   UNL A   1      42.697  21.439  26.006  1.00  0.00     0.200 A 
ATOM     79  F   UNL A   1      43.434  22.520  24.039  1.00  0.00    -0.200 F 
ATOM     80  F   UNL A   1      42.610  20.273  25.350  1.00  0.00    -0.200 F 
ENDBRANCH  46  70
BRANCH  58  81
ATOM     81  C   UNL A   1      48.045  26.968  30.922  1.00  0.00     0.064 A 
ATOM     82  C   UNL A   1      48.337  26.233  32.080  1.00  0.00     0.173 A 
ATOM     83  C   UNL A   1      49.103  27.268  30.050  1.00  0.00     0.173 A 
ATOM     84  F   UNL A   1      47.363  25.935  32.954  1.00  0.00    -0.203 F 
ATOM     85  C   UNL A   1      49.640  25.835  32.366  1.00  0.00     0.198 A 
ATOM     86  C   UNL A   1      50.401  26.844  30.324  1.00  0.00     0.198 A 
ATOM     87  F   UNL A   1      48.877  27.964  28.926  1.00  0.00    -0.203 F 
ATOM     88  F   UNL A   1      49.903  25.174  33.502  1.00  0.00    -0.200 F 
ATOM     89  C   UNL A   1      50.669  26.134  31.485  1.00  0.00     0.200 A 
ATOM     90  F   UNL A   1      51.392  27.123  29.466  1.00  0.00    -0.200 F 
ATOM     91  F   UNL A   1      51.922  25.744  31.758  1.00  0.00    -0.200 F 
ENDBRANCH  58  81
ENDBRANCH  32  33
ENDBRANCH  24  27
ENDBRANCH  22  23
ENDBRANCH  21  22
ENDBRANCH   1  21
TORSDOF 13
ENDMDL
MODEL 3
REMARK VINA RESULT:     -10.7      4.893     10.692
REMARK SMILES O=C(Cc1ccc(-c2ccc(Cl)cc2)cc1)NCCCCNC(=O)c1ccc(-c2c3nc(c(-c4c(F)c(F)c(F)c(F)c4F)c4ccc([nH]4)c(-c4c(F)c(F)c(F)c(F)c4F)c4nc(c(-c5c(F)c(F)c(F)c(F)c5F)c5ccc2[nH]5)C=C4)C=C3)cc1
REMARK SMILES IDX 19 1 18 2 17 3 1 4 2 5 3 7 4 8 5 9 16 10 6 11 15 12 7 13
REMARK SMILES IDX 8 14 9 15 14 16 10 17 13 18 11 19 12 20 20 21 21 22 22 23
REMARK SMILES IDX 23 24 24 26 25 27 26 28 87 29 27 30 86 31 28 32 29 33 30 34
REMARK SMILES IDX 80 35 31 36 85 37 79 38 81 39 32 40 84 41 78 42 77 43 33 45
REMARK SMILES IDX 65 46 45 47 64 48 46 49 49 50 63 51 82 52 47 53 48 54 62 56
REMARK SMILES IDX 83 57 50 58 34 59 35 60 43 61 36 62 37 63 41 64 44 65 38 66
REMARK SMILES IDX 39 67 42 68 40 69 66 70 67 71 75 72 68 73 69 74 73 75 76 76
REMARK SMILES IDX 70 77 71 78 74 79 72 80 51 81 52 82 60 83 53 84 54 85 58 86
REMARK SMILES IDX 61 87 55 88 56 89 59 90 57 91
REMARK H PARENT 17 6 22 25 81 44 49 55
REMARK Flexibility Score: inf
ROOT
ATOM      1  C   UNL A   1      31.630  30.642  26.460  1.00  0.00     0.023 C 
ENDROOT
BRANCH   1   2
ATOM      2  C   UNL A   1      31.273  30.262  25.023  1.00  0.00     0.116 C 
BRANCH   2   3
ATOM      3  N   UNL A   1      32.316  29.488  24.383  1.00  0.00    -0.356 N 
ATOM      4  O   UNL A   1      30.917  28.219  23.070  1.00  0.00    -0.275 OA
ATOM      5  C   UNL A   1      32.050  28.550  23.403  1.00  0.00     0.224 C 
ATOM      6  H   UNL A   1      33.250  29.635  24.655  1.00  0.00     0.163 HD
BRANCH   5   7
ATOM      7  C   UNL A   1      33.301  27.979  22.747  1.00  0.00     0.135 C 
BRANCH   7   8
ATOM      8  C   UNL A   1      33.451  26.498  23.005  1.00  0.00    -0.039 A 
ATOM      9  C   UNL A   1      33.089  25.563  22.029  1.00  0.00     0.005 A 
ATOM     10  C   UNL A   1      33.919  26.031  24.238  1.00  0.00     0.005 A 
ATOM     11  C   UNL A   1      33.146  24.194  22.297  1.00  0.00     0.009 A 
ATOM     12  C   UNL A   1      33.991  24.657  24.497  1.00  0.00     0.009 A 
ATOM     13  C   UNL A   1      33.587  23.713  23.539  1.00  0.00    -0.018 A 
BRANCH  13  14
ATOM     14  C   UNL A   1      33.574  22.267  23.828  1.00  0.00    -0.018 A 
ATOM     15  C   UNL A   1      32.511  21.450  23.403  1.00  0.00     0.010 A 
ATOM     16  C   UNL A   1      34.600  21.671  24.583  1.00  0.00     0.010 A 
ATOM     17  C   UNL A   1      32.461  20.094  23.741  1.00  0.00     0.021 A 
ATOM     18  C   UNL A   1      34.555  20.314  24.919  1.00  0.00     0.021 A 
ATOM     19  C   UNL A   1      33.481  19.534  24.502  1.00  0.00     0.041 A 
ATOM     20  Cl  UNL A   1      33.410  17.872  24.940  1.00  0.00    -0.084 Cl
ENDBRANCH  13  14
ENDBRANCH   7   8
ENDBRANCH   5   7
ENDBRANCH   2   3
ENDBRANCH   1   2
BRANCH   1  21
ATOM     21  C   UNL A   1      31.425  32.117  26.825  1.00  0.00     0.023 C 
BRANCH  21  22
ATOM     22  C   UNL A   1      32.696  32.910  27.114  1.00  0.00     0.116 C 
BRANCH  22  23
ATOM     23  N   UNL A   1      32.420  34.252  27.599  1.00  0.00    -0.352 N 
ATOM     24  C   UNL A   1      32.992  34.952  28.634  1.00  0.00     0.251 C 
ATOM     25  H   UNL A   1      31.715  34.734  27.110  1.00  0.00     0.163 HD
ATOM     26  O   UNL A   1      32.499  36.022  28.990  1.00  0.00    -0.269 OA
BRANCH  24  27
ATOM     27  C   UNL A   1      34.178  34.425  29.347  1.00  0.00     0.039 A 
ATOM     28  C   UNL A   1      33.987  33.745  30.554  1.00  0.00     0.014 A 
ATOM     29  C   UNL A   1      35.473  34.622  28.859  1.00  0.00     0.014 A 
ATOM     30  C   UNL A   1      35.083  33.205  31.235  1.00  0.00     0.010 A 
ATOM     31  C   UNL A   1      36.558  34.026  29.502  1.00  0.00     0.010 A 
ATOM     32  C   UNL A   1      36.376  33.309  30.695  1.00  0.00    -0.014 A 
BRANCH  32  33
ATOM     33  C   UNL A   1      37.540  32.663  31.357  1.00  0.00     0.031 A 
ATOM     34  C   UNL A   1      38.253  31.515  30.700  1.00  0.00     0.074 A 
ATOM     35  C   UNL A   1      37.916  33.068  32.587  1.00  0.00     0.049 A 
ATOM     36  N   UNL A   1      39.232  30.775  31.157  1.00  0.00    -0.248 NA
ATOM     37  C   UNL A   1      37.788  31.132  29.358  1.00  0.00     0.031 C 
ATOM     38  C   UNL A   1      37.283  34.142  33.354  1.00  0.00     0.029 A 
ATOM     39  N   UNL A   1      38.914  32.614  33.414  1.00  0.00    -0.354 N 
ATOM     40  C   UNL A   1      39.490  29.834  30.169  1.00  0.00     0.074 A 
ATOM     41  C   UNL A   1      38.533  30.065  29.108  1.00  0.00     0.031 C 
ATOM     42  C   UNL A   1      37.914  34.272  34.531  1.00  0.00     0.029 A 
ATOM     43  C   UNL A   1      38.972  33.270  34.619  1.00  0.00     0.049 A 
ATOM     44  H   UNL A   1      39.529  31.886  33.167  1.00  0.00     0.167 HD
ATOM     45  C   UNL A   1      40.452  28.879  30.139  1.00  0.00     0.037 A 
ATOM     46  C   UNL A   1      39.778  33.080  35.681  1.00  0.00     0.037 A 
ATOM     47  C   UNL A   1      41.418  28.664  31.184  1.00  0.00     0.049 A 
ATOM     48  C   UNL A   1      40.834  32.009  35.625  1.00  0.00     0.074 A 
ATOM     49  C   UNL A   1      42.462  27.755  31.220  1.00  0.00     0.029 A 
ATOM     50  N   UNL A   1      41.458  29.364  32.380  1.00  0.00    -0.354 N 
ATOM     51  N   UNL A   1      41.104  31.165  34.661  1.00  0.00    -0.248 NA
ATOM     52  C   UNL A   1      41.699  31.870  36.806  1.00  0.00     0.031 C 
ATOM     53  C   UNL A   1      43.108  27.877  32.456  1.00  0.00     0.029 A 
ATOM     54  C   UNL A   1      42.497  28.895  33.170  1.00  0.00     0.049 A 
ATOM     55  H   UNL A   1      40.839  30.088  32.632  1.00  0.00     0.167 HD
ATOM     56  C   UNL A   1      42.185  30.414  35.104  1.00  0.00     0.074 A 
ATOM     57  C   UNL A   1      42.530  30.911  36.419  1.00  0.00     0.031 C 
ATOM     58  C   UNL A   1      42.833  29.402  34.476  1.00  0.00     0.037 A 
BRANCH  45  59
ATOM     59  C   UNL A   1      40.508  27.992  28.929  1.00  0.00     0.064 A 
ATOM     60  C   UNL A   1      39.777  26.796  28.859  1.00  0.00     0.173 A 
ATOM     61  C   UNL A   1      41.270  28.360  27.809  1.00  0.00     0.173 A 
ATOM     62  F   UNL A   1      39.040  26.394  29.906  1.00  0.00    -0.203 F 
ATOM     63  C   UNL A   1      39.832  25.987  27.728  1.00  0.00     0.198 A 
ATOM     64  C   UNL A   1      41.297  27.562  26.667  1.00  0.00     0.198 A 
ATOM     65  F   UNL A   1      41.981  29.498  27.818  1.00  0.00    -0.203 F 
ATOM     66  F   UNL A   1      39.165  24.824  27.706  1.00  0.00    -0.200 F 
ATOM     67  C   UNL A   1      40.586  26.373  26.630  1.00  0.00     0.200 A 
ATOM     68  F   UNL A   1      42.016  27.945  25.602  1.00  0.00    -0.200 F 
ATOM     69  F   UNL A   1      40.633  25.596  25.540  1.00  0.00    -0.200 F 
ENDBRANCH  45  59
BRANCH  46  70
ATOM     70  C   UNL A   1      39.629  33.938  36.885  1.00  0.00     0.064 A 
ATOM     71  C   UNL A   1      40.275  35.179  36.969  1.00  0.00     0.173 A 
ATOM     72  C   UNL A   1      38.840  33.538  37.974  1.00  0.00     0.173 A 
ATOM     73  F   UNL A   1      41.058  35.595  35.962  1.00  0.00    -0.203 F 
ATOM     74  C   UNL A   1      40.154  35.979  38.103  1.00  0.00     0.198 A 
ATOM     75  C   UNL A   1      38.696  34.351  39.096  1.00  0.00     0.198 A 
ATOM     76  F   UNL A   1      38.197  32.361  37.940  1.00  0.00    -0.203 F 
ATOM     77  F   UNL A   1      40.816  37.141  38.175  1.00  0.00    -0.200 F 
ATOM     78  C   UNL A   1      39.359  35.567  39.162  1.00  0.00     0.200 A 
ATOM     79  F   UNL A   1      37.917  33.956  40.111  1.00  0.00    -0.200 F 
ATOM     80  F   UNL A   1      39.237  36.339  40.251  1.00  0.00    -0.200 F 
ENDBRANCH  46  70
BRANCH  58  81
ATOM     81  C   UNL A   1      44.001  28.785  35.188  1.00  0.00     0.064 A 
ATOM     82  C   UNL A   1      43.841  27.699  36.060  1.00  0.00     0.173 A 
ATOM     83  C   UNL A   1      45.301  29.263  34.965  1.00  0.00     0.173 A 
ATOM     84  F   UNL A   1      42.617  27.215  36.320  1.00  0.00    -0.203 F 
ATOM     85  C   UNL A   1      44.938  27.129  36.702  1.00  0.00     0.198 A 
ATOM     86  C   UNL A   1      46.399  28.673  35.585  1.00  0.00     0.198 A 
ATOM     87  F   UNL A   1      45.509  30.296  34.135  1.00  0.00    -0.203 F 
ATOM     88  F   UNL A   1      44.757  26.121  37.566  1.00  0.00    -0.200 F 
ATOM     89  C   UNL A   1      46.216  27.611  36.458  1.00  0.00     0.200 A 
ATOM     90  F   UNL A   1      47.634  29.132  35.340  1.00  0.00    -0.200 F 
ATOM     91  F   UNL A   1      47.271  27.057  37.071  1.00  0.00    -0.200 F 
ENDBRANCH  58  81
ENDBRANCH  32  33
ENDBRANCH  24  27
ENDBRANCH  22  23
ENDBRANCH  21  22
ENDBRANCH   1  21
TORSDOF 13
ENDMDL
