MODEL 1
REMARK VINA RESULT:     -11.7      0.000      0.000
REMARK SMILES C=CC[N@@H+](CC(=O)NCCCCNC(=O)c1ccc(-c2c3nc(c(-c4c(F)c(F)c(F)c(F)c4F)c4ccc([nH]4)c(-c4c(F)c(F)c(F)c(F)c4F)c4nc(c(-c5c(F)c(F)c(F)c(F)c5F)c5ccc2[nH]5)C=C4)C=C3)cc1)Cc1ccc([N+](=O)[O-])o1
REMARK SMILES IDX 9 1 8 2 6 3 7 4 5 6 4 7 3 9 2 10 1 11 79 12 80 13 81 14
REMARK SMILES IDX 87 15 82 16 83 17 84 18 85 19 86 20 10 21 11 22 12 23 13 24
REMARK SMILES IDX 14 25 15 27 16 28 17 29 78 30 18 31 77 32 19 33 20 34 21 35
REMARK SMILES IDX 71 36 22 37 76 38 70 39 72 40 23 41 75 42 69 43 68 44 24 46
REMARK SMILES IDX 56 47 36 48 55 49 37 50 40 51 54 52 73 53 38 54 39 55 53 57
REMARK SMILES IDX 74 58 41 59 25 60 26 61 34 62 27 63 28 64 32 65 35 66 29 67
REMARK SMILES IDX 30 68 33 69 31 70 57 71 58 72 66 73 59 74 60 75 64 76 67 77
REMARK SMILES IDX 61 78 62 79 65 80 63 81 42 82 43 83 51 84 44 85 45 86 49 87
REMARK SMILES IDX 52 88 46 89 47 90 50 91 48 92
REMARK H PARENT 8 5 4 8 13 26 72 45 40 56
REMARK Flexibility Score: inf
ROOT
ATOM      1  C   UNL A   1      33.391  29.568  26.470  1.00  0.00     0.116 C 
ENDROOT
BRANCH   1   2
ATOM      2  N   UNL A   1      33.676  29.660  25.053  1.00  0.00    -0.351 N 
ATOM      3  C   UNL A   1      33.203  28.929  24.003  1.00  0.00     0.275 C 
ATOM      4  O   UNL A   1      33.496  29.331  22.870  1.00  0.00    -0.269 OA
ATOM      5  H   UNL A   1      34.316  30.367  24.807  1.00  0.00     0.163 HD
BRANCH   3   6
ATOM      6  C   UNL A   1      32.295  27.701  24.179  1.00  0.00     0.364 C 
BRANCH   6   7
ATOM      7  N   UNL A   1      30.844  27.884  23.967  1.00  0.00    -0.318 N 
ATOM      8  H   UNL A   1      30.598  28.643  24.603  1.00  0.00     0.349 HD
BRANCH   7   9
ATOM      9  C   UNL A   1      30.038  26.784  24.456  1.00  0.00     0.291 C 
BRANCH   9  10
ATOM     10  C   UNL A   1      30.434  26.160  25.757  1.00  0.00     0.025 C 
ATOM     11  C   UNL A   1      30.497  24.831  25.934  1.00  0.00     0.010 C 
ENDBRANCH   9  10
ENDBRANCH   7   9
BRANCH   7  12
ATOM     12  C   UNL A   1      30.431  28.528  22.717  1.00  0.00     0.339 C 
BRANCH  12  13
ATOM     13  C   UNL A   1      29.695  29.826  22.801  1.00  0.00     0.165 A 
ATOM     14  C   UNL A   1      29.472  30.691  23.862  1.00  0.00     0.059 A 
ATOM     15  O   UNL A   1      29.089  30.310  21.673  1.00  0.00    -0.400 OA
ATOM     16  C   UNL A   1      28.748  31.794  23.354  1.00  0.00     0.134 A 
ATOM     17  C   UNL A   1      28.535  31.503  22.028  1.00  0.00     0.433 A 
BRANCH  17  18
ATOM     18  N   UNL A   1      27.892  32.248  20.994  1.00  0.00     0.102 N 
ATOM     19  O   UNL A   1      27.537  31.606  19.995  1.00  0.00    -0.256 OA
ATOM     20  O   UNL A   1      27.723  33.461  21.170  1.00  0.00    -0.256 OA
ENDBRANCH  17  18
ENDBRANCH  12  13
ENDBRANCH   7  12
ENDBRANCH   6   7
ENDBRANCH   3   6
ENDBRANCH   1   2
BRANCH   1  21
ATOM     21  C   UNL A   1      32.011  30.133  26.829  1.00  0.00     0.023 C 
BRANCH  21  22
ATOM     22  C   UNL A   1      31.846  31.636  26.685  1.00  0.00     0.023 C 
BRANCH  22  23
ATOM     23  C   UNL A   1      32.880  32.461  27.423  1.00  0.00     0.116 C 
BRANCH  23  24
ATOM     24  N   UNL A   1      32.485  33.853  27.605  1.00  0.00    -0.352 N 
ATOM     25  C   UNL A   1      32.985  34.807  28.462  1.00  0.00     0.251 C 
ATOM     26  H   UNL A   1      31.750  34.157  27.026  1.00  0.00     0.163 HD
ATOM     27  O   UNL A   1      32.442  35.898  28.563  1.00  0.00    -0.269 OA
BRANCH  25  28
ATOM     28  C   UNL A   1      34.162  34.484  29.296  1.00  0.00     0.039 A 
ATOM     29  C   UNL A   1      33.967  33.983  30.585  1.00  0.00     0.014 A 
ATOM     30  C   UNL A   1      35.450  34.608  28.775  1.00  0.00     0.014 A 
ATOM     31  C   UNL A   1      35.060  33.498  31.305  1.00  0.00     0.010 A 
ATOM     32  C   UNL A   1      36.516  34.019  29.441  1.00  0.00     0.010 A 
ATOM     33  C   UNL A   1      36.332  33.453  30.711  1.00  0.00    -0.014 A 
BRANCH  33  34
ATOM     34  C   UNL A   1      37.491  32.815  31.383  1.00  0.00     0.031 A 
ATOM     35  C   UNL A   1      38.188  31.656  30.727  1.00  0.00     0.074 A 
ATOM     36  C   UNL A   1      37.845  33.205  32.623  1.00  0.00     0.049 A 
ATOM     37  N   UNL A   1      39.121  30.872  31.202  1.00  0.00    -0.248 NA
ATOM     38  C   UNL A   1      37.743  31.304  29.368  1.00  0.00     0.031 C 
ATOM     39  C   UNL A   1      37.204  34.274  33.393  1.00  0.00     0.029 A 
ATOM     40  N   UNL A   1      38.821  32.732  33.465  1.00  0.00    -0.354 N 
ATOM     41  C   UNL A   1      39.353  29.924  30.215  1.00  0.00     0.074 A 
ATOM     42  C   UNL A   1      38.423  30.190  29.140  1.00  0.00     0.031 C 
ATOM     43  C   UNL A   1      37.820  34.394  34.578  1.00  0.00     0.029 A 
ATOM     44  C   UNL A   1      38.867  33.382  34.675  1.00  0.00     0.049 A 
ATOM     45  H   UNL A   1      39.430  31.997  33.225  1.00  0.00     0.167 HD
ATOM     46  C   UNL A   1      40.278  28.936  30.194  1.00  0.00     0.037 A 
ATOM     47  C   UNL A   1      39.657  33.175  35.745  1.00  0.00     0.037 A 
ATOM     48  C   UNL A   1      41.232  28.705  31.245  1.00  0.00     0.049 A 
ATOM     49  C   UNL A   1      40.676  32.070  35.700  1.00  0.00     0.074 A 
ATOM     50  C   UNL A   1      42.274  27.797  31.281  1.00  0.00     0.029 A 
ATOM     51  N   UNL A   1      41.256  29.393  32.451  1.00  0.00    -0.354 N 
ATOM     52  N   UNL A   1      40.940  31.228  34.729  1.00  0.00    -0.248 NA
ATOM     53  C   UNL A   1      41.504  31.882  36.899  1.00  0.00     0.031 C 
ATOM     54  C   UNL A   1      42.903  27.904  32.526  1.00  0.00     0.029 A 
ATOM     55  C   UNL A   1      42.278  28.907  33.250  1.00  0.00     0.049 A 
ATOM     56  H   UNL A   1      40.640  30.120  32.700  1.00  0.00     0.167 HD
ATOM     57  C   UNL A   1      41.968  30.420  35.194  1.00  0.00     0.074 A 
ATOM     58  C   UNL A   1      42.295  30.886  36.526  1.00  0.00     0.031 C 
ATOM     59  C   UNL A   1      42.580  29.381  34.576  1.00  0.00     0.037 A 
BRANCH  46  60
ATOM     60  C   UNL A   1      40.309  28.042  28.990  1.00  0.00     0.064 A 
ATOM     61  C   UNL A   1      39.598  26.832  28.954  1.00  0.00     0.173 A 
ATOM     62  C   UNL A   1      41.042  28.406  27.851  1.00  0.00     0.173 A 
ATOM     63  F   UNL A   1      38.893  26.432  30.022  1.00  0.00    -0.203 F 
ATOM     64  C   UNL A   1      39.647  26.005  27.836  1.00  0.00     0.198 A 
ATOM     65  C   UNL A   1      41.064  27.590  26.723  1.00  0.00     0.198 A 
ATOM     66  F   UNL A   1      41.737  29.554  27.830  1.00  0.00    -0.203 F 
ATOM     67  F   UNL A   1      39.005  24.828  27.847  1.00  0.00    -0.200 F 
ATOM     68  C   UNL A   1      40.375  26.387  26.719  1.00  0.00     0.200 A 
ATOM     69  F   UNL A   1      41.759  27.965  25.640  1.00  0.00    -0.200 F 
ATOM     70  F   UNL A   1      40.419  25.590  25.643  1.00  0.00    -0.200 F 
ENDBRANCH  46  60
BRANCH  47  71
ATOM     71  C   UNL A   1      39.524  34.042  36.944  1.00  0.00     0.064 A 
ATOM     72  C   UNL A   1      38.748  33.634  38.038  1.00  0.00     0.173 A 
ATOM     73  C   UNL A   1      40.170  35.283  37.029  1.00  0.00     0.173 A 
ATOM     74  F   UNL A   1      38.091  32.466  37.994  1.00  0.00    -0.203 F 
ATOM     75  C   UNL A   1      38.612  34.442  39.165  1.00  0.00     0.198 A 
ATOM     76  C   UNL A   1      40.055  36.079  38.167  1.00  0.00     0.198 A 
ATOM     77  F   UNL A   1      40.924  35.719  36.009  1.00  0.00    -0.203 F 
ATOM     78  F   UNL A   1      37.831  34.047  40.180  1.00  0.00    -0.200 F 
ATOM     79  C   UNL A   1      39.270  35.660  39.232  1.00  0.00     0.200 A 
ATOM     80  F   UNL A   1      40.699  37.252  38.232  1.00  0.00    -0.200 F 
ATOM     81  F   UNL A   1      39.143  36.435  40.319  1.00  0.00    -0.200 F 
ENDBRANCH  47  71
BRANCH  59  82
ATOM     82  C   UNL A   1      43.667  28.678  35.333  1.00  0.00     0.064 A 
ATOM     83  C   UNL A   1      45.012  29.048  35.186  1.00  0.00     0.173 A 
ATOM     84  C   UNL A   1      43.358  27.665  36.252  1.00  0.00     0.173 A 
ATOM     85  F   UNL A   1      45.358  30.001  34.308  1.00  0.00    -0.203 F 
ATOM     86  C   UNL A   1      46.011  28.417  35.923  1.00  0.00     0.198 A 
ATOM     87  C   UNL A   1      44.355  27.055  37.007  1.00  0.00     0.198 A 
ATOM     88  F   UNL A   1      42.085  27.281  36.432  1.00  0.00    -0.203 F 
ATOM     89  F   UNL A   1      47.292  28.760  35.740  1.00  0.00    -0.200 F 
ATOM     90  C   UNL A   1      45.680  27.428  36.838  1.00  0.00     0.200 A 
ATOM     91  F   UNL A   1      44.035  26.109  37.900  1.00  0.00    -0.200 F 
ATOM     92  F   UNL A   1      46.642  26.830  37.555  1.00  0.00    -0.200 F 
ENDBRANCH  59  82
ENDBRANCH  33  34
ENDBRANCH  25  28
ENDBRANCH  23  24
ENDBRANCH  22  23
ENDBRANCH  21  22
ENDBRANCH   1  21
TORSDOF 17
ENDMDL
MODEL 2
REMARK VINA RESULT:     -11.4      0.887      7.450
REMARK SMILES C=CC[N@@H+](CC(=O)NCCCCNC(=O)c1ccc(-c2c3nc(c(-c4c(F)c(F)c(F)c(F)c4F)c4ccc([nH]4)c(-c4c(F)c(F)c(F)c(F)c4F)c4nc(c(-c5c(F)c(F)c(F)c(F)c5F)c5ccc2[nH]5)C=C4)C=C3)cc1)Cc1ccc([N+](=O)[O-])o1
REMARK SMILES IDX 9 1 8 2 6 3 7 4 5 6 4 7 3 9 2 10 1 11 79 12 80 13 81 14
REMARK SMILES IDX 87 15 82 16 83 17 84 18 85 19 86 20 10 21 11 22 12 23 13 24
REMARK SMILES IDX 14 25 15 27 16 28 17 29 78 30 18 31 77 32 19 33 20 34 21 35
REMARK SMILES IDX 71 36 22 37 76 38 70 39 72 40 23 41 75 42 69 43 68 44 24 46
REMARK SMILES IDX 56 47 36 48 55 49 37 50 40 51 54 52 73 53 38 54 39 55 53 57
REMARK SMILES IDX 74 58 41 59 25 60 26 61 34 62 27 63 28 64 32 65 35 66 29 67
REMARK SMILES IDX 30 68 33 69 31 70 57 71 58 72 66 73 59 74 60 75 64 76 67 77
REMARK SMILES IDX 61 78 62 79 65 80 63 81 42 82 43 83 51 84 44 85 45 86 49 87
REMARK SMILES IDX 52 88 46 89 47 90 50 91 48 92
REMARK H PARENT 8 5 4 8 13 26 72 45 40 56
REMARK Flexibility Score: inf
ROOT
ATOM      1  C   UNL A   1      33.074  29.935  25.924  1.00  0.00     0.116 C 
ENDROOT
BRANCH   1   2
ATOM      2  N   UNL A   1      33.523  29.720  24.564  1.00  0.00    -0.351 N 
ATOM      3  C   UNL A   1      33.174  28.766  23.653  1.00  0.00     0.275 C 
ATOM      4  O   UNL A   1      33.599  28.917  22.501  1.00  0.00    -0.269 OA
ATOM      5  H   UNL A   1      34.191  30.370  24.243  1.00  0.00     0.163 HD
BRANCH   3   6
ATOM      6  C   UNL A   1      32.248  27.587  23.989  1.00  0.00     0.364 C 
BRANCH   6   7
ATOM      7  N   UNL A   1      30.791  27.793  23.839  1.00  0.00    -0.318 N 
ATOM      8  H   UNL A   1      30.582  28.543  24.498  1.00  0.00     0.349 HD
BRANCH   7   9
ATOM      9  C   UNL A   1      29.990  26.695  24.340  1.00  0.00     0.291 C 
BRANCH   9  10
ATOM     10  C   UNL A   1      30.335  26.144  25.688  1.00  0.00     0.025 C 
ATOM     11  C   UNL A   1      30.549  24.837  25.904  1.00  0.00     0.010 C 
ENDBRANCH   9  10
ENDBRANCH   7   9
BRANCH   7  12
ATOM     12  C   UNL A   1      30.338  28.466  22.619  1.00  0.00     0.339 C 
BRANCH  12  13
ATOM     13  C   UNL A   1      29.269  29.504  22.740  1.00  0.00     0.165 A 
ATOM     14  C   UNL A   1      27.976  29.439  23.237  1.00  0.00     0.059 A 
ATOM     15  O   UNL A   1      29.530  30.769  22.286  1.00  0.00    -0.400 OA
ATOM     16  C   UNL A   1      27.431  30.741  23.145  1.00  0.00     0.134 A 
ATOM     17  C   UNL A   1      28.410  31.499  22.552  1.00  0.00     0.433 A 
BRANCH  17  18
ATOM     18  N   UNL A   1      28.457  32.889  22.227  1.00  0.00     0.102 N 
ATOM     19  O   UNL A   1      27.855  33.233  21.200  1.00  0.00    -0.256 OA
ATOM     20  O   UNL A   1      29.072  33.644  22.990  1.00  0.00    -0.256 OA
ENDBRANCH  17  18
ENDBRANCH  12  13
ENDBRANCH   7  12
ENDBRANCH   6   7
ENDBRANCH   3   6
ENDBRANCH   1   2
BRANCH   1  21
ATOM     21  C   UNL A   1      31.641  30.475  25.990  1.00  0.00     0.023 C 
BRANCH  21  22
ATOM     22  C   UNL A   1      31.422  31.681  26.887  1.00  0.00     0.023 C 
BRANCH  22  23
ATOM     23  C   UNL A   1      32.681  32.448  27.236  1.00  0.00     0.116 C 
BRANCH  23  24
ATOM     24  N   UNL A   1      32.445  33.868  27.474  1.00  0.00    -0.352 N 
ATOM     25  C   UNL A   1      33.042  34.723  28.372  1.00  0.00     0.251 C 
ATOM     26  H   UNL A   1      31.753  34.276  26.906  1.00  0.00     0.163 HD
ATOM     27  O   UNL A   1      32.625  35.864  28.516  1.00  0.00    -0.269 OA
BRANCH  25  28
ATOM     28  C   UNL A   1      34.169  34.235  29.196  1.00  0.00     0.039 A 
ATOM     29  C   UNL A   1      33.900  33.484  30.341  1.00  0.00     0.014 A 
ATOM     30  C   UNL A   1      35.485  34.459  28.792  1.00  0.00     0.014 A 
ATOM     31  C   UNL A   1      34.951  32.861  31.016  1.00  0.00     0.010 A 
ATOM     32  C   UNL A   1      36.513  33.745  29.390  1.00  0.00     0.010 A 
ATOM     33  C   UNL A   1      36.257  32.935  30.506  1.00  0.00    -0.014 A 
BRANCH  33  34
ATOM     34  C   UNL A   1      37.379  32.170  31.106  1.00  0.00     0.031 A 
ATOM     35  C   UNL A   1      37.876  32.529  32.478  1.00  0.00     0.074 A 
ATOM     36  C   UNL A   1      38.016  31.233  30.378  1.00  0.00     0.049 A 
ATOM     37  N   UNL A   1      38.925  32.086  33.124  1.00  0.00    -0.248 NA
ATOM     38  C   UNL A   1      37.114  33.557  33.207  1.00  0.00     0.031 C 
ATOM     39  C   UNL A   1      37.670  30.840  29.010  1.00  0.00     0.029 A 
ATOM     40  N   UNL A   1      39.104  30.451  30.680  1.00  0.00    -0.354 N 
ATOM     41  C   UNL A   1      38.962  32.799  34.314  1.00  0.00     0.074 A 
ATOM     42  C   UNL A   1      37.869  33.746  34.279  1.00  0.00     0.031 C 
ATOM     43  C   UNL A   1      38.508  29.874  28.603  1.00  0.00     0.029 A 
ATOM     44  C   UNL A   1      39.480  29.612  29.660  1.00  0.00     0.049 A 
ATOM     45  H   UNL A   1      39.569  30.488  31.547  1.00  0.00     0.167 HD
ATOM     46  C   UNL A   1      39.814  32.658  35.356  1.00  0.00     0.037 A 
ATOM     47  C   UNL A   1      40.502  28.739  29.582  1.00  0.00     0.037 A 
ATOM     48  C   UNL A   1      40.869  31.683  35.405  1.00  0.00     0.049 A 
ATOM     49  C   UNL A   1      41.437  28.601  30.752  1.00  0.00     0.074 A 
ATOM     50  C   UNL A   1      41.725  31.389  36.450  1.00  0.00     0.029 A 
ATOM     51  N   UNL A   1      41.212  30.840  34.356  1.00  0.00    -0.354 N 
ATOM     52  N   UNL A   1      41.416  29.226  31.905  1.00  0.00    -0.248 NA
ATOM     53  C   UNL A   1      42.541  27.642  30.608  1.00  0.00     0.031 C 
ATOM     54  C   UNL A   1      42.615  30.399  36.021  1.00  0.00     0.029 A 
ATOM     55  C   UNL A   1      42.288  30.048  34.720  1.00  0.00     0.049 A 
ATOM     56  H   UNL A   1      40.757  30.810  33.484  1.00  0.00     0.167 HD
ATOM     57  C   UNL A   1      42.492  28.729  32.627  1.00  0.00     0.074 A 
ATOM     58  C   UNL A   1      43.134  27.736  31.791  1.00  0.00     0.031 C 
ATOM     59  C   UNL A   1      42.915  29.071  33.868  1.00  0.00     0.037 A 
BRANCH  46  60
ATOM     60  C   UNL A   1      39.628  33.572  36.531  1.00  0.00     0.064 A 
ATOM     61  C   UNL A   1      38.824  33.210  37.624  1.00  0.00     0.173 A 
ATOM     62  C   UNL A   1      40.275  34.815  36.575  1.00  0.00     0.173 A 
ATOM     63  F   UNL A   1      38.173  32.038  37.624  1.00  0.00    -0.203 F 
ATOM     64  C   UNL A   1      38.648  34.075  38.700  1.00  0.00     0.198 A 
ATOM     65  C   UNL A   1      40.121  35.664  37.668  1.00  0.00     0.198 A 
ATOM     66  F   UNL A   1      41.058  35.208  35.559  1.00  0.00    -0.203 F 
ATOM     67  F   UNL A   1      37.831  33.731  39.706  1.00  0.00    -0.200 F 
ATOM     68  C   UNL A   1      39.301  35.298  38.726  1.00  0.00     0.200 A 
ATOM     69  F   UNL A   1      40.761  36.842  37.696  1.00  0.00    -0.200 F 
ATOM     70  F   UNL A   1      39.132  36.127  39.764  1.00  0.00    -0.200 F 
ENDBRANCH  46  60
BRANCH  47  71
ATOM     71  C   UNL A   1      40.686  27.918  28.358  1.00  0.00     0.064 A 
ATOM     72  C   UNL A   1      40.103  26.648  28.256  1.00  0.00     0.173 A 
ATOM     73  C   UNL A   1      41.434  28.382  27.267  1.00  0.00     0.173 A 
ATOM     74  F   UNL A   1      39.398  26.150  29.282  1.00  0.00    -0.203 F 
ATOM     75  C   UNL A   1      40.273  25.867  27.114  1.00  0.00     0.198 A 
ATOM     76  C   UNL A   1      41.583  27.612  26.116  1.00  0.00     0.198 A 
ATOM     77  F   UNL A   1      42.013  29.591  27.316  1.00  0.00    -0.203 F 
ATOM     78  F   UNL A   1      39.738  24.639  27.058  1.00  0.00    -0.200 F 
ATOM     79  C   UNL A   1      41.007  26.352  26.042  1.00  0.00     0.200 A 
ATOM     80  F   UNL A   1      42.286  28.086  25.078  1.00  0.00    -0.200 F 
ATOM     81  F   UNL A   1      41.167  25.602  24.943  1.00  0.00    -0.200 F 
ENDBRANCH  47  71
BRANCH  59  82
ATOM     82  C   UNL A   1      44.127  28.365  34.397  1.00  0.00     0.064 A 
ATOM     83  C   UNL A   1      44.022  27.129  35.053  1.00  0.00     0.173 A 
ATOM     84  C   UNL A   1      45.409  28.899  34.200  1.00  0.00     0.173 A 
ATOM     85  F   UNL A   1      42.816  26.586  35.279  1.00  0.00    -0.203 F 
ATOM     86  C   UNL A   1      45.156  26.461  35.506  1.00  0.00     0.198 A 
ATOM     87  C   UNL A   1      46.543  28.216  34.630  1.00  0.00     0.198 A 
ATOM     88  F   UNL A   1      45.562  30.075  33.573  1.00  0.00    -0.203 F 
ATOM     89  F   UNL A   1      45.029  25.301  36.162  1.00  0.00    -0.200 F 
ATOM     90  C   UNL A   1      46.415  27.001  35.286  1.00  0.00     0.200 A 
ATOM     91  F   UNL A   1      47.760  28.731  34.406  1.00  0.00    -0.200 F 
ATOM     92  F   UNL A   1      47.506  26.350  35.712  1.00  0.00    -0.200 F 
ENDBRANCH  59  82
ENDBRANCH  33  34
ENDBRANCH  25  28
ENDBRANCH  23  24
ENDBRANCH  22  23
ENDBRANCH  21  22
ENDBRANCH   1  21
TORSDOF 17
ENDMDL
MODEL 3
REMARK VINA RESULT:     -11.3      7.098     12.263
REMARK SMILES C=CC[N@@H+](CC(=O)NCCCCNC(=O)c1ccc(-c2c3nc(c(-c4c(F)c(F)c(F)c(F)c4F)c4ccc([nH]4)c(-c4c(F)c(F)c(F)c(F)c4F)c4nc(c(-c5c(F)c(F)c(F)c(F)c5F)c5ccc2[nH]5)C=C4)C=C3)cc1)Cc1ccc([N+](=O)[O-])o1
REMARK SMILES IDX 9 1 8 2 6 3 7 4 5 6 4 7 3 9 2 10 1 11 79 12 80 13 81 14
REMARK SMILES IDX 87 15 82 16 83 17 84 18 85 19 86 20 10 21 11 22 12 23 13 24
REMARK SMILES IDX 14 25 15 27 16 28 17 29 78 30 18 31 77 32 19 33 20 34 21 35
REMARK SMILES IDX 71 36 22 37 76 38 70 39 72 40 23 41 75 42 69 43 68 44 24 46
REMARK SMILES IDX 56 47 36 48 55 49 37 50 40 51 54 52 73 53 38 54 39 55 53 57
REMARK SMILES IDX 74 58 41 59 25 60 26 61 34 62 27 63 28 64 32 65 35 66 29 67
REMARK SMILES IDX 30 68 33 69 31 70 57 71 58 72 66 73 59 74 60 75 64 76 67 77
REMARK SMILES IDX 61 78 62 79 65 80 63 81 42 82 43 83 51 84 44 85 45 86 49 87
REMARK SMILES IDX 52 88 46 89 47 90 50 91 48 92
REMARK H PARENT 8 5 4 8 13 26 72 45 40 56
REMARK Flexibility Score: inf
ROOT
ATOM      1  C   UNL A   1      35.972  22.084  24.685  1.00  0.00     0.116 C 
ENDROOT
BRANCH   1   2
ATOM      2  N   UNL A   1      35.602  21.872  26.069  1.00  0.00    -0.351 N 
ATOM      3  C   UNL A   1      34.375  21.774  26.655  1.00  0.00     0.275 C 
ATOM      4  O   UNL A   1      34.353  21.430  27.843  1.00  0.00    -0.269 OA
ATOM      5  H   UNL A   1      36.363  21.784  26.689  1.00  0.00     0.163 HD
BRANCH   3   6
ATOM      6  C   UNL A   1      33.062  22.008  25.892  1.00  0.00     0.364 C 
BRANCH   6   7
ATOM      7  N   UNL A   1      32.736  21.084  24.785  1.00  0.00    -0.318 N 
ATOM      8  H   UNL A   1      33.648  20.763  24.459  1.00  0.00     0.349 HD
BRANCH   7   9
ATOM      9  C   UNL A   1      32.191  21.740  23.615  1.00  0.00     0.291 C 
BRANCH   9  10
ATOM     10  C   UNL A   1      33.159  22.299  22.620  1.00  0.00     0.025 C 
ATOM     11  C   UNL A   1      33.129  23.580  22.219  1.00  0.00     0.010 C 
ENDBRANCH   9  10
ENDBRANCH   7   9
BRANCH   7  12
ATOM     12  C   UNL A   1      32.183  19.777  25.152  1.00  0.00     0.339 C 
BRANCH  12  13
ATOM     13  C   UNL A   1      32.780  18.557  24.527  1.00  0.00     0.165 A 
ATOM     14  C   UNL A   1      33.002  18.217  23.202  1.00  0.00     0.059 A 
ATOM     15  O   UNL A   1      33.192  17.538  25.343  1.00  0.00    -0.400 OA
ATOM     16  C   UNL A   1      33.640  16.955  23.198  1.00  0.00     0.134 A 
ATOM     17  C   UNL A   1      33.717  16.588  24.519  1.00  0.00     0.433 A 
BRANCH  17  18
ATOM     18  N   UNL A   1      34.283  15.436  25.143  1.00  0.00     0.102 N 
ATOM     19  O   UNL A   1      33.501  14.509  25.397  1.00  0.00    -0.256 OA
ATOM     20  O   UNL A   1      35.500  15.437  25.371  1.00  0.00    -0.256 OA
ENDBRANCH  17  18
ENDBRANCH  12  13
ENDBRANCH   7  12
ENDBRANCH   6   7
ENDBRANCH   3   6
ENDBRANCH   1   2
BRANCH   1  21
ATOM     21  C   UNL A   1      37.439  21.735  24.409  1.00  0.00     0.023 C 
BRANCH  21  22
ATOM     22  C   UNL A   1      37.963  20.475  25.077  1.00  0.00     0.023 C 
BRANCH  22  23
ATOM     23  C   UNL A   1      39.223  20.668  25.895  1.00  0.00     0.116 C 
BRANCH  23  24
ATOM     24  N   UNL A   1      40.080  19.488  25.923  1.00  0.00    -0.352 N 
ATOM     25  C   UNL A   1      41.441  19.390  26.106  1.00  0.00     0.251 C 
ATOM     26  H   UNL A   1      39.614  18.631  25.791  1.00  0.00     0.163 HD
ATOM     27  O   UNL A   1      42.010  18.315  25.975  1.00  0.00    -0.269 OA
BRANCH  25  28
ATOM     28  C   UNL A   1      42.218  20.608  26.420  1.00  0.00     0.039 A 
ATOM     29  C   UNL A   1      42.719  21.385  25.374  1.00  0.00     0.014 A 
ATOM     30  C   UNL A   1      42.383  21.016  27.744  1.00  0.00     0.014 A 
ATOM     31  C   UNL A   1      43.286  22.629  25.654  1.00  0.00     0.010 A 
ATOM     32  C   UNL A   1      42.836  22.300  28.011  1.00  0.00     0.010 A 
ATOM     33  C   UNL A   1      43.288  23.123  26.969  1.00  0.00    -0.014 A 
BRANCH  33  34
ATOM     34  C   UNL A   1      43.746  24.497  27.292  1.00  0.00     0.031 A 
ATOM     35  C   UNL A   1      42.761  25.511  27.801  1.00  0.00     0.074 A 
ATOM     36  C   UNL A   1      45.016  24.860  27.025  1.00  0.00     0.049 A 
ATOM     37  N   UNL A   1      42.920  26.793  28.007  1.00  0.00    -0.248 NA
ATOM     38  C   UNL A   1      41.398  25.025  28.074  1.00  0.00     0.031 C 
ATOM     39  C   UNL A   1      46.050  23.985  26.468  1.00  0.00     0.029 A 
ATOM     40  N   UNL A   1      45.650  26.069  27.170  1.00  0.00    -0.354 N 
ATOM     41  C   UNL A   1      41.678  27.267  28.405  1.00  0.00     0.074 A 
ATOM     42  C   UNL A   1      40.759  26.152  28.354  1.00  0.00     0.031 C 
ATOM     43  C   UNL A   1      47.194  24.677  26.345  1.00  0.00     0.029 A 
ATOM     44  C   UNL A   1      46.963  26.054  26.768  1.00  0.00     0.049 A 
ATOM     45  H   UNL A   1      45.205  26.871  27.528  1.00  0.00     0.167 HD
ATOM     46  C   UNL A   1      41.340  28.515  28.805  1.00  0.00     0.037 A 
ATOM     47  C   UNL A   1      47.875  27.045  26.734  1.00  0.00     0.037 A 
ATOM     48  C   UNL A   1      42.268  29.609  28.899  1.00  0.00     0.049 A 
ATOM     49  C   UNL A   1      47.475  28.423  27.181  1.00  0.00     0.074 A 
ATOM     50  C   UNL A   1      42.052  30.885  29.385  1.00  0.00     0.029 A 
ATOM     51  N   UNL A   1      43.595  29.552  28.496  1.00  0.00    -0.354 N 
ATOM     52  N   UNL A   1      46.316  28.843  27.630  1.00  0.00    -0.248 NA
ATOM     53  C   UNL A   1      48.506  29.468  27.111  1.00  0.00     0.031 C 
ATOM     54  C   UNL A   1      43.236  31.615  29.236  1.00  0.00     0.029 A 
ATOM     55  C   UNL A   1      44.201  30.781  28.694  1.00  0.00     0.049 A 
ATOM     56  H   UNL A   1      44.039  28.755  28.125  1.00  0.00     0.167 HD
ATOM     57  C   UNL A   1      46.481  30.193  27.906  1.00  0.00     0.074 A 
ATOM     58  C   UNL A   1      47.857  30.518  27.595  1.00  0.00     0.031 C 
ATOM     59  C   UNL A   1      45.572  31.084  28.369  1.00  0.00     0.037 A 
BRANCH  46  60
ATOM     60  C   UNL A   1      39.908  28.757  29.183  1.00  0.00     0.064 A 
ATOM     61  C   UNL A   1      38.972  29.232  28.251  1.00  0.00     0.173 A 
ATOM     62  C   UNL A   1      39.460  28.491  30.485  1.00  0.00     0.173 A 
ATOM     63  F   UNL A   1      39.353  29.514  26.996  1.00  0.00    -0.203 F 
ATOM     64  C   UNL A   1      37.650  29.466  28.618  1.00  0.00     0.198 A 
ATOM     65  C   UNL A   1      38.130  28.698  30.841  1.00  0.00     0.198 A 
ATOM     66  F   UNL A   1      40.312  28.032  31.414  1.00  0.00    -0.203 F 
ATOM     67  F   UNL A   1      36.789  29.974  27.725  1.00  0.00    -0.200 F 
ATOM     68  C   UNL A   1      37.228  29.193  29.910  1.00  0.00     0.200 A 
ATOM     69  F   UNL A   1      37.720  28.424  32.087  1.00  0.00    -0.200 F 
ATOM     70  F   UNL A   1      35.955  29.417  30.261  1.00  0.00    -0.200 F 
ENDBRANCH  46  60
BRANCH  47  71
ATOM     71  C   UNL A   1      49.259  26.764  26.271  1.00  0.00     0.064 A 
ATOM     72  C   UNL A   1      50.222  26.269  27.160  1.00  0.00     0.173 A 
ATOM     73  C   UNL A   1      49.646  26.974  24.940  1.00  0.00     0.173 A 
ATOM     74  F   UNL A   1      49.907  26.074  28.449  1.00  0.00    -0.203 F 
ATOM     75  C   UNL A   1      51.524  26.007  26.738  1.00  0.00     0.198 A 
ATOM     76  C   UNL A   1      50.941  26.689  24.513  1.00  0.00     0.198 A 
ATOM     77  F   UNL A   1      48.761  27.448  24.051  1.00  0.00    -0.203 F 
ATOM     78  F   UNL A   1      52.437  25.572  27.618  1.00  0.00    -0.200 F 
ATOM     79  C   UNL A   1      51.881  26.211  25.414  1.00  0.00     0.200 A 
ATOM     80  F   UNL A   1      51.281  26.878  23.231  1.00  0.00    -0.200 F 
ATOM     81  F   UNL A   1      53.133  25.954  25.008  1.00  0.00    -0.200 F 
ENDBRANCH  47  71
BRANCH  59  82
ATOM     82  C   UNL A   1      46.036  32.496  28.569  1.00  0.00     0.064 A 
ATOM     83  C   UNL A   1      46.626  32.904  29.774  1.00  0.00     0.173 A 
ATOM     84  C   UNL A   1      45.942  33.433  27.530  1.00  0.00     0.173 A 
ATOM     85  F   UNL A   1      46.724  32.047  30.802  1.00  0.00    -0.203 F 
ATOM     86  C   UNL A   1      47.091  34.206  29.937  1.00  0.00     0.198 A 
ATOM     87  C   UNL A   1      46.432  34.726  27.686  1.00  0.00     0.198 A 
ATOM     88  F   UNL A   1      45.391  33.089  26.356  1.00  0.00    -0.203 F 
ATOM     89  F   UNL A   1      47.617  34.585  31.109  1.00  0.00    -0.200 F 
ATOM     90  C   UNL A   1      47.001  35.113  28.890  1.00  0.00     0.200 A 
ATOM     91  F   UNL A   1      46.357  35.598  26.671  1.00  0.00    -0.200 F 
ATOM     92  F   UNL A   1      47.460  36.362  29.045  1.00  0.00    -0.200 F 
ENDBRANCH  59  82
ENDBRANCH  33  34
ENDBRANCH  25  28
ENDBRANCH  23  24
ENDBRANCH  22  23
ENDBRANCH  21  22
ENDBRANCH   1  21
TORSDOF 17
ENDMDL
