MODEL 1
REMARK VINA RESULT:     -11.5      0.000      0.000
REMARK SMILES CC(C)[C@@H]([NH2+][C@@H]1CSCC(C)(C)C1)C(=O)NCCCCNC(=O)c1ccc(-c2c3nc(c(-c4c(F)c(F)c(F)c(F)c4F)c4ccc([nH]4)c(-c4c(F)c(F)c(F)c(F)c4F)c4nc(c(-c5c(F)c(F)c(F)c(F)c5F)c5ccc2[nH]5)C=C4)C=C3)cc1
REMARK SMILES IDX 18 1 17 2 16 3 14 4 15 5 4 7 2 8 1 9 3 10 5 11 6 14 7 15
REMARK SMILES IDX 13 16 8 17 10 18 9 19 11 20 12 21 19 22 20 23 21 24 22 25
REMARK SMILES IDX 23 27 24 28 25 29 86 30 26 31 85 32 27 33 28 34 29 35 79 36
REMARK SMILES IDX 30 37 84 38 78 39 80 40 31 41 83 42 77 43 76 44 32 46 64 47
REMARK SMILES IDX 44 48 63 49 45 50 48 51 62 52 81 53 46 54 47 55 61 57 82 58
REMARK SMILES IDX 49 59 33 60 34 61 42 62 35 63 36 64 40 65 43 66 37 67 38 68
REMARK SMILES IDX 41 69 39 70 65 71 66 72 74 73 67 74 68 75 72 76 75 77 69 78
REMARK SMILES IDX 70 79 73 80 71 81 50 82 51 83 59 84 52 85 53 86 57 87 60 88
REMARK SMILES IDX 54 89 55 90 58 91 56 92
REMARK H PARENT 16 6 5 12 5 13 21 26 80 45 48 56
REMARK Flexibility Score: inf
ROOT
ATOM      1  C   UNL A   1      31.974  30.540  26.748  1.00  0.00     0.023 C 
ENDROOT
BRANCH   1   2
ATOM      2  C   UNL A   1      31.758  29.974  25.352  1.00  0.00     0.116 C 
BRANCH   2   3
ATOM      3  N   UNL A   1      33.001  29.703  24.662  1.00  0.00    -0.351 N 
ATOM      4  C   UNL A   1      33.330  28.608  23.910  1.00  0.00     0.278 C 
ATOM      5  O   UNL A   1      34.393  28.632  23.281  1.00  0.00    -0.268 OA
ATOM      6  H   UNL A   1      33.697  30.395  24.742  1.00  0.00     0.163 HD
BRANCH   4   7
ATOM      7  C   UNL A   1      32.450  27.332  23.916  1.00  0.00     0.275 C 
BRANCH   7   8
ATOM      8  C   UNL A   1      31.442  27.398  22.720  1.00  0.00     0.051 C 
ATOM      9  C   UNL A   1      31.673  26.283  21.694  1.00  0.00     0.014 C 
ATOM     10  C   UNL A   1      29.980  27.331  23.193  1.00  0.00     0.014 C 
ENDBRANCH   7   8
BRANCH   7  11
ATOM     11  N   UNL A   1      33.288  26.097  23.915  1.00  0.00    -0.333 N 
ATOM     12  H   UNL A   1      34.110  26.280  23.341  1.00  0.00     0.347 HD
ATOM     13  H   UNL A   1      32.682  25.358  23.559  1.00  0.00     0.347 HD
BRANCH  11  14
ATOM     14  C   UNL A   1      33.757  25.620  25.237  1.00  0.00     0.193 C 
ATOM     15  C   UNL A   1      34.913  24.605  25.281  1.00  0.00     0.134 C 
ATOM     16  C   UNL A   1      32.570  25.052  26.067  1.00  0.00     0.073 C 
ATOM     17  S   UNL A   1      34.514  23.033  24.461  1.00  0.00    -0.155 SA
ATOM     18  C   UNL A   1      31.961  23.689  25.628  1.00  0.00    -0.021 C 
ATOM     19  C   UNL A   1      33.020  22.591  25.375  1.00  0.00     0.076 C 
ATOM     20  C   UNL A   1      31.028  23.872  24.415  1.00  0.00     0.012 C 
ATOM     21  C   UNL A   1      31.058  23.161  26.770  1.00  0.00     0.012 C 
ENDBRANCH  11  14
ENDBRANCH   7  11
ENDBRANCH   4   7
ENDBRANCH   2   3
ENDBRANCH   1   2
BRANCH   1  22
ATOM     22  C   UNL A   1      31.671  32.031  26.862  1.00  0.00     0.023 C 
BRANCH  22  23
ATOM     23  C   UNL A   1      32.861  32.904  27.251  1.00  0.00     0.116 C 
BRANCH  23  24
ATOM     24  N   UNL A   1      32.487  34.257  27.643  1.00  0.00    -0.352 N 
ATOM     25  C   UNL A   1      32.992  35.010  28.680  1.00  0.00     0.251 C 
ATOM     26  H   UNL A   1      31.787  34.686  27.100  1.00  0.00     0.163 HD
ATOM     27  O   UNL A   1      32.528  36.106  28.960  1.00  0.00    -0.269 OA
BRANCH  25  28
ATOM     28  C   UNL A   1      34.096  34.440  29.477  1.00  0.00     0.039 A 
ATOM     29  C   UNL A   1      33.795  33.684  30.612  1.00  0.00     0.014 A 
ATOM     30  C   UNL A   1      35.412  34.574  29.030  1.00  0.00     0.014 A 
ATOM     31  C   UNL A   1      34.816  32.984  31.257  1.00  0.00     0.010 A 
ATOM     32  C   UNL A   1      36.414  33.826  29.636  1.00  0.00     0.010 A 
ATOM     33  C   UNL A   1      36.123  33.015  30.746  1.00  0.00    -0.014 A 
BRANCH  33  34
ATOM     34  C   UNL A   1      37.221  32.219  31.348  1.00  0.00     0.031 A 
ATOM     35  C   UNL A   1      37.735  32.588  32.709  1.00  0.00     0.074 A 
ATOM     36  C   UNL A   1      37.817  31.242  30.639  1.00  0.00     0.049 A 
ATOM     37  N   UNL A   1      38.798  32.160  33.340  1.00  0.00    -0.248 NA
ATOM     38  C   UNL A   1      36.962  33.600  33.447  1.00  0.00     0.031 C 
ATOM     39  C   UNL A   1      37.424  30.803  29.299  1.00  0.00     0.029 A 
ATOM     40  N   UNL A   1      38.899  30.453  30.941  1.00  0.00    -0.354 N 
ATOM     41  C   UNL A   1      38.838  32.871  34.531  1.00  0.00     0.074 A 
ATOM     42  C   UNL A   1      37.715  33.783  34.521  1.00  0.00     0.031 C 
ATOM     43  C   UNL A   1      38.247  29.819  28.899  1.00  0.00     0.029 A 
ATOM     44  C   UNL A   1      39.250  29.588  29.934  1.00  0.00     0.049 A 
ATOM     45  H   UNL A   1      39.379  30.503  31.800  1.00  0.00     0.167 HD
ATOM     46  C   UNL A   1      39.724  32.760  35.549  1.00  0.00     0.037 A 
ATOM     47  C   UNL A   1      40.278  28.721  29.851  1.00  0.00     0.037 A 
ATOM     48  C   UNL A   1      40.819  31.830  35.571  1.00  0.00     0.049 A 
ATOM     49  C   UNL A   1      41.250  28.620  30.997  1.00  0.00     0.074 A 
ATOM     50  C   UNL A   1      41.761  31.625  36.564  1.00  0.00     0.029 A 
ATOM     51  N   UNL A   1      41.112  30.938  34.550  1.00  0.00    -0.354 N 
ATOM     52  N   UNL A   1      41.267  29.281  32.128  1.00  0.00    -0.248 NA
ATOM     53  C   UNL A   1      42.345  27.650  30.854  1.00  0.00     0.031 C 
ATOM     54  C   UNL A   1      42.636  30.622  36.136  1.00  0.00     0.029 A 
ATOM     55  C   UNL A   1      42.217  30.177  34.892  1.00  0.00     0.049 A 
ATOM     56  H   UNL A   1      40.609  30.857  33.707  1.00  0.00     0.167 HD
ATOM     57  C   UNL A   1      42.345  28.782  32.845  1.00  0.00     0.074 A 
ATOM     58  C   UNL A   1      42.959  27.760  32.024  1.00  0.00     0.031 C 
ATOM     59  C   UNL A   1      42.787  29.137  34.076  1.00  0.00     0.037 A 
BRANCH  46  60
ATOM     60  C   UNL A   1      39.535  33.666  36.728  1.00  0.00     0.064 A 
ATOM     61  C   UNL A   1      40.126  34.938  36.775  1.00  0.00     0.173 A 
ATOM     62  C   UNL A   1      38.734  33.273  37.809  1.00  0.00     0.173 A 
ATOM     63  F   UNL A   1      40.915  35.353  35.772  1.00  0.00    -0.203 F 
ATOM     64  C   UNL A   1      39.943  35.772  37.874  1.00  0.00     0.198 A 
ATOM     65  C   UNL A   1      38.529  34.121  38.895  1.00  0.00     0.198 A 
ATOM     66  F   UNL A   1      38.144  32.068  37.812  1.00  0.00    -0.203 F 
ATOM     67  F   UNL A   1      40.555  36.964  37.918  1.00  0.00    -0.200 F 
ATOM     68  C   UNL A   1      39.140  35.366  38.929  1.00  0.00     0.200 A 
ATOM     69  F   UNL A   1      37.746  33.733  39.910  1.00  0.00    -0.200 F 
ATOM     70  F   UNL A   1      38.960  36.173  39.984  1.00  0.00    -0.200 F 
ENDBRANCH  46  60
BRANCH  47  71
ATOM     71  C   UNL A   1      40.437  27.861  28.649  1.00  0.00     0.064 A 
ATOM     72  C   UNL A   1      39.840  26.593  28.595  1.00  0.00     0.173 A 
ATOM     73  C   UNL A   1      41.202  28.270  27.548  1.00  0.00     0.173 A 
ATOM     74  F   UNL A   1      39.118  26.149  29.636  1.00  0.00    -0.203 F 
ATOM     75  C   UNL A   1      40.021  25.757  27.496  1.00  0.00     0.198 A 
ATOM     76  C   UNL A   1      41.361  27.443  26.437  1.00  0.00     0.198 A 
ATOM     77  F   UNL A   1      41.792  29.474  27.550  1.00  0.00    -0.203 F 
ATOM     78  F   UNL A   1      39.479  24.532  27.493  1.00  0.00    -0.200 F 
ATOM     79  C   UNL A   1      40.778  26.185  26.416  1.00  0.00     0.200 A 
ATOM     80  F   UNL A   1      42.086  27.862  25.391  1.00  0.00    -0.200 F 
ATOM     81  F   UNL A   1      40.955  25.379  25.360  1.00  0.00    -0.200 F 
ENDBRANCH  47  71
BRANCH  59  82
ATOM     82  C   UNL A   1      43.942  28.371  34.644  1.00  0.00     0.064 A 
ATOM     83  C   UNL A   1      45.262  28.821  34.508  1.00  0.00     0.173 A 
ATOM     84  C   UNL A   1      43.713  27.204  35.389  1.00  0.00     0.173 A 
ATOM     85  F   UNL A   1      45.530  29.923  33.793  1.00  0.00    -0.203 F 
ATOM     86  C   UNL A   1      46.317  28.120  35.088  1.00  0.00     0.198 A 
ATOM     87  C   UNL A   1      44.767  26.520  35.986  1.00  0.00     0.198 A 
ATOM     88  F   UNL A   1      42.466  26.738  35.550  1.00  0.00    -0.203 F 
ATOM     89  F   UNL A   1      47.576  28.549  34.922  1.00  0.00    -0.200 F 
ATOM     90  C   UNL A   1      46.067  26.976  35.833  1.00  0.00     0.200 A 
ATOM     91  F   UNL A   1      44.523  25.420  36.714  1.00  0.00    -0.200 F 
ATOM     92  F   UNL A   1      47.083  26.310  36.401  1.00  0.00    -0.200 F 
ENDBRANCH  59  82
ENDBRANCH  33  34
ENDBRANCH  25  28
ENDBRANCH  23  24
ENDBRANCH  22  23
ENDBRANCH   1  22
TORSDOF 14
ENDMDL
MODEL 2
REMARK VINA RESULT:     -11.4      5.551     11.069
REMARK SMILES CC(C)[C@@H]([NH2+][C@@H]1CSCC(C)(C)C1)C(=O)NCCCCNC(=O)c1ccc(-c2c3nc(c(-c4c(F)c(F)c(F)c(F)c4F)c4ccc([nH]4)c(-c4c(F)c(F)c(F)c(F)c4F)c4nc(c(-c5c(F)c(F)c(F)c(F)c5F)c5ccc2[nH]5)C=C4)C=C3)cc1
REMARK SMILES IDX 18 1 17 2 16 3 14 4 15 5 4 7 2 8 1 9 3 10 5 11 6 14 7 15
REMARK SMILES IDX 13 16 8 17 10 18 9 19 11 20 12 21 19 22 20 23 21 24 22 25
REMARK SMILES IDX 23 27 24 28 25 29 86 30 26 31 85 32 27 33 28 34 29 35 79 36
REMARK SMILES IDX 30 37 84 38 78 39 80 40 31 41 83 42 77 43 76 44 32 46 64 47
REMARK SMILES IDX 44 48 63 49 45 50 48 51 62 52 81 53 46 54 47 55 61 57 82 58
REMARK SMILES IDX 49 59 33 60 34 61 42 62 35 63 36 64 40 65 43 66 37 67 38 68
REMARK SMILES IDX 41 69 39 70 65 71 66 72 74 73 67 74 68 75 72 76 75 77 69 78
REMARK SMILES IDX 70 79 73 80 71 81 50 82 51 83 59 84 52 85 53 86 57 87 60 88
REMARK SMILES IDX 54 89 55 90 58 91 56 92
REMARK H PARENT 16 6 5 12 5 13 21 26 80 45 48 56
REMARK Flexibility Score: inf
ROOT
ATOM      1  C   UNL A   1      37.308  21.124  24.747  1.00  0.00     0.023 C 
ENDROOT
BRANCH   1   2
ATOM      2  C   UNL A   1      35.868  20.873  25.166  1.00  0.00     0.116 C 
BRANCH   2   3
ATOM      3  N   UNL A   1      35.533  21.507  26.424  1.00  0.00    -0.351 N 
ATOM      4  C   UNL A   1      34.424  22.246  26.731  1.00  0.00     0.278 C 
ATOM      5  O   UNL A   1      34.254  22.579  27.908  1.00  0.00    -0.268 OA
ATOM      6  H   UNL A   1      36.187  21.389  27.151  1.00  0.00     0.163 HD
BRANCH   4   7
ATOM      7  C   UNL A   1      33.452  22.737  25.627  1.00  0.00     0.275 C 
BRANCH   7   8
ATOM      8  C   UNL A   1      32.269  21.721  25.496  1.00  0.00     0.051 C 
ATOM      9  C   UNL A   1      30.909  22.359  25.800  1.00  0.00     0.014 C 
ATOM     10  C   UNL A   1      32.208  21.085  24.096  1.00  0.00     0.014 C 
ENDBRANCH   7   8
BRANCH   7  11
ATOM     11  N   UNL A   1      33.003  24.137  25.887  1.00  0.00    -0.333 N 
ATOM     12  H   UNL A   1      32.909  24.251  26.896  1.00  0.00     0.347 HD
ATOM     13  H   UNL A   1      32.131  24.242  25.368  1.00  0.00     0.347 HD
BRANCH  11  14
ATOM     14  C   UNL A   1      33.890  25.214  25.391  1.00  0.00     0.193 C 
ATOM     15  C   UNL A   1      33.647  26.650  25.888  1.00  0.00     0.134 C 
ATOM     16  C   UNL A   1      33.917  25.229  23.835  1.00  0.00     0.073 C 
ATOM     17  S   UNL A   1      32.013  27.299  25.426  1.00  0.00    -0.155 SA
ATOM     18  C   UNL A   1      32.646  25.731  23.090  1.00  0.00    -0.021 C 
ATOM     19  C   UNL A   1      32.098  27.071  23.635  1.00  0.00     0.076 C 
ATOM     20  C   UNL A   1      31.559  24.639  23.064  1.00  0.00     0.012 C 
ATOM     21  C   UNL A   1      33.012  25.989  21.607  1.00  0.00     0.012 C 
ENDBRANCH  11  14
ENDBRANCH   7  11
ENDBRANCH   4   7
ENDBRANCH   2   3
ENDBRANCH   1   2
BRANCH   1  22
ATOM     22  C   UNL A   1      38.230  19.927  24.964  1.00  0.00     0.023 C 
BRANCH  22  23
ATOM     23  C   UNL A   1      39.374  20.161  25.947  1.00  0.00     0.116 C 
BRANCH  23  24
ATOM     24  N   UNL A   1      40.353  19.082  25.971  1.00  0.00    -0.352 N 
ATOM     25  C   UNL A   1      41.718  19.178  26.117  1.00  0.00     0.251 C 
ATOM     26  H   UNL A   1      39.992  18.171  25.868  1.00  0.00     0.163 HD
ATOM     27  O   UNL A   1      42.442  18.196  26.031  1.00  0.00    -0.269 OA
BRANCH  25  28
ATOM     28  C   UNL A   1      42.298  20.515  26.350  1.00  0.00     0.039 A 
ATOM     29  C   UNL A   1      42.701  21.281  25.253  1.00  0.00     0.014 A 
ATOM     30  C   UNL A   1      42.338  21.036  27.645  1.00  0.00     0.014 A 
ATOM     31  C   UNL A   1      43.067  22.613  25.448  1.00  0.00     0.010 A 
ATOM     32  C   UNL A   1      42.642  22.380  27.826  1.00  0.00     0.010 A 
ATOM     33  C   UNL A   1      42.997  23.183  26.729  1.00  0.00    -0.014 A 
BRANCH  33  34
ATOM     34  C   UNL A   1      43.294  24.617  26.968  1.00  0.00     0.031 A 
ATOM     35  C   UNL A   1      44.685  25.129  26.728  1.00  0.00     0.074 A 
ATOM     36  C   UNL A   1      42.354  25.425  27.493  1.00  0.00     0.049 A 
ATOM     37  N   UNL A   1      45.212  26.283  27.047  1.00  0.00    -0.248 NA
ATOM     38  C   UNL A   1      45.616  24.203  26.064  1.00  0.00     0.031 C 
ATOM     39  C   UNL A   1      40.973  25.042  27.791  1.00  0.00     0.029 A 
ATOM     40  N   UNL A   1      42.425  26.738  27.889  1.00  0.00    -0.354 N 
ATOM     41  C   UNL A   1      46.540  26.209  26.652  1.00  0.00     0.074 A 
ATOM     42  C   UNL A   1      46.749  24.887  26.103  1.00  0.00     0.031 C 
ATOM     43  C   UNL A   1      40.326  26.097  28.314  1.00  0.00     0.029 A 
ATOM     44  C   UNL A   1      41.256  27.216  28.429  1.00  0.00     0.049 A 
ATOM     45  H   UNL A   1      43.239  27.285  27.796  1.00  0.00     0.167 HD
ATOM     46  C   UNL A   1      47.495  27.166  26.727  1.00  0.00     0.037 A 
ATOM     47  C   UNL A   1      40.977  28.417  28.972  1.00  0.00     0.037 A 
ATOM     48  C   UNL A   1      47.276  28.490  27.242  1.00  0.00     0.049 A 
ATOM     49  C   UNL A   1      42.059  29.462  29.044  1.00  0.00     0.074 A 
ATOM     50  C   UNL A   1      48.173  29.539  27.341  1.00  0.00     0.029 A 
ATOM     51  N   UNL A   1      46.064  28.950  27.736  1.00  0.00    -0.354 N 
ATOM     52  N   UNL A   1      43.306  29.390  28.648  1.00  0.00    -0.248 NA
ATOM     53  C   UNL A   1      41.692  30.756  29.638  1.00  0.00     0.031 C 
ATOM     54  C   UNL A   1      47.508  30.628  27.913  1.00  0.00     0.029 A 
ATOM     55  C   UNL A   1      46.190  30.269  28.137  1.00  0.00     0.049 A 
ATOM     56  H   UNL A   1      45.238  28.417  27.793  1.00  0.00     0.167 HD
ATOM     57  C   UNL A   1      43.860  30.636  28.907  1.00  0.00     0.074 A 
ATOM     58  C   UNL A   1      42.814  31.448  29.493  1.00  0.00     0.031 C 
ATOM     59  C   UNL A   1      45.123  31.070  28.679  1.00  0.00     0.037 A 
BRANCH  46  60
ATOM     60  C   UNL A   1      48.864  26.813  26.229  1.00  0.00     0.064 A 
ATOM     61  C   UNL A   1      49.249  27.071  24.905  1.00  0.00     0.173 A 
ATOM     62  C   UNL A   1      49.809  26.236  27.089  1.00  0.00     0.173 A 
ATOM     63  F   UNL A   1      48.375  27.606  24.040  1.00  0.00    -0.203 F 
ATOM     64  C   UNL A   1      50.524  26.741  24.453  1.00  0.00     0.198 A 
ATOM     65  C   UNL A   1      51.093  25.933  26.641  1.00  0.00     0.198 A 
ATOM     66  F   UNL A   1      49.492  25.971  28.364  1.00  0.00    -0.203 F 
ATOM     67  F   UNL A   1      50.854  26.954  23.172  1.00  0.00    -0.200 F 
ATOM     68  C   UNL A   1      51.446  26.178  25.322  1.00  0.00     0.200 A 
ATOM     69  F   UNL A   1      51.987  25.398  27.483  1.00  0.00    -0.200 F 
ATOM     70  F   UNL A   1      52.675  25.866  24.887  1.00  0.00    -0.200 F 
ENDBRANCH  46  60
BRANCH  47  71
ATOM     71  C   UNL A   1      39.610  28.711  29.475  1.00  0.00     0.064 A 
ATOM     72  C   UNL A   1      38.658  29.316  28.642  1.00  0.00     0.173 A 
ATOM     73  C   UNL A   1      39.233  28.421  30.793  1.00  0.00     0.173 A 
ATOM     74  F   UNL A   1      38.981  29.634  27.379  1.00  0.00    -0.203 F 
ATOM     75  C   UNL A   1      37.389  29.641  29.114  1.00  0.00     0.198 A 
ATOM     76  C   UNL A   1      37.954  28.724  31.258  1.00  0.00     0.198 A 
ATOM     77  F   UNL A   1      40.106  27.840  31.630  1.00  0.00    -0.203 F 
ATOM     78  F   UNL A   1      36.517  30.264  28.310  1.00  0.00    -0.200 F 
ATOM     79  C   UNL A   1      37.037  29.341  30.421  1.00  0.00     0.200 A 
ATOM     80  F   UNL A   1      37.613  28.424  32.519  1.00  0.00    -0.200 F 
ATOM     81  F   UNL A   1      35.817  29.658  30.877  1.00  0.00    -0.200 F 
ENDBRANCH  47  71
BRANCH  59  82
ATOM     82  C   UNL A   1      45.430  32.502  28.991  1.00  0.00     0.064 A 
ATOM     83  C   UNL A   1      45.219  33.522  28.054  1.00  0.00     0.173 A 
ATOM     84  C   UNL A   1      45.883  32.862  30.270  1.00  0.00     0.173 A 
ATOM     85  F   UNL A   1      44.801  33.225  26.815  1.00  0.00    -0.203 F 
ATOM     86  C   UNL A   1      45.463  34.854  28.382  1.00  0.00     0.198 A 
ATOM     87  C   UNL A   1      46.103  34.195  30.602  1.00  0.00     0.198 A 
ATOM     88  F   UNL A   1      46.095  31.921  31.202  1.00  0.00    -0.203 F 
ATOM     89  F   UNL A   1      45.284  35.812  27.463  1.00  0.00    -0.200 F 
ATOM     90  C   UNL A   1      45.896  35.189  29.658  1.00  0.00     0.200 A 
ATOM     91  F   UNL A   1      46.511  34.518  31.837  1.00  0.00    -0.200 F 
ATOM     92  F   UNL A   1      46.118  36.472  29.975  1.00  0.00    -0.200 F 
ENDBRANCH  59  82
ENDBRANCH  33  34
ENDBRANCH  25  28
ENDBRANCH  23  24
ENDBRANCH  22  23
ENDBRANCH   1  22
TORSDOF 14
ENDMDL
MODEL 3
REMARK VINA RESULT:     -11.4      5.867     10.085
REMARK SMILES CC(C)[C@@H]([NH2+][C@@H]1CSCC(C)(C)C1)C(=O)NCCCCNC(=O)c1ccc(-c2c3nc(c(-c4c(F)c(F)c(F)c(F)c4F)c4ccc([nH]4)c(-c4c(F)c(F)c(F)c(F)c4F)c4nc(c(-c5c(F)c(F)c(F)c(F)c5F)c5ccc2[nH]5)C=C4)C=C3)cc1
REMARK SMILES IDX 18 1 17 2 16 3 14 4 15 5 4 7 2 8 1 9 3 10 5 11 6 14 7 15
REMARK SMILES IDX 13 16 8 17 10 18 9 19 11 20 12 21 19 22 20 23 21 24 22 25
REMARK SMILES IDX 23 27 24 28 25 29 86 30 26 31 85 32 27 33 28 34 29 35 79 36
REMARK SMILES IDX 30 37 84 38 78 39 80 40 31 41 83 42 77 43 76 44 32 46 64 47
REMARK SMILES IDX 44 48 63 49 45 50 48 51 62 52 81 53 46 54 47 55 61 57 82 58
REMARK SMILES IDX 49 59 33 60 34 61 42 62 35 63 36 64 40 65 43 66 37 67 38 68
REMARK SMILES IDX 41 69 39 70 65 71 66 72 74 73 67 74 68 75 72 76 75 77 69 78
REMARK SMILES IDX 70 79 73 80 71 81 50 82 51 83 59 84 52 85 53 86 57 87 60 88
REMARK SMILES IDX 54 89 55 90 58 91 56 92
REMARK H PARENT 16 6 5 12 5 13 21 26 80 45 48 56
REMARK Flexibility Score: inf
ROOT
ATOM      1  C   UNL A   1      37.321  21.530  24.485  1.00  0.00     0.023 C 
ENDROOT
BRANCH   1   2
ATOM      2  C   UNL A   1      36.986  22.668  25.438  1.00  0.00     0.116 C 
BRANCH   2   3
ATOM      3  N   UNL A   1      36.091  22.261  26.501  1.00  0.00    -0.351 N 
ATOM      4  C   UNL A   1      34.772  21.910  26.409  1.00  0.00     0.278 C 
ATOM      5  O   UNL A   1      34.220  21.453  27.415  1.00  0.00    -0.268 OA
ATOM      6  H   UNL A   1      36.482  22.233  27.404  1.00  0.00     0.163 HD
BRANCH   4   7
ATOM      7  C   UNL A   1      33.959  22.165  25.113  1.00  0.00     0.275 C 
BRANCH   7   8
ATOM      8  C   UNL A   1      33.147  20.875  24.756  1.00  0.00     0.051 C 
ATOM      9  C   UNL A   1      32.343  21.026  23.460  1.00  0.00     0.014 C 
ATOM     10  C   UNL A   1      34.056  19.640  24.625  1.00  0.00     0.014 C 
ENDBRANCH   7   8
BRANCH   7  11
ATOM     11  N   UNL A   1      33.107  23.383  25.241  1.00  0.00    -0.333 N 
ATOM     12  H   UNL A   1      32.852  23.483  26.223  1.00  0.00     0.347 HD
ATOM     13  H   UNL A   1      32.316  23.228  24.615  1.00  0.00     0.347 HD
BRANCH  11  14
ATOM     14  C   UNL A   1      33.714  24.660  24.799  1.00  0.00     0.193 C 
ATOM     15  C   UNL A   1      33.654  25.867  25.751  1.00  0.00     0.134 C 
ATOM     16  C   UNL A   1      33.140  25.091  23.418  1.00  0.00     0.073 C 
ATOM     17  S   UNL A   1      31.957  26.398  26.126  1.00  0.00    -0.155 SA
ATOM     18  C   UNL A   1      31.671  25.603  23.369  1.00  0.00    -0.021 C 
ATOM     19  C   UNL A   1      31.350  26.667  24.445  1.00  0.00     0.076 C 
ATOM     20  C   UNL A   1      30.678  24.426  23.418  1.00  0.00     0.012 C 
ATOM     21  C   UNL A   1      31.434  26.291  22.002  1.00  0.00     0.012 C 
ENDBRANCH  11  14
ENDBRANCH   7  11
ENDBRANCH   4   7
ENDBRANCH   2   3
ENDBRANCH   1   2
BRANCH   1  22
ATOM     22  C   UNL A   1      37.938  20.314  25.171  1.00  0.00     0.023 C 
BRANCH  22  23
ATOM     23  C   UNL A   1      39.326  20.542  25.764  1.00  0.00     0.116 C 
BRANCH  23  24
ATOM     24  N   UNL A   1      40.133  19.331  25.842  1.00  0.00    -0.352 N 
ATOM     25  C   UNL A   1      41.480  19.224  26.106  1.00  0.00     0.251 C 
ATOM     26  H   UNL A   1      39.655  18.484  25.686  1.00  0.00     0.163 HD
ATOM     27  O   UNL A   1      42.059  18.149  26.055  1.00  0.00    -0.269 OA
BRANCH  25  28
ATOM     28  C   UNL A   1      42.224  20.459  26.420  1.00  0.00     0.039 A 
ATOM     29  C   UNL A   1      42.784  21.200  25.376  1.00  0.00     0.014 A 
ATOM     30  C   UNL A   1      42.269  20.924  27.736  1.00  0.00     0.014 A 
ATOM     31  C   UNL A   1      43.318  22.461  25.643  1.00  0.00     0.010 A 
ATOM     32  C   UNL A   1      42.745  22.205  27.988  1.00  0.00     0.010 A 
ATOM     33  C   UNL A   1      43.262  22.990  26.943  1.00  0.00    -0.014 A 
BRANCH  33  34
ATOM     34  C   UNL A   1      43.739  24.359  27.256  1.00  0.00     0.031 A 
ATOM     35  C   UNL A   1      42.760  25.384  27.749  1.00  0.00     0.074 A 
ATOM     36  C   UNL A   1      45.015  24.705  27.002  1.00  0.00     0.049 A 
ATOM     37  N   UNL A   1      42.913  26.674  27.900  1.00  0.00    -0.248 NA
ATOM     38  C   UNL A   1      41.416  24.892  28.090  1.00  0.00     0.031 C 
ATOM     39  C   UNL A   1      46.058  23.807  26.502  1.00  0.00     0.029 A 
ATOM     40  N   UNL A   1      45.649  25.918  27.111  1.00  0.00    -0.354 N 
ATOM     41  C   UNL A   1      41.680  27.150  28.322  1.00  0.00     0.074 A 
ATOM     42  C   UNL A   1      40.779  26.019  28.369  1.00  0.00     0.031 C 
ATOM     43  C   UNL A   1      47.201  24.497  26.356  1.00  0.00     0.029 A 
ATOM     44  C   UNL A   1      46.963  25.893  26.710  1.00  0.00     0.049 A 
ATOM     45  H   UNL A   1      45.204  26.731  27.445  1.00  0.00     0.167 HD
ATOM     46  C   UNL A   1      41.336  28.416  28.656  1.00  0.00     0.037 A 
ATOM     47  C   UNL A   1      47.864  26.890  26.621  1.00  0.00     0.037 A 
ATOM     48  C   UNL A   1      42.242  29.532  28.642  1.00  0.00     0.049 A 
ATOM     49  C   UNL A   1      47.453  28.289  26.997  1.00  0.00     0.074 A 
ATOM     50  C   UNL A   1      41.996  30.851  28.982  1.00  0.00     0.029 A 
ATOM     51  N   UNL A   1      43.577  29.455  28.274  1.00  0.00    -0.354 N 
ATOM     52  N   UNL A   1      46.291  28.726  27.415  1.00  0.00    -0.248 NA
ATOM     53  C   UNL A   1      48.482  29.334  26.889  1.00  0.00     0.031 C 
ATOM     54  C   UNL A   1      43.178  31.576  28.802  1.00  0.00     0.029 A 
ATOM     55  C   UNL A   1      44.168  30.702  28.384  1.00  0.00     0.049 A 
ATOM     56  H   UNL A   1      44.036  28.635  27.978  1.00  0.00     0.167 HD
ATOM     57  C   UNL A   1      46.458  30.082  27.658  1.00  0.00     0.074 A 
ATOM     58  C   UNL A   1      47.835  30.399  27.341  1.00  0.00     0.031 C 
ATOM     59  C   UNL A   1      45.552  30.985  28.103  1.00  0.00     0.037 A 
BRANCH  46  60
ATOM     60  C   UNL A   1      39.917  28.656  29.076  1.00  0.00     0.064 A 
ATOM     61  C   UNL A   1      38.946  29.084  28.159  1.00  0.00     0.173 A 
ATOM     62  C   UNL A   1      39.517  28.431  30.401  1.00  0.00     0.173 A 
ATOM     63  F   UNL A   1      39.284  29.329  26.883  1.00  0.00    -0.203 F 
ATOM     64  C   UNL A   1      37.631  29.301  28.558  1.00  0.00     0.198 A 
ATOM     65  C   UNL A   1      38.193  28.622  30.791  1.00  0.00     0.198 A 
ATOM     66  F   UNL A   1      40.406  28.019  31.316  1.00  0.00    -0.203 F 
ATOM     67  F   UNL A   1      36.730  29.755  27.675  1.00  0.00    -0.200 F 
ATOM     68  C   UNL A   1      37.254  29.065  29.871  1.00  0.00     0.200 A 
ATOM     69  F   UNL A   1      37.828  28.385  32.058  1.00  0.00    -0.200 F 
ATOM     70  F   UNL A   1      35.986  29.270  30.253  1.00  0.00    -0.200 F 
ENDBRANCH  46  60
BRANCH  47  71
ATOM     71  C   UNL A   1      49.253  26.606  26.176  1.00  0.00     0.064 A 
ATOM     72  C   UNL A   1      50.221  26.170  27.092  1.00  0.00     0.173 A 
ATOM     73  C   UNL A   1      49.650  26.786  24.843  1.00  0.00     0.173 A 
ATOM     74  F   UNL A   1      49.894  26.007  28.383  1.00  0.00    -0.203 F 
ATOM     75  C   UNL A   1      51.538  25.947  26.698  1.00  0.00     0.198 A 
ATOM     76  C   UNL A   1      50.963  26.537  24.445  1.00  0.00     0.198 A 
ATOM     77  F   UNL A   1      48.761  27.199  23.927  1.00  0.00    -0.203 F 
ATOM     78  F   UNL A   1      52.453  25.578  27.605  1.00  0.00    -0.200 F 
ATOM     79  C   UNL A   1      51.906  26.127  25.373  1.00  0.00     0.200 A 
ATOM     80  F   UNL A   1      51.314  26.703  23.162  1.00  0.00    -0.200 F 
ATOM     81  F   UNL A   1      53.175  25.916  24.995  1.00  0.00    -0.200 F 
ENDBRANCH  47  71
BRANCH  59  82
ATOM     82  C   UNL A   1      46.031  32.383  28.348  1.00  0.00     0.064 A 
ATOM     83  C   UNL A   1      45.958  33.372  27.357  1.00  0.00     0.173 A 
ATOM     84  C   UNL A   1      46.511  32.750  29.615  1.00  0.00     0.173 A 
ATOM     85  F   UNL A   1      45.520  33.064  26.128  1.00  0.00    -0.203 F 
ATOM     86  C   UNL A   1      46.362  34.678  27.623  1.00  0.00     0.198 A 
ATOM     87  C   UNL A   1      46.892  34.061  29.883  1.00  0.00     0.198 A 
ATOM     88  F   UNL A   1      46.595  31.839  30.596  1.00  0.00    -0.203 F 
ATOM     89  F   UNL A   1      46.313  35.602  26.654  1.00  0.00    -0.200 F 
ATOM     90  C   UNL A   1      46.820  35.023  28.887  1.00  0.00     0.200 A 
ATOM     91  F   UNL A   1      47.324  34.395  31.107  1.00  0.00    -0.200 F 
ATOM     92  F   UNL A   1      47.196  36.283  29.143  1.00  0.00    -0.200 F 
ENDBRANCH  59  82
ENDBRANCH  33  34
ENDBRANCH  25  28
ENDBRANCH  23  24
ENDBRANCH  22  23
ENDBRANCH   1  22
TORSDOF 14
ENDMDL
