MODEL 1
REMARK VINA RESULT:     -11.1      0.000      0.000
REMARK SMILES CNC(=O)[C@H](C)S(=O)(=O)c1cc(C(=O)NCCCCNC(=O)c2ccc(-c3c4nc(c(-c5c(F)c(F)c(F)c(F)c5F)c5ccc([nH]5)c(-c5c(F)c(F)c(F)c(F)c5F)c5nc(c(-c6c(F)c(F)c(F)c(F)c6F)c6ccc3[nH]6)C=C5)C=C4)cc2)c(C)cc1C
REMARK SMILES IDX 17 1 16 2 15 3 13 4 14 5 12 7 10 8 11 9 89 10 88 11 90 12
REMARK SMILES IDX 86 13 87 14 7 15 8 16 9 17 5 18 6 19 3 20 1 21 2 22 4 24
REMARK SMILES IDX 18 25 19 26 20 27 21 28 22 30 23 31 24 32 85 33 25 34 84 35
REMARK SMILES IDX 26 36 27 37 28 38 78 39 29 40 83 41 77 42 79 43 30 44 82 45
REMARK SMILES IDX 76 46 75 47 31 49 63 50 43 51 62 52 44 53 47 54 61 55 80 56
REMARK SMILES IDX 45 57 46 58 60 60 81 61 48 62 32 63 33 64 41 65 34 66 35 67
REMARK SMILES IDX 39 68 42 69 36 70 37 71 40 72 38 73 64 74 65 75 73 76 66 77
REMARK SMILES IDX 67 78 71 79 74 80 68 81 69 82 72 83 70 84 49 85 50 86 58 87
REMARK SMILES IDX 51 88 52 89 56 90 59 91 53 92 54 93 57 94 55 95
REMARK H PARENT 15 6 2 23 20 29 79 48 47 59
REMARK Flexibility Score: inf
ROOT
ATOM      1  C   UNL A   1      33.960  34.731  28.502  1.00  0.00     0.023 C 
ENDROOT
BRANCH   1   2
ATOM      2  C   UNL A   1      33.840  35.047  29.997  1.00  0.00     0.116 C 
BRANCH   2   3
ATOM      3  N   UNL A   1      33.946  33.824  30.752  1.00  0.00    -0.352 N 
ATOM      4  C   UNL A   1      34.961  33.206  31.418  1.00  0.00     0.251 C 
ATOM      5  O   UNL A   1      34.690  32.078  31.850  1.00  0.00    -0.269 OA
ATOM      6  H   UNL A   1      33.098  33.325  30.796  1.00  0.00     0.163 HD
BRANCH   4   7
ATOM      7  C   UNL A   1      36.333  33.743  31.716  1.00  0.00     0.044 A 
ATOM      8  C   UNL A   1      37.881  33.886  33.636  1.00  0.00     0.071 A 
ATOM      9  C   UNL A   1      36.588  33.771  33.105  1.00  0.00     0.034 A 
ATOM     10  C   UNL A   1      38.929  34.280  32.806  1.00  0.00    -0.032 A 
ATOM     11  C   UNL A   1      38.674  34.328  31.428  1.00  0.00     0.009 A 
ATOM     12  C   UNL A   1      40.326  34.597  33.260  1.00  0.00     0.046 C 
ATOM     13  C   UNL A   1      37.426  33.969  30.864  1.00  0.00    -0.038 A 
ATOM     14  C   UNL A   1      37.457  33.764  29.382  1.00  0.00     0.045 C 
BRANCH   8  15
ATOM     15  S   UNL A   1      38.068  33.464  35.365  1.00  0.00     0.190 S 
ATOM     16  O   UNL A   1      36.752  33.013  35.788  1.00  0.00    -0.223 OA
ATOM     17  O   UNL A   1      38.675  34.590  36.048  1.00  0.00    -0.223 OA
BRANCH  15  18
ATOM     18  C   UNL A   1      39.189  32.092  35.493  1.00  0.00     0.199 C 
ATOM     19  C   UNL A   1      40.441  32.311  36.321  1.00  0.00     0.036 C 
BRANCH  18  20
ATOM     20  C   UNL A   1      38.476  30.766  35.638  1.00  0.00     0.238 C 
ATOM     21  C   UNL A   1      37.747  30.285  33.217  1.00  0.00     0.142 C 
ATOM     22  N   UNL A   1      37.872  30.081  34.638  1.00  0.00    -0.358 N 
ATOM     23  H   UNL A   1      37.420  29.264  34.951  1.00  0.00     0.163 HD
ATOM     24  O   UNL A   1      38.375  30.247  36.757  1.00  0.00    -0.274 OA
ENDBRANCH  18  20
ENDBRANCH  15  18
ENDBRANCH   8  15
ENDBRANCH   4   7
ENDBRANCH   2   3
ENDBRANCH   1   2
BRANCH   1  25
ATOM     25  C   UNL A   1      33.449  33.359  28.077  1.00  0.00     0.023 C 
BRANCH  25  26
ATOM     26  C   UNL A   1      34.529  32.311  27.875  1.00  0.00     0.116 C 
BRANCH  26  27
ATOM     27  N   UNL A   1      34.012  30.976  27.610  1.00  0.00    -0.352 N 
ATOM     28  C   UNL A   1      34.660  29.769  27.737  1.00  0.00     0.251 C 
ATOM     29  H   UNL A   1      33.079  30.930  27.301  1.00  0.00     0.163 HD
ATOM     30  O   UNL A   1      34.109  28.723  27.412  1.00  0.00    -0.269 OA
BRANCH  28  31
ATOM     31  C   UNL A   1      36.056  29.765  28.213  1.00  0.00     0.039 A 
ATOM     32  C   UNL A   1      36.314  29.368  29.526  1.00  0.00     0.014 A 
ATOM     33  C   UNL A   1      37.102  30.041  27.330  1.00  0.00     0.014 A 
ATOM     34  C   UNL A   1      37.632  29.146  29.925  1.00  0.00     0.010 A 
ATOM     35  C   UNL A   1      38.406  29.744  27.704  1.00  0.00     0.010 A 
ATOM     36  C   UNL A   1      38.679  29.275  28.998  1.00  0.00    -0.014 A 
BRANCH  36  37
ATOM     37  C   UNL A   1      40.065  28.881  29.343  1.00  0.00     0.031 A 
ATOM     38  C   UNL A   1      40.935  29.810  30.136  1.00  0.00     0.074 A 
ATOM     39  C   UNL A   1      40.565  27.729  28.855  1.00  0.00     0.049 A 
ATOM     40  N   UNL A   1      42.199  29.689  30.453  1.00  0.00    -0.248 NA
ATOM     41  C   UNL A   1      40.311  31.056  30.609  1.00  0.00     0.031 C 
ATOM     42  C   UNL A   1      39.834  26.776  28.016  1.00  0.00     0.029 A 
ATOM     43  N   UNL A   1      41.812  27.171  28.979  1.00  0.00    -0.354 N 
ATOM     44  C   UNL A   1      42.524  30.847  31.144  1.00  0.00     0.074 A 
ATOM     45  C   UNL A   1      41.341  31.680  31.160  1.00  0.00     0.031 C 
ATOM     46  C   UNL A   1      40.639  25.744  27.719  1.00  0.00     0.029 A 
ATOM     47  C   UNL A   1      41.950  25.977  28.315  1.00  0.00     0.049 A 
ATOM     48  H   UNL A   1      42.539  27.588  29.495  1.00  0.00     0.167 HD
ATOM     49  C   UNL A   1      43.699  31.174  31.731  1.00  0.00     0.037 A 
ATOM     50  C   UNL A   1      43.018  25.166  28.195  1.00  0.00     0.037 A 
ATOM     51  C   UNL A   1      44.860  30.328  31.744  1.00  0.00     0.049 A 
ATOM     52  C   UNL A   1      44.306  25.548  28.869  1.00  0.00     0.074 A 
ATOM     53  C   UNL A   1      46.069  30.530  32.385  1.00  0.00     0.029 A 
ATOM     54  N   UNL A   1      44.957  29.113  31.080  1.00  0.00    -0.354 N 
ATOM     55  N   UNL A   1      44.580  26.611  29.585  1.00  0.00    -0.248 NA
ATOM     56  C   UNL A   1      45.433  24.617  28.717  1.00  0.00     0.031 C 
ATOM     57  C   UNL A   1      46.910  29.453  32.081  1.00  0.00     0.029 A 
ATOM     58  C   UNL A   1      46.214  28.565  31.277  1.00  0.00     0.049 A 
ATOM     59  H   UNL A   1      44.238  28.702  30.547  1.00  0.00     0.167 HD
ATOM     60  C   UNL A   1      45.902  26.471  29.983  1.00  0.00     0.074 A 
ATOM     61  C   UNL A   1      46.371  25.212  29.442  1.00  0.00     0.031 C 
ATOM     62  C   UNL A   1      46.661  27.313  30.727  1.00  0.00     0.037 A 
BRANCH  49  63
ATOM     63  C   UNL A   1      43.778  32.503  32.421  1.00  0.00     0.064 A 
ATOM     64  C   UNL A   1      43.535  32.628  33.798  1.00  0.00     0.173 A 
ATOM     65  C   UNL A   1      44.127  33.657  31.706  1.00  0.00     0.173 A 
ATOM     66  F   UNL A   1      43.183  31.555  34.522  1.00  0.00    -0.203 F 
ATOM     67  C   UNL A   1      43.614  33.867  34.428  1.00  0.00     0.198 A 
ATOM     68  C   UNL A   1      44.230  34.890  32.345  1.00  0.00     0.198 A 
ATOM     69  F   UNL A   1      44.371  33.589  30.388  1.00  0.00    -0.203 F 
ATOM     70  F   UNL A   1      43.333  33.971  35.734  1.00  0.00    -0.200 F 
ATOM     71  C   UNL A   1      43.968  34.995  33.703  1.00  0.00     0.200 A 
ATOM     72  F   UNL A   1      44.579  35.979  31.646  1.00  0.00    -0.200 F 
ATOM     73  F   UNL A   1      44.047  36.186  34.312  1.00  0.00    -0.200 F 
ENDBRANCH  49  63
BRANCH  50  74
ATOM     74  C   UNL A   1      42.906  23.902  27.426  1.00  0.00     0.064 A 
ATOM     75  C   UNL A   1      42.452  22.727  28.041  1.00  0.00     0.173 A 
ATOM     76  C   UNL A   1      43.244  23.840  26.067  1.00  0.00     0.173 A 
ATOM     77  F   UNL A   1      42.136  22.735  29.345  1.00  0.00    -0.203 F 
ATOM     78  C   UNL A   1      42.356  21.534  27.330  1.00  0.00     0.198 A 
ATOM     79  C   UNL A   1      43.125  22.651  25.350  1.00  0.00     0.198 A 
ATOM     80  F   UNL A   1      43.678  24.939  25.432  1.00  0.00    -0.203 F 
ATOM     81  F   UNL A   1      41.953  20.416  27.951  1.00  0.00    -0.200 F 
ATOM     82  C   UNL A   1      42.687  21.498  25.983  1.00  0.00     0.200 A 
ATOM     83  F   UNL A   1      43.434  22.623  24.047  1.00  0.00    -0.200 F 
ATOM     84  F   UNL A   1      42.590  20.350  25.298  1.00  0.00    -0.200 F 
ENDBRANCH  50  74
BRANCH  62  85
ATOM     85  C   UNL A   1      48.072  26.892  31.005  1.00  0.00     0.064 A 
ATOM     86  C   UNL A   1      48.374  25.995  32.038  1.00  0.00     0.173 A 
ATOM     87  C   UNL A   1      49.126  27.360  30.207  1.00  0.00     0.173 A 
ATOM     88  F   UNL A   1      47.401  25.534  32.839  1.00  0.00    -0.203 F 
ATOM     89  C   UNL A   1      49.686  25.591  32.273  1.00  0.00     0.198 A 
ATOM     90  C   UNL A   1      50.433  26.937  30.429  1.00  0.00     0.198 A 
ATOM     91  F   UNL A   1      48.885  28.218  29.204  1.00  0.00    -0.203 F 
ATOM     92  F   UNL A   1      49.958  24.762  33.290  1.00  0.00    -0.200 F 
ATOM     93  C   UNL A   1      50.713  26.058  31.464  1.00  0.00     0.200 A 
ATOM     94  F   UNL A   1      51.423  27.380  29.641  1.00  0.00    -0.200 F 
ATOM     95  F   UNL A   1      51.973  25.664  31.688  1.00  0.00    -0.200 F 
ENDBRANCH  62  85
ENDBRANCH  36  37
ENDBRANCH  28  31
ENDBRANCH  26  27
ENDBRANCH  25  26
ENDBRANCH   1  25
TORSDOF 14
ENDMDL
MODEL 2
REMARK VINA RESULT:     -10.7      4.492      8.165
REMARK SMILES CNC(=O)[C@H](C)S(=O)(=O)c1cc(C(=O)NCCCCNC(=O)c2ccc(-c3c4nc(c(-c5c(F)c(F)c(F)c(F)c5F)c5ccc([nH]5)c(-c5c(F)c(F)c(F)c(F)c5F)c5nc(c(-c6c(F)c(F)c(F)c(F)c6F)c6ccc3[nH]6)C=C5)C=C4)cc2)c(C)cc1C
REMARK SMILES IDX 17 1 16 2 15 3 13 4 14 5 12 7 10 8 11 9 89 10 88 11 90 12
REMARK SMILES IDX 86 13 87 14 7 15 8 16 9 17 5 18 6 19 3 20 1 21 2 22 4 24
REMARK SMILES IDX 18 25 19 26 20 27 21 28 22 30 23 31 24 32 85 33 25 34 84 35
REMARK SMILES IDX 26 36 27 37 28 38 78 39 29 40 83 41 77 42 79 43 30 44 82 45
REMARK SMILES IDX 76 46 75 47 31 49 63 50 43 51 62 52 44 53 47 54 61 55 80 56
REMARK SMILES IDX 45 57 46 58 60 60 81 61 48 62 32 63 33 64 41 65 34 66 35 67
REMARK SMILES IDX 39 68 42 69 36 70 37 71 40 72 38 73 64 74 65 75 73 76 66 77
REMARK SMILES IDX 67 78 71 79 74 80 68 81 69 82 72 83 70 84 49 85 50 86 58 87
REMARK SMILES IDX 51 88 52 89 56 90 59 91 53 92 54 93 57 94 55 95
REMARK H PARENT 15 6 2 23 20 29 79 48 47 59
REMARK Flexibility Score: inf
ROOT
ATOM      1  C   UNL A   1      32.202  30.383  26.618  1.00  0.00     0.023 C 
ENDROOT
BRANCH   1   2
ATOM      2  C   UNL A   1      31.750  29.724  25.310  1.00  0.00     0.116 C 
BRANCH   2   3
ATOM      3  N   UNL A   1      32.869  29.643  24.405  1.00  0.00    -0.352 N 
ATOM      4  C   UNL A   1      33.395  28.650  23.634  1.00  0.00     0.251 C 
ATOM      5  O   UNL A   1      34.461  28.935  23.074  1.00  0.00    -0.269 OA
ATOM      6  H   UNL A   1      33.362  30.491  24.328  1.00  0.00     0.163 HD
BRANCH   4   7
ATOM      7  C   UNL A   1      32.818  27.290  23.360  1.00  0.00     0.044 A 
ATOM      8  C   UNL A   1      33.116  24.967  24.150  1.00  0.00     0.071 A 
ATOM      9  C   UNL A   1      33.598  26.268  23.948  1.00  0.00     0.034 A 
ATOM     10  C   UNL A   1      31.952  24.561  23.500  1.00  0.00    -0.032 A 
ATOM     11  C   UNL A   1      31.201  25.550  22.849  1.00  0.00     0.009 A 
ATOM     12  C   UNL A   1      31.403  23.162  23.494  1.00  0.00     0.046 C 
ATOM     13  C   UNL A   1      31.562  26.919  22.855  1.00  0.00    -0.038 A 
ATOM     14  C   UNL A   1      30.476  27.843  22.404  1.00  0.00     0.045 C 
BRANCH   8  15
ATOM     15  S   UNL A   1      34.047  23.945  25.285  1.00  0.00     0.190 S 
ATOM     16  O   UNL A   1      33.067  23.448  26.237  1.00  0.00    -0.223 OA
ATOM     17  O   UNL A   1      35.173  24.715  25.777  1.00  0.00    -0.223 OA
BRANCH  15  18
ATOM     18  C   UNL A   1      34.698  22.556  24.389  1.00  0.00     0.199 C 
ATOM     19  C   UNL A   1      35.676  22.865  23.270  1.00  0.00     0.036 C 
BRANCH  18  20
ATOM     20  C   UNL A   1      35.007  21.376  25.282  1.00  0.00     0.238 C 
ATOM     21  C   UNL A   1      32.789  20.071  25.227  1.00  0.00     0.142 C 
ATOM     22  N   UNL A   1      34.143  20.385  25.608  1.00  0.00    -0.358 N 
ATOM     23  H   UNL A   1      34.524  19.738  26.244  1.00  0.00     0.163 HD
ATOM     24  O   UNL A   1      36.119  21.290  25.817  1.00  0.00    -0.274 OA
ENDBRANCH  18  20
ENDBRANCH  15  18
ENDBRANCH   8  15
ENDBRANCH   4   7
ENDBRANCH   2   3
ENDBRANCH   1   2
BRANCH   1  25
ATOM     25  C   UNL A   1      31.829  31.852  26.776  1.00  0.00     0.023 C 
BRANCH  25  26
ATOM     26  C   UNL A   1      32.906  32.719  27.404  1.00  0.00     0.116 C 
BRANCH  26  27
ATOM     27  N   UNL A   1      32.472  34.078  27.698  1.00  0.00    -0.352 N 
ATOM     28  C   UNL A   1      33.000  34.965  28.606  1.00  0.00     0.251 C 
ATOM     29  H   UNL A   1      31.702  34.405  27.179  1.00  0.00     0.163 HD
ATOM     30  O   UNL A   1      32.482  36.061  28.789  1.00  0.00    -0.269 OA
BRANCH  28  31
ATOM     31  C   UNL A   1      34.167  34.546  29.405  1.00  0.00     0.039 A 
ATOM     32  C   UNL A   1      33.950  33.994  30.669  1.00  0.00     0.014 A 
ATOM     33  C   UNL A   1      35.451  34.595  28.856  1.00  0.00     0.014 A 
ATOM     34  C   UNL A   1      35.013  33.392  31.342  1.00  0.00     0.010 A 
ATOM     35  C   UNL A   1      36.489  33.927  29.492  1.00  0.00     0.010 A 
ATOM     36  C   UNL A   1      36.274  33.303  30.730  1.00  0.00    -0.014 A 
BRANCH  36  37
ATOM     37  C   UNL A   1      37.374  32.523  31.343  1.00  0.00     0.031 A 
ATOM     38  C   UNL A   1      37.890  32.891  32.702  1.00  0.00     0.074 A 
ATOM     39  C   UNL A   1      37.969  31.548  30.629  1.00  0.00     0.049 A 
ATOM     40  N   UNL A   1      38.904  32.394  33.363  1.00  0.00    -0.248 NA
ATOM     41  C   UNL A   1      37.193  33.983  33.399  1.00  0.00     0.031 C 
ATOM     42  C   UNL A   1      37.598  31.145  29.271  1.00  0.00     0.029 A 
ATOM     43  N   UNL A   1      39.025  30.729  30.940  1.00  0.00    -0.354 N 
ATOM     44  C   UNL A   1      38.977  33.124  34.540  1.00  0.00     0.074 A 
ATOM     45  C   UNL A   1      37.937  34.128  34.485  1.00  0.00     0.031 C 
ATOM     46  C   UNL A   1      38.399  30.143  28.874  1.00  0.00     0.029 A 
ATOM     47  C   UNL A   1      39.360  29.857  29.933  1.00  0.00     0.049 A 
ATOM     48  H   UNL A   1      39.497  30.762  31.803  1.00  0.00     0.167 HD
ATOM     49  C   UNL A   1      39.823  32.955  35.583  1.00  0.00     0.037 A 
ATOM     50  C   UNL A   1      40.340  28.935  29.870  1.00  0.00     0.037 A 
ATOM     51  C   UNL A   1      40.831  31.932  35.650  1.00  0.00     0.049 A 
ATOM     52  C   UNL A   1      41.256  28.760  31.049  1.00  0.00     0.074 A 
ATOM     53  C   UNL A   1      41.679  31.623  36.698  1.00  0.00     0.029 A 
ATOM     54  N   UNL A   1      41.128  31.051  34.620  1.00  0.00    -0.354 N 
ATOM     55  N   UNL A   1      41.268  29.405  32.190  1.00  0.00    -0.248 NA
ATOM     56  C   UNL A   1      42.297  27.728  30.930  1.00  0.00     0.031 C 
ATOM     57  C   UNL A   1      42.514  30.576  36.290  1.00  0.00     0.029 A 
ATOM     58  C   UNL A   1      42.163  30.212  35.000  1.00  0.00     0.049 A 
ATOM     59  H   UNL A   1      40.671  31.026  33.749  1.00  0.00     0.167 HD
ATOM     60  C   UNL A   1      42.301  28.850  32.930  1.00  0.00     0.074 A 
ATOM     61  C   UNL A   1      42.884  27.803  32.117  1.00  0.00     0.031 C 
ATOM     62  C   UNL A   1      42.731  29.180  34.173  1.00  0.00     0.037 A 
BRANCH  49  63
ATOM     63  C   UNL A   1      39.681  33.892  36.745  1.00  0.00     0.064 A 
ATOM     64  C   UNL A   1      38.892  33.565  37.858  1.00  0.00     0.173 A 
ATOM     65  C   UNL A   1      40.363  35.117  36.759  1.00  0.00     0.173 A 
ATOM     66  F   UNL A   1      38.209  32.411  37.885  1.00  0.00    -0.203 F 
ATOM     67  C   UNL A   1      38.770  34.442  38.932  1.00  0.00     0.198 A 
ATOM     68  C   UNL A   1      40.259  35.981  37.845  1.00  0.00     0.198 A 
ATOM     69  F   UNL A   1      41.132  35.476  35.719  1.00  0.00    -0.203 F 
ATOM     70  F   UNL A   1      37.974  34.129  39.963  1.00  0.00    -0.200 F 
ATOM     71  C   UNL A   1      39.458  35.647  38.927  1.00  0.00     0.200 A 
ATOM     72  F   UNL A   1      40.930  37.141  37.844  1.00  0.00    -0.200 F 
ATOM     73  F   UNL A   1      39.343  36.489  39.964  1.00  0.00    -0.200 F 
ENDBRANCH  49  63
BRANCH  50  74
ATOM     74  C   UNL A   1      40.487  28.091  28.659  1.00  0.00     0.064 A 
ATOM     75  C   UNL A   1      39.841  26.851  28.566  1.00  0.00     0.173 A 
ATOM     76  C   UNL A   1      41.269  28.504  27.570  1.00  0.00     0.173 A 
ATOM     77  F   UNL A   1      39.099  26.406  29.591  1.00  0.00    -0.203 F 
ATOM     78  C   UNL A   1      39.984  26.047  27.438  1.00  0.00     0.198 A 
ATOM     79  C   UNL A   1      41.393  27.711  26.432  1.00  0.00     0.198 A 
ATOM     80  F   UNL A   1      41.902  29.686  27.609  1.00  0.00    -0.203 F 
ATOM     81  F   UNL A   1      39.385  24.850  27.390  1.00  0.00    -0.200 F 
ATOM     82  C   UNL A   1      40.755  26.480  26.368  1.00  0.00     0.200 A 
ATOM     83  F   UNL A   1      42.128  28.137  25.397  1.00  0.00    -0.200 F 
ATOM     84  F   UNL A   1      40.889  25.709  25.281  1.00  0.00    -0.200 F 
ENDBRANCH  50  74
BRANCH  62  85
ATOM     85  C   UNL A   1      43.879  28.393  34.728  1.00  0.00     0.064 A 
ATOM     86  C   UNL A   1      45.202  28.833  34.582  1.00  0.00     0.173 A 
ATOM     87  C   UNL A   1      43.652  27.211  35.447  1.00  0.00     0.173 A 
ATOM     88  F   UNL A   1      45.469  29.950  33.887  1.00  0.00    -0.203 F 
ATOM     89  C   UNL A   1      46.260  28.108  35.123  1.00  0.00     0.198 A 
ATOM     90  C   UNL A   1      44.709  26.500  36.007  1.00  0.00     0.198 A 
ATOM     91  F   UNL A   1      42.402  26.753  35.616  1.00  0.00    -0.203 F 
ATOM     92  F   UNL A   1      47.520  28.526  34.939  1.00  0.00    -0.200 F 
ATOM     93  C   UNL A   1      46.012  26.946  35.840  1.00  0.00     0.200 A 
ATOM     94  F   UNL A   1      44.468  25.383  36.708  1.00  0.00    -0.200 F 
ATOM     95  F   UNL A   1      47.030  26.252  36.365  1.00  0.00    -0.200 F 
ENDBRANCH  62  85
ENDBRANCH  36  37
ENDBRANCH  28  31
ENDBRANCH  26  27
ENDBRANCH  25  26
ENDBRANCH   1  25
TORSDOF 14
ENDMDL
MODEL 3
REMARK VINA RESULT:     -10.7      4.590     10.853
REMARK SMILES CNC(=O)[C@H](C)S(=O)(=O)c1cc(C(=O)NCCCCNC(=O)c2ccc(-c3c4nc(c(-c5c(F)c(F)c(F)c(F)c5F)c5ccc([nH]5)c(-c5c(F)c(F)c(F)c(F)c5F)c5nc(c(-c6c(F)c(F)c(F)c(F)c6F)c6ccc3[nH]6)C=C5)C=C4)cc2)c(C)cc1C
REMARK SMILES IDX 17 1 16 2 15 3 13 4 14 5 12 7 10 8 11 9 89 10 88 11 90 12
REMARK SMILES IDX 86 13 87 14 7 15 8 16 9 17 5 18 6 19 3 20 1 21 2 22 4 24
REMARK SMILES IDX 18 25 19 26 20 27 21 28 22 30 23 31 24 32 85 33 25 34 84 35
REMARK SMILES IDX 26 36 27 37 28 38 78 39 29 40 83 41 77 42 79 43 30 44 82 45
REMARK SMILES IDX 76 46 75 47 31 49 63 50 43 51 62 52 44 53 47 54 61 55 80 56
REMARK SMILES IDX 45 57 46 58 60 60 81 61 48 62 32 63 33 64 41 65 34 66 35 67
REMARK SMILES IDX 39 68 42 69 36 70 37 71 40 72 38 73 64 74 65 75 73 76 66 77
REMARK SMILES IDX 67 78 71 79 74 80 68 81 69 82 72 83 70 84 49 85 50 86 58 87
REMARK SMILES IDX 51 88 52 89 56 90 59 91 53 92 54 93 57 94 55 95
REMARK H PARENT 15 6 2 23 20 29 79 48 47 59
REMARK Flexibility Score: inf
ROOT
ATOM      1  C   UNL A   1      32.619  30.095  26.599  1.00  0.00     0.023 C 
ENDROOT
BRANCH   1   2
ATOM      2  C   UNL A   1      32.057  29.416  25.344  1.00  0.00     0.116 C 
BRANCH   2   3
ATOM      3  N   UNL A   1      33.062  29.417  24.311  1.00  0.00    -0.352 N 
ATOM      4  C   UNL A   1      33.542  28.472  23.455  1.00  0.00     0.251 C 
ATOM      5  O   UNL A   1      34.517  28.827  22.781  1.00  0.00    -0.269 OA
ATOM      6  H   UNL A   1      33.498  30.292  24.200  1.00  0.00     0.163 HD
BRANCH   4   7
ATOM      7  C   UNL A   1      33.009  27.088  23.213  1.00  0.00     0.044 A 
ATOM      8  C   UNL A   1      33.421  24.786  24.013  1.00  0.00     0.071 A 
ATOM      9  C   UNL A   1      33.847  26.102  23.783  1.00  0.00     0.034 A 
ATOM     10  C   UNL A   1      32.251  24.330  23.407  1.00  0.00    -0.032 A 
ATOM     11  C   UNL A   1      31.442  25.283  22.774  1.00  0.00     0.009 A 
ATOM     12  C   UNL A   1      31.756  22.911  23.432  1.00  0.00     0.046 C 
ATOM     13  C   UNL A   1      31.751  26.665  22.756  1.00  0.00    -0.038 A 
ATOM     14  C   UNL A   1      30.616  27.543  22.334  1.00  0.00     0.045 C 
BRANCH   8  15
ATOM     15  S   UNL A   1      34.429  23.810  25.124  1.00  0.00     0.190 S 
ATOM     16  O   UNL A   1      33.488  23.197  26.047  1.00  0.00    -0.223 OA
ATOM     17  O   UNL A   1      35.477  24.659  25.655  1.00  0.00    -0.223 OA
BRANCH  15  18
ATOM     18  C   UNL A   1      35.208  22.517  24.189  1.00  0.00     0.199 C 
ATOM     19  C   UNL A   1      36.194  22.949  23.119  1.00  0.00     0.036 C 
BRANCH  18  20
ATOM     20  C   UNL A   1      35.576  21.321  25.038  1.00  0.00     0.238 C 
ATOM     21  C   UNL A   1      33.464  19.863  24.850  1.00  0.00     0.142 C 
ATOM     22  N   UNL A   1      34.779  20.257  25.290  1.00  0.00    -0.358 N 
ATOM     23  H   UNL A   1      35.187  19.609  25.909  1.00  0.00     0.163 HD
ATOM     24  O   UNL A   1      36.675  21.292  25.606  1.00  0.00    -0.274 OA
ENDBRANCH  18  20
ENDBRANCH  15  18
ENDBRANCH   8  15
ENDBRANCH   4   7
ENDBRANCH   2   3
ENDBRANCH   1   2
BRANCH   1  25
ATOM     25  C   UNL A   1      32.084  31.493  26.885  1.00  0.00     0.023 C 
BRANCH  25  26
ATOM     26  C   UNL A   1      33.104  32.459  27.462  1.00  0.00     0.116 C 
BRANCH  26  27
ATOM     27  N   UNL A   1      32.592  33.810  27.654  1.00  0.00    -0.352 N 
ATOM     28  C   UNL A   1      33.056  34.785  28.506  1.00  0.00     0.251 C 
ATOM     29  H   UNL A   1      31.814  34.057  27.104  1.00  0.00     0.163 HD
ATOM     30  O   UNL A   1      32.477  35.860  28.605  1.00  0.00    -0.269 OA
BRANCH  28  31
ATOM     31  C   UNL A   1      34.231  34.486  29.347  1.00  0.00     0.039 A 
ATOM     32  C   UNL A   1      34.023  33.984  30.633  1.00  0.00     0.014 A 
ATOM     33  C   UNL A   1      35.520  34.594  28.820  1.00  0.00     0.014 A 
ATOM     34  C   UNL A   1      35.109  33.490  31.355  1.00  0.00     0.010 A 
ATOM     35  C   UNL A   1      36.587  34.031  29.509  1.00  0.00     0.010 A 
ATOM     36  C   UNL A   1      36.386  33.456  30.773  1.00  0.00    -0.014 A 
BRANCH  36  37
ATOM     37  C   UNL A   1      37.522  32.784  31.447  1.00  0.00     0.031 A 
ATOM     38  C   UNL A   1      38.195  31.613  30.796  1.00  0.00     0.074 A 
ATOM     39  C   UNL A   1      37.876  33.171  32.687  1.00  0.00     0.049 A 
ATOM     40  N   UNL A   1      39.137  30.835  31.266  1.00  0.00    -0.248 NA
ATOM     41  C   UNL A   1      37.727  31.247  29.450  1.00  0.00     0.031 C 
ATOM     42  C   UNL A   1      37.249  34.255  33.448  1.00  0.00     0.029 A 
ATOM     43  N   UNL A   1      38.839  32.686  33.535  1.00  0.00    -0.354 N 
ATOM     44  C   UNL A   1      39.359  29.881  30.285  1.00  0.00     0.074 A 
ATOM     45  C   UNL A   1      38.424  30.146  29.213  1.00  0.00     0.031 C 
ATOM     46  C   UNL A   1      37.857  34.365  34.641  1.00  0.00     0.029 A 
ATOM     47  C   UNL A   1      38.891  33.340  34.742  1.00  0.00     0.049 A 
ATOM     48  H   UNL A   1      39.437  31.941  33.300  1.00  0.00     0.167 HD
ATOM     49  C   UNL A   1      40.278  28.888  30.271  1.00  0.00     0.037 A 
ATOM     50  C   UNL A   1      39.680  33.130  35.813  1.00  0.00     0.037 A 
ATOM     51  C   UNL A   1      41.230  28.651  31.322  1.00  0.00     0.049 A 
ATOM     52  C   UNL A   1      40.700  32.028  35.764  1.00  0.00     0.074 A 
ATOM     53  C   UNL A   1      42.258  27.726  31.364  1.00  0.00     0.029 A 
ATOM     54  N   UNL A   1      41.268  29.348  32.521  1.00  0.00    -0.354 N 
ATOM     55  N   UNL A   1      40.954  31.178  34.799  1.00  0.00    -0.248 NA
ATOM     56  C   UNL A   1      41.544  31.854  36.956  1.00  0.00     0.031 C 
ATOM     57  C   UNL A   1      42.897  27.840  32.604  1.00  0.00     0.029 A 
ATOM     58  C   UNL A   1      42.288  28.858  33.320  1.00  0.00     0.049 A 
ATOM     59  H   UNL A   1      40.660  30.082  32.767  1.00  0.00     0.167 HD
ATOM     60  C   UNL A   1      41.994  30.382  35.256  1.00  0.00     0.074 A 
ATOM     61  C   UNL A   1      42.336  30.859  36.580  1.00  0.00     0.031 C 
ATOM     62  C   UNL A   1      42.609  29.345  34.636  1.00  0.00     0.037 A 
BRANCH  49  63
ATOM     63  C   UNL A   1      40.304  27.990  29.070  1.00  0.00     0.064 A 
ATOM     64  C   UNL A   1      39.585  26.785  29.042  1.00  0.00     0.173 A 
ATOM     65  C   UNL A   1      41.032  28.350  27.927  1.00  0.00     0.173 A 
ATOM     66  F   UNL A   1      38.886  26.390  30.116  1.00  0.00    -0.203 F 
ATOM     67  C   UNL A   1      39.615  25.961  27.920  1.00  0.00     0.198 A 
ATOM     68  C   UNL A   1      41.039  27.535  26.798  1.00  0.00     0.198 A 
ATOM     69  F   UNL A   1      41.735  29.493  27.905  1.00  0.00    -0.203 F 
ATOM     70  F   UNL A   1      38.958  24.793  27.931  1.00  0.00    -0.200 F 
ATOM     71  C   UNL A   1      40.337  26.340  26.797  1.00  0.00     0.200 A 
ATOM     72  F   UNL A   1      41.730  27.906  25.711  1.00  0.00    -0.200 F 
ATOM     73  F   UNL A   1      40.361  25.547  25.717  1.00  0.00    -0.200 F 
ENDBRANCH  49  63
BRANCH  50  74
ATOM     74  C   UNL A   1      39.551  33.997  37.010  1.00  0.00     0.064 A 
ATOM     75  C   UNL A   1      40.191  35.243  37.064  1.00  0.00     0.173 A 
ATOM     76  C   UNL A   1      38.787  33.606  38.118  1.00  0.00     0.173 A 
ATOM     77  F   UNL A   1      40.949  35.650  36.034  1.00  0.00    -0.203 F 
ATOM     78  C   UNL A   1      40.086  36.058  38.188  1.00  0.00     0.198 A 
ATOM     79  C   UNL A   1      38.663  34.431  39.234  1.00  0.00     0.198 A 
ATOM     80  F   UNL A   1      38.151  32.425  38.112  1.00  0.00    -0.203 F 
ATOM     81  F   UNL A   1      40.737  37.228  38.229  1.00  0.00    -0.200 F 
ATOM     82  C   UNL A   1      39.317  35.654  39.270  1.00  0.00     0.200 A 
ATOM     83  F   UNL A   1      37.910  34.044  40.272  1.00  0.00    -0.200 F 
ATOM     84  F   UNL A   1      39.212  36.440  40.350  1.00  0.00    -0.200 F 
ENDBRANCH  50  74
BRANCH  62  85
ATOM     85  C   UNL A   1      43.718  28.666  35.380  1.00  0.00     0.064 A 
ATOM     86  C   UNL A   1      45.054  29.056  35.213  1.00  0.00     0.173 A 
ATOM     87  C   UNL A   1      43.439  27.644  36.299  1.00  0.00     0.173 A 
ATOM     88  F   UNL A   1      45.370  30.018  34.331  1.00  0.00    -0.203 F 
ATOM     89  C   UNL A   1      46.074  28.436  35.927  1.00  0.00     0.198 A 
ATOM     90  C   UNL A   1      44.459  27.042  37.029  1.00  0.00     0.198 A 
ATOM     91  F   UNL A   1      42.176  27.239  36.496  1.00  0.00    -0.203 F 
ATOM     92  F   UNL A   1      47.349  28.798  35.723  1.00  0.00    -0.200 F 
ATOM     93  C   UNL A   1      45.776  27.434  36.839  1.00  0.00     0.200 A 
ATOM     94  F   UNL A   1      44.168  26.080  37.917  1.00  0.00    -0.200 F 
ATOM     95  F   UNL A   1      46.758  26.842  37.531  1.00  0.00    -0.200 F 
ENDBRANCH  62  85
ENDBRANCH  36  37
ENDBRANCH  28  31
ENDBRANCH  26  27
ENDBRANCH  25  26
ENDBRANCH   1  25
TORSDOF 14
ENDMDL
