MODEL 1
REMARK VINA RESULT:     -13.4      0.000      0.000
REMARK SMILES Cc1c(Br)c(C)c2c(c1Br)O[C@H](C(F)(F)F)C(C(=O)NCCCCNC(=O)c1ccc(-c3c4nc(c(-c5c(F)c(F)c(F)c(F)c5F)c5ccc([nH]5)c(-c5c(F)c(F)c(F)c(F)c5F)c5nc(c(-c6c(F)c(F)c(F)c(F)c6F)c6ccc3[nH]6)C=C5)C=C4)cc1)=C2
REMARK SMILES IDX 23 1 22 2 21 3 20 4 18 5 19 6 17 8 1 9 2 10 3 11 9 12 4 13
REMARK SMILES IDX 5 14 8 15 10 16 6 17 7 18 11 19 91 20 12 21 13 22 14 23
REMARK SMILES IDX 15 24 16 25 24 26 25 27 26 28 27 30 28 31 29 32 90 33 30 34
REMARK SMILES IDX 89 35 31 36 32 37 33 38 83 39 34 40 88 41 82 42 84 43 35 44
REMARK SMILES IDX 87 45 81 46 80 47 36 49 68 50 48 51 67 52 49 53 52 54 66 55
REMARK SMILES IDX 85 56 50 57 51 58 65 60 86 61 53 62 37 63 38 64 46 65 39 66
REMARK SMILES IDX 40 67 44 68 47 69 41 70 42 71 45 72 43 73 69 74 70 75 78 76
REMARK SMILES IDX 71 77 72 78 76 79 79 80 73 81 74 82 77 83 75 84 54 85 55 86
REMARK SMILES IDX 63 87 56 88 57 89 61 90 64 91 58 92 59 93 62 94 60 95
REMARK H PARENT 20 7 25 29 84 48 52 59
REMARK Flexibility Score: inf
ROOT
ATOM      1  C   UNL A   1      32.837  29.591  24.953  1.00  0.00     0.023 C 
ENDROOT
BRANCH   1   2
ATOM      2  C   UNL A   1      33.598  28.306  24.618  1.00  0.00     0.023 C 
BRANCH   2   3
ATOM      3  C   UNL A   1      32.706  27.146  24.183  1.00  0.00     0.116 C 
BRANCH   3   4
ATOM      4  N   UNL A   1      31.859  26.678  25.265  1.00  0.00    -0.352 N 
ATOM      5  C   UNL A   1      31.610  25.502  25.885  1.00  0.00     0.251 C 
ATOM      6  O   UNL A   1      30.764  25.554  26.783  1.00  0.00    -0.270 OA
ATOM      7  H   UNL A   1      31.326  27.411  25.650  1.00  0.00     0.163 HD
BRANCH   5   8
ATOM      8  C   UNL A   1      32.267  24.200  25.565  1.00  0.00     0.067 C 
ATOM      9  C   UNL A   1      36.340  19.103  24.778  1.00  0.00     0.047 C 
ATOM     10  C   UNL A   1      35.637  20.413  25.050  1.00  0.00    -0.019 A 
ATOM     11  C   UNL A   1      36.377  21.580  25.379  1.00  0.00     0.025 A 
ATOM     12  C   UNL A   1      34.239  20.528  24.935  1.00  0.00     0.064 A 
ATOM     13  Br  UNL A   1      38.294  21.464  25.445  1.00  0.00    -0.050 Br
ATOM     14  C   UNL A   1      35.737  22.819  25.645  1.00  0.00    -0.026 A 
ATOM     15  C   UNL A   1      33.595  21.749  25.196  1.00  0.00     0.142 A 
ATOM     16  Br  UNL A   1      33.154  19.048  24.381  1.00  0.00    -0.046 Br
ATOM     17  C   UNL A   1      36.506  24.068  26.018  1.00  0.00     0.046 C 
ATOM     18  C   UNL A   1      34.325  22.885  25.569  1.00  0.00     0.022 A 
ATOM     19  O   UNL A   1      32.226  21.769  25.128  1.00  0.00    -0.474 OA
ATOM     20  C   UNL A   1      33.569  24.104  25.891  1.00  0.00     0.026 C 
ATOM     21  C   UNL A   1      31.593  23.050  24.887  1.00  0.00     0.314 C 
BRANCH  21  22
ATOM     22  C   UNL A   1      31.408  23.269  23.373  1.00  0.00     0.429 C 
ATOM     23  F   UNL A   1      31.465  22.087  22.712  1.00  0.00    -0.167 F 
ATOM     24  F   UNL A   1      30.204  23.814  23.077  1.00  0.00    -0.167 F 
ATOM     25  F   UNL A   1      32.350  24.079  22.844  1.00  0.00    -0.167 F 
ENDBRANCH  21  22
ENDBRANCH   5   8
ENDBRANCH   3   4
ENDBRANCH   2   3
ENDBRANCH   1   2
BRANCH   1  26
ATOM     26  C   UNL A   1      32.627  29.861  26.442  1.00  0.00     0.116 C 
BRANCH  26  27
ATOM     27  N   UNL A   1      32.438  31.267  26.771  1.00  0.00    -0.352 N 
ATOM     28  C   UNL A   1      33.312  32.103  27.426  1.00  0.00     0.251 C 
ATOM     29  H   UNL A   1      31.583  31.666  26.491  1.00  0.00     0.163 HD
ATOM     30  O   UNL A   1      33.004  33.258  27.693  1.00  0.00    -0.269 OA
BRANCH  28  31
ATOM     31  C   UNL A   1      34.613  31.560  27.854  1.00  0.00     0.039 A 
ATOM     32  C   UNL A   1      35.684  32.440  28.014  1.00  0.00     0.014 A 
ATOM     33  C   UNL A   1      34.735  30.209  28.193  1.00  0.00     0.014 A 
ATOM     34  C   UNL A   1      36.863  31.980  28.599  1.00  0.00     0.010 A 
ATOM     35  C   UNL A   1      35.890  29.767  28.829  1.00  0.00     0.010 A 
ATOM     36  C   UNL A   1      36.956  30.654  29.052  1.00  0.00    -0.014 A 
BRANCH  36  37
ATOM     37  C   UNL A   1      38.150  30.191  29.794  1.00  0.00     0.031 A 
ATOM     38  C   UNL A   1      38.401  30.668  31.193  1.00  0.00     0.074 A 
ATOM     39  C   UNL A   1      39.034  29.380  29.182  1.00  0.00     0.049 A 
ATOM     40  N   UNL A   1      39.398  30.388  31.993  1.00  0.00    -0.248 NA
ATOM     41  C   UNL A   1      37.415  31.600  31.762  1.00  0.00     0.031 C 
ATOM     42  C   UNL A   1      38.921  28.895  27.805  1.00  0.00     0.029 A 
ATOM     43  N   UNL A   1      40.200  28.819  29.637  1.00  0.00    -0.354 N 
ATOM     44  C   UNL A   1      39.162  31.111  33.153  1.00  0.00     0.074 A 
ATOM     45  C   UNL A   1      37.957  31.883  32.937  1.00  0.00     0.031 C 
ATOM     46  C   UNL A   1      39.956  28.080  27.540  1.00  0.00     0.029 A 
ATOM     47  C   UNL A   1      40.815  28.005  28.718  1.00  0.00     0.049 A 
ATOM     48  H   UNL A   1      40.561  28.984  30.538  1.00  0.00     0.167 HD
ATOM     49  C   UNL A   1      39.874  31.109  34.304  1.00  0.00     0.037 A 
ATOM     50  C   UNL A   1      41.939  27.272  28.820  1.00  0.00     0.037 A 
ATOM     51  C   UNL A   1      41.053  30.318  34.524  1.00  0.00     0.049 A 
ATOM     52  C   UNL A   1      42.707  27.279  30.112  1.00  0.00     0.074 A 
ATOM     53  C   UNL A   1      41.814  30.206  35.674  1.00  0.00     0.029 A 
ATOM     54  N   UNL A   1      41.642  29.499  33.572  1.00  0.00    -0.354 N 
ATOM     55  N   UNL A   1      42.440  27.919  31.224  1.00  0.00    -0.248 NA
ATOM     56  C   UNL A   1      43.927  26.462  30.166  1.00  0.00     0.031 C 
ATOM     57  C   UNL A   1      42.877  29.337  35.411  1.00  0.00     0.029 A 
ATOM     58  C   UNL A   1      42.761  28.885  34.106  1.00  0.00     0.049 A 
ATOM     59  H   UNL A   1      41.311  29.372  32.653  1.00  0.00     0.167 HD
ATOM     60  C   UNL A   1      43.441  27.566  32.116  1.00  0.00     0.074 A 
ATOM     61  C   UNL A   1      44.321  26.651  31.419  1.00  0.00     0.031 C 
ATOM     62  C   UNL A   1      43.615  27.966  33.399  1.00  0.00     0.037 A 
BRANCH  49  63
ATOM     63  C   UNL A   1      39.378  31.971  35.422  1.00  0.00     0.064 A 
ATOM     64  C   UNL A   1      38.525  31.460  36.411  1.00  0.00     0.173 A 
ATOM     65  C   UNL A   1      39.794  33.306  35.535  1.00  0.00     0.173 A 
ATOM     66  F   UNL A   1      38.090  30.193  36.338  1.00  0.00    -0.203 F 
ATOM     67  C   UNL A   1      38.088  32.261  37.463  1.00  0.00     0.198 A 
ATOM     68  C   UNL A   1      39.374  34.097  36.601  1.00  0.00     0.198 A 
ATOM     69  F   UNL A   1      40.613  33.839  34.616  1.00  0.00    -0.203 F 
ATOM     70  F   UNL A   1      37.244  31.762  38.375  1.00  0.00    -0.200 F 
ATOM     71  C   UNL A   1      38.518  33.575  37.560  1.00  0.00     0.200 A 
ATOM     72  F   UNL A   1      39.795  35.365  36.700  1.00  0.00    -0.200 F 
ATOM     73  F   UNL A   1      38.103  34.342  38.578  1.00  0.00    -0.200 F 
ENDBRANCH  49  63
BRANCH  50  74
ATOM     74  C   UNL A   1      42.368  26.422  27.681  1.00  0.00     0.064 A 
ATOM     75  C   UNL A   1      43.333  26.881  26.774  1.00  0.00     0.173 A 
ATOM     76  C   UNL A   1      41.850  25.133  27.490  1.00  0.00     0.173 A 
ATOM     77  F   UNL A   1      43.844  28.114  26.909  1.00  0.00    -0.203 F 
ATOM     78  C   UNL A   1      43.760  26.086  25.714  1.00  0.00     0.198 A 
ATOM     79  C   UNL A   1      42.292  24.331  26.440  1.00  0.00     0.198 A 
ATOM     80  F   UNL A   1      40.930  24.649  28.336  1.00  0.00    -0.203 F 
ATOM     81  F   UNL A   1      44.667  26.558  24.848  1.00  0.00    -0.200 F 
ATOM     82  C   UNL A   1      43.244  24.809  25.551  1.00  0.00     0.200 A 
ATOM     83  F   UNL A   1      41.800  23.093  26.292  1.00  0.00    -0.200 F 
ATOM     84  F   UNL A   1      43.661  24.040  24.536  1.00  0.00    -0.200 F 
ENDBRANCH  50  74
BRANCH  62  85
ATOM     85  C   UNL A   1      44.784  27.405  34.148  1.00  0.00     0.064 A 
ATOM     86  C   UNL A   1      46.003  28.092  34.213  1.00  0.00     0.173 A 
ATOM     87  C   UNL A   1      44.649  26.220  34.886  1.00  0.00     0.173 A 
ATOM     88  F   UNL A   1      46.179  29.223  33.513  1.00  0.00    -0.203 F 
ATOM     89  C   UNL A   1      47.051  27.610  34.991  1.00  0.00     0.198 A 
ATOM     90  C   UNL A   1      45.692  25.751  35.678  1.00  0.00     0.198 A 
ATOM     91  F   UNL A   1      43.497  25.534  34.858  1.00  0.00    -0.203 F 
ATOM     92  F   UNL A   1      48.215  28.272  35.028  1.00  0.00    -0.200 F 
ATOM     93  C   UNL A   1      46.892  26.446  35.730  1.00  0.00     0.200 A 
ATOM     94  F   UNL A   1      45.534  24.634  36.400  1.00  0.00    -0.200 F 
ATOM     95  F   UNL A   1      47.895  25.995  36.494  1.00  0.00    -0.200 F 
ENDBRANCH  62  85
ENDBRANCH  36  37
ENDBRANCH  28  31
ENDBRANCH  26  27
ENDBRANCH   1  26
TORSDOF 12
ENDMDL
MODEL 2
REMARK VINA RESULT:     -13.4      1.918      2.929
REMARK SMILES Cc1c(Br)c(C)c2c(c1Br)O[C@H](C(F)(F)F)C(C(=O)NCCCCNC(=O)c1ccc(-c3c4nc(c(-c5c(F)c(F)c(F)c(F)c5F)c5ccc([nH]5)c(-c5c(F)c(F)c(F)c(F)c5F)c5nc(c(-c6c(F)c(F)c(F)c(F)c6F)c6ccc3[nH]6)C=C5)C=C4)cc1)=C2
REMARK SMILES IDX 23 1 22 2 21 3 20 4 18 5 19 6 17 8 1 9 2 10 3 11 9 12 4 13
REMARK SMILES IDX 5 14 8 15 10 16 6 17 7 18 11 19 91 20 12 21 13 22 14 23
REMARK SMILES IDX 15 24 16 25 24 26 25 27 26 28 27 30 28 31 29 32 90 33 30 34
REMARK SMILES IDX 89 35 31 36 32 37 33 38 83 39 34 40 88 41 82 42 84 43 35 44
REMARK SMILES IDX 87 45 81 46 80 47 36 49 68 50 48 51 67 52 49 53 52 54 66 55
REMARK SMILES IDX 85 56 50 57 51 58 65 60 86 61 53 62 37 63 38 64 46 65 39 66
REMARK SMILES IDX 40 67 44 68 47 69 41 70 42 71 45 72 43 73 69 74 70 75 78 76
REMARK SMILES IDX 71 77 72 78 76 79 79 80 73 81 74 82 77 83 75 84 54 85 55 86
REMARK SMILES IDX 63 87 56 88 57 89 61 90 64 91 58 92 59 93 62 94 60 95
REMARK H PARENT 20 7 25 29 84 48 52 59
REMARK Flexibility Score: inf
ROOT
ATOM      1  C   UNL A   1      31.785  31.743  26.682  1.00  0.00     0.023 C 
ENDROOT
BRANCH   1   2
ATOM      2  C   UNL A   1      31.939  30.236  26.903  1.00  0.00     0.023 C 
BRANCH   2   3
ATOM      3  C   UNL A   1      33.366  29.722  26.731  1.00  0.00     0.116 C 
BRANCH   3   4
ATOM      4  N   UNL A   1      33.691  29.479  25.338  1.00  0.00    -0.352 N 
ATOM      5  C   UNL A   1      33.680  28.423  24.491  1.00  0.00     0.251 C 
ATOM      6  O   UNL A   1      34.070  28.668  23.345  1.00  0.00    -0.270 OA
ATOM      7  H   UNL A   1      34.000  30.300  24.890  1.00  0.00     0.163 HD
BRANCH   5   8
ATOM      8  C   UNL A   1      33.241  27.039  24.841  1.00  0.00     0.067 C 
ATOM      9  C   UNL A   1      32.752  20.644  26.273  1.00  0.00     0.047 C 
ATOM     10  C   UNL A   1      33.140  22.055  25.890  1.00  0.00    -0.019 A 
ATOM     11  C   UNL A   1      34.419  22.333  25.343  1.00  0.00     0.025 A 
ATOM     12  C   UNL A   1      32.229  23.120  26.017  1.00  0.00     0.064 A 
ATOM     13  Br  UNL A   1      35.640  20.874  25.072  1.00  0.00    -0.050 Br
ATOM     14  C   UNL A   1      34.806  23.651  24.982  1.00  0.00    -0.026 A 
ATOM     15  C   UNL A   1      32.601  24.428  25.664  1.00  0.00     0.142 A 
ATOM     16  Br  UNL A   1      30.435  22.839  26.633  1.00  0.00    -0.046 Br
ATOM     17  C   UNL A   1      36.173  23.970  24.417  1.00  0.00     0.046 C 
ATOM     18  C   UNL A   1      33.882  24.706  25.171  1.00  0.00     0.022 A 
ATOM     19  O   UNL A   1      31.685  25.426  25.877  1.00  0.00    -0.474 OA
ATOM     20  C   UNL A   1      34.214  26.111  24.891  1.00  0.00     0.026 C 
ATOM     21  C   UNL A   1      31.823  26.633  25.087  1.00  0.00     0.314 C 
BRANCH  21  22
ATOM     22  C   UNL A   1      30.999  26.511  23.791  1.00  0.00     0.429 C 
ATOM     23  F   UNL A   1      29.835  25.858  24.029  1.00  0.00    -0.167 F 
ATOM     24  F   UNL A   1      30.662  27.720  23.283  1.00  0.00    -0.167 F 
ATOM     25  F   UNL A   1      31.652  25.841  22.817  1.00  0.00    -0.167 F 
ENDBRANCH  21  22
ENDBRANCH   5   8
ENDBRANCH   3   4
ENDBRANCH   2   3
ENDBRANCH   1   2
BRANCH   1  26
ATOM     26  C   UNL A   1      32.858  32.616  27.329  1.00  0.00     0.116 C 
BRANCH  26  27
ATOM     27  N   UNL A   1      32.415  33.964  27.653  1.00  0.00    -0.352 N 
ATOM     28  C   UNL A   1      32.968  34.837  28.559  1.00  0.00     0.251 C 
ATOM     29  H   UNL A   1      31.624  34.289  27.165  1.00  0.00     0.163 HD
ATOM     30  O   UNL A   1      32.459  35.930  28.780  1.00  0.00    -0.269 OA
BRANCH  28  31
ATOM     31  C   UNL A   1      34.163  34.407  29.307  1.00  0.00     0.039 A 
ATOM     32  C   UNL A   1      33.988  33.757  30.529  1.00  0.00     0.014 A 
ATOM     33  C   UNL A   1      35.436  34.557  28.747  1.00  0.00     0.014 A 
ATOM     34  C   UNL A   1      35.090  33.175  31.155  1.00  0.00     0.010 A 
ATOM     35  C   UNL A   1      36.522  33.927  29.344  1.00  0.00     0.010 A 
ATOM     36  C   UNL A   1      36.353  33.217  30.543  1.00  0.00    -0.014 A 
BRANCH  36  37
ATOM     37  C   UNL A   1      37.501  32.490  31.131  1.00  0.00     0.031 A 
ATOM     38  C   UNL A   1      38.006  32.851  32.495  1.00  0.00     0.074 A 
ATOM     39  C   UNL A   1      38.119  31.537  30.406  1.00  0.00     0.049 A 
ATOM     40  N   UNL A   1      39.007  32.342  33.165  1.00  0.00    -0.248 NA
ATOM     41  C   UNL A   1      37.309  33.945  33.190  1.00  0.00     0.031 C 
ATOM     42  C   UNL A   1      37.750  31.138  29.046  1.00  0.00     0.029 A 
ATOM     43  N   UNL A   1      39.186  30.731  30.710  1.00  0.00    -0.354 N 
ATOM     44  C   UNL A   1      39.064  33.054  34.354  1.00  0.00     0.074 A 
ATOM     45  C   UNL A   1      38.030  34.065  34.295  1.00  0.00     0.031 C 
ATOM     46  C   UNL A   1      38.553  30.138  28.648  1.00  0.00     0.029 A 
ATOM     47  C   UNL A   1      39.507  29.842  29.713  1.00  0.00     0.049 A 
ATOM     48  H   UNL A   1      39.675  30.783  31.563  1.00  0.00     0.167 HD
ATOM     49  C   UNL A   1      39.886  32.861  35.411  1.00  0.00     0.037 A 
ATOM     50  C   UNL A   1      40.457  28.889  29.670  1.00  0.00     0.037 A 
ATOM     51  C   UNL A   1      40.891  31.836  35.478  1.00  0.00     0.049 A 
ATOM     52  C   UNL A   1      41.352  28.690  30.861  1.00  0.00     0.074 A 
ATOM     53  C   UNL A   1      41.738  31.526  36.527  1.00  0.00     0.029 A 
ATOM     54  N   UNL A   1      41.181  30.949  34.451  1.00  0.00    -0.354 N 
ATOM     55  N   UNL A   1      41.355  29.328  32.005  1.00  0.00    -0.248 NA
ATOM     56  C   UNL A   1      42.372  27.636  30.757  1.00  0.00     0.031 C 
ATOM     57  C   UNL A   1      42.558  30.467  36.126  1.00  0.00     0.029 A 
ATOM     58  C   UNL A   1      42.201  30.098  34.839  1.00  0.00     0.049 A 
ATOM     59  H   UNL A   1      40.727  30.929  33.577  1.00  0.00     0.167 HD
ATOM     60  C   UNL A   1      42.356  28.743  32.765  1.00  0.00     0.074 A 
ATOM     61  C   UNL A   1      42.939  27.692  31.956  1.00  0.00     0.031 C 
ATOM     62  C   UNL A   1      42.756  29.050  34.023  1.00  0.00     0.037 A 
BRANCH  49  63
ATOM     63  C   UNL A   1      39.715  33.765  36.592  1.00  0.00     0.064 A 
ATOM     64  C   UNL A   1      40.345  35.017  36.646  1.00  0.00     0.173 A 
ATOM     65  C   UNL A   1      38.879  33.401  37.658  1.00  0.00     0.173 A 
ATOM     66  F   UNL A   1      41.164  35.404  35.656  1.00  0.00    -0.203 F 
ATOM     67  C   UNL A   1      40.161  35.864  37.736  1.00  0.00     0.198 A 
ATOM     68  C   UNL A   1      38.679  34.260  38.734  1.00  0.00     0.198 A 
ATOM     69  F   UNL A   1      38.251  32.215  37.649  1.00  0.00    -0.203 F 
ATOM     70  F   UNL A   1      40.802  37.039  37.784  1.00  0.00    -0.200 F 
ATOM     71  C   UNL A   1      39.323  35.488  38.774  1.00  0.00     0.200 A 
ATOM     72  F   UNL A   1      37.863  33.900  39.735  1.00  0.00    -0.200 F 
ATOM     73  F   UNL A   1      39.141  36.308  39.819  1.00  0.00    -0.200 F 
ENDBRANCH  49  63
BRANCH  50  74
ATOM     74  C   UNL A   1      40.564  28.013  28.477  1.00  0.00     0.064 A 
ATOM     75  C   UNL A   1      41.347  28.397  27.380  1.00  0.00     0.173 A 
ATOM     76  C   UNL A   1      39.917  26.770  28.418  1.00  0.00     0.173 A 
ATOM     77  F   UNL A   1      41.970  29.584  27.387  1.00  0.00    -0.203 F 
ATOM     78  C   UNL A   1      41.473  27.575  26.264  1.00  0.00     0.198 A 
ATOM     79  C   UNL A   1      40.060  25.940  27.309  1.00  0.00     0.198 A 
ATOM     80  F   UNL A   1      39.163  26.358  29.447  1.00  0.00    -0.203 F 
ATOM     81  F   UNL A   1      42.209  27.976  25.218  1.00  0.00    -0.200 F 
ATOM     82  C   UNL A   1      40.835  26.344  26.231  1.00  0.00     0.200 A 
ATOM     83  F   UNL A   1      39.451  24.746  27.285  1.00  0.00    -0.200 F 
ATOM     84  F   UNL A   1      40.964  25.548  25.161  1.00  0.00    -0.200 F 
ENDBRANCH  50  74
BRANCH  62  85
ATOM     85  C   UNL A   1      43.859  28.232  34.619  1.00  0.00     0.064 A 
ATOM     86  C   UNL A   1      45.191  28.666  34.576  1.00  0.00     0.173 A 
ATOM     87  C   UNL A   1      43.568  27.054  35.322  1.00  0.00     0.173 A 
ATOM     88  F   UNL A   1      45.517  29.780  33.904  1.00  0.00    -0.203 F 
ATOM     89  C   UNL A   1      46.195  27.947  35.217  1.00  0.00     0.198 A 
ATOM     90  C   UNL A   1      44.571  26.348  35.978  1.00  0.00     0.198 A 
ATOM     91  F   UNL A   1      42.305  26.605  35.395  1.00  0.00    -0.203 F 
ATOM     92  F   UNL A   1      47.465  28.369  35.152  1.00  0.00    -0.200 F 
ATOM     93  C   UNL A   1      45.883  26.795  35.925  1.00  0.00     0.200 A 
ATOM     94  F   UNL A   1      44.267  25.242  36.671  1.00  0.00    -0.200 F 
ATOM     95  F   UNL A   1      46.849  26.115  36.558  1.00  0.00    -0.200 F 
ENDBRANCH  62  85
ENDBRANCH  36  37
ENDBRANCH  28  31
ENDBRANCH  26  27
ENDBRANCH   1  26
TORSDOF 12
ENDMDL
MODEL 3
REMARK VINA RESULT:     -13.4      4.775      9.782
REMARK SMILES Cc1c(Br)c(C)c2c(c1Br)O[C@H](C(F)(F)F)C(C(=O)NCCCCNC(=O)c1ccc(-c3c4nc(c(-c5c(F)c(F)c(F)c(F)c5F)c5ccc([nH]5)c(-c5c(F)c(F)c(F)c(F)c5F)c5nc(c(-c6c(F)c(F)c(F)c(F)c6F)c6ccc3[nH]6)C=C5)C=C4)cc1)=C2
REMARK SMILES IDX 23 1 22 2 21 3 20 4 18 5 19 6 17 8 1 9 2 10 3 11 9 12 4 13
REMARK SMILES IDX 5 14 8 15 10 16 6 17 7 18 11 19 91 20 12 21 13 22 14 23
REMARK SMILES IDX 15 24 16 25 24 26 25 27 26 28 27 30 28 31 29 32 90 33 30 34
REMARK SMILES IDX 89 35 31 36 32 37 33 38 83 39 34 40 88 41 82 42 84 43 35 44
REMARK SMILES IDX 87 45 81 46 80 47 36 49 68 50 48 51 67 52 49 53 52 54 66 55
REMARK SMILES IDX 85 56 50 57 51 58 65 60 86 61 53 62 37 63 38 64 46 65 39 66
REMARK SMILES IDX 40 67 44 68 47 69 41 70 42 71 45 72 43 73 69 74 70 75 78 76
REMARK SMILES IDX 71 77 72 78 76 79 79 80 73 81 74 82 77 83 75 84 54 85 55 86
REMARK SMILES IDX 63 87 56 88 57 89 61 90 64 91 58 92 59 93 62 94 60 95
REMARK H PARENT 20 7 25 29 84 48 52 59
REMARK Flexibility Score: inf
ROOT
ATOM      1  C   UNL A   1      38.073  20.219  25.026  1.00  0.00     0.023 C 
ENDROOT
BRANCH   1   2
ATOM      2  C   UNL A   1      37.377  21.502  24.566  1.00  0.00     0.023 C 
BRANCH   2   3
ATOM      3  C   UNL A   1      37.372  22.619  25.607  1.00  0.00     0.116 C 
BRANCH   3   4
ATOM      4  N   UNL A   1      36.264  22.490  26.535  1.00  0.00    -0.352 N 
ATOM      5  C   UNL A   1      34.994  22.949  26.625  1.00  0.00     0.251 C 
ATOM      6  O   UNL A   1      34.381  22.593  27.636  1.00  0.00    -0.270 OA
ATOM      7  H   UNL A   1      36.498  21.917  27.301  1.00  0.00     0.163 HD
BRANCH   5   8
ATOM      8  C   UNL A   1      34.316  23.820  25.619  1.00  0.00     0.067 C 
ATOM      9  C   UNL A   1      31.474  28.685  22.237  1.00  0.00     0.047 C 
ATOM     10  C   UNL A   1      32.129  27.754  23.232  1.00  0.00    -0.019 A 
ATOM     11  C   UNL A   1      32.238  28.113  24.601  1.00  0.00     0.025 A 
ATOM     12  C   UNL A   1      32.601  26.486  22.842  1.00  0.00     0.064 A 
ATOM     13  Br  UNL A   1      31.510  29.799  25.168  1.00  0.00    -0.050 Br
ATOM     14  C   UNL A   1      32.854  27.256  25.550  1.00  0.00    -0.026 A 
ATOM     15  C   UNL A   1      33.213  25.631  23.772  1.00  0.00     0.142 A 
ATOM     16  Br  UNL A   1      32.398  25.850  21.045  1.00  0.00    -0.046 Br
ATOM     17  C   UNL A   1      32.998  27.631  27.010  1.00  0.00     0.046 C 
ATOM     18  C   UNL A   1      33.363  26.010  25.112  1.00  0.00     0.022 A 
ATOM     19  O   UNL A   1      33.708  24.440  23.307  1.00  0.00    -0.474 OA
ATOM     20  C   UNL A   1      34.076  25.086  26.007  1.00  0.00     0.026 C 
ATOM     21  C   UNL A   1      33.865  23.366  24.267  1.00  0.00     0.314 C 
BRANCH  21  22
ATOM     22  C   UNL A   1      32.583  22.513  24.316  1.00  0.00     0.429 C 
ATOM     23  F   UNL A   1      31.810  22.754  23.229  1.00  0.00    -0.167 F 
ATOM     24  F   UNL A   1      32.850  21.185  24.308  1.00  0.00    -0.167 F 
ATOM     25  F   UNL A   1      31.834  22.758  25.413  1.00  0.00    -0.167 F 
ENDBRANCH  21  22
ENDBRANCH   5   8
ENDBRANCH   3   4
ENDBRANCH   2   3
ENDBRANCH   1   2
BRANCH   1  26
ATOM     26  C   UNL A   1      39.354  20.419  25.833  1.00  0.00     0.116 C 
BRANCH  26  27
ATOM     27  N   UNL A   1      40.252  19.273  25.818  1.00  0.00    -0.352 N 
ATOM     28  C   UNL A   1      41.595  19.252  26.111  1.00  0.00     0.251 C 
ATOM     29  H   UNL A   1      39.849  18.410  25.568  1.00  0.00     0.163 HD
ATOM     30  O   UNL A   1      42.252  18.223  26.003  1.00  0.00    -0.269 OA
BRANCH  28  31
ATOM     31  C   UNL A   1      42.246  20.514  26.505  1.00  0.00     0.039 A 
ATOM     32  C   UNL A   1      42.721  21.361  25.504  1.00  0.00     0.014 A 
ATOM     33  C   UNL A   1      42.288  20.894  27.850  1.00  0.00     0.014 A 
ATOM     34  C   UNL A   1      43.163  22.639  25.845  1.00  0.00     0.010 A 
ATOM     35  C   UNL A   1      42.675  22.188  28.181  1.00  0.00     0.010 A 
ATOM     36  C   UNL A   1      43.099  23.075  27.178  1.00  0.00    -0.014 A 
BRANCH  36  37
ATOM     37  C   UNL A   1      43.439  24.472  27.533  1.00  0.00     0.031 A 
ATOM     38  C   UNL A   1      44.870  24.918  27.556  1.00  0.00     0.074 A 
ATOM     39  C   UNL A   1      42.455  25.321  27.886  1.00  0.00     0.049 A 
ATOM     40  N   UNL A   1      45.363  26.091  27.859  1.00  0.00    -0.248 NA
ATOM     41  C   UNL A   1      45.884  23.907  27.217  1.00  0.00     0.031 C 
ATOM     42  C   UNL A   1      41.032  24.983  27.952  1.00  0.00     0.029 A 
ATOM     43  N   UNL A   1      42.500  26.642  28.253  1.00  0.00    -0.354 N 
ATOM     44  C   UNL A   1      46.739  25.959  27.752  1.00  0.00     0.074 A 
ATOM     45  C   UNL A   1      47.010  24.580  27.407  1.00  0.00     0.031 C 
ATOM     46  C   UNL A   1      40.336  26.078  28.301  1.00  0.00     0.029 A 
ATOM     47  C   UNL A   1      41.264  27.185  28.505  1.00  0.00     0.049 A 
ATOM     48  H   UNL A   1      43.339  27.152  28.327  1.00  0.00     0.167 HD
ATOM     49  C   UNL A   1      47.689  26.911  27.902  1.00  0.00     0.037 A 
ATOM     50  C   UNL A   1      40.920  28.440  28.851  1.00  0.00     0.037 A 
ATOM     51  C   UNL A   1      47.415  28.286  28.215  1.00  0.00     0.049 A 
ATOM     52  C   UNL A   1      41.994  29.481  29.002  1.00  0.00     0.074 A 
ATOM     53  C   UNL A   1      48.305  29.337  28.334  1.00  0.00     0.029 A 
ATOM     54  N   UNL A   1      46.149  28.801  28.455  1.00  0.00    -0.354 N 
ATOM     55  N   UNL A   1      43.288  29.359  28.837  1.00  0.00    -0.248 NA
ATOM     56  C   UNL A   1      41.561  30.833  29.382  1.00  0.00     0.031 C 
ATOM     57  C   UNL A   1      47.582  30.485  28.671  1.00  0.00     0.029 A 
ATOM     58  C   UNL A   1      46.237  30.154  28.732  1.00  0.00     0.049 A 
ATOM     59  H   UNL A   1      45.313  28.281  28.432  1.00  0.00     0.167 HD
ATOM     60  C   UNL A   1      43.822  30.618  29.070  1.00  0.00     0.074 A 
ATOM     61  C   UNL A   1      42.712  31.494  29.383  1.00  0.00     0.031 C 
ATOM     62  C   UNL A   1      45.118  31.011  29.027  1.00  0.00     0.037 A 
BRANCH  49  63
ATOM     63  C   UNL A   1      49.115  26.499  27.702  1.00  0.00     0.064 A 
ATOM     64  C   UNL A   1      49.660  26.368  26.417  1.00  0.00     0.173 A 
ATOM     65  C   UNL A   1      49.957  26.278  28.801  1.00  0.00     0.173 A 
ATOM     66  F   UNL A   1      48.890  26.558  25.334  1.00  0.00    -0.203 F 
ATOM     67  C   UNL A   1      50.994  26.011  26.238  1.00  0.00     0.198 A 
ATOM     68  C   UNL A   1      51.295  25.942  28.620  1.00  0.00     0.198 A 
ATOM     69  F   UNL A   1      49.482  26.394  30.051  1.00  0.00    -0.203 F 
ATOM     70  F   UNL A   1      51.484  25.855  25.001  1.00  0.00    -0.200 F 
ATOM     71  C   UNL A   1      51.811  25.805  27.339  1.00  0.00     0.200 A 
ATOM     72  F   UNL A   1      52.088  25.751  29.683  1.00  0.00    -0.200 F 
ATOM     73  F   UNL A   1      53.096  25.468  27.166  1.00  0.00    -0.200 F 
ENDBRANCH  49  63
BRANCH  50  74
ATOM     74  C   UNL A   1      39.487  28.790  29.016  1.00  0.00     0.064 A 
ATOM     75  C   UNL A   1      38.862  28.660  30.263  1.00  0.00     0.173 A 
ATOM     76  C   UNL A   1      38.725  29.285  27.949  1.00  0.00     0.173 A 
ATOM     77  F   UNL A   1      39.550  28.176  31.308  1.00  0.00    -0.203 F 
ATOM     78  C   UNL A   1      37.525  29.005  30.437  1.00  0.00     0.198 A 
ATOM     79  C   UNL A   1      37.392  29.648  28.128  1.00  0.00     0.198 A 
ATOM     80  F   UNL A   1      39.281  29.433  26.739  1.00  0.00    -0.203 F 
ATOM     81  F   UNL A   1      36.944  28.849  31.635  1.00  0.00    -0.200 F 
ATOM     82  C   UNL A   1      36.792  29.504  29.371  1.00  0.00     0.200 A 
ATOM     83  F   UNL A   1      36.689  30.141  27.099  1.00  0.00    -0.200 F 
ATOM     84  F   UNL A   1      35.507  29.845  29.540  1.00  0.00    -0.200 F 
ENDBRANCH  50  74
BRANCH  62  85
ATOM     85  C   UNL A   1      45.415  32.453  29.302  1.00  0.00     0.064 A 
ATOM     86  C   UNL A   1      45.365  33.411  28.281  1.00  0.00     0.173 A 
ATOM     87  C   UNL A   1      45.655  32.890  30.612  1.00  0.00     0.173 A 
ATOM     88  F   UNL A   1      45.150  33.036  27.011  1.00  0.00    -0.203 F 
ATOM     89  C   UNL A   1      45.547  34.761  28.564  1.00  0.00     0.198 A 
ATOM     90  C   UNL A   1      45.818  34.243  30.894  1.00  0.00     0.198 A 
ATOM     91  F   UNL A   1      45.704  32.007  31.621  1.00  0.00    -0.203 F 
ATOM     92  F   UNL A   1      45.511  35.662  27.572  1.00  0.00    -0.200 F 
ATOM     93  C   UNL A   1      45.764  35.177  29.870  1.00  0.00     0.200 A 
ATOM     94  F   UNL A   1      46.016  34.644  32.157  1.00  0.00    -0.200 F 
ATOM     95  F   UNL A   1      45.919  36.480  30.142  1.00  0.00    -0.200 F 
ENDBRANCH  62  85
ENDBRANCH  36  37
ENDBRANCH  28  31
ENDBRANCH  26  27
ENDBRANCH   1  26
TORSDOF 12
ENDMDL
