MODEL 1
REMARK VINA RESULT:     -12.6      0.000      0.000
REMARK SMILES O=Cc1cc(Cl)c(OCc2ccc(C(=O)NCCCCNC(=O)c3ccc(-c4c5nc(c(-c6c(F)c(F)c(F)c(F)c6F)c6ccc([nH]6)c(-c6c(F)c(F)c(F)c(F)c6F)c6nc(c(-c7c(F)c(F)c(F)c(F)c7F)c7ccc4[nH]7)C=C6)C=C5)cc3)cc2)c(Cl)c1
REMARK SMILES IDX 17 1 16 2 14 3 15 4 13 6 10 7 11 8 88 9 12 10 87 11 9 12
REMARK SMILES IDX 8 13 7 14 3 15 4 16 91 17 5 18 89 19 6 20 90 21 2 22 1 23
REMARK SMILES IDX 18 24 19 25 20 26 21 27 22 28 23 30 24 31 25 32 86 33 26 34
REMARK SMILES IDX 85 35 27 36 28 37 29 38 79 39 30 40 84 41 78 42 80 43 31 44
REMARK SMILES IDX 83 45 77 46 76 47 32 49 64 50 44 51 63 52 45 53 48 54 62 55
REMARK SMILES IDX 81 56 46 57 47 58 61 60 82 61 49 62 33 63 34 64 42 65 35 66
REMARK SMILES IDX 36 67 40 68 43 69 37 70 38 71 41 72 39 73 65 74 66 75 74 76
REMARK SMILES IDX 67 77 68 78 72 79 75 80 69 81 70 82 73 83 71 84 50 85 51 86
REMARK SMILES IDX 59 87 52 88 53 89 57 90 60 91 54 92 55 93 58 94 56 95
REMARK H PARENT 16 5 21 29 80 48 48 59
REMARK Flexibility Score: inf
ROOT
ATOM      1  C   UNL A   1      32.068  29.789  25.302  1.00  0.00     0.116 C 
ENDROOT
BRANCH   1   2
ATOM      2  N   UNL A   1      31.011  30.115  24.360  1.00  0.00    -0.352 N 
ATOM      3  C   UNL A   1      30.279  29.312  23.518  1.00  0.00     0.251 C 
ATOM      4  O   UNL A   1      29.354  29.811  22.881  1.00  0.00    -0.269 OA
ATOM      5  H   UNL A   1      30.780  31.072  24.319  1.00  0.00     0.163 HD
BRANCH   3   6
ATOM      6  C   UNL A   1      30.536  27.854  23.411  1.00  0.00     0.039 A 
ATOM      7  C   UNL A   1      31.071  25.091  23.425  1.00  0.00    -0.011 A 
ATOM      8  C   UNL A   1      30.065  25.621  24.242  1.00  0.00     0.008 A 
ATOM      9  C   UNL A   1      31.720  25.942  22.518  1.00  0.00     0.008 A 
ATOM     10  C   UNL A   1      29.803  26.995  24.239  1.00  0.00     0.014 A 
ATOM     11  C   UNL A   1      31.446  27.310  22.504  1.00  0.00     0.014 A 
BRANCH   7  12
ATOM     12  C   UNL A   1      31.449  23.628  23.465  1.00  0.00     0.265 C 
BRANCH  12  13
ATOM     13  O   UNL A   1      32.111  23.191  24.651  1.00  0.00    -0.486 OA
BRANCH  13  14
ATOM     14  C   UNL A   1      33.468  23.065  24.769  1.00  0.00     0.157 A 
ATOM     15  C   UNL A   1      36.210  22.395  24.948  1.00  0.00     0.017 A 
ATOM     16  C   UNL A   1      35.781  23.696  25.210  1.00  0.00     0.036 A 
ATOM     17  C   UNL A   1      35.294  21.425  24.567  1.00  0.00     0.036 A 
ATOM     18  C   UNL A   1      34.423  24.042  25.092  1.00  0.00     0.085 A 
ATOM     19  C   UNL A   1      33.940  21.761  24.487  1.00  0.00     0.085 A 
ATOM     20  Cl  UNL A   1      34.102  25.730  25.261  1.00  0.00    -0.080 Cl
ATOM     21  Cl  UNL A   1      32.851  20.493  24.019  1.00  0.00    -0.080 Cl
BRANCH  15  22
ATOM     22  C   UNL A   1      37.641  22.048  25.051  1.00  0.00     0.260 C 
ATOM     23  O   UNL A   1      38.300  22.332  26.043  1.00  0.00    -0.298 OA
ENDBRANCH  15  22
ENDBRANCH  13  14
ENDBRANCH  12  13
ENDBRANCH   7  12
ENDBRANCH   3   6
ENDBRANCH   1   2
BRANCH   1  24
ATOM     24  C   UNL A   1      31.766  30.357  26.690  1.00  0.00     0.023 C 
BRANCH  24  25
ATOM     25  C   UNL A   1      31.552  31.873  26.725  1.00  0.00     0.023 C 
BRANCH  25  26
ATOM     26  C   UNL A   1      32.735  32.681  27.245  1.00  0.00     0.116 C 
BRANCH  26  27
ATOM     27  N   UNL A   1      32.388  34.051  27.587  1.00  0.00    -0.352 N 
ATOM     28  C   UNL A   1      32.954  34.876  28.533  1.00  0.00     0.251 C 
ATOM     29  H   UNL A   1      31.645  34.442  27.073  1.00  0.00     0.163 HD
ATOM     30  O   UNL A   1      32.468  35.971  28.769  1.00  0.00    -0.269 OA
BRANCH  28  31
ATOM     31  C   UNL A   1      34.134  34.408  29.293  1.00  0.00     0.039 A 
ATOM     32  C   UNL A   1      33.930  33.770  30.519  1.00  0.00     0.014 A 
ATOM     33  C   UNL A   1      35.427  34.577  28.792  1.00  0.00     0.014 A 
ATOM     34  C   UNL A   1      35.019  33.238  31.210  1.00  0.00     0.010 A 
ATOM     35  C   UNL A   1      36.504  33.989  29.449  1.00  0.00     0.010 A 
ATOM     36  C   UNL A   1      36.310  33.310  30.662  1.00  0.00    -0.014 A 
BRANCH  36  37
ATOM     37  C   UNL A   1      37.467  32.670  31.335  1.00  0.00     0.031 A 
ATOM     38  C   UNL A   1      38.192  31.533  30.673  1.00  0.00     0.074 A 
ATOM     39  C   UNL A   1      37.818  33.067  32.573  1.00  0.00     0.049 A 
ATOM     40  N   UNL A   1      39.174  30.798  31.131  1.00  0.00    -0.248 NA
ATOM     41  C   UNL A   1      37.736  31.151  29.327  1.00  0.00     0.031 C 
ATOM     42  C   UNL A   1      37.157  34.124  33.342  1.00  0.00     0.029 A 
ATOM     43  N   UNL A   1      38.809  32.619  33.411  1.00  0.00    -0.354 N 
ATOM     44  C   UNL A   1      39.441  29.863  30.141  1.00  0.00     0.074 A 
ATOM     45  C   UNL A   1      38.488  30.090  29.076  1.00  0.00     0.031 C 
ATOM     46  C   UNL A   1      37.772  34.255  34.529  1.00  0.00     0.029 A 
ATOM     47  C   UNL A   1      38.845  33.269  34.621  1.00  0.00     0.049 A 
ATOM     48  H   UNL A   1      39.435  31.899  33.168  1.00  0.00     0.167 HD
ATOM     49  C   UNL A   1      40.407  28.915  30.114  1.00  0.00     0.037 A 
ATOM     50  C   UNL A   1      39.648  33.085  35.686  1.00  0.00     0.037 A 
ATOM     51  C   UNL A   1      41.374  28.712  31.161  1.00  0.00     0.049 A 
ATOM     52  C   UNL A   1      40.719  32.030  35.623  1.00  0.00     0.074 A 
ATOM     53  C   UNL A   1      42.434  27.823  31.196  1.00  0.00     0.029 A 
ATOM     54  N   UNL A   1      41.398  29.412  32.358  1.00  0.00    -0.354 N 
ATOM     55  N   UNL A   1      41.009  31.201  34.651  1.00  0.00    -0.248 NA
ATOM     56  C   UNL A   1      41.582  31.892  36.806  1.00  0.00     0.031 C 
ATOM     57  C   UNL A   1      43.075  27.955  32.433  1.00  0.00     0.029 A 
ATOM     58  C   UNL A   1      42.442  28.960  33.148  1.00  0.00     0.049 A 
ATOM     59  H   UNL A   1      40.765  30.123  32.611  1.00  0.00     0.167 HD
ATOM     60  C   UNL A   1      42.099  30.464  35.089  1.00  0.00     0.074 A 
ATOM     61  C   UNL A   1      42.431  30.954  36.411  1.00  0.00     0.031 C 
ATOM     62  C   UNL A   1      42.767  29.468  34.456  1.00  0.00     0.037 A 
BRANCH  49  63
ATOM     63  C   UNL A   1      40.477  28.026  28.907  1.00  0.00     0.064 A 
ATOM     64  C   UNL A   1      39.750  26.829  28.834  1.00  0.00     0.173 A 
ATOM     65  C   UNL A   1      41.240  28.400  27.790  1.00  0.00     0.173 A 
ATOM     66  F   UNL A   1      39.014  26.422  29.880  1.00  0.00    -0.203 F 
ATOM     67  C   UNL A   1      39.800  26.028  27.697  1.00  0.00     0.198 A 
ATOM     68  C   UNL A   1      41.265  27.610  26.644  1.00  0.00     0.198 A 
ATOM     69  F   UNL A   1      41.950  29.538  27.805  1.00  0.00    -0.203 F 
ATOM     70  F   UNL A   1      39.129  24.868  27.666  1.00  0.00    -0.200 F 
ATOM     71  C   UNL A   1      40.551  26.423  26.601  1.00  0.00     0.200 A 
ATOM     72  F   UNL A   1      41.982  27.999  25.579  1.00  0.00    -0.200 F 
ATOM     73  F   UNL A   1      40.590  25.656  25.502  1.00  0.00    -0.200 F 
ENDBRANCH  49  63
BRANCH  50  74
ATOM     74  C   UNL A   1      39.488  33.933  36.895  1.00  0.00     0.064 A 
ATOM     75  C   UNL A   1      40.089  35.197  36.972  1.00  0.00     0.173 A 
ATOM     76  C   UNL A   1      38.747  33.494  38.003  1.00  0.00     0.173 A 
ATOM     77  F   UNL A   1      40.825  35.651  35.947  1.00  0.00    -0.203 F 
ATOM     78  C   UNL A   1      39.978  35.979  38.119  1.00  0.00     0.198 A 
ATOM     79  C   UNL A   1      38.613  34.290  39.138  1.00  0.00     0.198 A 
ATOM     80  F   UNL A   1      38.148  32.295  37.978  1.00  0.00    -0.203 F 
ATOM     81  F   UNL A   1      40.605  37.162  38.185  1.00  0.00    -0.200 F 
ATOM     82  C   UNL A   1      39.236  35.527  39.199  1.00  0.00     0.200 A 
ATOM     83  F   UNL A   1      37.884  33.856  40.175  1.00  0.00    -0.200 F 
ATOM     84  F   UNL A   1      39.129  36.280  40.303  1.00  0.00    -0.200 F 
ENDBRANCH  50  74
BRANCH  62  85
ATOM     85  C   UNL A   1      43.944  28.869  35.166  1.00  0.00     0.064 A 
ATOM     86  C   UNL A   1      45.245  29.354  34.972  1.00  0.00     0.173 A 
ATOM     87  C   UNL A   1      43.761  27.821  36.083  1.00  0.00     0.173 A 
ATOM     88  F   UNL A   1      45.473  30.343  34.095  1.00  0.00    -0.203 F 
ATOM     89  C   UNL A   1      46.324  28.796  35.653  1.00  0.00     0.198 A 
ATOM     90  C   UNL A   1      44.838  27.286  36.782  1.00  0.00     0.198 A 
ATOM     91  F   UNL A   1      42.534  27.326  36.308  1.00  0.00    -0.203 F 
ATOM     92  F   UNL A   1      47.565  29.244  35.419  1.00  0.00    -0.200 F 
ATOM     93  C   UNL A   1      46.119  27.769  36.563  1.00  0.00     0.200 A 
ATOM     94  F   UNL A   1      44.636  26.303  37.669  1.00  0.00    -0.200 F 
ATOM     95  F   UNL A   1      47.158  27.239  37.222  1.00  0.00    -0.200 F 
ENDBRANCH  62  85
ENDBRANCH  36  37
ENDBRANCH  28  31
ENDBRANCH  26  27
ENDBRANCH  25  26
ENDBRANCH  24  25
ENDBRANCH   1  24
TORSDOF 15
ENDMDL
MODEL 2
REMARK VINA RESULT:     -12.5      5.559     11.172
REMARK SMILES O=Cc1cc(Cl)c(OCc2ccc(C(=O)NCCCCNC(=O)c3ccc(-c4c5nc(c(-c6c(F)c(F)c(F)c(F)c6F)c6ccc([nH]6)c(-c6c(F)c(F)c(F)c(F)c6F)c6nc(c(-c7c(F)c(F)c(F)c(F)c7F)c7ccc4[nH]7)C=C6)C=C5)cc3)cc2)c(Cl)c1
REMARK SMILES IDX 17 1 16 2 14 3 15 4 13 6 10 7 11 8 88 9 12 10 87 11 9 12
REMARK SMILES IDX 8 13 7 14 3 15 4 16 91 17 5 18 89 19 6 20 90 21 2 22 1 23
REMARK SMILES IDX 18 24 19 25 20 26 21 27 22 28 23 30 24 31 25 32 86 33 26 34
REMARK SMILES IDX 85 35 27 36 28 37 29 38 79 39 30 40 84 41 78 42 80 43 31 44
REMARK SMILES IDX 83 45 77 46 76 47 32 49 64 50 44 51 63 52 45 53 48 54 62 55
REMARK SMILES IDX 81 56 46 57 47 58 61 60 82 61 49 62 33 63 34 64 42 65 35 66
REMARK SMILES IDX 36 67 40 68 43 69 37 70 38 71 41 72 39 73 65 74 66 75 74 76
REMARK SMILES IDX 67 77 68 78 72 79 75 80 69 81 70 82 73 83 71 84 50 85 51 86
REMARK SMILES IDX 59 87 52 88 53 89 57 90 60 91 54 92 55 93 58 94 56 95
REMARK H PARENT 16 5 21 29 80 48 48 59
REMARK Flexibility Score: inf
ROOT
ATOM      1  C   UNL A   1      35.793  21.179  25.481  1.00  0.00     0.116 C 
ENDROOT
BRANCH   1   2
ATOM      2  N   UNL A   1      34.945  20.011  25.322  1.00  0.00    -0.352 N 
ATOM      3  C   UNL A   1      33.621  19.904  24.970  1.00  0.00     0.251 C 
ATOM      4  O   UNL A   1      33.143  18.784  24.798  1.00  0.00    -0.269 OA
ATOM      5  H   UNL A   1      35.394  19.152  25.496  1.00  0.00     0.163 HD
BRANCH   3   6
ATOM      6  C   UNL A   1      32.777  21.101  24.729  1.00  0.00     0.039 A 
ATOM      7  C   UNL A   1      31.351  23.460  24.161  1.00  0.00    -0.011 A 
ATOM      8  C   UNL A   1      31.847  22.666  23.120  1.00  0.00     0.008 A 
ATOM      9  C   UNL A   1      31.475  22.997  25.479  1.00  0.00     0.008 A 
ATOM     10  C   UNL A   1      32.561  21.497  23.402  1.00  0.00     0.014 A 
ATOM     11  C   UNL A   1      32.172  21.821  25.758  1.00  0.00     0.014 A 
BRANCH   7  12
ATOM     12  C   UNL A   1      30.655  24.777  23.904  1.00  0.00     0.265 C 
BRANCH  12  13
ATOM     13  O   UNL A   1      31.490  25.840  23.445  1.00  0.00    -0.486 OA
BRANCH  13  14
ATOM     14  C   UNL A   1      31.974  26.836  24.249  1.00  0.00     0.157 A 
ATOM     15  C   UNL A   1      32.664  29.129  25.755  1.00  0.00     0.017 A 
ATOM     16  C   UNL A   1      33.473  27.993  25.784  1.00  0.00     0.036 A 
ATOM     17  C   UNL A   1      31.494  29.129  25.008  1.00  0.00     0.036 A 
ATOM     18  C   UNL A   1      33.118  26.840  25.062  1.00  0.00     0.085 A 
ATOM     19  C   UNL A   1      31.163  27.995  24.260  1.00  0.00     0.085 A 
ATOM     20  Cl  UNL A   1      34.126  25.472  25.368  1.00  0.00    -0.080 Cl
ATOM     21  Cl  UNL A   1      29.694  28.074  23.338  1.00  0.00    -0.080 Cl
BRANCH  15  22
ATOM     22  C   UNL A   1      33.032  30.326  26.535  1.00  0.00     0.260 C 
ATOM     23  O   UNL A   1      33.582  30.236  27.624  1.00  0.00    -0.298 OA
ENDBRANCH  15  22
ENDBRANCH  13  14
ENDBRANCH  12  13
ENDBRANCH   7  12
ENDBRANCH   3   6
ENDBRANCH   1   2
BRANCH   1  24
ATOM     24  C   UNL A   1      37.058  21.065  24.627  1.00  0.00     0.023 C 
BRANCH  24  25
ATOM     25  C   UNL A   1      37.974  19.897  25.000  1.00  0.00     0.023 C 
BRANCH  25  26
ATOM     26  C   UNL A   1      39.228  20.282  25.776  1.00  0.00     0.116 C 
BRANCH  26  27
ATOM     27  N   UNL A   1      40.196  19.201  25.875  1.00  0.00    -0.352 N 
ATOM     28  C   UNL A   1      41.548  19.271  26.126  1.00  0.00     0.251 C 
ATOM     29  H   UNL A   1      39.835  18.294  25.744  1.00  0.00     0.163 HD
ATOM     30  O   UNL A   1      42.240  18.267  26.068  1.00  0.00    -0.269 OA
BRANCH  28  31
ATOM     31  C   UNL A   1      42.165  20.582  26.426  1.00  0.00     0.039 A 
ATOM     32  C   UNL A   1      42.616  21.367  25.363  1.00  0.00     0.014 A 
ATOM     33  C   UNL A   1      42.277  21.042  27.741  1.00  0.00     0.014 A 
ATOM     34  C   UNL A   1      43.117  22.646  25.613  1.00  0.00     0.010 A 
ATOM     35  C   UNL A   1      42.714  22.341  27.982  1.00  0.00     0.010 A 
ATOM     36  C   UNL A   1      43.134  23.157  26.921  1.00  0.00    -0.014 A 
BRANCH  36  37
ATOM     37  C   UNL A   1      43.575  24.546  27.196  1.00  0.00     0.031 A 
ATOM     38  C   UNL A   1      42.590  25.568  27.687  1.00  0.00     0.074 A 
ATOM     39  C   UNL A   1      44.847  24.904  26.936  1.00  0.00     0.049 A 
ATOM     40  N   UNL A   1      42.764  26.846  27.912  1.00  0.00    -0.248 NA
ATOM     41  C   UNL A   1      41.217  25.099  27.932  1.00  0.00     0.031 C 
ATOM     42  C   UNL A   1      45.884  24.015  26.407  1.00  0.00     0.029 A 
ATOM     43  N   UNL A   1      45.483  26.113  27.067  1.00  0.00    -0.354 N 
ATOM     44  C   UNL A   1      41.526  27.334  28.308  1.00  0.00     0.074 A 
ATOM     45  C   UNL A   1      40.596  26.227  28.248  1.00  0.00     0.031 C 
ATOM     46  C   UNL A   1      47.030  24.704  26.276  1.00  0.00     0.029 A 
ATOM     47  C   UNL A   1      46.800  26.089  26.677  1.00  0.00     0.049 A 
ATOM     48  H   UNL A   1      45.038  26.922  27.409  1.00  0.00     0.167 HD
ATOM     49  C   UNL A   1      41.200  28.586  28.707  1.00  0.00     0.037 A 
ATOM     50  C   UNL A   1      47.716  27.075  26.640  1.00  0.00     0.037 A 
ATOM     51  C   UNL A   1      42.135  29.677  28.796  1.00  0.00     0.049 A 
ATOM     52  C   UNL A   1      47.328  28.455  27.097  1.00  0.00     0.074 A 
ATOM     53  C   UNL A   1      41.916  30.965  29.253  1.00  0.00     0.029 A 
ATOM     54  N   UNL A   1      43.468  29.606  28.421  1.00  0.00    -0.354 N 
ATOM     55  N   UNL A   1      46.172  28.886  27.539  1.00  0.00    -0.248 NA
ATOM     56  C   UNL A   1      48.377  29.485  27.058  1.00  0.00     0.031 C 
ATOM     57  C   UNL A   1      43.107  31.686  29.115  1.00  0.00     0.029 A 
ATOM     58  C   UNL A   1      44.080  30.834  28.618  1.00  0.00     0.049 A 
ATOM     59  H   UNL A   1      43.914  28.803  28.066  1.00  0.00     0.167 HD
ATOM     60  C   UNL A   1      46.359  30.224  27.857  1.00  0.00     0.074 A 
ATOM     61  C   UNL A   1      47.745  30.532  27.571  1.00  0.00     0.031 C 
ATOM     62  C   UNL A   1      45.463  31.119  28.340  1.00  0.00     0.037 A 
BRANCH  49  63
ATOM     63  C   UNL A   1      39.773  28.846  29.088  1.00  0.00     0.064 A 
ATOM     64  C   UNL A   1      39.319  28.662  30.402  1.00  0.00     0.173 A 
ATOM     65  C   UNL A   1      38.860  29.332  28.140  1.00  0.00     0.173 A 
ATOM     66  F   UNL A   1      40.150  28.189  31.343  1.00  0.00    -0.203 F 
ATOM     67  C   UNL A   1      37.998  28.935  30.750  1.00  0.00     0.198 A 
ATOM     68  C   UNL A   1      37.548  29.630  28.498  1.00  0.00     0.198 A 
ATOM     69  F   UNL A   1      39.243  29.531  26.870  1.00  0.00    -0.203 F 
ATOM     70  F   UNL A   1      37.577  28.713  32.002  1.00  0.00    -0.200 F 
ATOM     71  C   UNL A   1      37.117  29.425  29.799  1.00  0.00     0.200 A 
ATOM     72  F   UNL A   1      36.699  30.117  27.581  1.00  0.00    -0.200 F 
ATOM     73  F   UNL A   1      35.849  29.698  30.138  1.00  0.00    -0.200 F 
ENDBRANCH  49  63
BRANCH  50  74
ATOM     74  C   UNL A   1      49.098  26.792  26.173  1.00  0.00     0.064 A 
ATOM     75  C   UNL A   1      49.460  26.992  24.833  1.00  0.00     0.173 A 
ATOM     76  C   UNL A   1      50.080  26.303  27.047  1.00  0.00     0.173 A 
ATOM     77  F   UNL A   1      48.550  27.439  23.954  1.00  0.00    -0.203 F 
ATOM     78  C   UNL A   1      50.741  26.689  24.379  1.00  0.00     0.198 A 
ATOM     79  C   UNL A   1      51.369  26.027  26.598  1.00  0.00     0.198 A 
ATOM     80  F   UNL A   1      49.787  26.100  28.340  1.00  0.00    -0.203 F 
ATOM     81  F   UNL A   1      51.045  26.842  23.083  1.00  0.00    -0.200 F 
ATOM     82  C   UNL A   1      51.696  26.211  25.263  1.00  0.00     0.200 A 
ATOM     83  F   UNL A   1      52.294  25.578  27.458  1.00  0.00    -0.200 F 
ATOM     84  F   UNL A   1      52.929  25.919  24.827  1.00  0.00    -0.200 F 
ENDBRANCH  50  74
BRANCH  62  85
ATOM     85  C   UNL A   1      45.962  32.505  28.626  1.00  0.00     0.064 A 
ATOM     86  C   UNL A   1      46.528  32.843  29.864  1.00  0.00     0.173 A 
ATOM     87  C   UNL A   1      45.908  33.496  27.634  1.00  0.00     0.173 A 
ATOM     88  F   UNL A   1      46.588  31.934  30.848  1.00  0.00    -0.203 F 
ATOM     89  C   UNL A   1      47.001  34.129  30.105  1.00  0.00     0.198 A 
ATOM     90  C   UNL A   1      46.408  34.773  27.870  1.00  0.00     0.198 A 
ATOM     91  F   UNL A   1      45.381  33.221  26.430  1.00  0.00    -0.203 F 
ATOM     92  F   UNL A   1      47.497  34.443  31.310  1.00  0.00    -0.200 F 
ATOM     93  C   UNL A   1      46.948  35.091  29.107  1.00  0.00     0.200 A 
ATOM     94  F   UNL A   1      46.367  35.697  26.900  1.00  0.00    -0.200 F 
ATOM     95  F   UNL A   1      47.411  36.327  29.339  1.00  0.00    -0.200 F 
ENDBRANCH  62  85
ENDBRANCH  36  37
ENDBRANCH  28  31
ENDBRANCH  26  27
ENDBRANCH  25  26
ENDBRANCH  24  25
ENDBRANCH   1  24
TORSDOF 15
ENDMDL
MODEL 3
REMARK VINA RESULT:     -12.4      5.382      9.980
REMARK SMILES O=Cc1cc(Cl)c(OCc2ccc(C(=O)NCCCCNC(=O)c3ccc(-c4c5nc(c(-c6c(F)c(F)c(F)c(F)c6F)c6ccc([nH]6)c(-c6c(F)c(F)c(F)c(F)c6F)c6nc(c(-c7c(F)c(F)c(F)c(F)c7F)c7ccc4[nH]7)C=C6)C=C5)cc3)cc2)c(Cl)c1
REMARK SMILES IDX 17 1 16 2 14 3 15 4 13 6 10 7 11 8 88 9 12 10 87 11 9 12
REMARK SMILES IDX 8 13 7 14 3 15 4 16 91 17 5 18 89 19 6 20 90 21 2 22 1 23
REMARK SMILES IDX 18 24 19 25 20 26 21 27 22 28 23 30 24 31 25 32 86 33 26 34
REMARK SMILES IDX 85 35 27 36 28 37 29 38 79 39 30 40 84 41 78 42 80 43 31 44
REMARK SMILES IDX 83 45 77 46 76 47 32 49 64 50 44 51 63 52 45 53 48 54 62 55
REMARK SMILES IDX 81 56 46 57 47 58 61 60 82 61 49 62 33 63 34 64 42 65 35 66
REMARK SMILES IDX 36 67 40 68 43 69 37 70 38 71 41 72 39 73 65 74 66 75 74 76
REMARK SMILES IDX 67 77 68 78 72 79 75 80 69 81 70 82 73 83 71 84 50 85 51 86
REMARK SMILES IDX 59 87 52 88 53 89 57 90 60 91 54 92 55 93 58 94 56 95
REMARK H PARENT 16 5 21 29 80 48 48 59
REMARK Flexibility Score: inf
ROOT
ATOM      1  C   UNL A   1      35.893  21.100  25.420  1.00  0.00     0.116 C 
ENDROOT
BRANCH   1   2
ATOM      2  N   UNL A   1      35.121  19.917  25.084  1.00  0.00    -0.352 N 
ATOM      3  C   UNL A   1      33.823  19.785  24.651  1.00  0.00     0.251 C 
ATOM      4  O   UNL A   1      33.418  18.670  24.328  1.00  0.00    -0.269 OA
ATOM      5  H   UNL A   1      35.609  19.067  25.183  1.00  0.00     0.163 HD
BRANCH   3   6
ATOM      6  C   UNL A   1      32.926  20.958  24.502  1.00  0.00     0.039 A 
ATOM      7  C   UNL A   1      31.404  23.299  24.155  1.00  0.00    -0.011 A 
ATOM      8  C   UNL A   1      32.104  22.745  23.077  1.00  0.00     0.008 A 
ATOM      9  C   UNL A   1      31.381  22.603  25.373  1.00  0.00     0.008 A 
ATOM     10  C   UNL A   1      32.865  21.584  23.251  1.00  0.00     0.014 A 
ATOM     11  C   UNL A   1      32.126  21.437  25.540  1.00  0.00     0.014 A 
BRANCH   7  12
ATOM     12  C   UNL A   1      30.646  24.602  24.034  1.00  0.00     0.265 C 
BRANCH  12  13
ATOM     13  O   UNL A   1      31.378  25.697  23.487  1.00  0.00    -0.486 OA
BRANCH  13  14
ATOM     14  C   UNL A   1      31.944  26.691  24.238  1.00  0.00     0.157 A 
ATOM     15  C   UNL A   1      32.805  28.989  25.645  1.00  0.00     0.017 A 
ATOM     16  C   UNL A   1      33.570  27.823  25.658  1.00  0.00     0.036 A 
ATOM     17  C   UNL A   1      31.595  29.019  24.965  1.00  0.00     0.036 A 
ATOM     18  C   UNL A   1      33.132  26.669  24.986  1.00  0.00     0.085 A 
ATOM     19  C   UNL A   1      31.180  27.882  24.266  1.00  0.00     0.085 A 
ATOM     20  Cl  UNL A   1      34.103  25.270  25.269  1.00  0.00    -0.080 Cl
ATOM     21  Cl  UNL A   1      29.665  27.997  23.425  1.00  0.00    -0.080 Cl
BRANCH  15  22
ATOM     22  C   UNL A   1      33.261  30.188  26.374  1.00  0.00     0.260 C 
ATOM     23  O   UNL A   1      33.057  30.326  27.573  1.00  0.00    -0.298 OA
ENDBRANCH  15  22
ENDBRANCH  13  14
ENDBRANCH  12  13
ENDBRANCH   7  12
ENDBRANCH   3   6
ENDBRANCH   1   2
BRANCH   1  24
ATOM     24  C   UNL A   1      37.240  21.106  24.693  1.00  0.00     0.023 C 
BRANCH  24  25
ATOM     25  C   UNL A   1      38.131  19.899  24.993  1.00  0.00     0.023 C 
BRANCH  25  26
ATOM     26  C   UNL A   1      39.264  20.160  25.979  1.00  0.00     0.116 C 
BRANCH  26  27
ATOM     27  N   UNL A   1      40.324  19.167  25.911  1.00  0.00    -0.352 N 
ATOM     28  C   UNL A   1      41.681  19.339  26.067  1.00  0.00     0.251 C 
ATOM     29  H   UNL A   1      40.032  18.245  25.727  1.00  0.00     0.163 HD
ATOM     30  O   UNL A   1      42.449  18.411  25.870  1.00  0.00    -0.269 OA
BRANCH  28  31
ATOM     31  C   UNL A   1      42.207  20.672  26.435  1.00  0.00     0.039 A 
ATOM     32  C   UNL A   1      42.638  21.526  25.416  1.00  0.00     0.014 A 
ATOM     33  C   UNL A   1      42.255  21.085  27.769  1.00  0.00     0.014 A 
ATOM     34  C   UNL A   1      43.052  22.821  25.729  1.00  0.00     0.010 A 
ATOM     35  C   UNL A   1      42.604  22.398  28.072  1.00  0.00     0.010 A 
ATOM     36  C   UNL A   1      43.002  23.280  27.055  1.00  0.00    -0.014 A 
BRANCH  36  37
ATOM     37  C   UNL A   1      43.348  24.681  27.397  1.00  0.00     0.031 A 
ATOM     38  C   UNL A   1      44.786  25.116  27.435  1.00  0.00     0.074 A 
ATOM     39  C   UNL A   1      42.372  25.543  27.741  1.00  0.00     0.049 A 
ATOM     40  N   UNL A   1      45.292  26.272  27.783  1.00  0.00    -0.248 NA
ATOM     41  C   UNL A   1      45.791  24.110  27.059  1.00  0.00     0.031 C 
ATOM     42  C   UNL A   1      40.943  25.224  27.793  1.00  0.00     0.029 A 
ATOM     43  N   UNL A   1      42.432  26.858  28.127  1.00  0.00    -0.354 N 
ATOM     44  C   UNL A   1      46.669  26.128  27.683  1.00  0.00     0.074 A 
ATOM     45  C   UNL A   1      46.924  24.759  27.288  1.00  0.00     0.031 C 
ATOM     46  C   UNL A   1      40.262  26.319  28.171  1.00  0.00     0.029 A 
ATOM     47  C   UNL A   1      41.206  27.404  28.421  1.00  0.00     0.049 A 
ATOM     48  H   UNL A   1      43.274  27.365  28.188  1.00  0.00     0.167 HD
ATOM     49  C   UNL A   1      47.632  27.059  27.881  1.00  0.00     0.037 A 
ATOM     50  C   UNL A   1      40.881  28.638  28.851  1.00  0.00     0.037 A 
ATOM     51  C   UNL A   1      47.374  28.428  28.243  1.00  0.00     0.049 A 
ATOM     52  C   UNL A   1      41.972  29.654  29.055  1.00  0.00     0.074 A 
ATOM     53  C   UNL A   1      48.279  29.463  28.400  1.00  0.00     0.029 A 
ATOM     54  N   UNL A   1      46.116  28.951  28.502  1.00  0.00    -0.354 N 
ATOM     55  N   UNL A   1      43.265  29.526  28.885  1.00  0.00    -0.248 NA
ATOM     56  C   UNL A   1      41.555  30.992  29.501  1.00  0.00     0.031 C 
ATOM     57  C   UNL A   1      47.572  30.605  28.796  1.00  0.00     0.029 A 
ATOM     58  C   UNL A   1      46.223  30.291  28.838  1.00  0.00     0.049 A 
ATOM     59  H   UNL A   1      45.273  28.446  28.455  1.00  0.00     0.167 HD
ATOM     60  C   UNL A   1      43.813  30.768  29.176  1.00  0.00     0.074 A 
ATOM     61  C   UNL A   1      42.711  31.642  29.518  1.00  0.00     0.031 C 
ATOM     62  C   UNL A   1      45.114  31.150  29.163  1.00  0.00     0.037 A 
BRANCH  49  63
ATOM     63  C   UNL A   1      49.059  26.633  27.702  1.00  0.00     0.064 A 
ATOM     64  C   UNL A   1      49.881  26.337  28.800  1.00  0.00     0.173 A 
ATOM     65  C   UNL A   1      49.598  26.470  26.417  1.00  0.00     0.173 A 
ATOM     66  F   UNL A   1      49.416  26.487  30.049  1.00  0.00    -0.203 F 
ATOM     67  C   UNL A   1      51.195  25.914  28.619  1.00  0.00     0.198 A 
ATOM     68  C   UNL A   1      50.904  26.020  26.239  1.00  0.00     0.198 A 
ATOM     69  F   UNL A   1      48.854  26.733  25.332  1.00  0.00    -0.203 F 
ATOM     70  F   UNL A   1      51.973  25.677  29.684  1.00  0.00    -0.200 F 
ATOM     71  C   UNL A   1      51.703  25.749  27.340  1.00  0.00     0.200 A 
ATOM     72  F   UNL A   1      51.390  25.848  25.001  1.00  0.00    -0.200 F 
ATOM     73  F   UNL A   1      52.964  25.331  27.167  1.00  0.00    -0.200 F 
ENDBRANCH  49  63
BRANCH  50  74
ATOM     74  C   UNL A   1      39.460  28.992  29.099  1.00  0.00     0.064 A 
ATOM     75  C   UNL A   1      38.904  28.881  30.381  1.00  0.00     0.173 A 
ATOM     76  C   UNL A   1      38.624  29.430  28.062  1.00  0.00     0.173 A 
ATOM     77  F   UNL A   1      39.658  28.446  31.402  1.00  0.00    -0.203 F 
ATOM     78  C   UNL A   1      37.561  29.171  30.613  1.00  0.00     0.198 A 
ATOM     79  C   UNL A   1      37.288  29.747  28.300  1.00  0.00     0.198 A 
ATOM     80  F   UNL A   1      39.108  29.559  26.818  1.00  0.00    -0.203 F 
ATOM     81  F   UNL A   1      37.044  29.008  31.838  1.00  0.00    -0.200 F 
ATOM     82  C   UNL A   1      36.756  29.608  29.573  1.00  0.00     0.200 A 
ATOM     83  F   UNL A   1      36.516  30.182  27.295  1.00  0.00    -0.200 F 
ATOM     84  F   UNL A   1      35.464  29.887  29.795  1.00  0.00    -0.200 F 
ENDBRANCH  50  74
BRANCH  62  85
ATOM     85  C   UNL A   1      45.413  32.583  29.491  1.00  0.00     0.064 A 
ATOM     86  C   UNL A   1      45.722  32.989  30.797  1.00  0.00     0.173 A 
ATOM     87  C   UNL A   1      45.428  33.554  28.478  1.00  0.00     0.173 A 
ATOM     88  F   UNL A   1      45.704  32.101  31.802  1.00  0.00    -0.203 F 
ATOM     89  C   UNL A   1      46.013  34.321  31.080  1.00  0.00     0.198 A 
ATOM     90  C   UNL A   1      45.748  34.878  28.760  1.00  0.00     0.198 A 
ATOM     91  F   UNL A   1      45.146  33.214  27.210  1.00  0.00    -0.203 F 
ATOM     92  F   UNL A   1      46.261  34.696  32.342  1.00  0.00    -0.200 F 
ATOM     93  C   UNL A   1      46.034  35.262  30.062  1.00  0.00     0.200 A 
ATOM     94  F   UNL A   1      45.780  35.784  27.773  1.00  0.00    -0.200 F 
ATOM     95  F   UNL A   1      46.322  36.542  30.336  1.00  0.00    -0.200 F 
ENDBRANCH  62  85
ENDBRANCH  36  37
ENDBRANCH  28  31
ENDBRANCH  26  27
ENDBRANCH  25  26
ENDBRANCH  24  25
ENDBRANCH   1  24
TORSDOF 15
ENDMDL
