MODEL 1
REMARK VINA RESULT:     -14.2      0.000      0.000
REMARK SMILES Cc1ccc(C)c([C@H]2[NH2+][C@@H](C(=O)NCCCCNC(=O)c3ccc(-c4c5nc(c(-c6c(F)c(F)c(F)c(F)c6F)c6ccc([nH]6)c(-c6c(F)c(F)c(F)c(F)c6F)c6nc(c(-c7c(F)c(F)c(F)c(F)c7F)c7ccc4[nH]7)C=C6)C=C5)cc3)Cc3c2[nH]c2ccccc32)c1
REMARK SMILES IDX 16 1 15 2 14 3 13 4 11 5 12 6 10 8 8 9 9 10 86 11 85 14
REMARK SMILES IDX 87 15 84 16 93 17 88 18 92 20 89 21 91 22 90 23 7 24 1 25
REMARK SMILES IDX 2 26 3 27 94 28 4 29 5 30 6 31 17 32 18 33 19 34 20 36 21 37
REMARK SMILES IDX 22 38 83 39 23 40 82 41 24 42 25 43 26 44 76 45 27 46 81 47
REMARK SMILES IDX 75 48 77 49 28 50 80 51 74 52 73 53 29 55 61 56 41 57 60 58
REMARK SMILES IDX 42 59 45 60 59 61 78 62 43 63 44 64 58 66 79 67 46 68 30 69
REMARK SMILES IDX 31 70 39 71 32 72 33 73 37 74 40 75 34 76 35 77 38 78 36 79
REMARK SMILES IDX 62 80 63 81 71 82 64 83 65 84 69 85 72 86 66 87 67 88 70 89
REMARK SMILES IDX 68 90 47 91 48 92 56 93 49 94 50 95 54 96 57 97 51 98 52 99
REMARK SMILES IDX 55 100 53 101
REMARK H PARENT 13 7 9 12 9 13 87 19 18 35 77 54 45 65
REMARK Flexibility Score: inf
ROOT
ATOM      1  C   UNL A   1      36.372  21.958  25.745  1.00  0.00     0.023 C 
ENDROOT
BRANCH   1   2
ATOM      2  C   UNL A   1      35.364  23.009  26.234  1.00  0.00     0.023 C 
BRANCH   2   3
ATOM      3  C   UNL A   1      34.017  22.972  25.512  1.00  0.00     0.116 C 
BRANCH   3   4
ATOM      4  N   UNL A   1      32.887  23.276  26.353  1.00  0.00    -0.351 N 
ATOM      5  C   UNL A   1      31.997  24.290  26.422  1.00  0.00     0.278 C 
ATOM      6  O   UNL A   1      31.086  24.130  27.250  1.00  0.00    -0.268 OA
ATOM      7  H   UNL A   1      32.726  22.586  27.036  1.00  0.00     0.163 HD
BRANCH   5   8
ATOM      8  C   UNL A   1      31.978  25.558  25.540  1.00  0.00     0.277 C 
ATOM      9  C   UNL A   1      33.225  27.734  25.384  1.00  0.00     0.262 C 
ATOM     10  N   UNL A   1      32.921  26.517  26.167  1.00  0.00    -0.325 N 
ATOM     11  C   UNL A   1      31.991  28.190  24.627  1.00  0.00     0.083 A 
ATOM     12  H   UNL A   1      32.520  26.811  27.058  1.00  0.00     0.347 HD
ATOM     13  H   UNL A   1      33.805  26.016  26.253  1.00  0.00     0.347 HD
ATOM     14  C   UNL A   1      30.818  27.471  24.522  1.00  0.00    -0.006 A 
ATOM     15  N   UNL A   1      31.829  29.322  23.861  1.00  0.00    -0.353 N 
ATOM     16  C   UNL A   1      30.630  26.220  25.283  1.00  0.00     0.114 C 
ATOM     17  C   UNL A   1      29.911  28.167  23.701  1.00  0.00     0.003 A 
ATOM     18  C   UNL A   1      30.553  29.343  23.313  1.00  0.00     0.046 A 
ATOM     19  H   UNL A   1      32.515  30.013  23.723  1.00  0.00     0.166 HD
ATOM     20  C   UNL A   1      28.593  27.913  23.280  1.00  0.00     0.010 A 
ATOM     21  C   UNL A   1      29.903  30.298  22.517  1.00  0.00     0.026 A 
ATOM     22  C   UNL A   1      27.938  28.852  22.486  1.00  0.00     0.001 A 
ATOM     23  C   UNL A   1      28.584  30.029  22.116  1.00  0.00     0.002 A 
BRANCH   9  24
ATOM     24  C   UNL A   1      33.850  28.721  26.378  1.00  0.00     0.019 A 
ATOM     25  C   UNL A   1      37.344  29.954  27.361  1.00  0.00     0.044 C 
ATOM     26  C   UNL A   1      35.851  29.823  27.298  1.00  0.00    -0.051 A 
ATOM     27  C   UNL A   1      35.042  30.737  27.969  1.00  0.00     0.004 A 
ATOM     28  C   UNL A   1      35.252  28.834  26.501  1.00  0.00     0.014 A 
ATOM     29  C   UNL A   1      33.656  30.653  27.864  1.00  0.00     0.004 A 
ATOM     30  C   UNL A   1      33.044  29.668  27.070  1.00  0.00    -0.042 A 
ATOM     31  C   UNL A   1      31.550  29.778  26.886  1.00  0.00     0.045 C 
ENDBRANCH   9  24
ENDBRANCH   5   8
ENDBRANCH   3   4
ENDBRANCH   2   3
ENDBRANCH   1   2
BRANCH   1  32
ATOM     32  C   UNL A   1      37.777  22.462  25.365  1.00  0.00     0.116 C 
BRANCH  32  33
ATOM     33  N   UNL A   1      38.884  21.826  26.105  1.00  0.00    -0.352 N 
ATOM     34  C   UNL A   1      40.019  22.381  26.707  1.00  0.00     0.251 C 
ATOM     35  H   UNL A   1      38.811  20.849  26.189  1.00  0.00     0.163 HD
ATOM     36  O   UNL A   1      41.019  21.710  26.887  1.00  0.00    -0.269 OA
BRANCH  34  37
ATOM     37  C   UNL A   1      39.978  23.777  27.201  1.00  0.00     0.039 A 
ATOM     38  C   UNL A   1      38.904  24.664  27.124  1.00  0.00     0.014 A 
ATOM     39  C   UNL A   1      41.155  24.241  27.718  1.00  0.00     0.014 A 
ATOM     40  C   UNL A   1      39.090  25.977  27.592  1.00  0.00     0.010 A 
ATOM     41  C   UNL A   1      41.100  25.249  28.620  1.00  0.00     0.010 A 
ATOM     42  C   UNL A   1      40.245  26.273  28.321  1.00  0.00    -0.014 A 
BRANCH  42  43
ATOM     43  C   UNL A   1      40.572  27.548  28.936  1.00  0.00     0.031 A 
ATOM     44  C   UNL A   1      41.706  28.230  28.287  1.00  0.00     0.074 A 
ATOM     45  C   UNL A   1      39.743  28.212  29.778  1.00  0.00     0.049 A 
ATOM     46  N   UNL A   1      42.909  28.344  28.736  1.00  0.00    -0.248 NA
ATOM     47  C   UNL A   1      41.537  28.679  26.896  1.00  0.00     0.031 C 
ATOM     48  C   UNL A   1      38.373  27.877  30.197  1.00  0.00     0.029 A 
ATOM     49  N   UNL A   1      39.938  29.420  30.377  1.00  0.00    -0.354 N 
ATOM     50  C   UNL A   1      43.591  29.080  27.777  1.00  0.00     0.074 A 
ATOM     51  C   UNL A   1      42.788  29.023  26.586  1.00  0.00     0.031 C 
ATOM     52  C   UNL A   1      37.802  28.950  30.799  1.00  0.00     0.029 A 
ATOM     53  C   UNL A   1      38.805  29.988  30.947  1.00  0.00     0.049 A 
ATOM     54  H   UNL A   1      40.820  29.859  30.405  1.00  0.00     0.167 HD
ATOM     55  C   UNL A   1      44.598  29.922  28.138  1.00  0.00     0.037 A 
ATOM     56  C   UNL A   1      38.707  31.246  31.451  1.00  0.00     0.037 A 
ATOM     57  C   UNL A   1      45.028  29.653  29.493  1.00  0.00     0.049 A 
ATOM     58  C   UNL A   1      40.090  31.732  31.708  1.00  0.00     0.074 A 
ATOM     59  C   UNL A   1      45.475  28.525  30.159  1.00  0.00     0.029 A 
ATOM     60  N   UNL A   1      44.626  30.521  30.483  1.00  0.00    -0.354 N 
ATOM     61  N   UNL A   1      40.879  31.229  32.618  1.00  0.00    -0.248 NA
ATOM     62  C   UNL A   1      40.758  32.436  30.621  1.00  0.00     0.031 C 
ATOM     63  C   UNL A   1      44.836  28.574  31.436  1.00  0.00     0.029 A 
ATOM     64  C   UNL A   1      44.115  29.765  31.507  1.00  0.00     0.049 A 
ATOM     65  H   UNL A   1      44.693  31.503  30.460  1.00  0.00     0.167 HD
ATOM     66  C   UNL A   1      42.121  31.159  32.004  1.00  0.00     0.074 A 
ATOM     67  C   UNL A   1      42.001  31.982  30.802  1.00  0.00     0.031 C 
ATOM     68  C   UNL A   1      43.028  30.200  32.353  1.00  0.00     0.037 A 
BRANCH  55  69
ATOM     69  C   UNL A   1      44.921  31.220  27.435  1.00  0.00     0.064 A 
ATOM     70  C   UNL A   1      46.202  31.377  26.872  1.00  0.00     0.173 A 
ATOM     71  C   UNL A   1      44.154  32.404  27.529  1.00  0.00     0.173 A 
ATOM     72  F   UNL A   1      47.023  30.326  26.740  1.00  0.00    -0.203 F 
ATOM     73  C   UNL A   1      46.709  32.632  26.524  1.00  0.00     0.198 A 
ATOM     74  C   UNL A   1      44.641  33.645  27.126  1.00  0.00     0.198 A 
ATOM     75  F   UNL A   1      42.953  32.444  28.113  1.00  0.00    -0.203 F 
ATOM     76  F   UNL A   1      47.982  32.745  26.126  1.00  0.00    -0.200 F 
ATOM     77  C   UNL A   1      45.931  33.766  26.658  1.00  0.00     0.200 A 
ATOM     78  F   UNL A   1      43.873  34.734  27.277  1.00  0.00    -0.200 F 
ATOM     79  F   UNL A   1      46.435  34.976  26.387  1.00  0.00    -0.200 F 
ENDBRANCH  55  69
BRANCH  56  80
ATOM     80  C   UNL A   1      37.559  32.178  31.339  1.00  0.00     0.064 A 
ATOM     81  C   UNL A   1      37.242  32.804  30.123  1.00  0.00     0.173 A 
ATOM     82  C   UNL A   1      36.578  32.239  32.350  1.00  0.00     0.173 A 
ATOM     83  F   UNL A   1      38.098  32.748  29.092  1.00  0.00    -0.203 F 
ATOM     84  C   UNL A   1      36.010  33.437  29.923  1.00  0.00     0.198 A 
ATOM     85  C   UNL A   1      35.351  32.870  32.148  1.00  0.00     0.198 A 
ATOM     86  F   UNL A   1      36.751  31.593  33.512  1.00  0.00    -0.203 F 
ATOM     87  F   UNL A   1      35.721  33.983  28.732  1.00  0.00    -0.200 F 
ATOM     88  C   UNL A   1      35.061  33.459  30.932  1.00  0.00     0.200 A 
ATOM     89  F   UNL A   1      34.427  32.859  33.120  1.00  0.00    -0.200 F 
ATOM     90  F   UNL A   1      33.865  34.029  30.728  1.00  0.00    -0.200 F 
ENDBRANCH  56  80
BRANCH  68  91
ATOM     91  C   UNL A   1      42.753  29.380  33.585  1.00  0.00     0.064 A 
ATOM     92  C   UNL A   1      42.009  28.186  33.593  1.00  0.00     0.173 A 
ATOM     93  C   UNL A   1      43.392  29.743  34.778  1.00  0.00     0.173 A 
ATOM     94  F   UNL A   1      41.450  27.712  32.475  1.00  0.00    -0.203 F 
ATOM     95  C   UNL A   1      41.879  27.418  34.751  1.00  0.00     0.198 A 
ATOM     96  C   UNL A   1      43.290  28.957  35.923  1.00  0.00     0.198 A 
ATOM     97  F   UNL A   1      44.158  30.844  34.819  1.00  0.00    -0.203 F 
ATOM     98  F   UNL A   1      41.155  26.290  34.732  1.00  0.00    -0.200 F 
ATOM     99  C   UNL A   1      42.526  27.801  35.913  1.00  0.00     0.200 A 
ATOM    100  F   UNL A   1      43.957  29.307  37.030  1.00  0.00    -0.200 F 
ATOM    101  F   UNL A   1      42.436  27.044  37.015  1.00  0.00    -0.200 F 
ENDBRANCH  68  91
ENDBRANCH  42  43
ENDBRANCH  34  37
ENDBRANCH  32  33
ENDBRANCH   1  32
TORSDOF 12
ENDMDL
MODEL 2
REMARK VINA RESULT:     -13.9      1.297      3.154
REMARK SMILES Cc1ccc(C)c([C@H]2[NH2+][C@@H](C(=O)NCCCCNC(=O)c3ccc(-c4c5nc(c(-c6c(F)c(F)c(F)c(F)c6F)c6ccc([nH]6)c(-c6c(F)c(F)c(F)c(F)c6F)c6nc(c(-c7c(F)c(F)c(F)c(F)c7F)c7ccc4[nH]7)C=C6)C=C5)cc3)Cc3c2[nH]c2ccccc32)c1
REMARK SMILES IDX 16 1 15 2 14 3 13 4 11 5 12 6 10 8 8 9 9 10 86 11 85 14
REMARK SMILES IDX 87 15 84 16 93 17 88 18 92 20 89 21 91 22 90 23 7 24 1 25
REMARK SMILES IDX 2 26 3 27 94 28 4 29 5 30 6 31 17 32 18 33 19 34 20 36 21 37
REMARK SMILES IDX 22 38 83 39 23 40 82 41 24 42 25 43 26 44 76 45 27 46 81 47
REMARK SMILES IDX 75 48 77 49 28 50 80 51 74 52 73 53 29 55 61 56 41 57 60 58
REMARK SMILES IDX 42 59 45 60 59 61 78 62 43 63 44 64 58 66 79 67 46 68 30 69
REMARK SMILES IDX 31 70 39 71 32 72 33 73 37 74 40 75 34 76 35 77 38 78 36 79
REMARK SMILES IDX 62 80 63 81 71 82 64 83 65 84 69 85 72 86 66 87 67 88 70 89
REMARK SMILES IDX 68 90 47 91 48 92 56 93 49 94 50 95 54 96 57 97 51 98 52 99
REMARK SMILES IDX 55 100 53 101
REMARK H PARENT 13 7 9 12 9 13 87 19 18 35 77 54 45 65
REMARK Flexibility Score: inf
ROOT
ATOM      1  C   UNL A   1      35.555  23.154  25.182  1.00  0.00     0.023 C 
ENDROOT
BRANCH   1   2
ATOM      2  C   UNL A   1      35.150  22.802  23.741  1.00  0.00     0.023 C 
BRANCH   2   3
ATOM      3  C   UNL A   1      33.694  23.121  23.403  1.00  0.00     0.116 C 
BRANCH   3   4
ATOM      4  N   UNL A   1      33.532  24.112  22.369  1.00  0.00    -0.351 N 
ATOM      5  C   UNL A   1      33.218  25.426  22.351  1.00  0.00     0.278 C 
ATOM      6  O   UNL A   1      33.278  25.961  21.232  1.00  0.00    -0.268 OA
ATOM      7  H   UNL A   1      33.686  23.748  21.468  1.00  0.00     0.163 HD
BRANCH   5   8
ATOM      8  C   UNL A   1      32.871  26.305  23.572  1.00  0.00     0.277 C 
ATOM      9  C   UNL A   1      30.888  27.577  24.444  1.00  0.00     0.262 C 
ATOM     10  N   UNL A   1      31.520  26.862  23.314  1.00  0.00    -0.325 N 
ATOM     11  C   UNL A   1      31.936  28.334  25.236  1.00  0.00     0.083 A 
ATOM     12  H   UNL A   1      31.596  27.514  22.534  1.00  0.00     0.347 HD
ATOM     13  H   UNL A   1      30.922  26.057  23.129  1.00  0.00     0.347 HD
ATOM     14  C   UNL A   1      33.300  28.217  25.057  1.00  0.00    -0.006 A 
ATOM     15  N   UNL A   1      31.752  29.190  26.298  1.00  0.00    -0.353 N 
ATOM     16  C   UNL A   1      33.847  27.414  23.945  1.00  0.00     0.114 C 
ATOM     17  C   UNL A   1      33.970  29.018  26.000  1.00  0.00     0.003 A 
ATOM     18  C   UNL A   1      32.981  29.645  26.758  1.00  0.00     0.046 A 
ATOM     19  H   UNL A   1      30.878  29.443  26.674  1.00  0.00     0.166 HD
ATOM     20  C   UNL A   1      35.327  29.286  26.254  1.00  0.00     0.010 A 
ATOM     21  C   UNL A   1      33.310  30.559  27.770  1.00  0.00     0.026 A 
ATOM     22  C   UNL A   1      35.667  30.191  27.259  1.00  0.00     0.001 A 
ATOM     23  C   UNL A   1      34.670  30.821  28.000  1.00  0.00     0.002 A 
BRANCH   9  24
ATOM     24  C   UNL A   1      29.742  28.391  23.828  1.00  0.00     0.019 A 
ATOM     25  C   UNL A   1      29.258  31.774  22.089  1.00  0.00     0.044 C 
ATOM     26  C   UNL A   1      28.972  30.411  22.648  1.00  0.00    -0.051 A 
ATOM     27  C   UNL A   1      27.739  29.806  22.412  1.00  0.00     0.004 A 
ATOM     28  C   UNL A   1      29.964  29.697  23.340  1.00  0.00     0.014 A 
ATOM     29  C   UNL A   1      27.492  28.518  22.879  1.00  0.00     0.004 A 
ATOM     30  C   UNL A   1      28.477  27.793  23.573  1.00  0.00    -0.042 A 
ATOM     31  C   UNL A   1      28.166  26.347  23.876  1.00  0.00     0.045 C 
ENDBRANCH   9  24
ENDBRANCH   5   8
ENDBRANCH   3   4
ENDBRANCH   2   3
ENDBRANCH   1   2
BRANCH   1  32
ATOM     32  C   UNL A   1      36.982  23.695  25.393  1.00  0.00     0.116 C 
BRANCH  32  33
ATOM     33  N   UNL A   1      37.885  22.788  26.126  1.00  0.00    -0.352 N 
ATOM     34  C   UNL A   1      39.190  22.981  26.595  1.00  0.00     0.251 C 
ATOM     35  H   UNL A   1      37.507  21.900  26.317  1.00  0.00     0.163 HD
ATOM     36  O   UNL A   1      39.930  22.032  26.783  1.00  0.00    -0.269 OA
BRANCH  34  37
ATOM     37  C   UNL A   1      39.651  24.345  26.941  1.00  0.00     0.039 A 
ATOM     38  C   UNL A   1      40.369  25.221  26.126  1.00  0.00     0.014 A 
ATOM     39  C   UNL A   1      39.393  24.733  28.226  1.00  0.00     0.014 A 
ATOM     40  C   UNL A   1      40.776  26.453  26.668  1.00  0.00     0.010 A 
ATOM     41  C   UNL A   1      39.301  26.059  28.483  1.00  0.00     0.010 A 
ATOM     42  C   UNL A   1      40.252  26.850  27.902  1.00  0.00    -0.014 A 
BRANCH  42  43
ATOM     43  C   UNL A   1      40.504  28.110  28.578  1.00  0.00     0.031 A 
ATOM     44  C   UNL A   1      41.665  28.837  28.034  1.00  0.00     0.074 A 
ATOM     45  C   UNL A   1      39.602  28.729  29.379  1.00  0.00     0.049 A 
ATOM     46  N   UNL A   1      42.830  28.961  28.571  1.00  0.00    -0.248 NA
ATOM     47  C   UNL A   1      41.585  29.328  26.649  1.00  0.00     0.031 C 
ATOM     48  C   UNL A   1      38.214  28.352  29.688  1.00  0.00     0.029 A 
ATOM     49  N   UNL A   1      39.726  29.920  30.027  1.00  0.00    -0.354 N 
ATOM     50  C   UNL A   1      43.561  29.743  27.687  1.00  0.00     0.074 A 
ATOM     51  C   UNL A   1      42.846  29.708  26.440  1.00  0.00     0.031 C 
ATOM     52  C   UNL A   1      37.577  29.391  30.280  1.00  0.00     0.029 A 
ATOM     53  C   UNL A   1      38.542  30.445  30.533  1.00  0.00     0.049 A 
ATOM     54  H   UNL A   1      40.593  30.376  30.133  1.00  0.00     0.167 HD
ATOM     55  C   UNL A   1      44.520  30.593  28.146  1.00  0.00     0.037 A 
ATOM     56  C   UNL A   1      38.379  31.683  31.068  1.00  0.00     0.037 A 
ATOM     57  C   UNL A   1      44.859  30.289  29.519  1.00  0.00     0.049 A 
ATOM     58  C   UNL A   1      39.729  32.189  31.438  1.00  0.00     0.074 A 
ATOM     59  C   UNL A   1      45.284  29.150  30.180  1.00  0.00     0.029 A 
ATOM     60  N   UNL A   1      44.368  31.115  30.505  1.00  0.00    -0.354 N 
ATOM     61  N   UNL A   1      40.463  31.673  32.386  1.00  0.00    -0.248 NA
ATOM     62  C   UNL A   1      40.456  32.943  30.425  1.00  0.00     0.031 C 
ATOM     63  C   UNL A   1      44.555  29.142  31.409  1.00  0.00     0.029 A 
ATOM     64  C   UNL A   1      43.803  30.315  31.465  1.00  0.00     0.049 A 
ATOM     65  H   UNL A   1      44.413  32.098  30.517  1.00  0.00     0.167 HD
ATOM     66  C   UNL A   1      41.746  31.649  31.861  1.00  0.00     0.074 A 
ATOM     67  C   UNL A   1      41.693  32.510  30.680  1.00  0.00     0.031 C 
ATOM     68  C   UNL A   1      42.648  30.699  32.244  1.00  0.00     0.037 A 
BRANCH  55  69
ATOM     69  C   UNL A   1      44.861  31.921  27.509  1.00  0.00     0.064 A 
ATOM     70  C   UNL A   1      46.117  32.062  26.885  1.00  0.00     0.173 A 
ATOM     71  C   UNL A   1      44.154  33.126  27.720  1.00  0.00     0.173 A 
ATOM     72  F   UNL A   1      46.882  30.988  26.640  1.00  0.00    -0.203 F 
ATOM     73  C   UNL A   1      46.659  33.315  26.589  1.00  0.00     0.198 A 
ATOM     74  C   UNL A   1      44.673  34.370  27.369  1.00  0.00     0.198 A 
ATOM     75  F   UNL A   1      42.990  33.177  28.374  1.00  0.00    -0.203 F 
ATOM     76  F   UNL A   1      47.912  33.402  26.126  1.00  0.00    -0.200 F 
ATOM     77  C   UNL A   1      45.941  34.468  26.838  1.00  0.00     0.200 A 
ATOM     78  F   UNL A   1      43.963  35.477  27.632  1.00  0.00    -0.200 F 
ATOM     79  F   UNL A   1      46.482  35.672  26.615  1.00  0.00    -0.200 F 
ENDBRANCH  55  69
BRANCH  56  80
ATOM     80  C   UNL A   1      37.220  32.594  30.903  1.00  0.00     0.064 A 
ATOM     81  C   UNL A   1      36.929  33.190  29.665  1.00  0.00     0.173 A 
ATOM     82  C   UNL A   1      36.210  32.660  31.883  1.00  0.00     0.173 A 
ATOM     83  F   UNL A   1      37.816  33.126  28.660  1.00  0.00    -0.203 F 
ATOM     84  C   UNL A   1      35.694  33.798  29.416  1.00  0.00     0.198 A 
ATOM     85  C   UNL A   1      34.980  33.267  31.633  1.00  0.00     0.198 A 
ATOM     86  F   UNL A   1      36.360  32.042  33.063  1.00  0.00    -0.203 F 
ATOM     87  F   UNL A   1      35.431  34.314  28.206  1.00  0.00    -0.200 F 
ATOM     88  C   UNL A   1      34.716  33.826  30.397  1.00  0.00     0.200 A 
ATOM     89  F   UNL A   1      34.028  33.262  32.578  1.00  0.00    -0.200 F 
ATOM     90  F   UNL A   1      33.518  34.372  30.146  1.00  0.00    -0.200 F 
ENDBRANCH  56  80
BRANCH  68  91
ATOM     91  C   UNL A   1      42.306  29.834  33.427  1.00  0.00     0.064 A 
ATOM     92  C   UNL A   1      41.703  28.566  33.334  1.00  0.00     0.173 A 
ATOM     93  C   UNL A   1      42.739  30.244  34.694  1.00  0.00     0.173 A 
ATOM     94  F   UNL A   1      41.351  28.053  32.150  1.00  0.00    -0.203 F 
ATOM     95  C   UNL A   1      41.507  27.769  34.462  1.00  0.00     0.198 A 
ATOM     96  C   UNL A   1      42.574  29.432  35.814  1.00  0.00     0.198 A 
ATOM     97  F   UNL A   1      43.368  31.420  34.840  1.00  0.00    -0.203 F 
ATOM     98  F   UNL A   1      40.920  26.569  34.344  1.00  0.00    -0.200 F 
ATOM     99  C   UNL A   1      41.950  28.200  35.700  1.00  0.00     0.200 A 
ATOM    100  F   UNL A   1      43.048  29.833  37.001  1.00  0.00    -0.200 F 
ATOM    101  F   UNL A   1      41.800  27.419  36.778  1.00  0.00    -0.200 F 
ENDBRANCH  68  91
ENDBRANCH  42  43
ENDBRANCH  34  37
ENDBRANCH  32  33
ENDBRANCH   1  32
TORSDOF 12
ENDMDL
MODEL 3
REMARK VINA RESULT:     -13.8      2.134      4.284
REMARK SMILES Cc1ccc(C)c([C@H]2[NH2+][C@@H](C(=O)NCCCCNC(=O)c3ccc(-c4c5nc(c(-c6c(F)c(F)c(F)c(F)c6F)c6ccc([nH]6)c(-c6c(F)c(F)c(F)c(F)c6F)c6nc(c(-c7c(F)c(F)c(F)c(F)c7F)c7ccc4[nH]7)C=C6)C=C5)cc3)Cc3c2[nH]c2ccccc32)c1
REMARK SMILES IDX 16 1 15 2 14 3 13 4 11 5 12 6 10 8 8 9 9 10 86 11 85 14
REMARK SMILES IDX 87 15 84 16 93 17 88 18 92 20 89 21 91 22 90 23 7 24 1 25
REMARK SMILES IDX 2 26 3 27 94 28 4 29 5 30 6 31 17 32 18 33 19 34 20 36 21 37
REMARK SMILES IDX 22 38 83 39 23 40 82 41 24 42 25 43 26 44 76 45 27 46 81 47
REMARK SMILES IDX 75 48 77 49 28 50 80 51 74 52 73 53 29 55 61 56 41 57 60 58
REMARK SMILES IDX 42 59 45 60 59 61 78 62 43 63 44 64 58 66 79 67 46 68 30 69
REMARK SMILES IDX 31 70 39 71 32 72 33 73 37 74 40 75 34 76 35 77 38 78 36 79
REMARK SMILES IDX 62 80 63 81 71 82 64 83 65 84 69 85 72 86 66 87 67 88 70 89
REMARK SMILES IDX 68 90 47 91 48 92 56 93 49 94 50 95 54 96 57 97 51 98 52 99
REMARK SMILES IDX 55 100 53 101
REMARK H PARENT 13 7 9 12 9 13 87 19 18 35 77 54 45 65
REMARK Flexibility Score: inf
ROOT
ATOM      1  C   UNL A   1      41.120  21.725  28.032  1.00  0.00     0.023 C 
ENDROOT
BRANCH   1   2
ATOM      2  C   UNL A   1      40.654  20.791  26.904  1.00  0.00     0.023 C 
BRANCH   2   3
ATOM      3  C   UNL A   1      39.743  21.457  25.873  1.00  0.00     0.116 C 
BRANCH   3   4
ATOM      4  N   UNL A   1      39.223  22.737  26.284  1.00  0.00    -0.351 N 
ATOM      5  C   UNL A   1      38.077  23.415  26.061  1.00  0.00     0.278 C 
ATOM      6  O   UNL A   1      37.966  24.478  26.693  1.00  0.00    -0.268 OA
ATOM      7  H   UNL A   1      39.848  23.231  26.862  1.00  0.00     0.163 HD
BRANCH   5   8
ATOM      8  C   UNL A   1      36.900  22.961  25.169  1.00  0.00     0.277 C 
ATOM      9  C   UNL A   1      34.972  24.020  23.955  1.00  0.00     0.262 C 
ATOM     10  N   UNL A   1      36.055  24.162  24.952  1.00  0.00    -0.325 N 
ATOM     11  C   UNL A   1      34.389  22.620  24.012  1.00  0.00     0.083 A 
ATOM     12  H   UNL A   1      35.628  24.408  25.845  1.00  0.00     0.347 HD
ATOM     13  H   UNL A   1      36.682  24.875  24.578  1.00  0.00     0.347 HD
ATOM     14  C   UNL A   1      34.917  21.573  24.739  1.00  0.00    -0.006 A 
ATOM     15  N   UNL A   1      33.313  22.114  23.319  1.00  0.00    -0.353 N 
ATOM     16  C   UNL A   1      36.055  21.791  25.655  1.00  0.00     0.114 C 
ATOM     17  C   UNL A   1      34.156  20.411  24.514  1.00  0.00     0.003 A 
ATOM     18  C   UNL A   1      33.133  20.774  23.637  1.00  0.00     0.046 A 
ATOM     19  H   UNL A   1      32.753  22.627  22.692  1.00  0.00     0.166 HD
ATOM     20  C   UNL A   1      34.230  19.095  25.002  1.00  0.00     0.010 A 
ATOM     21  C   UNL A   1      32.156  19.851  23.237  1.00  0.00     0.026 A 
ATOM     22  C   UNL A   1      33.266  18.167  24.609  1.00  0.00     0.001 A 
ATOM     23  C   UNL A   1      32.243  18.544  23.744  1.00  0.00     0.002 A 
BRANCH   9  24
ATOM     24  C   UNL A   1      34.018  25.194  24.211  1.00  0.00     0.019 A 
ATOM     25  C   UNL A   1      33.431  27.860  26.903  1.00  0.00     0.044 C 
ATOM     26  C   UNL A   1      33.308  27.080  25.627  1.00  0.00    -0.051 A 
ATOM     27  C   UNL A   1      32.495  27.550  24.598  1.00  0.00     0.004 A 
ATOM     28  C   UNL A   1      34.070  25.918  25.422  1.00  0.00     0.014 A 
ATOM     29  C   UNL A   1      32.425  26.859  23.392  1.00  0.00     0.004 A 
ATOM     30  C   UNL A   1      33.182  25.695  23.174  1.00  0.00    -0.042 A 
ATOM     31  C   UNL A   1      33.167  25.129  21.775  1.00  0.00     0.045 C 
ENDBRANCH   9  24
ENDBRANCH   5   8
ENDBRANCH   3   4
ENDBRANCH   2   3
ENDBRANCH   1   2
BRANCH   1  32
ATOM     32  C   UNL A   1      42.628  22.033  28.107  1.00  0.00     0.116 C 
BRANCH  32  33
ATOM     33  N   UNL A   1      43.250  22.392  26.818  1.00  0.00    -0.352 N 
ATOM     34  C   UNL A   1      43.012  23.470  25.958  1.00  0.00     0.251 C 
ATOM     35  H   UNL A   1      43.948  21.769  26.513  1.00  0.00     0.163 HD
ATOM     36  O   UNL A   1      43.282  23.392  24.772  1.00  0.00    -0.269 OA
BRANCH  34  37
ATOM     37  C   UNL A   1      42.499  24.746  26.506  1.00  0.00     0.039 A 
ATOM     38  C   UNL A   1      41.316  25.397  26.153  1.00  0.00     0.014 A 
ATOM     39  C   UNL A   1      43.327  25.366  27.399  1.00  0.00     0.014 A 
ATOM     40  C   UNL A   1      41.040  26.643  26.743  1.00  0.00     0.010 A 
ATOM     41  C   UNL A   1      42.773  26.208  28.302  1.00  0.00     0.010 A 
ATOM     42  C   UNL A   1      41.826  27.066  27.818  1.00  0.00    -0.014 A 
BRANCH  42  43
ATOM     43  C   UNL A   1      41.646  28.284  28.588  1.00  0.00     0.031 A 
ATOM     44  C   UNL A   1      42.623  29.334  28.248  1.00  0.00     0.074 A 
ATOM     45  C   UNL A   1      40.522  28.573  29.290  1.00  0.00     0.049 A 
ATOM     46  N   UNL A   1      43.639  29.711  28.946  1.00  0.00    -0.248 NA
ATOM     47  C   UNL A   1      42.577  29.907  26.893  1.00  0.00     0.031 C 
ATOM     48  C   UNL A   1      39.262  27.821  29.385  1.00  0.00     0.029 A 
ATOM     49  N   UNL A   1      40.242  29.693  30.011  1.00  0.00    -0.354 N 
ATOM     50  C   UNL A   1      44.230  30.732  28.213  1.00  0.00     0.074 A 
ATOM     51  C   UNL A   1      43.704  30.621  26.880  1.00  0.00     0.031 C 
ATOM     52  C   UNL A   1      38.302  28.602  29.938  1.00  0.00     0.029 A 
ATOM     53  C   UNL A   1      38.909  29.844  30.377  1.00  0.00     0.049 A 
ATOM     54  H   UNL A   1      40.934  30.350  30.258  1.00  0.00     0.167 HD
ATOM     55  C   UNL A   1      44.863  31.759  28.844  1.00  0.00     0.037 A 
ATOM     56  C   UNL A   1      38.356  30.945  30.949  1.00  0.00     0.037 A 
ATOM     57  C   UNL A   1      45.106  31.435  30.233  1.00  0.00     0.049 A 
ATOM     58  C   UNL A   1      39.464  31.752  31.527  1.00  0.00     0.074 A 
ATOM     59  C   UNL A   1      45.742  30.392  30.884  1.00  0.00     0.029 A 
ATOM     60  N   UNL A   1      44.297  32.014  31.184  1.00  0.00    -0.354 N 
ATOM     61  N   UNL A   1      40.193  31.364  32.538  1.00  0.00    -0.248 NA
ATOM     62  C   UNL A   1      40.074  32.755  30.665  1.00  0.00     0.031 C 
ATOM     63  C   UNL A   1      44.903  30.087  31.999  1.00  0.00     0.029 A 
ATOM     64  C   UNL A   1      43.861  31.013  32.014  1.00  0.00     0.049 A 
ATOM     65  H   UNL A   1      44.073  32.970  31.254  1.00  0.00     0.167 HD
ATOM     66  C   UNL A   1      41.488  31.723  32.194  1.00  0.00     0.074 A 
ATOM     67  C   UNL A   1      41.344  32.640  31.064  1.00  0.00     0.031 C 
ATOM     68  C   UNL A   1      42.561  31.011  32.646  1.00  0.00     0.037 A 
BRANCH  55  69
ATOM     69  C   UNL A   1      44.904  33.180  28.331  1.00  0.00     0.064 A 
ATOM     70  C   UNL A   1      46.161  33.773  28.101  1.00  0.00     0.173 A 
ATOM     71  C   UNL A   1      43.807  34.071  28.323  1.00  0.00     0.173 A 
ATOM     72  F   UNL A   1      47.276  33.028  28.093  1.00  0.00    -0.203 F 
ATOM     73  C   UNL A   1      46.315  35.156  27.973  1.00  0.00     0.198 A 
ATOM     74  C   UNL A   1      43.958  35.443  28.136  1.00  0.00     0.198 A 
ATOM     75  F   UNL A   1      42.559  33.686  28.607  1.00  0.00    -0.203 F 
ATOM     76  F   UNL A   1      47.544  35.681  27.897  1.00  0.00    -0.200 F 
ATOM     77  C   UNL A   1      45.215  35.991  27.999  1.00  0.00     0.200 A 
ATOM     78  F   UNL A   1      42.877  36.235  28.177  1.00  0.00    -0.200 F 
ATOM     79  F   UNL A   1      45.364  37.319  27.941  1.00  0.00    -0.200 F 
ENDBRANCH  55  69
BRANCH  56  80
ATOM     80  C   UNL A   1      37.021  31.533  30.675  1.00  0.00     0.064 A 
ATOM     81  C   UNL A   1      36.100  31.767  31.708  1.00  0.00     0.173 A 
ATOM     82  C   UNL A   1      36.745  32.146  29.437  1.00  0.00     0.173 A 
ATOM     83  F   UNL A   1      36.315  31.263  32.932  1.00  0.00    -0.203 F 
ATOM     84  C   UNL A   1      34.978  32.583  31.519  1.00  0.00     0.198 A 
ATOM     85  C   UNL A   1      35.626  32.959  29.251  1.00  0.00     0.198 A 
ATOM     86  F   UNL A   1      37.612  32.056  28.419  1.00  0.00    -0.203 F 
ATOM     87  F   UNL A   1      34.144  32.825  32.542  1.00  0.00    -0.200 F 
ATOM     88  C   UNL A   1      34.749  33.187  30.294  1.00  0.00     0.200 A 
ATOM     89  F   UNL A   1      35.430  33.565  28.070  1.00  0.00    -0.200 F 
ATOM     90  F   UNL A   1      33.698  34.002  30.124  1.00  0.00    -0.200 F 
ENDBRANCH  56  80
BRANCH  68  91
ATOM     91  C   UNL A   1      42.329  29.986  33.723  1.00  0.00     0.064 A 
ATOM     92  C   UNL A   1      41.977  28.647  33.479  1.00  0.00     0.173 A 
ATOM     93  C   UNL A   1      42.617  30.341  35.047  1.00  0.00     0.173 A 
ATOM     94  F   UNL A   1      41.783  28.198  32.235  1.00  0.00    -0.203 F 
ATOM     95  C   UNL A   1      41.878  27.720  34.518  1.00  0.00     0.198 A 
ATOM     96  C   UNL A   1      42.551  29.406  36.078  1.00  0.00     0.198 A 
ATOM     97  F   UNL A   1      43.009  31.591  35.337  1.00  0.00    -0.203 F 
ATOM     98  F   UNL A   1      41.530  26.451  34.257  1.00  0.00    -0.200 F 
ATOM     99  C   UNL A   1      42.173  28.099  35.815  1.00  0.00     0.200 A 
ATOM    100  F   UNL A   1      42.885  29.767  37.324  1.00  0.00    -0.200 F 
ATOM    101  F   UNL A   1      42.118  27.201  36.809  1.00  0.00    -0.200 F 
ENDBRANCH  68  91
ENDBRANCH  42  43
ENDBRANCH  34  37
ENDBRANCH  32  33
ENDBRANCH   1  32
TORSDOF 12
ENDMDL
