MODEL 1
REMARK VINA RESULT:     -11.7      0.000      0.000
REMARK SMILES O=C(NCCCCNC(=O)c1cncc(OCCCc2ccccc2)n1)c1ccc(-c2c3nc(c(-c4c(F)c(F)c(F)c(F)c4F)c4ccc([nH]4)c(-c4c(F)c(F)c(F)c(F)c4F)c4nc(c(-c5c(F)c(F)c(F)c(F)c5F)c5ccc2[nH]5)C=C4)C=C3)cc1
REMARK SMILES IDX 7 1 6 2 5 3 4 4 3 5 1 6 2 7 27 9 28 10 89 11 29 12 88 13
REMARK SMILES IDX 30 14 31 15 32 16 82 17 33 18 87 19 81 20 83 21 34 22 86 23
REMARK SMILES IDX 80 24 79 25 35 27 67 28 47 29 66 30 48 31 51 32 65 33 84 34
REMARK SMILES IDX 49 35 50 36 64 38 85 39 52 40 36 41 37 42 45 43 38 44 39 45
REMARK SMILES IDX 43 46 46 47 40 48 41 49 44 50 42 51 68 52 69 53 77 54 70 55
REMARK SMILES IDX 71 56 75 57 78 58 72 59 73 60 76 61 74 62 53 63 54 64 62 65
REMARK SMILES IDX 55 66 56 67 60 68 63 69 57 70 58 71 61 72 59 73 8 74 9 75
REMARK SMILES IDX 10 77 11 78 12 79 26 80 13 81 15 82 14 83 16 84 17 85 18 86
REMARK SMILES IDX 19 87 20 88 21 89 25 90 22 91 24 92 23 93
REMARK H PARENT 3 8 83 26 51 37 8 76
REMARK Flexibility Score: inf
ROOT
ATOM      1  C   UNL A   1      32.784  29.774  26.019  1.00  0.00     0.116 C 
ENDROOT
BRANCH   1   2
ATOM      2  C   UNL A   1      31.477  30.501  25.723  1.00  0.00     0.023 C 
BRANCH   2   3
ATOM      3  C   UNL A   1      31.287  31.847  26.423  1.00  0.00     0.023 C 
BRANCH   3   4
ATOM      4  C   UNL A   1      32.534  32.449  27.059  1.00  0.00     0.116 C 
BRANCH   4   5
ATOM      5  N   UNL A   1      32.352  33.826  27.492  1.00  0.00    -0.352 N 
ATOM      6  O   UNL A   1      32.674  35.682  28.731  1.00  0.00    -0.269 OA
ATOM      7  C   UNL A   1      33.052  34.553  28.425  1.00  0.00     0.251 C 
ATOM      8  H   UNL A   1      31.618  34.310  27.050  1.00  0.00     0.163 HD
BRANCH   7   9
ATOM      9  C   UNL A   1      34.239  33.972  29.089  1.00  0.00     0.039 A 
ATOM     10  C   UNL A   1      35.521  34.456  28.822  1.00  0.00     0.014 A 
ATOM     11  C   UNL A   1      34.063  32.932  30.008  1.00  0.00     0.014 A 
ATOM     12  C   UNL A   1      36.629  33.804  29.352  1.00  0.00     0.010 A 
ATOM     13  C   UNL A   1      35.175  32.334  30.609  1.00  0.00     0.010 A 
ATOM     14  C   UNL A   1      36.470  32.744  30.260  1.00  0.00    -0.014 A 
BRANCH  14  15
ATOM     15  C   UNL A   1      37.676  32.136  30.879  1.00  0.00     0.031 A 
ATOM     16  C   UNL A   1      38.119  32.512  32.264  1.00  0.00     0.074 A 
ATOM     17  C   UNL A   1      38.349  31.198  30.183  1.00  0.00     0.049 A 
ATOM     18  N   UNL A   1      39.122  32.039  32.965  1.00  0.00    -0.248 NA
ATOM     19  C   UNL A   1      37.347  33.555  32.956  1.00  0.00     0.031 C 
ATOM     20  C   UNL A   1      38.021  30.768  28.823  1.00  0.00     0.029 A 
ATOM     21  N   UNL A   1      39.425  30.422  30.527  1.00  0.00    -0.354 N 
ATOM     22  C   UNL A   1      39.108  32.732  34.168  1.00  0.00     0.074 A 
ATOM     23  C   UNL A   1      38.014  33.678  34.096  1.00  0.00     0.031 C 
ATOM     24  C   UNL A   1      38.845  29.772  28.466  1.00  0.00     0.029 A 
ATOM     25  C   UNL A   1      39.793  29.533  29.548  1.00  0.00     0.049 A 
ATOM     26  H   UNL A   1      39.890  30.496  31.392  1.00  0.00     0.167 HD
ATOM     27  C   UNL A   1      39.929  32.583  35.235  1.00  0.00     0.037 A 
ATOM     28  C   UNL A   1      40.791  28.631  29.518  1.00  0.00     0.037 A 
ATOM     29  C   UNL A   1      41.007  31.629  35.308  1.00  0.00     0.049 A 
ATOM     30  C   UNL A   1      41.689  28.497  30.714  1.00  0.00     0.074 A 
ATOM     31  C   UNL A   1      41.874  31.382  36.360  1.00  0.00     0.029 A 
ATOM     32  N   UNL A   1      41.367  30.764  34.285  1.00  0.00    -0.354 N 
ATOM     33  N   UNL A   1      41.642  29.136  31.856  1.00  0.00    -0.248 NA
ATOM     34  C   UNL A   1      42.779  27.519  30.613  1.00  0.00     0.031 C 
ATOM     35  C   UNL A   1      42.782  30.396  35.959  1.00  0.00     0.029 A 
ATOM     36  C   UNL A   1      42.455  29.997  34.673  1.00  0.00     0.049 A 
ATOM     37  H   UNL A   1      40.917  30.703  33.412  1.00  0.00     0.167 HD
ATOM     38  C   UNL A   1      42.690  28.635  32.615  1.00  0.00     0.074 A 
ATOM     39  C   UNL A   1      43.335  27.615  31.812  1.00  0.00     0.031 C 
ATOM     40  C   UNL A   1      43.088  28.992  33.859  1.00  0.00     0.037 A 
BRANCH  27  41
ATOM     41  C   UNL A   1      39.706  33.475  36.422  1.00  0.00     0.064 A 
ATOM     42  C   UNL A   1      40.291  34.746  36.506  1.00  0.00     0.173 A 
ATOM     43  C   UNL A   1      38.839  33.083  37.454  1.00  0.00     0.173 A 
ATOM     44  F   UNL A   1      41.134  35.165  35.551  1.00  0.00    -0.203 F 
ATOM     45  C   UNL A   1      40.027  35.588  37.584  1.00  0.00     0.198 A 
ATOM     46  C   UNL A   1      38.559  33.935  38.519  1.00  0.00     0.198 A 
ATOM     47  F   UNL A   1      38.247  31.879  37.419  1.00  0.00    -0.203 F 
ATOM     48  F   UNL A   1      40.619  36.788  37.657  1.00  0.00    -0.200 F 
ATOM     49  C   UNL A   1      39.155  35.185  38.585  1.00  0.00     0.200 A 
ATOM     50  F   UNL A   1      37.706  33.550  39.479  1.00  0.00    -0.200 F 
ATOM     51  F   UNL A   1      38.891  36.001  39.615  1.00  0.00    -0.200 F 
ENDBRANCH  27  41
BRANCH  28  52
ATOM     52  C   UNL A   1      40.990  27.792  28.310  1.00  0.00     0.064 A 
ATOM     53  C   UNL A   1      41.781  28.236  27.242  1.00  0.00     0.173 A 
ATOM     54  C   UNL A   1      40.399  26.524  28.202  1.00  0.00     0.173 A 
ATOM     55  F   UNL A   1      42.351  29.450  27.291  1.00  0.00    -0.203 F 
ATOM     56  C   UNL A   1      41.959  27.453  26.104  1.00  0.00     0.198 A 
ATOM     57  C   UNL A   1      40.603  25.728  27.078  1.00  0.00     0.198 A 
ATOM     58  F   UNL A   1      39.637  26.051  29.198  1.00  0.00    -0.203 F 
ATOM     59  F   UNL A   1      42.685  27.919  25.080  1.00  0.00    -0.200 F 
ATOM     60  C   UNL A   1      41.377  26.196  26.027  1.00  0.00     0.200 A 
ATOM     61  F   UNL A   1      40.052  24.509  27.014  1.00  0.00    -0.200 F 
ATOM     62  F   UNL A   1      41.555  25.439  24.935  1.00  0.00    -0.200 F 
ENDBRANCH  28  52
BRANCH  40  63
ATOM     63  C   UNL A   1      44.269  28.263  34.427  1.00  0.00     0.064 A 
ATOM     64  C   UNL A   1      44.116  27.056  35.126  1.00  0.00     0.173 A 
ATOM     65  C   UNL A   1      45.566  28.771  34.265  1.00  0.00     0.173 A 
ATOM     66  F   UNL A   1      42.893  26.540  35.323  1.00  0.00    -0.203 F 
ATOM     67  C   UNL A   1      45.218  26.399  35.667  1.00  0.00     0.198 A 
ATOM     68  C   UNL A   1      46.668  28.097  34.784  1.00  0.00     0.198 A 
ATOM     69  F   UNL A   1      45.764  29.920  33.601  1.00  0.00    -0.203 F 
ATOM     70  F   UNL A   1      45.043  25.276  36.376  1.00  0.00    -0.200 F 
ATOM     71  C   UNL A   1      46.492  26.918  35.492  1.00  0.00     0.200 A 
ATOM     72  F   UNL A   1      47.899  28.594  34.606  1.00  0.00    -0.200 F 
ATOM     73  F   UNL A   1      47.551  26.285  36.014  1.00  0.00    -0.200 F 
ENDBRANCH  40  63
ENDBRANCH  14  15
ENDBRANCH   7   9
ENDBRANCH   4   5
ENDBRANCH   3   4
ENDBRANCH   2   3
ENDBRANCH   1   2
BRANCH   1  74
ATOM     74  N   UNL A   1      33.631  29.625  24.854  1.00  0.00    -0.351 N 
ATOM     75  C   UNL A   1      33.793  28.531  24.039  1.00  0.00     0.271 C 
ATOM     76  H   UNL A   1      34.164  30.417  24.613  1.00  0.00     0.163 HD
ATOM     77  O   UNL A   1      34.514  28.615  23.048  1.00  0.00    -0.267 OA
BRANCH  75  78
ATOM     78  C   UNL A   1      33.079  27.268  24.333  1.00  0.00     0.150 A 
ATOM     79  C   UNL A   1      33.654  26.304  25.144  1.00  0.00     0.145 A 
ATOM     80  N   UNL A   1      31.806  27.175  23.882  1.00  0.00    -0.205 NA
ATOM     81  N   UNL A   1      32.982  25.189  25.524  1.00  0.00    -0.257 NA
ATOM     82  C   UNL A   1      31.109  26.113  24.317  1.00  0.00     0.233 A 
ATOM     83  C   UNL A   1      31.687  25.134  25.114  1.00  0.00     0.179 A 
BRANCH  82  84
ATOM     84  O   UNL A   1      29.751  26.082  24.109  1.00  0.00    -0.477 OA
BRANCH  84  85
ATOM     85  C   UNL A   1      29.199  27.338  23.701  1.00  0.00     0.232 C 
BRANCH  85  86
ATOM     86  C   UNL A   1      27.675  27.352  23.507  1.00  0.00     0.046 C 
BRANCH  86  87
ATOM     87  C   UNL A   1      26.910  28.689  23.501  1.00  0.00     0.039 C 
BRANCH  87  88
ATOM     88  C   UNL A   1      27.530  29.937  22.898  1.00  0.00    -0.048 A 
ATOM     89  C   UNL A   1      27.988  30.047  21.580  1.00  0.00     0.004 A 
ATOM     90  C   UNL A   1      27.729  31.043  23.744  1.00  0.00     0.004 A 
ATOM     91  C   UNL A   1      28.626  31.207  21.126  1.00  0.00     0.000 A 
ATOM     92  C   UNL A   1      28.349  32.211  23.289  1.00  0.00     0.000 A 
ATOM     93  C   UNL A   1      28.803  32.291  21.978  1.00  0.00     0.000 A 
ENDBRANCH  87  88
ENDBRANCH  86  87
ENDBRANCH  85  86
ENDBRANCH  84  85
ENDBRANCH  82  84
ENDBRANCH  75  78
ENDBRANCH   1  74
TORSDOF 16
ENDMDL
MODEL 2
REMARK VINA RESULT:     -11.7      0.309      1.779
REMARK SMILES O=C(NCCCCNC(=O)c1cncc(OCCCc2ccccc2)n1)c1ccc(-c2c3nc(c(-c4c(F)c(F)c(F)c(F)c4F)c4ccc([nH]4)c(-c4c(F)c(F)c(F)c(F)c4F)c4nc(c(-c5c(F)c(F)c(F)c(F)c5F)c5ccc2[nH]5)C=C4)C=C3)cc1
REMARK SMILES IDX 7 1 6 2 5 3 4 4 3 5 1 6 2 7 27 9 28 10 89 11 29 12 88 13
REMARK SMILES IDX 30 14 31 15 32 16 82 17 33 18 87 19 81 20 83 21 34 22 86 23
REMARK SMILES IDX 80 24 79 25 35 27 67 28 47 29 66 30 48 31 51 32 65 33 84 34
REMARK SMILES IDX 49 35 50 36 64 38 85 39 52 40 36 41 37 42 45 43 38 44 39 45
REMARK SMILES IDX 43 46 46 47 40 48 41 49 44 50 42 51 68 52 69 53 77 54 70 55
REMARK SMILES IDX 71 56 75 57 78 58 72 59 73 60 76 61 74 62 53 63 54 64 62 65
REMARK SMILES IDX 55 66 56 67 60 68 63 69 57 70 58 71 61 72 59 73 8 74 9 75
REMARK SMILES IDX 10 77 11 78 12 79 26 80 13 81 15 82 14 83 16 84 17 85 18 86
REMARK SMILES IDX 19 87 20 88 21 89 25 90 22 91 24 92 23 93
REMARK H PARENT 3 8 83 26 51 37 8 76
REMARK Flexibility Score: inf
ROOT
ATOM      1  C   UNL A   1      32.493  29.814  25.832  1.00  0.00     0.116 C 
ENDROOT
BRANCH   1   2
ATOM      2  C   UNL A   1      31.250  30.639  25.514  1.00  0.00     0.023 C 
BRANCH   2   3
ATOM      3  C   UNL A   1      31.119  31.965  26.263  1.00  0.00     0.023 C 
BRANCH   3   4
ATOM      4  C   UNL A   1      32.388  32.482  26.931  1.00  0.00     0.116 C 
BRANCH   4   5
ATOM      5  N   UNL A   1      32.263  33.843  27.428  1.00  0.00    -0.352 N 
ATOM      6  O   UNL A   1      32.685  35.633  28.733  1.00  0.00    -0.269 OA
ATOM      7  C   UNL A   1      33.016  34.507  28.367  1.00  0.00     0.251 C 
ATOM      8  H   UNL A   1      31.532  34.368  27.031  1.00  0.00     0.163 HD
BRANCH   7   9
ATOM      9  C   UNL A   1      34.204  33.862  28.966  1.00  0.00     0.039 A 
ATOM     10  C   UNL A   1      34.071  32.809  29.872  1.00  0.00     0.014 A 
ATOM     11  C   UNL A   1      35.478  34.313  28.603  1.00  0.00     0.014 A 
ATOM     12  C   UNL A   1      35.194  32.313  30.525  1.00  0.00     0.010 A 
ATOM     13  C   UNL A   1      36.614  33.753  29.195  1.00  0.00     0.010 A 
ATOM     14  C   UNL A   1      36.479  32.769  30.186  1.00  0.00    -0.014 A 
BRANCH  14  15
ATOM     15  C   UNL A   1      37.661  32.148  30.837  1.00  0.00     0.031 A 
ATOM     16  C   UNL A   1      38.066  32.514  32.237  1.00  0.00     0.074 A 
ATOM     17  C   UNL A   1      38.346  31.208  30.158  1.00  0.00     0.049 A 
ATOM     18  N   UNL A   1      39.044  32.029  32.964  1.00  0.00    -0.248 NA
ATOM     19  C   UNL A   1      37.283  33.560  32.910  1.00  0.00     0.031 C 
ATOM     20  C   UNL A   1      38.056  30.786  28.786  1.00  0.00     0.029 A 
ATOM     21  N   UNL A   1      39.405  30.421  30.530  1.00  0.00    -0.354 N 
ATOM     22  C   UNL A   1      38.999  32.717  34.170  1.00  0.00     0.074 A 
ATOM     23  C   UNL A   1      37.916  33.672  34.071  1.00  0.00     0.031 C 
ATOM     24  C   UNL A   1      38.881  29.785  28.449  1.00  0.00     0.029 A 
ATOM     25  C   UNL A   1      39.794  29.533  29.557  1.00  0.00     0.049 A 
ATOM     26  H   UNL A   1      39.845  30.487  31.408  1.00  0.00     0.167 HD
ATOM     27  C   UNL A   1      39.787  32.555  35.261  1.00  0.00     0.037 A 
ATOM     28  C   UNL A   1      40.785  28.623  29.553  1.00  0.00     0.037 A 
ATOM     29  C   UNL A   1      40.854  31.592  35.361  1.00  0.00     0.049 A 
ATOM     30  C   UNL A   1      41.646  28.476  30.774  1.00  0.00     0.074 A 
ATOM     31  C   UNL A   1      41.688  31.333  36.436  1.00  0.00     0.029 A 
ATOM     32  N   UNL A   1      41.238  30.729  34.345  1.00  0.00    -0.354 N 
ATOM     33  N   UNL A   1      41.571  29.110  31.917  1.00  0.00    -0.248 NA
ATOM     34  C   UNL A   1      42.730  27.489  30.701  1.00  0.00     0.031 C 
ATOM     35  C   UNL A   1      42.599  30.341  36.058  1.00  0.00     0.029 A 
ATOM     36  C   UNL A   1      42.307  29.951  34.761  1.00  0.00     0.049 A 
ATOM     37  H   UNL A   1      40.813  30.676  33.459  1.00  0.00     0.167 HD
ATOM     38  C   UNL A   1      42.591  28.596  32.704  1.00  0.00     0.074 A 
ATOM     39  C   UNL A   1      43.252  27.575  31.916  1.00  0.00     0.031 C 
ATOM     40  C   UNL A   1      42.955  28.944  33.962  1.00  0.00     0.037 A 
BRANCH  27  41
ATOM     41  C   UNL A   1      39.536  33.444  36.445  1.00  0.00     0.064 A 
ATOM     42  C   UNL A   1      38.704  33.044  37.500  1.00  0.00     0.173 A 
ATOM     43  C   UNL A   1      40.193  34.680  36.559  1.00  0.00     0.173 A 
ATOM     44  F   UNL A   1      38.046  31.877  37.436  1.00  0.00    -0.203 F 
ATOM     45  C   UNL A   1      38.528  33.853  38.621  1.00  0.00     0.198 A 
ATOM     46  C   UNL A   1      40.033  35.475  37.691  1.00  0.00     0.198 A 
ATOM     47  F   UNL A   1      41.005  35.106  35.581  1.00  0.00    -0.203 F 
ATOM     48  F   UNL A   1      37.706  33.463  39.605  1.00  0.00    -0.200 F 
ATOM     49  C   UNL A   1      39.198  35.063  38.719  1.00  0.00     0.200 A 
ATOM     50  F   UNL A   1      40.692  36.638  37.790  1.00  0.00    -0.200 F 
ATOM     51  F   UNL A   1      39.039  35.834  39.804  1.00  0.00    -0.200 F 
ENDBRANCH  27  41
BRANCH  28  52
ATOM     52  C   UNL A   1      41.013  27.787  28.347  1.00  0.00     0.064 A 
ATOM     53  C   UNL A   1      41.835  28.233  27.302  1.00  0.00     0.173 A 
ATOM     54  C   UNL A   1      40.420  26.523  28.218  1.00  0.00     0.173 A 
ATOM     55  F   UNL A   1      42.408  29.444  27.372  1.00  0.00    -0.203 F 
ATOM     56  C   UNL A   1      42.040  27.453  26.167  1.00  0.00     0.198 A 
ATOM     57  C   UNL A   1      40.651  25.730  27.096  1.00  0.00     0.198 A 
ATOM     58  F   UNL A   1      39.630  26.049  29.192  1.00  0.00    -0.203 F 
ATOM     59  F   UNL A   1      42.795  27.920  25.164  1.00  0.00    -0.200 F 
ATOM     60  C   UNL A   1      41.454  26.199  26.069  1.00  0.00     0.200 A 
ATOM     61  F   UNL A   1      40.096  24.513  27.013  1.00  0.00    -0.200 F 
ATOM     62  F   UNL A   1      41.659  25.446  24.979  1.00  0.00    -0.200 F 
ENDBRANCH  28  52
BRANCH  40  63
ATOM     63  C   UNL A   1      44.113  28.203  34.561  1.00  0.00     0.064 A 
ATOM     64  C   UNL A   1      45.428  28.676  34.434  1.00  0.00     0.173 A 
ATOM     65  C   UNL A   1      43.906  27.015  35.277  1.00  0.00     0.173 A 
ATOM     66  F   UNL A   1      45.678  29.798  33.743  1.00  0.00    -0.203 F 
ATOM     67  C   UNL A   1      46.497  27.969  34.977  1.00  0.00     0.198 A 
ATOM     68  C   UNL A   1      44.975  26.325  35.841  1.00  0.00     0.198 A 
ATOM     69  F   UNL A   1      42.666  26.524  35.429  1.00  0.00    -0.203 F 
ATOM     70  F   UNL A   1      47.749  28.410  34.798  1.00  0.00    -0.200 F 
ATOM     71  C   UNL A   1      46.269  26.797  35.683  1.00  0.00     0.200 A 
ATOM     72  F   UNL A   1      44.753  25.198  36.531  1.00  0.00    -0.200 F 
ATOM     73  F   UNL A   1      47.299  26.117  36.204  1.00  0.00    -0.200 F 
ENDBRANCH  40  63
ENDBRANCH  14  15
ENDBRANCH   7   9
ENDBRANCH   4   5
ENDBRANCH   3   4
ENDBRANCH   2   3
ENDBRANCH   1   2
BRANCH   1  74
ATOM     74  N   UNL A   1      33.386  29.669  24.700  1.00  0.00    -0.351 N 
ATOM     75  C   UNL A   1      33.716  28.532  24.002  1.00  0.00     0.271 C 
ATOM     76  H   UNL A   1      33.816  30.498  24.390  1.00  0.00     0.163 HD
ATOM     77  O   UNL A   1      34.448  28.617  23.019  1.00  0.00    -0.267 OA
BRANCH  75  78
ATOM     78  C   UNL A   1      33.168  27.219  24.410  1.00  0.00     0.150 A 
ATOM     79  C   UNL A   1      33.743  26.505  25.447  1.00  0.00     0.145 A 
ATOM     80  N   UNL A   1      32.018  26.832  23.810  1.00  0.00    -0.205 NA
ATOM     81  N   UNL A   1      33.199  25.356  25.919  1.00  0.00    -0.257 NA
ATOM     82  C   UNL A   1      31.432  25.738  24.323  1.00  0.00     0.233 A 
ATOM     83  C   UNL A   1      32.015  25.008  25.350  1.00  0.00     0.179 A 
BRANCH  82  84
ATOM     84  O   UNL A   1      30.149  25.432  23.937  1.00  0.00    -0.477 OA
BRANCH  84  85
ATOM     85  C   UNL A   1      29.198  26.465  24.217  1.00  0.00     0.232 C 
BRANCH  85  86
ATOM     86  C   UNL A   1      29.091  27.564  23.150  1.00  0.00     0.046 C 
BRANCH  86  87
ATOM     87  C   UNL A   1      27.896  28.535  23.159  1.00  0.00     0.039 C 
BRANCH  87  88
ATOM     88  C   UNL A   1      28.066  29.981  22.727  1.00  0.00    -0.048 A 
ATOM     89  C   UNL A   1      28.115  31.076  23.597  1.00  0.00     0.004 A 
ATOM     90  C   UNL A   1      28.102  30.252  21.347  1.00  0.00     0.004 A 
ATOM     91  C   UNL A   1      28.188  32.387  23.112  1.00  0.00     0.000 A 
ATOM     92  C   UNL A   1      28.193  31.559  20.859  1.00  0.00     0.000 A 
ATOM     93  C   UNL A   1      28.232  32.630  21.745  1.00  0.00     0.000 A 
ENDBRANCH  87  88
ENDBRANCH  86  87
ENDBRANCH  85  86
ENDBRANCH  84  85
ENDBRANCH  82  84
ENDBRANCH  75  78
ENDBRANCH   1  74
TORSDOF 16
ENDMDL
MODEL 3
REMARK VINA RESULT:     -11.3      1.507      3.696
REMARK SMILES O=C(NCCCCNC(=O)c1cncc(OCCCc2ccccc2)n1)c1ccc(-c2c3nc(c(-c4c(F)c(F)c(F)c(F)c4F)c4ccc([nH]4)c(-c4c(F)c(F)c(F)c(F)c4F)c4nc(c(-c5c(F)c(F)c(F)c(F)c5F)c5ccc2[nH]5)C=C4)C=C3)cc1
REMARK SMILES IDX 7 1 6 2 5 3 4 4 3 5 1 6 2 7 27 9 28 10 89 11 29 12 88 13
REMARK SMILES IDX 30 14 31 15 32 16 82 17 33 18 87 19 81 20 83 21 34 22 86 23
REMARK SMILES IDX 80 24 79 25 35 27 67 28 47 29 66 30 48 31 51 32 65 33 84 34
REMARK SMILES IDX 49 35 50 36 64 38 85 39 52 40 36 41 37 42 45 43 38 44 39 45
REMARK SMILES IDX 43 46 46 47 40 48 41 49 44 50 42 51 68 52 69 53 77 54 70 55
REMARK SMILES IDX 71 56 75 57 78 58 72 59 73 60 76 61 74 62 53 63 54 64 62 65
REMARK SMILES IDX 55 66 56 67 60 68 63 69 57 70 58 71 61 72 59 73 8 74 9 75
REMARK SMILES IDX 10 77 11 78 12 79 26 80 13 81 15 82 14 83 16 84 17 85 18 86
REMARK SMILES IDX 19 87 20 88 21 89 25 90 22 91 24 92 23 93
REMARK H PARENT 3 8 83 26 51 37 8 76
REMARK Flexibility Score: inf
ROOT
ATOM      1  C   UNL A   1      32.685  30.158  26.500  1.00  0.00     0.116 C 
ENDROOT
BRANCH   1   2
ATOM      2  C   UNL A   1      31.412  30.888  26.086  1.00  0.00     0.023 C 
BRANCH   2   3
ATOM      3  C   UNL A   1      31.320  32.357  26.497  1.00  0.00     0.023 C 
BRANCH   3   4
ATOM      4  C   UNL A   1      32.548  32.933  27.194  1.00  0.00     0.116 C 
BRANCH   4   5
ATOM      5  N   UNL A   1      32.340  34.276  27.712  1.00  0.00    -0.352 N 
ATOM      6  O   UNL A   1      32.618  36.053  29.071  1.00  0.00    -0.269 OA
ATOM      7  C   UNL A   1      33.017  34.952  28.699  1.00  0.00     0.251 C 
ATOM      8  H   UNL A   1      31.604  34.777  27.291  1.00  0.00     0.163 HD
BRANCH   7   9
ATOM      9  C   UNL A   1      34.204  34.346  29.341  1.00  0.00     0.039 A 
ATOM     10  C   UNL A   1      35.491  34.615  28.871  1.00  0.00     0.014 A 
ATOM     11  C   UNL A   1      34.025  33.504  30.443  1.00  0.00     0.014 A 
ATOM     12  C   UNL A   1      36.577  33.928  29.402  1.00  0.00     0.010 A 
ATOM     13  C   UNL A   1      35.129  32.880  31.034  1.00  0.00     0.010 A 
ATOM     14  C   UNL A   1      36.412  33.063  30.496  1.00  0.00    -0.014 A 
BRANCH  14  15
ATOM     15  C   UNL A   1      37.609  32.420  31.096  1.00  0.00     0.031 A 
ATOM     16  C   UNL A   1      38.085  32.784  32.474  1.00  0.00     0.074 A 
ATOM     17  C   UNL A   1      38.244  31.463  30.391  1.00  0.00     0.049 A 
ATOM     18  N   UNL A   1      39.084  32.283  33.159  1.00  0.00    -0.248 NA
ATOM     19  C   UNL A   1      37.354  33.849  33.176  1.00  0.00     0.031 C 
ATOM     20  C   UNL A   1      37.883  31.041  29.036  1.00  0.00     0.029 A 
ATOM     21  N   UNL A   1      39.303  30.657  30.720  1.00  0.00    -0.354 N 
ATOM     22  C   UNL A   1      39.109  32.977  34.362  1.00  0.00     0.074 A 
ATOM     23  C   UNL A   1      38.041  33.954  34.307  1.00  0.00     0.031 C 
ATOM     24  C   UNL A   1      38.672  30.022  28.668  1.00  0.00     0.029 A 
ATOM     25  C   UNL A   1      39.630  29.757  29.735  1.00  0.00     0.049 A 
ATOM     26  H   UNL A   1      39.783  30.718  31.577  1.00  0.00     0.167 HD
ATOM     27  C   UNL A   1      39.941  32.805  35.417  1.00  0.00     0.037 A 
ATOM     28  C   UNL A   1      40.601  28.826  29.691  1.00  0.00     0.037 A 
ATOM     29  C   UNL A   1      40.993  31.820  35.474  1.00  0.00     0.049 A 
ATOM     30  C   UNL A   1      41.513  28.668  30.873  1.00  0.00     0.074 A 
ATOM     31  C   UNL A   1      41.868  31.549  36.512  1.00  0.00     0.029 A 
ATOM     32  N   UNL A   1      41.312  30.945  34.446  1.00  0.00    -0.354 N 
ATOM     33  N   UNL A   1      41.503  29.308  32.015  1.00  0.00    -0.248 NA
ATOM     34  C   UNL A   1      42.573  27.659  30.756  1.00  0.00     0.031 C 
ATOM     35  C   UNL A   1      42.742  30.537  36.099  1.00  0.00     0.029 A 
ATOM     36  C   UNL A   1      42.383  30.147  34.818  1.00  0.00     0.049 A 
ATOM     37  H   UNL A   1      40.846  30.896  33.580  1.00  0.00     0.167 HD
ATOM     38  C   UNL A   1      42.547  28.778  32.758  1.00  0.00     0.074 A 
ATOM     39  C   UNL A   1      43.150  27.740  31.947  1.00  0.00     0.031 C 
ATOM     40  C   UNL A   1      42.974  29.124  33.996  1.00  0.00     0.037 A 
BRANCH  27  41
ATOM     41  C   UNL A   1      39.762  33.704  36.606  1.00  0.00     0.064 A 
ATOM     42  C   UNL A   1      40.376  34.963  36.674  1.00  0.00     0.173 A 
ATOM     43  C   UNL A   1      38.909  33.332  37.657  1.00  0.00     0.173 A 
ATOM     44  F   UNL A   1      41.208  35.362  35.701  1.00  0.00    -0.203 F 
ATOM     45  C   UNL A   1      40.153  35.812  37.756  1.00  0.00     0.198 A 
ATOM     46  C   UNL A   1      38.670  34.193  38.726  1.00  0.00     0.198 A 
ATOM     47  F   UNL A   1      38.292  32.142  37.637  1.00  0.00    -0.203 F 
ATOM     48  F   UNL A   1      40.772  36.999  37.814  1.00  0.00    -0.200 F 
ATOM     49  C   UNL A   1      39.294  35.430  38.776  1.00  0.00     0.200 A 
ATOM     50  F   UNL A   1      37.829  33.827  39.704  1.00  0.00    -0.200 F 
ATOM     51  F   UNL A   1      39.069  36.253  39.810  1.00  0.00    -0.200 F 
ENDBRANCH  27  41
BRANCH  28  52
ATOM     52  C   UNL A   1      40.757  27.981  28.481  1.00  0.00     0.064 A 
ATOM     53  C   UNL A   1      40.112  26.741  28.376  1.00  0.00     0.173 A 
ATOM     54  C   UNL A   1      41.548  28.400  27.401  1.00  0.00     0.173 A 
ATOM     55  F   UNL A   1      39.361  26.289  29.392  1.00  0.00    -0.203 F 
ATOM     56  C   UNL A   1      40.267  25.944  27.245  1.00  0.00     0.198 A 
ATOM     57  C   UNL A   1      41.677  27.616  26.257  1.00  0.00     0.198 A 
ATOM     58  F   UNL A   1      42.181  29.580  27.450  1.00  0.00    -0.203 F 
ATOM     59  F   UNL A   1      39.675  24.744  27.188  1.00  0.00    -0.200 F 
ATOM     60  C   UNL A   1      41.043  26.386  26.183  1.00  0.00     0.200 A 
ATOM     61  F   UNL A   1      42.414  28.055  25.227  1.00  0.00    -0.200 F 
ATOM     62  F   UNL A   1      41.185  25.621  25.091  1.00  0.00    -0.200 F 
ENDBRANCH  28  52
BRANCH  40  63
ATOM     63  C   UNL A   1      44.142  28.362  34.546  1.00  0.00     0.064 A 
ATOM     64  C   UNL A   1      43.965  27.165  35.256  1.00  0.00     0.173 A 
ATOM     65  C   UNL A   1      45.452  28.828  34.355  1.00  0.00     0.173 A 
ATOM     66  F   UNL A   1      42.731  26.689  35.480  1.00  0.00    -0.203 F 
ATOM     67  C   UNL A   1      45.057  26.477  35.780  1.00  0.00     0.198 A 
ATOM     68  C   UNL A   1      46.542  28.123  34.858  1.00  0.00     0.198 A 
ATOM     69  F   UNL A   1      45.673  29.967  33.680  1.00  0.00    -0.203 F 
ATOM     70  F   UNL A   1      44.861  25.364  36.500  1.00  0.00    -0.200 F 
ATOM     71  C   UNL A   1      46.343  26.954  35.577  1.00  0.00     0.200 A 
ATOM     72  F   UNL A   1      47.784  28.580  34.653  1.00  0.00    -0.200 F 
ATOM     73  F   UNL A   1      47.391  26.292  36.084  1.00  0.00    -0.200 F 
ENDBRANCH  40  63
ENDBRANCH  14  15
ENDBRANCH   7   9
ENDBRANCH   4   5
ENDBRANCH   3   4
ENDBRANCH   2   3
ENDBRANCH   1   2
BRANCH   1  74
ATOM     74  N   UNL A   1      33.433  29.632  25.377  1.00  0.00    -0.351 N 
ATOM     75  C   UNL A   1      33.172  28.520  24.612  1.00  0.00     0.271 C 
ATOM     76  H   UNL A   1      34.238  30.140  25.127  1.00  0.00     0.163 HD
ATOM     77  O   UNL A   1      33.890  28.267  23.648  1.00  0.00    -0.267 OA
BRANCH  75  78
ATOM     78  C   UNL A   1      32.015  27.652  24.925  1.00  0.00     0.150 A 
ATOM     79  C   UNL A   1      30.911  27.619  24.089  1.00  0.00     0.145 A 
ATOM     80  N   UNL A   1      32.155  26.813  25.978  1.00  0.00    -0.205 NA
ATOM     81  N   UNL A   1      29.885  26.754  24.284  1.00  0.00    -0.257 NA
ATOM     82  C   UNL A   1      31.181  25.902  26.132  1.00  0.00     0.233 A 
ATOM     83  C   UNL A   1      30.063  25.878  25.309  1.00  0.00     0.179 A 
BRANCH  82  84
ATOM     84  O   UNL A   1      31.376  24.868  27.016  1.00  0.00    -0.477 OA
BRANCH  84  85
ATOM     85  C   UNL A   1      30.988  23.588  26.505  1.00  0.00     0.232 C 
BRANCH  85  86
ATOM     86  C   UNL A   1      32.142  22.699  26.021  1.00  0.00     0.046 C 
BRANCH  86  87
ATOM     87  C   UNL A   1      33.578  22.963  26.510  1.00  0.00     0.039 C 
BRANCH  87  88
ATOM     88  C   UNL A   1      34.774  22.560  25.666  1.00  0.00    -0.048 A 
ATOM     89  C   UNL A   1      35.526  21.393  25.847  1.00  0.00     0.004 A 
ATOM     90  C   UNL A   1      35.208  23.458  24.673  1.00  0.00     0.004 A 
ATOM     91  C   UNL A   1      36.667  21.136  25.078  1.00  0.00     0.000 A 
ATOM     92  C   UNL A   1      36.337  23.197  23.892  1.00  0.00     0.000 A 
ATOM     93  C   UNL A   1      37.071  22.035  24.098  1.00  0.00     0.000 A 
ENDBRANCH  87  88
ENDBRANCH  86  87
ENDBRANCH  85  86
ENDBRANCH  84  85
ENDBRANCH  82  84
ENDBRANCH  75  78
ENDBRANCH   1  74
TORSDOF 16
ENDMDL
