MODEL 1
REMARK VINA RESULT:     -14.2      0.000      0.000
REMARK SMILES COc1ccc(Cl)c(NS(=O)(=O)c2ccc(C)c(C(=O)NCCCCNC(=O)c3ccc(-c4c5nc(c(-c6c(F)c(F)c(F)c(F)c6F)c6ccc([nH]6)c(-c6c(F)c(F)c(F)c(F)c6F)c6nc(c(-c7c(F)c(F)c(F)c(F)c7F)c7ccc4[nH]7)C=C6)C=C5)cc3)c2)c1
REMARK SMILES IDX 22 1 21 2 19 3 20 4 18 6 13 7 14 8 92 9 15 10 16 11 17 12
REMARK SMILES IDX 10 13 11 14 12 15 9 16 8 18 3 19 4 20 93 21 5 22 6 23 7 24
REMARK SMILES IDX 2 25 1 26 23 27 24 28 25 29 26 30 27 31 28 33 29 34 30 35
REMARK SMILES IDX 91 36 31 37 90 38 32 39 33 40 34 41 84 42 35 43 89 44 83 45
REMARK SMILES IDX 85 46 36 47 88 48 82 49 81 50 37 52 69 53 49 54 68 55 50 56
REMARK SMILES IDX 53 57 67 58 86 59 51 60 52 61 66 63 87 64 54 65 38 66 39 67
REMARK SMILES IDX 47 68 40 69 41 70 45 71 48 72 42 73 43 74 46 75 44 76 70 77
REMARK SMILES IDX 71 78 79 79 72 80 73 81 77 82 80 83 74 84 75 85 78 86 76 87
REMARK SMILES IDX 55 88 56 89 64 90 57 91 58 92 62 93 65 94 59 95 60 96 63 97
REMARK SMILES IDX 61 98
REMARK H PARENT 21 5 9 17 26 32 85 51 53 62
REMARK Flexibility Score: inf
ROOT
ATOM      1  C   UNL A   1      31.768  28.272  27.476  1.00  0.00     0.116 C 
ENDROOT
BRANCH   1   2
ATOM      2  N   UNL A   1      31.049  27.102  27.031  1.00  0.00    -0.352 N 
ATOM      3  C   UNL A   1      31.307  25.899  26.446  1.00  0.00     0.251 C 
ATOM      4  O   UNL A   1      30.292  25.186  26.428  1.00  0.00    -0.269 OA
ATOM      5  H   UNL A   1      30.085  27.204  27.199  1.00  0.00     0.163 HD
BRANCH   3   6
ATOM      6  C   UNL A   1      32.564  25.346  25.804  1.00  0.00     0.044 A 
ATOM      7  C   UNL A   1      33.913  23.268  25.833  1.00  0.00     0.088 A 
ATOM      8  C   UNL A   1      34.719  23.724  24.807  1.00  0.00     0.022 A 
ATOM      9  C   UNL A   1      32.911  24.088  26.366  1.00  0.00     0.036 A 
ATOM     10  C   UNL A   1      34.454  24.980  24.277  1.00  0.00     0.005 A 
ATOM     11  C   UNL A   1      33.371  25.791  24.731  1.00  0.00    -0.038 A 
ATOM     12  C   UNL A   1      33.222  27.066  23.966  1.00  0.00     0.045 C 
BRANCH   7  13
ATOM     13  S   UNL A   1      34.026  21.577  26.354  1.00  0.00     0.261 S 
ATOM     14  O   UNL A   1      34.048  21.534  27.808  1.00  0.00    -0.201 OA
ATOM     15  O   UNL A   1      35.061  20.949  25.578  1.00  0.00    -0.201 OA
BRANCH  13  16
ATOM     16  N   UNL A   1      32.549  20.907  25.824  1.00  0.00    -0.278 N 
ATOM     17  H   UNL A   1      31.693  21.323  26.072  1.00  0.00     0.180 HD
BRANCH  16  18
ATOM     18  C   UNL A   1      32.581  19.719  25.006  1.00  0.00     0.071 A 
ATOM     19  C   UNL A   1      32.841  17.307  24.842  1.00  0.00     0.121 A 
ATOM     20  C   UNL A   1      32.653  17.372  23.464  1.00  0.00     0.048 A 
ATOM     21  C   UNL A   1      32.750  18.470  25.609  1.00  0.00     0.074 A 
ATOM     22  C   UNL A   1      32.435  18.610  22.852  1.00  0.00     0.026 A 
ATOM     23  C   UNL A   1      32.423  19.782  23.616  1.00  0.00     0.065 A 
ATOM     24  Cl  UNL A   1      32.137  21.285  22.818  1.00  0.00    -0.082 Cl
BRANCH  19  25
ATOM     25  O   UNL A   1      33.063  16.151  25.539  1.00  0.00    -0.497 OA
ATOM     26  C   UNL A   1      34.313  15.530  25.249  1.00  0.00     0.278 C 
ENDBRANCH  19  25
ENDBRANCH  16  18
ENDBRANCH  13  16
ENDBRANCH   7  13
ENDBRANCH   3   6
ENDBRANCH   1   2
BRANCH   1  27
ATOM     27  C   UNL A   1      31.794  29.400  26.436  1.00  0.00     0.023 C 
BRANCH  27  28
ATOM     28  C   UNL A   1      32.230  30.767  26.979  1.00  0.00     0.023 C 
BRANCH  28  29
ATOM     29  C   UNL A   1      33.741  30.921  27.090  1.00  0.00     0.116 C 
BRANCH  29  30
ATOM     30  N   UNL A   1      34.218  31.760  28.181  1.00  0.00    -0.352 N 
ATOM     31  C   UNL A   1      35.181  31.483  29.139  1.00  0.00     0.251 C 
ATOM     32  H   UNL A   1      33.798  32.649  28.247  1.00  0.00     0.163 HD
ATOM     33  O   UNL A   1      35.366  32.261  30.069  1.00  0.00    -0.269 OA
BRANCH  31  34
ATOM     34  C   UNL A   1      36.087  30.319  28.960  1.00  0.00     0.039 A 
ATOM     35  C   UNL A   1      36.488  29.616  30.105  1.00  0.00     0.014 A 
ATOM     36  C   UNL A   1      36.715  30.079  27.743  1.00  0.00     0.014 A 
ATOM     37  C   UNL A   1      37.684  28.903  30.083  1.00  0.00     0.010 A 
ATOM     38  C   UNL A   1      37.960  29.485  27.749  1.00  0.00     0.010 A 
ATOM     39  C   UNL A   1      38.473  28.954  28.935  1.00  0.00    -0.014 A 
BRANCH  39  40
ATOM     40  C   UNL A   1      39.879  28.575  28.910  1.00  0.00     0.031 A 
ATOM     41  C   UNL A   1      40.274  27.214  28.494  1.00  0.00     0.074 A 
ATOM     42  C   UNL A   1      40.821  29.509  29.171  1.00  0.00     0.049 A 
ATOM     43  N   UNL A   1      41.371  26.634  28.847  1.00  0.00    -0.248 NA
ATOM     44  C   UNL A   1      39.427  26.377  27.654  1.00  0.00     0.031 C 
ATOM     45  C   UNL A   1      42.262  29.405  28.951  1.00  0.00     0.029 A 
ATOM     46  N   UNL A   1      40.664  30.715  29.879  1.00  0.00    -0.354 N 
ATOM     47  C   UNL A   1      41.502  25.488  28.095  1.00  0.00     0.074 A 
ATOM     48  C   UNL A   1      40.242  25.347  27.403  1.00  0.00     0.031 C 
ATOM     49  C   UNL A   1      42.886  30.293  29.742  1.00  0.00     0.029 A 
ATOM     50  C   UNL A   1      41.872  30.894  30.592  1.00  0.00     0.049 A 
ATOM     51  H   UNL A   1      39.880  31.309  29.877  1.00  0.00     0.167 HD
ATOM     52  C   UNL A   1      42.710  24.857  28.040  1.00  0.00     0.037 A 
ATOM     53  C   UNL A   1      41.897  30.890  31.956  1.00  0.00     0.037 A 
ATOM     54  C   UNL A   1      43.690  25.529  28.890  1.00  0.00     0.049 A 
ATOM     55  C   UNL A   1      42.756  29.795  32.541  1.00  0.00     0.074 A 
ATOM     56  C   UNL A   1      44.655  26.484  28.614  1.00  0.00     0.029 A 
ATOM     57  N   UNL A   1      43.534  25.512  30.272  1.00  0.00    -0.354 N 
ATOM     58  N   UNL A   1      43.103  28.720  31.889  1.00  0.00    -0.248 NA
ATOM     59  C   UNL A   1      43.264  29.810  33.911  1.00  0.00     0.031 C 
ATOM     60  C   UNL A   1      45.030  27.094  29.835  1.00  0.00     0.029 A 
ATOM     61  C   UNL A   1      44.316  26.491  30.855  1.00  0.00     0.049 A 
ATOM     62  H   UNL A   1      42.951  24.890  30.765  1.00  0.00     0.167 HD
ATOM     63  C   UNL A   1      43.842  27.911  32.709  1.00  0.00     0.074 A 
ATOM     64  C   UNL A   1      43.927  28.641  33.960  1.00  0.00     0.031 C 
ATOM     65  C   UNL A   1      44.320  26.700  32.294  1.00  0.00     0.037 A 
BRANCH  52  66
ATOM     66  C   UNL A   1      43.072  23.838  26.983  1.00  0.00     0.064 A 
ATOM     67  C   UNL A   1      42.742  22.473  27.144  1.00  0.00     0.173 A 
ATOM     68  C   UNL A   1      43.797  24.132  25.814  1.00  0.00     0.173 A 
ATOM     69  F   UNL A   1      41.958  22.056  28.145  1.00  0.00    -0.203 F 
ATOM     70  C   UNL A   1      43.212  21.479  26.282  1.00  0.00     0.198 A 
ATOM     71  C   UNL A   1      44.317  23.133  24.982  1.00  0.00     0.198 A 
ATOM     72  F   UNL A   1      43.982  25.397  25.415  1.00  0.00    -0.203 F 
ATOM     73  F   UNL A   1      42.874  20.200  26.495  1.00  0.00    -0.200 F 
ATOM     74  C   UNL A   1      44.036  21.805  25.225  1.00  0.00     0.200 A 
ATOM     75  F   UNL A   1      45.095  23.472  23.944  1.00  0.00    -0.200 F 
ATOM     76  F   UNL A   1      44.532  20.848  24.429  1.00  0.00    -0.200 F 
ENDBRANCH  52  66
BRANCH  53  77
ATOM     77  C   UNL A   1      40.645  31.416  32.562  1.00  0.00     0.064 A 
ATOM     78  C   UNL A   1      40.379  32.794  32.436  1.00  0.00     0.173 A 
ATOM     79  C   UNL A   1      39.572  30.578  32.884  1.00  0.00     0.173 A 
ATOM     80  F   UNL A   1      41.373  33.643  32.127  1.00  0.00    -0.203 F 
ATOM     81  C   UNL A   1      39.079  33.291  32.497  1.00  0.00     0.198 A 
ATOM     82  C   UNL A   1      38.272  31.083  32.963  1.00  0.00     0.198 A 
ATOM     83  F   UNL A   1      39.756  29.255  33.002  1.00  0.00    -0.203 F 
ATOM     84  F   UNL A   1      38.848  34.587  32.243  1.00  0.00    -0.200 F 
ATOM     85  C   UNL A   1      38.023  32.429  32.731  1.00  0.00     0.200 A 
ATOM     86  F   UNL A   1      37.244  30.246  33.165  1.00  0.00    -0.200 F 
ATOM     87  F   UNL A   1      36.764  32.885  32.690  1.00  0.00    -0.200 F 
ENDBRANCH  53  77
BRANCH  65  88
ATOM     88  C   UNL A   1      44.934  25.653  33.185  1.00  0.00     0.064 A 
ATOM     89  C   UNL A   1      46.297  25.314  33.159  1.00  0.00     0.173 A 
ATOM     90  C   UNL A   1      44.173  25.050  34.214  1.00  0.00     0.173 A 
ATOM     91  F   UNL A   1      47.145  25.909  32.309  1.00  0.00    -0.203 F 
ATOM     92  C   UNL A   1      46.843  24.386  34.049  1.00  0.00     0.198 A 
ATOM     93  C   UNL A   1      44.732  24.168  35.136  1.00  0.00     0.198 A 
ATOM     94  F   UNL A   1      42.867  25.320  34.368  1.00  0.00    -0.203 F 
ATOM     95  F   UNL A   1      48.140  24.061  33.954  1.00  0.00    -0.200 F 
ATOM     96  C   UNL A   1      46.064  23.822  35.043  1.00  0.00     0.200 A 
ATOM     97  F   UNL A   1      43.978  23.672  36.126  1.00  0.00    -0.200 F 
ATOM     98  F   UNL A   1      46.602  22.964  35.919  1.00  0.00    -0.200 F 
ENDBRANCH  65  88
ENDBRANCH  39  40
ENDBRANCH  31  34
ENDBRANCH  29  30
ENDBRANCH  28  29
ENDBRANCH  27  28
ENDBRANCH   1  27
TORSDOF 15
ENDMDL
MODEL 2
REMARK VINA RESULT:     -13.8      3.414      9.800
REMARK SMILES COc1ccc(Cl)c(NS(=O)(=O)c2ccc(C)c(C(=O)NCCCCNC(=O)c3ccc(-c4c5nc(c(-c6c(F)c(F)c(F)c(F)c6F)c6ccc([nH]6)c(-c6c(F)c(F)c(F)c(F)c6F)c6nc(c(-c7c(F)c(F)c(F)c(F)c7F)c7ccc4[nH]7)C=C6)C=C5)cc3)c2)c1
REMARK SMILES IDX 22 1 21 2 19 3 20 4 18 6 13 7 14 8 92 9 15 10 16 11 17 12
REMARK SMILES IDX 10 13 11 14 12 15 9 16 8 18 3 19 4 20 93 21 5 22 6 23 7 24
REMARK SMILES IDX 2 25 1 26 23 27 24 28 25 29 26 30 27 31 28 33 29 34 30 35
REMARK SMILES IDX 91 36 31 37 90 38 32 39 33 40 34 41 84 42 35 43 89 44 83 45
REMARK SMILES IDX 85 46 36 47 88 48 82 49 81 50 37 52 69 53 49 54 68 55 50 56
REMARK SMILES IDX 53 57 67 58 86 59 51 60 52 61 66 63 87 64 54 65 38 66 39 67
REMARK SMILES IDX 47 68 40 69 41 70 45 71 48 72 42 73 43 74 46 75 44 76 70 77
REMARK SMILES IDX 71 78 79 79 72 80 73 81 77 82 80 83 74 84 75 85 78 86 76 87
REMARK SMILES IDX 55 88 56 89 64 90 57 91 58 92 62 93 65 94 59 95 60 96 63 97
REMARK SMILES IDX 61 98
REMARK H PARENT 21 5 9 17 26 32 85 51 53 62
REMARK Flexibility Score: inf
ROOT
ATOM      1  C   UNL A   1      35.982  21.489  25.532  1.00  0.00     0.116 C 
ENDROOT
BRANCH   1   2
ATOM      2  N   UNL A   1      35.038  20.431  25.263  1.00  0.00    -0.352 N 
ATOM      3  C   UNL A   1      33.800  20.274  24.715  1.00  0.00     0.251 C 
ATOM      4  O   UNL A   1      33.518  19.072  24.593  1.00  0.00    -0.269 OA
ATOM      5  H   UNL A   1      35.395  19.564  25.564  1.00  0.00     0.163 HD
BRANCH   3   6
ATOM      6  C   UNL A   1      32.751  21.287  24.302  1.00  0.00     0.044 A 
ATOM      7  C   UNL A   1      31.762  23.394  25.147  1.00  0.00     0.088 A 
ATOM      8  C   UNL A   1      31.045  23.579  23.980  1.00  0.00     0.022 A 
ATOM      9  C   UNL A   1      32.534  22.242  25.332  1.00  0.00     0.036 A 
ATOM     10  C   UNL A   1      31.178  22.628  22.976  1.00  0.00     0.005 A 
ATOM     11  C   UNL A   1      32.042  21.500  23.097  1.00  0.00    -0.038 A 
ATOM     12  C   UNL A   1      32.091  20.653  21.866  1.00  0.00     0.045 C 
BRANCH   7  13
ATOM     13  S   UNL A   1      31.849  24.704  26.339  1.00  0.00     0.261 S 
ATOM     14  O   UNL A   1      31.857  24.125  27.674  1.00  0.00    -0.201 OA
ATOM     15  O   UNL A   1      30.878  25.698  25.969  1.00  0.00    -0.201 OA
BRANCH  13  16
ATOM     16  N   UNL A   1      33.383  25.393  26.049  1.00  0.00    -0.278 N 
ATOM     17  H   UNL A   1      34.170  25.097  26.560  1.00  0.00     0.180 HD
BRANCH  16  18
ATOM     18  C   UNL A   1      33.503  26.417  25.041  1.00  0.00     0.071 A 
ATOM     19  C   UNL A   1      33.673  27.021  22.692  1.00  0.00     0.121 A 
ATOM     20  C   UNL A   1      33.735  28.369  23.034  1.00  0.00     0.048 A 
ATOM     21  C   UNL A   1      33.503  26.060  23.690  1.00  0.00     0.074 A 
ATOM     22  C   UNL A   1      33.686  28.746  24.380  1.00  0.00     0.026 A 
ATOM     23  C   UNL A   1      33.595  27.773  25.381  1.00  0.00     0.065 A 
ATOM     24  Cl  UNL A   1      33.526  28.286  27.028  1.00  0.00    -0.082 Cl
BRANCH  19  25
ATOM     25  O   UNL A   1      33.714  26.547  21.410  1.00  0.00    -0.497 OA
ATOM     26  C   UNL A   1      32.718  25.568  21.121  1.00  0.00     0.278 C 
ENDBRANCH  19  25
ENDBRANCH  16  18
ENDBRANCH  13  16
ENDBRANCH   7  13
ENDBRANCH   3   6
ENDBRANCH   1   2
BRANCH   1  27
ATOM     27  C   UNL A   1      37.284  21.359  24.730  1.00  0.00     0.023 C 
BRANCH  27  28
ATOM     28  C   UNL A   1      38.563  21.338  25.577  1.00  0.00     0.023 C 
BRANCH  28  29
ATOM     29  C   UNL A   1      38.971  22.712  26.093  1.00  0.00     0.116 C 
BRANCH  29  30
ATOM     30  N   UNL A   1      40.387  22.887  26.389  1.00  0.00    -0.352 N 
ATOM     31  C   UNL A   1      41.084  24.055  26.657  1.00  0.00     0.251 C 
ATOM     32  H   UNL A   1      40.923  22.061  26.400  1.00  0.00     0.163 HD
ATOM     33  O   UNL A   1      42.306  24.033  26.757  1.00  0.00    -0.269 OA
BRANCH  31  34
ATOM     34  C   UNL A   1      40.342  25.303  26.968  1.00  0.00     0.039 A 
ATOM     35  C   UNL A   1      40.745  26.484  26.329  1.00  0.00     0.014 A 
ATOM     36  C   UNL A   1      39.447  25.360  28.031  1.00  0.00     0.014 A 
ATOM     37  C   UNL A   1      40.478  27.712  26.931  1.00  0.00     0.010 A 
ATOM     38  C   UNL A   1      39.291  26.558  28.698  1.00  0.00     0.010 A 
ATOM     39  C   UNL A   1      39.862  27.723  28.182  1.00  0.00    -0.014 A 
BRANCH  39  40
ATOM     40  C   UNL A   1      39.863  28.881  29.066  1.00  0.00     0.031 A 
ATOM     41  C   UNL A   1      38.822  29.919  28.931  1.00  0.00     0.074 A 
ATOM     42  C   UNL A   1      40.763  28.944  30.073  1.00  0.00     0.049 A 
ATOM     43  N   UNL A   1      38.962  31.144  29.310  1.00  0.00    -0.248 NA
ATOM     44  C   UNL A   1      37.526  29.652  28.318  1.00  0.00     0.031 C 
ATOM     45  C   UNL A   1      40.769  29.869  31.204  1.00  0.00     0.029 A 
ATOM     46  N   UNL A   1      41.992  28.266  30.173  1.00  0.00    -0.354 N 
ATOM     47  C   UNL A   1      37.726  31.749  29.240  1.00  0.00     0.074 A 
ATOM     48  C   UNL A   1      36.877  30.793  28.569  1.00  0.00     0.031 C 
ATOM     49  C   UNL A   1      42.016  29.940  31.698  1.00  0.00     0.029 A 
ATOM     50  C   UNL A   1      42.872  29.171  30.811  1.00  0.00     0.049 A 
ATOM     51  H   UNL A   1      42.196  27.354  29.863  1.00  0.00     0.167 HD
ATOM     52  C   UNL A   1      37.527  32.940  29.874  1.00  0.00     0.037 A 
ATOM     53  C   UNL A   1      43.972  29.660  30.171  1.00  0.00     0.037 A 
ATOM     54  C   UNL A   1      38.758  33.409  30.505  1.00  0.00     0.049 A 
ATOM     55  C   UNL A   1      43.966  31.162  30.023  1.00  0.00     0.074 A 
ATOM     56  C   UNL A   1      39.241  33.287  31.798  1.00  0.00     0.029 A 
ATOM     57  N   UNL A   1      39.835  33.798  29.716  1.00  0.00    -0.354 N 
ATOM     58  N   UNL A   1      42.888  31.893  30.099  1.00  0.00    -0.248 NA
ATOM     59  C   UNL A   1      45.163  31.954  29.749  1.00  0.00     0.031 C 
ATOM     60  C   UNL A   1      40.634  33.536  31.772  1.00  0.00     0.029 A 
ATOM     61  C   UNL A   1      40.993  33.837  30.470  1.00  0.00     0.049 A 
ATOM     62  H   UNL A   1      39.781  34.015  28.757  1.00  0.00     0.167 HD
ATOM     63  C   UNL A   1      43.213  33.205  29.880  1.00  0.00     0.074 A 
ATOM     64  C   UNL A   1      44.649  33.195  29.679  1.00  0.00     0.031 C 
ATOM     65  C   UNL A   1      42.272  34.194  29.876  1.00  0.00     0.037 A 
BRANCH  52  66
ATOM     66  C   UNL A   1      36.157  33.503  30.182  1.00  0.00     0.064 A 
ATOM     67  C   UNL A   1      35.364  34.083  29.167  1.00  0.00     0.173 A 
ATOM     68  C   UNL A   1      35.593  33.554  31.469  1.00  0.00     0.173 A 
ATOM     69  F   UNL A   1      35.713  34.010  27.877  1.00  0.00    -0.203 F 
ATOM     70  C   UNL A   1      34.177  34.770  29.440  1.00  0.00     0.198 A 
ATOM     71  C   UNL A   1      34.436  34.290  31.753  1.00  0.00     0.198 A 
ATOM     72  F   UNL A   1      36.116  32.853  32.483  1.00  0.00    -0.203 F 
ATOM     73  F   UNL A   1      33.475  35.310  28.434  1.00  0.00    -0.200 F 
ATOM     74  C   UNL A   1      33.736  34.910  30.739  1.00  0.00     0.200 A 
ATOM     75  F   UNL A   1      34.008  34.394  33.020  1.00  0.00    -0.200 F 
ATOM     76  F   UNL A   1      32.628  35.615  31.008  1.00  0.00    -0.200 F 
ENDBRANCH  52  66
BRANCH  53  77
ATOM     77  C   UNL A   1      44.549  28.702  29.190  1.00  0.00     0.064 A 
ATOM     78  C   UNL A   1      45.269  27.599  29.690  1.00  0.00     0.173 A 
ATOM     79  C   UNL A   1      44.087  28.629  27.871  1.00  0.00     0.173 A 
ATOM     80  F   UNL A   1      45.733  27.617  30.950  1.00  0.00    -0.203 F 
ATOM     81  C   UNL A   1      45.403  26.426  28.951  1.00  0.00     0.198 A 
ATOM     82  C   UNL A   1      44.240  27.457  27.127  1.00  0.00     0.198 A 
ATOM     83  F   UNL A   1      43.381  29.639  27.343  1.00  0.00    -0.203 F 
ATOM     84  F   UNL A   1      45.980  25.350  29.507  1.00  0.00    -0.200 F 
ATOM     85  C   UNL A   1      44.862  26.346  27.680  1.00  0.00     0.200 A 
ATOM     86  F   UNL A   1      43.695  27.369  25.905  1.00  0.00    -0.200 F 
ATOM     87  F   UNL A   1      44.900  25.189  27.006  1.00  0.00    -0.200 F 
ENDBRANCH  53  77
BRANCH  65  88
ATOM     88  C   UNL A   1      42.497  35.612  29.421  1.00  0.00     0.064 A 
ATOM     89  C   UNL A   1      43.252  36.549  30.146  1.00  0.00     0.173 A 
ATOM     90  C   UNL A   1      42.068  36.031  28.139  1.00  0.00     0.173 A 
ATOM     91  F   UNL A   1      43.816  36.230  31.319  1.00  0.00    -0.203 F 
ATOM     92  C   UNL A   1      43.496  37.835  29.657  1.00  0.00     0.198 A 
ATOM     93  C   UNL A   1      42.362  37.294  27.631  1.00  0.00     0.198 A 
ATOM     94  F   UNL A   1      41.370  35.215  27.334  1.00  0.00    -0.203 F 
ATOM     95  F   UNL A   1      44.183  38.709  30.406  1.00  0.00    -0.200 F 
ATOM     96  C   UNL A   1      43.062  38.203  28.397  1.00  0.00     0.200 A 
ATOM     97  F   UNL A   1      41.981  37.617  26.387  1.00  0.00    -0.200 F 
ATOM     98  F   UNL A   1      43.334  39.423  27.916  1.00  0.00    -0.200 F 
ENDBRANCH  65  88
ENDBRANCH  39  40
ENDBRANCH  31  34
ENDBRANCH  29  30
ENDBRANCH  28  29
ENDBRANCH  27  28
ENDBRANCH   1  27
TORSDOF 15
ENDMDL
MODEL 3
REMARK VINA RESULT:     -13.8      3.576      9.883
REMARK SMILES COc1ccc(Cl)c(NS(=O)(=O)c2ccc(C)c(C(=O)NCCCCNC(=O)c3ccc(-c4c5nc(c(-c6c(F)c(F)c(F)c(F)c6F)c6ccc([nH]6)c(-c6c(F)c(F)c(F)c(F)c6F)c6nc(c(-c7c(F)c(F)c(F)c(F)c7F)c7ccc4[nH]7)C=C6)C=C5)cc3)c2)c1
REMARK SMILES IDX 22 1 21 2 19 3 20 4 18 6 13 7 14 8 92 9 15 10 16 11 17 12
REMARK SMILES IDX 10 13 11 14 12 15 9 16 8 18 3 19 4 20 93 21 5 22 6 23 7 24
REMARK SMILES IDX 2 25 1 26 23 27 24 28 25 29 26 30 27 31 28 33 29 34 30 35
REMARK SMILES IDX 91 36 31 37 90 38 32 39 33 40 34 41 84 42 35 43 89 44 83 45
REMARK SMILES IDX 85 46 36 47 88 48 82 49 81 50 37 52 69 53 49 54 68 55 50 56
REMARK SMILES IDX 53 57 67 58 86 59 51 60 52 61 66 63 87 64 54 65 38 66 39 67
REMARK SMILES IDX 47 68 40 69 41 70 45 71 48 72 42 73 43 74 46 75 44 76 70 77
REMARK SMILES IDX 71 78 79 79 72 80 73 81 77 82 80 83 74 84 75 85 78 86 76 87
REMARK SMILES IDX 55 88 56 89 64 90 57 91 58 92 62 93 65 94 59 95 60 96 63 97
REMARK SMILES IDX 61 98
REMARK H PARENT 21 5 9 17 26 32 85 51 53 62
REMARK Flexibility Score: inf
ROOT
ATOM      1  C   UNL A   1      36.832  20.740  25.233  1.00  0.00     0.116 C 
ENDROOT
BRANCH   1   2
ATOM      2  N   UNL A   1      35.650  20.985  26.023  1.00  0.00    -0.352 N 
ATOM      3  C   UNL A   1      34.298  21.049  25.858  1.00  0.00     0.251 C 
ATOM      4  O   UNL A   1      33.721  21.146  26.951  1.00  0.00    -0.269 OA
ATOM      5  H   UNL A   1      35.891  21.159  26.961  1.00  0.00     0.163 HD
BRANCH   3   6
ATOM      6  C   UNL A   1      33.441  21.068  24.607  1.00  0.00     0.044 A 
ATOM      7  C   UNL A   1      32.812  22.645  22.805  1.00  0.00     0.088 A 
ATOM      8  C   UNL A   1      32.153  21.652  22.104  1.00  0.00     0.022 A 
ATOM      9  C   UNL A   1      33.376  22.377  24.057  1.00  0.00     0.036 A 
ATOM     10  C   UNL A   1      32.136  20.373  22.646  1.00  0.00     0.005 A 
ATOM     11  C   UNL A   1      32.795  20.050  23.869  1.00  0.00    -0.038 A 
ATOM     12  C   UNL A   1      32.716  18.599  24.221  1.00  0.00     0.045 C 
BRANCH   7  13
ATOM     13  S   UNL A   1      33.104  24.216  22.035  1.00  0.00     0.261 S 
ATOM     14  O   UNL A   1      33.280  24.012  20.605  1.00  0.00    -0.201 OA
ATOM     15  O   UNL A   1      34.097  24.906  22.813  1.00  0.00    -0.201 OA
BRANCH  13  16
ATOM     16  N   UNL A   1      31.634  25.047  22.277  1.00  0.00    -0.278 N 
ATOM     17  H   UNL A   1      30.983  25.136  21.545  1.00  0.00     0.180 HD
BRANCH  16  18
ATOM     18  C   UNL A   1      31.366  25.617  23.575  1.00  0.00     0.071 A 
ATOM     19  C   UNL A   1      30.516  25.345  25.836  1.00  0.00     0.121 A 
ATOM     20  C   UNL A   1      30.824  26.673  26.120  1.00  0.00     0.048 A 
ATOM     21  C   UNL A   1      30.838  24.812  24.587  1.00  0.00     0.074 A 
ATOM     22  C   UNL A   1      31.398  27.479  25.132  1.00  0.00     0.026 A 
ATOM     23  C   UNL A   1      31.646  26.960  23.857  1.00  0.00     0.065 A 
ATOM     24  Cl  UNL A   1      32.368  27.989  22.674  1.00  0.00    -0.082 Cl
BRANCH  19  25
ATOM     25  O   UNL A   1      29.952  24.474  26.728  1.00  0.00    -0.497 OA
ATOM     26  C   UNL A   1      30.482  23.152  26.661  1.00  0.00     0.278 C 
ENDBRANCH  19  25
ENDBRANCH  16  18
ENDBRANCH  13  16
ENDBRANCH   7  13
ENDBRANCH   3   6
ENDBRANCH   1   2
BRANCH   1  27
ATOM     27  C   UNL A   1      37.843  21.893  25.280  1.00  0.00     0.023 C 
BRANCH  27  28
ATOM     28  C   UNL A   1      39.141  21.582  26.037  1.00  0.00     0.023 C 
BRANCH  28  29
ATOM     29  C   UNL A   1      39.648  22.750  26.874  1.00  0.00     0.116 C 
BRANCH  29  30
ATOM     30  N   UNL A   1      41.007  23.193  26.591  1.00  0.00    -0.352 N 
ATOM     31  C   UNL A   1      41.487  24.483  26.424  1.00  0.00     0.251 C 
ATOM     32  H   UNL A   1      41.677  22.477  26.506  1.00  0.00     0.163 HD
ATOM     33  O   UNL A   1      42.644  24.667  26.060  1.00  0.00    -0.269 OA
BRANCH  31  34
ATOM     34  C   UNL A   1      40.648  25.641  26.827  1.00  0.00     0.039 A 
ATOM     35  C   UNL A   1      40.809  26.844  26.126  1.00  0.00     0.014 A 
ATOM     36  C   UNL A   1      39.913  25.618  28.007  1.00  0.00     0.014 A 
ATOM     37  C   UNL A   1      40.481  28.046  26.748  1.00  0.00     0.010 A 
ATOM     38  C   UNL A   1      39.706  26.806  28.678  1.00  0.00     0.010 A 
ATOM     39  C   UNL A   1      40.052  28.017  28.074  1.00  0.00    -0.014 A 
BRANCH  39  40
ATOM     40  C   UNL A   1      40.035  29.190  28.938  1.00  0.00     0.031 A 
ATOM     41  C   UNL A   1      38.953  30.187  28.816  1.00  0.00     0.074 A 
ATOM     42  C   UNL A   1      40.961  29.303  29.917  1.00  0.00     0.049 A 
ATOM     43  N   UNL A   1      39.058  31.423  29.170  1.00  0.00    -0.248 NA
ATOM     44  C   UNL A   1      37.651  29.862  28.246  1.00  0.00     0.031 C 
ATOM     45  C   UNL A   1      40.964  30.248  31.032  1.00  0.00     0.029 A 
ATOM     46  N   UNL A   1      42.216  28.672  29.993  1.00  0.00    -0.354 N 
ATOM     47  C   UNL A   1      37.800  31.981  29.126  1.00  0.00     0.074 A 
ATOM     48  C   UNL A   1      36.967  30.983  28.497  1.00  0.00     0.031 C 
ATOM     49  C   UNL A   1      42.221  30.374  31.488  1.00  0.00     0.029 A 
ATOM     50  C   UNL A   1      43.079  29.620  30.590  1.00  0.00     0.049 A 
ATOM     51  H   UNL A   1      42.445  27.763  29.693  1.00  0.00     0.167 HD
ATOM     52  C   UNL A   1      37.575  33.175  29.746  1.00  0.00     0.037 A 
ATOM     53  C   UNL A   1      44.142  30.138  29.910  1.00  0.00     0.037 A 
ATOM     54  C   UNL A   1      38.805  33.700  30.332  1.00  0.00     0.049 A 
ATOM     55  C   UNL A   1      44.077  31.636  29.736  1.00  0.00     0.074 A 
ATOM     56  C   UNL A   1      39.329  33.619  31.612  1.00  0.00     0.029 A 
ATOM     57  N   UNL A   1      39.845  34.113  29.506  1.00  0.00    -0.354 N 
ATOM     58  N   UNL A   1      42.976  32.328  29.831  1.00  0.00    -0.248 NA
ATOM     59  C   UNL A   1      45.235  32.465  29.414  1.00  0.00     0.031 C 
ATOM     60  C   UNL A   1      40.711  33.917  31.541  1.00  0.00     0.029 A 
ATOM     61  C   UNL A   1      41.022  34.208  30.225  1.00  0.00     0.049 A 
ATOM     62  H   UNL A   1      39.755  34.311  28.545  1.00  0.00     0.167 HD
ATOM     63  C   UNL A   1      43.246  33.647  29.581  1.00  0.00     0.074 A 
ATOM     64  C   UNL A   1      44.675  33.685  29.338  1.00  0.00     0.031 C 
ATOM     65  C   UNL A   1      42.269  34.601  29.588  1.00  0.00     0.037 A 
BRANCH  52  66
ATOM     66  C   UNL A   1      36.194  33.693  30.084  1.00  0.00     0.064 A 
ATOM     67  C   UNL A   1      35.323  34.156  29.073  1.00  0.00     0.173 A 
ATOM     68  C   UNL A   1      35.693  33.815  31.392  1.00  0.00     0.173 A 
ATOM     69  F   UNL A   1      35.612  34.003  27.775  1.00  0.00    -0.203 F 
ATOM     70  C   UNL A   1      34.118  34.804  29.357  1.00  0.00     0.198 A 
ATOM     71  C   UNL A   1      34.515  34.514  31.681  1.00  0.00     0.198 A 
ATOM     72  F   UNL A   1      36.301  33.218  32.425  1.00  0.00    -0.203 F 
ATOM     73  F   UNL A   1      33.340  35.232  28.353  1.00  0.00    -0.200 F 
ATOM     74  C   UNL A   1      33.734  35.021  30.664  1.00  0.00     0.200 A 
ATOM     75  F   UNL A   1      34.145  34.693  32.959  1.00  0.00    -0.200 F 
ATOM     76  F   UNL A   1      32.606  35.690  30.939  1.00  0.00    -0.200 F 
ENDBRANCH  52  66
BRANCH  53  77
ATOM     77  C   UNL A   1      44.726  29.184  28.929  1.00  0.00     0.064 A 
ATOM     78  C   UNL A   1      45.579  28.174  29.416  1.00  0.00     0.173 A 
ATOM     79  C   UNL A   1      44.171  29.003  27.657  1.00  0.00     0.173 A 
ATOM     80  F   UNL A   1      46.137  28.298  30.632  1.00  0.00    -0.203 F 
ATOM     81  C   UNL A   1      45.762  26.981  28.723  1.00  0.00     0.198 A 
ATOM     82  C   UNL A   1      44.372  27.811  26.956  1.00  0.00     0.198 A 
ATOM     83  F   UNL A   1      43.338  29.919  27.143  1.00  0.00    -0.203 F 
ATOM     84  F   UNL A   1      46.475  25.990  29.277  1.00  0.00    -0.200 F 
ATOM     85  C   UNL A   1      45.133  26.789  27.505  1.00  0.00     0.200 A 
ATOM     86  F   UNL A   1      43.744  27.613  25.787  1.00  0.00    -0.200 F 
ATOM     87  F   UNL A   1      45.224  25.605  26.883  1.00  0.00    -0.200 F 
ENDBRANCH  53  77
BRANCH  65  88
ATOM     88  C   UNL A   1      42.429  36.018  29.102  1.00  0.00     0.064 A 
ATOM     89  C   UNL A   1      41.860  36.499  27.912  1.00  0.00     0.173 A 
ATOM     90  C   UNL A   1      43.056  36.989  29.918  1.00  0.00     0.173 A 
ATOM     91  F   UNL A   1      41.136  35.701  27.115  1.00  0.00    -0.203 F 
ATOM     92  C   UNL A   1      41.973  37.838  27.530  1.00  0.00     0.198 A 
ATOM     93  C   UNL A   1      43.118  38.334  29.561  1.00  0.00     0.198 A 
ATOM     94  F   UNL A   1      43.606  36.662  31.098  1.00  0.00    -0.203 F 
ATOM     95  F   UNL A   1      41.452  38.239  26.361  1.00  0.00    -0.200 F 
ATOM     96  C   UNL A   1      42.591  38.756  28.358  1.00  0.00     0.200 A 
ATOM     97  F   UNL A   1      43.672  39.221  30.400  1.00  0.00    -0.200 F 
ATOM     98  F   UNL A   1      42.661  40.046  28.006  1.00  0.00    -0.200 F 
ENDBRANCH  65  88
ENDBRANCH  39  40
ENDBRANCH  31  34
ENDBRANCH  29  30
ENDBRANCH  28  29
ENDBRANCH  27  28
ENDBRANCH   1  27
TORSDOF 15
ENDMDL
