MODEL 1
REMARK VINA RESULT:     -10.3      0.000      0.000
REMARK SMILES O=C(Nc1c(F)cc(F)cc1F)N[C@H]1C=C[C@H](C(=O)NCCCCNC(=O)c2ccc(-c3c4nc(c(-c5c(F)c(F)c(F)c(F)c5F)c5ccc([nH]5)c(-c5c(F)c(F)c(F)c(F)c5F)c5nc(c(-c6c(F)c(F)c(F)c(F)c6F)c6ccc3[nH]6)C=C5)C=C4)cc2)C1
REMARK SMILES IDX 22 1 21 2 20 3 18 4 19 5 17 7 14 8 15 9 91 10 16 11 13 12
REMARK SMILES IDX 1 13 2 14 3 15 4 18 5 19 11 20 6 21 7 22 10 23 12 24 8 25
REMARK SMILES IDX 9 26 23 27 24 28 25 29 26 30 27 32 28 33 29 34 90 35 30 36
REMARK SMILES IDX 89 37 31 38 32 39 33 40 83 41 34 42 88 43 82 44 84 45 35 46
REMARK SMILES IDX 87 47 81 48 80 49 36 51 68 52 48 53 67 54 49 55 52 56 66 57
REMARK SMILES IDX 85 58 50 59 51 60 65 62 86 63 53 64 37 65 38 66 46 67 39 68
REMARK SMILES IDX 40 69 44 70 47 71 41 72 42 73 45 74 43 75 69 76 70 77 78 78
REMARK SMILES IDX 71 79 72 80 76 81 79 82 73 83 74 84 77 85 75 86 54 87 55 88
REMARK SMILES IDX 63 89 56 90 57 91 61 92 64 93 58 94 59 95 62 96 60 97
REMARK H PARENT 20 6 3 16 13 17 25 31 84 50 52 61
REMARK Flexibility Score: inf
ROOT
ATOM      1  C   UNL A   1      42.538  23.251  28.664  1.00  0.00     0.023 C 
ENDROOT
BRANCH   1   2
ATOM      2  C   UNL A   1      43.928  22.895  29.184  1.00  0.00     0.116 C 
BRANCH   2   3
ATOM      3  N   UNL A   1      44.880  22.716  28.104  1.00  0.00    -0.356 N 
ATOM      4  C   UNL A   1      45.697  23.645  27.524  1.00  0.00     0.227 C 
ATOM      5  O   UNL A   1      46.470  23.270  26.641  1.00  0.00    -0.274 OA
ATOM      6  H   UNL A   1      44.946  21.804  27.740  1.00  0.00     0.163 HD
BRANCH   4   7
ATOM      7  C   UNL A   1      45.635  25.086  28.028  1.00  0.00     0.103 C 
ATOM      8  C   UNL A   1      46.347  26.867  26.508  1.00  0.00     0.107 C 
ATOM      9  C   UNL A   1      47.429  26.509  27.467  1.00  0.00    -0.006 C 
ATOM     10  C   UNL A   1      45.124  26.069  26.965  1.00  0.00     0.047 C 
ATOM     11  C   UNL A   1      47.038  25.549  28.308  1.00  0.00    -0.016 C 
BRANCH   8  12
ATOM     12  N   UNL A   1      46.183  28.298  26.488  1.00  0.00    -0.332 N 
ATOM     13  O   UNL A   1      46.739  28.737  24.313  1.00  0.00    -0.248 OA
ATOM     14  C   UNL A   1      46.367  29.119  25.421  1.00  0.00     0.319 C 
ATOM     15  N   UNL A   1      45.995  30.424  25.567  1.00  0.00    -0.303 N 
ATOM     16  H   UNL A   1      45.974  30.930  24.723  1.00  0.00     0.172 HD
ATOM     17  H   UNL A   1      45.912  28.724  27.333  1.00  0.00     0.165 HD
BRANCH  15  18
ATOM     18  C   UNL A   1      45.635  31.183  26.698  1.00  0.00     0.115 A 
ATOM     19  C   UNL A   1      44.441  31.051  27.416  1.00  0.00     0.152 A 
ATOM     20  C   UNL A   1      46.552  32.144  27.141  1.00  0.00     0.152 A 
ATOM     21  F   UNL A   1      43.554  30.094  27.110  1.00  0.00    -0.204 F 
ATOM     22  C   UNL A   1      44.134  31.889  28.481  1.00  0.00     0.081 A 
ATOM     23  C   UNL A   1      46.258  33.003  28.195  1.00  0.00     0.081 A 
ATOM     24  F   UNL A   1      47.724  32.285  26.503  1.00  0.00    -0.204 F 
ATOM     25  C   UNL A   1      45.041  32.872  28.849  1.00  0.00     0.129 A 
ATOM     26  F   UNL A   1      44.736  33.705  29.850  1.00  0.00    -0.207 F 
ENDBRANCH  15  18
ENDBRANCH   8  12
ENDBRANCH   4   7
ENDBRANCH   2   3
ENDBRANCH   1   2
BRANCH   1  27
ATOM     27  C   UNL A   1      41.876  22.161  27.821  1.00  0.00     0.023 C 
BRANCH  27  28
ATOM     28  C   UNL A   1      41.682  22.507  26.349  1.00  0.00     0.116 C 
BRANCH  28  29
ATOM     29  N   UNL A   1      40.292  22.426  25.928  1.00  0.00    -0.352 N 
ATOM     30  C   UNL A   1      39.251  23.281  26.194  1.00  0.00     0.251 C 
ATOM     31  H   UNL A   1      40.065  21.646  25.373  1.00  0.00     0.163 HD
ATOM     32  O   UNL A   1      38.105  22.973  25.876  1.00  0.00    -0.269 OA
BRANCH  30  33
ATOM     33  C   UNL A   1      39.500  24.560  26.894  1.00  0.00     0.039 A 
ATOM     34  C   UNL A   1      39.046  24.706  28.207  1.00  0.00     0.014 A 
ATOM     35  C   UNL A   1      40.182  25.607  26.267  1.00  0.00     0.014 A 
ATOM     36  C   UNL A   1      39.336  25.874  28.915  1.00  0.00     0.010 A 
ATOM     37  C   UNL A   1      40.538  26.737  26.998  1.00  0.00     0.010 A 
ATOM     38  C   UNL A   1      40.121  26.884  28.330  1.00  0.00    -0.014 A 
BRANCH  38  39
ATOM     39  C   UNL A   1      40.525  28.086  29.103  1.00  0.00     0.031 A 
ATOM     40  C   UNL A   1      41.914  28.197  29.666  1.00  0.00     0.074 A 
ATOM     41  C   UNL A   1      39.622  29.058  29.342  1.00  0.00     0.049 A 
ATOM     42  N   UNL A   1      42.431  29.143  30.409  1.00  0.00    -0.248 NA
ATOM     43  C   UNL A   1      42.840  27.090  29.376  1.00  0.00     0.031 C 
ATOM     44  C   UNL A   1      38.231  29.046  28.883  1.00  0.00     0.029 A 
ATOM     45  N   UNL A   1      39.734  30.240  30.030  1.00  0.00    -0.354 N 
ATOM     46  C   UNL A   1      43.734  28.743  30.678  1.00  0.00     0.074 A 
ATOM     47  C   UNL A   1      43.911  27.443  30.070  1.00  0.00     0.031 C 
ATOM     48  C   UNL A   1      37.631  30.181  29.274  1.00  0.00     0.029 A 
ATOM     49  C   UNL A   1      38.576  30.980  30.047  1.00  0.00     0.049 A 
ATOM     50  H   UNL A   1      40.565  30.530  30.470  1.00  0.00     0.167 HD
ATOM     51  C   UNL A   1      44.700  29.413  31.349  1.00  0.00     0.037 A 
ATOM     52  C   UNL A   1      38.305  32.167  30.625  1.00  0.00     0.037 A 
ATOM     53  C   UNL A   1      44.525  30.717  31.934  1.00  0.00     0.049 A 
ATOM     54  C   UNL A   1      39.390  32.879  31.386  1.00  0.00     0.074 A 
ATOM     55  C   UNL A   1      45.461  31.498  32.589  1.00  0.00     0.029 A 
ATOM     56  N   UNL A   1      43.336  31.432  31.936  1.00  0.00    -0.354 N 
ATOM     57  N   UNL A   1      40.634  32.517  31.585  1.00  0.00    -0.248 NA
ATOM     58  C   UNL A   1      39.035  34.166  32.003  1.00  0.00     0.031 C 
ATOM     59  C   UNL A   1      44.824  32.659  33.037  1.00  0.00     0.029 A 
ATOM     60  C   UNL A   1      43.508  32.632  32.606  1.00  0.00     0.049 A 
ATOM     61  H   UNL A   1      42.494  31.130  31.523  1.00  0.00     0.167 HD
ATOM     62  C   UNL A   1      41.216  33.537  32.325  1.00  0.00     0.074 A 
ATOM     63  C   UNL A   1      40.194  34.542  32.526  1.00  0.00     0.031 C 
ATOM     64  C   UNL A   1      42.484  33.628  32.797  1.00  0.00     0.037 A 
BRANCH  51  65
ATOM     65  C   UNL A   1      46.047  28.761  31.479  1.00  0.00     0.064 A 
ATOM     66  C   UNL A   1      47.027  28.941  30.491  1.00  0.00     0.173 A 
ATOM     67  C   UNL A   1      46.344  27.896  32.545  1.00  0.00     0.173 A 
ATOM     68  F   UNL A   1      46.794  29.751  29.447  1.00  0.00    -0.203 F 
ATOM     69  C   UNL A   1      48.245  28.269  30.556  1.00  0.00     0.198 A 
ATOM     70  C   UNL A   1      47.575  27.251  32.624  1.00  0.00     0.198 A 
ATOM     71  F   UNL A   1      45.446  27.697  33.521  1.00  0.00    -0.203 F 
ATOM     72  F   UNL A   1      49.150  28.428  29.581  1.00  0.00    -0.200 F 
ATOM     73  C   UNL A   1      48.519  27.428  31.625  1.00  0.00     0.200 A 
ATOM     74  F   UNL A   1      47.847  26.459  33.670  1.00  0.00    -0.200 F 
ATOM     75  F   UNL A   1      49.696  26.790  31.692  1.00  0.00    -0.200 F 
ENDBRANCH  51  65
BRANCH  52  76
ATOM     76  C   UNL A   1      36.952  32.767  30.473  1.00  0.00     0.064 A 
ATOM     77  C   UNL A   1      36.604  33.511  29.336  1.00  0.00     0.173 A 
ATOM     78  C   UNL A   1      35.989  32.629  31.481  1.00  0.00     0.173 A 
ATOM     79  F   UNL A   1      37.490  33.677  28.343  1.00  0.00    -0.203 F 
ATOM     80  C   UNL A   1      35.351  34.112  29.225  1.00  0.00     0.198 A 
ATOM     81  C   UNL A   1      34.726  33.205  31.356  1.00  0.00     0.198 A 
ATOM     82  F   UNL A   1      36.266  31.908  32.579  1.00  0.00    -0.203 F 
ATOM     83  F   UNL A   1      35.058  34.850  28.146  1.00  0.00    -0.200 F 
ATOM     84  C   UNL A   1      34.412  33.954  30.233  1.00  0.00     0.200 A 
ATOM     85  F   UNL A   1      33.813  33.028  32.320  1.00  0.00    -0.200 F 
ATOM     86  F   UNL A   1      33.203  34.521  30.120  1.00  0.00    -0.200 F 
ENDBRANCH  52  76
BRANCH  64  87
ATOM     87  C   UNL A   1      42.856  34.864  33.565  1.00  0.00     0.064 A 
ATOM     88  C   UNL A   1      42.737  34.894  34.963  1.00  0.00     0.173 A 
ATOM     89  C   UNL A   1      43.250  36.042  32.915  1.00  0.00     0.173 A 
ATOM     90  F   UNL A   1      42.355  33.797  35.634  1.00  0.00    -0.203 F 
ATOM     91  C   UNL A   1      42.982  36.062  35.679  1.00  0.00     0.198 A 
ATOM     92  C   UNL A   1      43.526  37.200  33.638  1.00  0.00     0.198 A 
ATOM     93  F   UNL A   1      43.390  36.063  31.581  1.00  0.00    -0.203 F 
ATOM     94  F   UNL A   1      42.822  36.077  37.011  1.00  0.00    -0.200 F 
ATOM     95  C   UNL A   1      43.380  37.213  35.016  1.00  0.00     0.200 A 
ATOM     96  F   UNL A   1      43.936  38.304  32.998  1.00  0.00    -0.200 F 
ATOM     97  F   UNL A   1      43.625  38.335  35.707  1.00  0.00    -0.200 F 
ENDBRANCH  64  87
ENDBRANCH  38  39
ENDBRANCH  30  33
ENDBRANCH  28  29
ENDBRANCH  27  28
ENDBRANCH   1  27
TORSDOF 13
ENDMDL
MODEL 2
REMARK VINA RESULT:     -10.1      5.732     10.986
REMARK SMILES O=C(Nc1c(F)cc(F)cc1F)N[C@H]1C=C[C@H](C(=O)NCCCCNC(=O)c2ccc(-c3c4nc(c(-c5c(F)c(F)c(F)c(F)c5F)c5ccc([nH]5)c(-c5c(F)c(F)c(F)c(F)c5F)c5nc(c(-c6c(F)c(F)c(F)c(F)c6F)c6ccc3[nH]6)C=C5)C=C4)cc2)C1
REMARK SMILES IDX 22 1 21 2 20 3 18 4 19 5 17 7 14 8 15 9 91 10 16 11 13 12
REMARK SMILES IDX 1 13 2 14 3 15 4 18 5 19 11 20 6 21 7 22 10 23 12 24 8 25
REMARK SMILES IDX 9 26 23 27 24 28 25 29 26 30 27 32 28 33 29 34 90 35 30 36
REMARK SMILES IDX 89 37 31 38 32 39 33 40 83 41 34 42 88 43 82 44 84 45 35 46
REMARK SMILES IDX 87 47 81 48 80 49 36 51 68 52 48 53 67 54 49 55 52 56 66 57
REMARK SMILES IDX 85 58 50 59 51 60 65 62 86 63 53 64 37 65 38 66 46 67 39 68
REMARK SMILES IDX 40 69 44 70 47 71 41 72 42 73 45 74 43 75 69 76 70 77 78 78
REMARK SMILES IDX 71 79 72 80 76 81 79 82 73 83 74 84 77 85 75 86 54 87 55 88
REMARK SMILES IDX 63 89 56 90 57 91 61 92 64 93 58 94 59 95 62 96 60 97
REMARK H PARENT 20 6 3 16 13 17 25 31 84 50 52 61
REMARK Flexibility Score: inf
ROOT
ATOM      1  C   UNL A   1      31.650  30.574  26.630  1.00  0.00     0.023 C 
ENDROOT
BRANCH   1   2
ATOM      2  C   UNL A   1      32.115  30.075  25.266  1.00  0.00     0.116 C 
BRANCH   2   3
ATOM      3  N   UNL A   1      31.007  29.909  24.344  1.00  0.00    -0.356 N 
ATOM      4  C   UNL A   1      30.390  28.754  23.950  1.00  0.00     0.227 C 
ATOM      5  O   UNL A   1      29.430  28.839  23.184  1.00  0.00    -0.274 OA
ATOM      6  H   UNL A   1      30.652  30.738  23.949  1.00  0.00     0.163 HD
BRANCH   4   7
ATOM      7  C   UNL A   1      30.901  27.429  24.512  1.00  0.00     0.103 C 
ATOM      8  C   UNL A   1      31.264  25.582  22.947  1.00  0.00     0.107 C 
ATOM      9  C   UNL A   1      29.956  25.450  23.646  1.00  0.00    -0.006 C 
ATOM     10  C   UNL A   1      31.960  26.769  23.616  1.00  0.00     0.047 C 
ATOM     11  C   UNL A   1      29.762  26.447  24.513  1.00  0.00    -0.016 C 
BRANCH   8  12
ATOM     12  N   UNL A   1      31.970  24.328  23.016  1.00  0.00    -0.332 N 
ATOM     13  O   UNL A   1      33.275  24.496  21.146  1.00  0.00    -0.248 OA
ATOM     14  C   UNL A   1      32.915  23.882  22.147  1.00  0.00     0.319 C 
ATOM     15  N   UNL A   1      33.584  22.742  22.487  1.00  0.00    -0.303 N 
ATOM     16  H   UNL A   1      34.375  22.562  21.928  1.00  0.00     0.172 HD
ATOM     17  H   UNL A   1      31.744  23.734  23.768  1.00  0.00     0.165 HD
BRANCH  15  18
ATOM     18  C   UNL A   1      33.358  21.774  23.486  1.00  0.00     0.115 A 
ATOM     19  C   UNL A   1      33.909  21.793  24.771  1.00  0.00     0.152 A 
ATOM     20  C   UNL A   1      32.506  20.710  23.163  1.00  0.00     0.152 A 
ATOM     21  F   UNL A   1      34.660  22.823  25.185  1.00  0.00    -0.204 F 
ATOM     22  C   UNL A   1      33.688  20.760  25.674  1.00  0.00     0.081 A 
ATOM     23  C   UNL A   1      32.284  19.660  24.046  1.00  0.00     0.081 A 
ATOM     24  F   UNL A   1      31.930  20.667  21.952  1.00  0.00    -0.204 F 
ATOM     25  C   UNL A   1      32.890  19.691  25.294  1.00  0.00     0.129 A 
ATOM     26  F   UNL A   1      32.702  18.677  26.146  1.00  0.00    -0.207 F 
ENDBRANCH  15  18
ENDBRANCH   8  12
ENDBRANCH   4   7
ENDBRANCH   2   3
ENDBRANCH   1   2
BRANCH   1  27
ATOM     27  C   UNL A   1      31.512  32.093  26.741  1.00  0.00     0.023 C 
BRANCH  27  28
ATOM     28  C   UNL A   1      32.748  32.821  27.257  1.00  0.00     0.116 C 
BRANCH  28  29
ATOM     29  N   UNL A   1      32.476  34.201  27.627  1.00  0.00    -0.352 N 
ATOM     30  C   UNL A   1      33.050  34.966  28.614  1.00  0.00     0.251 C 
ATOM     31  H   UNL A   1      31.781  34.651  27.096  1.00  0.00     0.163 HD
ATOM     32  O   UNL A   1      32.589  36.074  28.880  1.00  0.00    -0.269 OA
BRANCH  30  33
ATOM     33  C   UNL A   1      34.203  34.447  29.380  1.00  0.00     0.039 A 
ATOM     34  C   UNL A   1      33.965  33.791  30.589  1.00  0.00     0.014 A 
ATOM     35  C   UNL A   1      35.511  34.599  28.910  1.00  0.00     0.014 A 
ATOM     36  C   UNL A   1      35.030  33.225  31.293  1.00  0.00     0.010 A 
ATOM     37  C   UNL A   1      36.562  33.967  29.571  1.00  0.00     0.010 A 
ATOM     38  C   UNL A   1      36.334  33.273  30.769  1.00  0.00    -0.014 A 
BRANCH  38  39
ATOM     39  C   UNL A   1      37.461  32.588  31.452  1.00  0.00     0.031 A 
ATOM     40  C   UNL A   1      38.158  31.429  30.796  1.00  0.00     0.074 A 
ATOM     41  C   UNL A   1      37.825  32.979  32.689  1.00  0.00     0.049 A 
ATOM     42  N   UNL A   1      39.123  30.676  31.258  1.00  0.00    -0.248 NA
ATOM     43  C   UNL A   1      37.695  31.050  29.451  1.00  0.00     0.031 C 
ATOM     44  C   UNL A   1      37.199  34.064  33.448  1.00  0.00     0.029 A 
ATOM     45  N   UNL A   1      38.804  32.509  33.530  1.00  0.00    -0.354 N 
ATOM     46  C   UNL A   1      39.377  29.735  30.268  1.00  0.00     0.074 A 
ATOM     47  C   UNL A   1      38.426  29.974  29.204  1.00  0.00     0.031 C 
ATOM     48  C   UNL A   1      37.831  34.198  34.624  1.00  0.00     0.029 A 
ATOM     49  C   UNL A   1      38.875  33.183  34.725  1.00  0.00     0.049 A 
ATOM     50  H   UNL A   1      39.399  31.760  33.297  1.00  0.00     0.167 HD
ATOM     51  C   UNL A   1      40.334  28.778  30.240  1.00  0.00     0.037 A 
ATOM     52  C   UNL A   1      39.686  33.000  35.786  1.00  0.00     0.037 A 
ATOM     53  C   UNL A   1      41.292  28.558  31.292  1.00  0.00     0.049 A 
ATOM     54  C   UNL A   1      40.724  31.913  35.738  1.00  0.00     0.074 A 
ATOM     55  C   UNL A   1      42.331  27.646  31.331  1.00  0.00     0.029 A 
ATOM     56  N   UNL A   1      41.327  29.256  32.490  1.00  0.00    -0.354 N 
ATOM     57  N   UNL A   1      40.992  31.068  34.772  1.00  0.00    -0.248 NA
ATOM     58  C   UNL A   1      41.575  31.754  36.926  1.00  0.00     0.031 C 
ATOM     59  C   UNL A   1      42.959  27.753  32.575  1.00  0.00     0.029 A 
ATOM     60  C   UNL A   1      42.354  28.775  33.287  1.00  0.00     0.049 A 
ATOM     61  H   UNL A   1      40.713  29.986  32.738  1.00  0.00     0.167 HD
ATOM     62  C   UNL A   1      42.053  30.294  35.223  1.00  0.00     0.074 A 
ATOM     63  C   UNL A   1      42.393  30.783  36.543  1.00  0.00     0.031 C 
ATOM     64  C   UNL A   1      42.686  29.272  34.598  1.00  0.00     0.037 A 
BRANCH  51  65
ATOM     65  C   UNL A   1      40.411  27.897  29.025  1.00  0.00     0.064 A 
ATOM     66  C   UNL A   1      41.191  28.271  27.920  1.00  0.00     0.173 A 
ATOM     67  C   UNL A   1      39.654  26.719  28.925  1.00  0.00     0.173 A 
ATOM     68  F   UNL A   1      41.928  29.391  27.959  1.00  0.00    -0.203 F 
ATOM     69  C   UNL A   1      41.197  27.507  26.755  1.00  0.00     0.198 A 
ATOM     70  C   UNL A   1      39.688  25.940  27.771  1.00  0.00     0.198 A 
ATOM     71  F   UNL A   1      38.900  26.311  29.956  1.00  0.00    -0.203 F 
ATOM     72  F   UNL A   1      41.920  27.904  25.699  1.00  0.00    -0.200 F 
ATOM     73  C   UNL A   1      40.450  26.340  26.683  1.00  0.00     0.200 A 
ATOM     74  F   UNL A   1      38.985  24.801  27.713  1.00  0.00    -0.200 F 
ATOM     75  F   UNL A   1      40.465  25.601  25.566  1.00  0.00    -0.200 F 
ENDBRANCH  51  65
BRANCH  52  76
ATOM     76  C   UNL A   1      39.563  33.895  36.968  1.00  0.00     0.064 A 
ATOM     77  C   UNL A   1      38.810  33.525  38.092  1.00  0.00     0.173 A 
ATOM     78  C   UNL A   1      40.177  35.154  36.981  1.00  0.00     0.173 A 
ATOM     79  F   UNL A   1      38.198  32.333  38.129  1.00  0.00    -0.203 F 
ATOM     80  C   UNL A   1      38.659  34.391  39.174  1.00  0.00     0.198 A 
ATOM     81  C   UNL A   1      40.051  36.007  38.075  1.00  0.00     0.198 A 
ATOM     82  F   UNL A   1      40.926  35.545  35.938  1.00  0.00    -0.203 F 
ATOM     83  F   UNL A   1      37.901  34.030  40.218  1.00  0.00    -0.200 F 
ATOM     84  C   UNL A   1      39.284  35.629  39.167  1.00  0.00     0.200 A 
ATOM     85  F   UNL A   1      40.678  37.191  38.076  1.00  0.00    -0.200 F 
ATOM     86  F   UNL A   1      39.148  36.456  40.212  1.00  0.00    -0.200 F 
ENDBRANCH  52  76
BRANCH  64  87
ATOM     87  C   UNL A   1      43.827  28.612  35.318  1.00  0.00     0.064 A 
ATOM     88  C   UNL A   1      43.585  27.579  36.238  1.00  0.00     0.173 A 
ATOM     89  C   UNL A   1      45.148  29.054  35.162  1.00  0.00     0.173 A 
ATOM     90  F   UNL A   1      42.338  27.124  36.432  1.00  0.00    -0.203 F 
ATOM     91  C   UNL A   1      44.621  27.027  36.985  1.00  0.00     0.198 A 
ATOM     92  C   UNL A   1      46.187  28.477  35.888  1.00  0.00     0.198 A 
ATOM     93  F   UNL A   1      45.435  30.030  34.287  1.00  0.00    -0.203 F 
ATOM     94  F   UNL A   1      44.359  26.070  37.888  1.00  0.00    -0.200 F 
ATOM     95  C   UNL A   1      45.921  27.474  36.807  1.00  0.00     0.200 A 
ATOM     96  F   UNL A   1      47.447  28.891  35.695  1.00  0.00    -0.200 F 
ATOM     97  F   UNL A   1      46.919  26.935  37.521  1.00  0.00    -0.200 F 
ENDBRANCH  64  87
ENDBRANCH  38  39
ENDBRANCH  30  33
ENDBRANCH  28  29
ENDBRANCH  27  28
ENDBRANCH   1  27
TORSDOF 13
ENDMDL
MODEL 3
REMARK VINA RESULT:     -10.0      5.589     11.553
REMARK SMILES O=C(Nc1c(F)cc(F)cc1F)N[C@H]1C=C[C@H](C(=O)NCCCCNC(=O)c2ccc(-c3c4nc(c(-c5c(F)c(F)c(F)c(F)c5F)c5ccc([nH]5)c(-c5c(F)c(F)c(F)c(F)c5F)c5nc(c(-c6c(F)c(F)c(F)c(F)c6F)c6ccc3[nH]6)C=C5)C=C4)cc2)C1
REMARK SMILES IDX 22 1 21 2 20 3 18 4 19 5 17 7 14 8 15 9 91 10 16 11 13 12
REMARK SMILES IDX 1 13 2 14 3 15 4 18 5 19 11 20 6 21 7 22 10 23 12 24 8 25
REMARK SMILES IDX 9 26 23 27 24 28 25 29 26 30 27 32 28 33 29 34 90 35 30 36
REMARK SMILES IDX 89 37 31 38 32 39 33 40 83 41 34 42 88 43 82 44 84 45 35 46
REMARK SMILES IDX 87 47 81 48 80 49 36 51 68 52 48 53 67 54 49 55 52 56 66 57
REMARK SMILES IDX 85 58 50 59 51 60 65 62 86 63 53 64 37 65 38 66 46 67 39 68
REMARK SMILES IDX 40 69 44 70 47 71 41 72 42 73 45 74 43 75 69 76 70 77 78 78
REMARK SMILES IDX 71 79 72 80 76 81 79 82 73 83 74 84 77 85 75 86 54 87 55 88
REMARK SMILES IDX 63 89 56 90 57 91 61 92 64 93 58 94 59 95 62 96 60 97
REMARK H PARENT 20 6 3 16 13 17 25 31 84 50 52 61
REMARK Flexibility Score: inf
ROOT
ATOM      1  C   UNL A   1      31.704  30.650  26.847  1.00  0.00     0.023 C 
ENDROOT
BRANCH   1   2
ATOM      2  C   UNL A   1      32.187  30.096  25.510  1.00  0.00     0.116 C 
BRANCH   2   3
ATOM      3  N   UNL A   1      31.108  29.997  24.544  1.00  0.00    -0.356 N 
ATOM      4  C   UNL A   1      30.482  28.876  24.076  1.00  0.00     0.227 C 
ATOM      5  O   UNL A   1      29.551  29.018  23.283  1.00  0.00    -0.274 OA
ATOM      6  H   UNL A   1      30.785  30.851  24.177  1.00  0.00     0.163 HD
BRANCH   4   7
ATOM      7  C   UNL A   1      30.945  27.515  24.592  1.00  0.00     0.103 C 
ATOM      8  C   UNL A   1      31.388  25.755  22.950  1.00  0.00     0.107 C 
ATOM      9  C   UNL A   1      30.038  25.599  23.558  1.00  0.00    -0.006 C 
ATOM     10  C   UNL A   1      32.052  26.894  23.728  1.00  0.00     0.047 C 
ATOM     11  C   UNL A   1      29.799  26.548  24.466  1.00  0.00    -0.016 C 
BRANCH   8  12
ATOM     12  N   UNL A   1      32.078  24.491  22.991  1.00  0.00    -0.332 N 
ATOM     13  O   UNL A   1      33.275  24.620  21.047  1.00  0.00    -0.248 OA
ATOM     14  C   UNL A   1      32.964  24.021  22.074  1.00  0.00     0.319 C 
ATOM     15  N   UNL A   1      33.635  22.874  22.387  1.00  0.00    -0.303 N 
ATOM     16  H   UNL A   1      34.388  22.676  21.785  1.00  0.00     0.172 HD
ATOM     17  H   UNL A   1      31.886  23.907  23.761  1.00  0.00     0.165 HD
BRANCH  15  18
ATOM     18  C   UNL A   1      33.451  21.919  23.406  1.00  0.00     0.115 A 
ATOM     19  C   UNL A   1      34.107  21.918  24.642  1.00  0.00     0.152 A 
ATOM     20  C   UNL A   1      32.531  20.891  23.162  1.00  0.00     0.152 A 
ATOM     21  F   UNL A   1      34.932  22.916  24.986  1.00  0.00    -0.204 F 
ATOM     22  C   UNL A   1      33.918  20.897  25.567  1.00  0.00     0.081 A 
ATOM     23  C   UNL A   1      32.339  19.853  24.067  1.00  0.00     0.081 A 
ATOM     24  F   UNL A   1      31.855  20.870  22.002  1.00  0.00    -0.204 F 
ATOM     25  C   UNL A   1      33.047  19.862  25.260  1.00  0.00     0.129 A 
ATOM     26  F   UNL A   1      32.888  18.859  26.131  1.00  0.00    -0.207 F 
ENDBRANCH  15  18
ENDBRANCH   8  12
ENDBRANCH   4   7
ENDBRANCH   2   3
ENDBRANCH   1   2
BRANCH   1  27
ATOM     27  C   UNL A   1      31.507  32.165  26.875  1.00  0.00     0.023 C 
BRANCH  27  28
ATOM     28  C   UNL A   1      32.765  32.979  27.157  1.00  0.00     0.116 C 
BRANCH  28  29
ATOM     29  N   UNL A   1      32.475  34.303  27.686  1.00  0.00    -0.352 N 
ATOM     30  C   UNL A   1      33.047  34.960  28.747  1.00  0.00     0.251 C 
ATOM     31  H   UNL A   1      31.767  34.798  27.216  1.00  0.00     0.163 HD
ATOM     32  O   UNL A   1      32.571  36.022  29.143  1.00  0.00    -0.269 OA
BRANCH  30  33
ATOM     33  C   UNL A   1      34.218  34.378  29.438  1.00  0.00     0.039 A 
ATOM     34  C   UNL A   1      34.007  33.622  30.593  1.00  0.00     0.014 A 
ATOM     35  C   UNL A   1      35.514  34.568  28.951  1.00  0.00     0.014 A 
ATOM     36  C   UNL A   1      35.089  32.998  31.220  1.00  0.00     0.010 A 
ATOM     37  C   UNL A   1      36.579  33.882  29.529  1.00  0.00     0.010 A 
ATOM     38  C   UNL A   1      36.379  33.089  30.670  1.00  0.00    -0.014 A 
BRANCH  38  39
ATOM     39  C   UNL A   1      37.521  32.348  31.264  1.00  0.00     0.031 A 
ATOM     40  C   UNL A   1      38.025  32.701  32.636  1.00  0.00     0.074 A 
ATOM     41  C   UNL A   1      38.138  31.390  30.546  1.00  0.00     0.049 A 
ATOM     42  N   UNL A   1      39.040  32.204  33.296  1.00  0.00    -0.248 NA
ATOM     43  C   UNL A   1      37.310  33.769  33.353  1.00  0.00     0.031 C 
ATOM     44  C   UNL A   1      37.768  30.985  29.189  1.00  0.00     0.029 A 
ATOM     45  N   UNL A   1      39.208  30.584  30.852  1.00  0.00    -0.354 N 
ATOM     46  C   UNL A   1      39.088  32.899  34.498  1.00  0.00     0.074 A 
ATOM     47  C   UNL A   1      38.037  33.893  34.453  1.00  0.00     0.031 C 
ATOM     48  C   UNL A   1      38.574  29.986  28.794  1.00  0.00     0.029 A 
ATOM     49  C   UNL A   1      39.545  29.710  29.847  1.00  0.00     0.049 A 
ATOM     50  H   UNL A   1      39.687  30.630  31.711  1.00  0.00     0.167 HD
ATOM     51  C   UNL A   1      39.915  32.706  35.551  1.00  0.00     0.037 A 
ATOM     52  C   UNL A   1      40.529  28.792  29.780  1.00  0.00     0.037 A 
ATOM     53  C   UNL A   1      40.945  31.702  35.600  1.00  0.00     0.049 A 
ATOM     54  C   UNL A   1      41.451  28.616  30.956  1.00  0.00     0.074 A 
ATOM     55  C   UNL A   1      41.801  31.397  36.644  1.00  0.00     0.029 A 
ATOM     56  N   UNL A   1      41.261  30.839  34.560  1.00  0.00    -0.354 N 
ATOM     57  N   UNL A   1      41.449  29.240  32.108  1.00  0.00    -0.248 NA
ATOM     58  C   UNL A   1      42.511  27.606  30.823  1.00  0.00     0.031 C 
ATOM     59  C   UNL A   1      42.670  30.390  36.216  1.00  0.00     0.029 A 
ATOM     60  C   UNL A   1      42.317  30.021  34.929  1.00  0.00     0.049 A 
ATOM     61  H   UNL A   1      40.802  30.813  33.688  1.00  0.00     0.167 HD
ATOM     62  C   UNL A   1      42.486  28.686  32.846  1.00  0.00     0.074 A 
ATOM     63  C   UNL A   1      43.086  27.661  32.017  1.00  0.00     0.031 C 
ATOM     64  C   UNL A   1      42.904  29.001  34.097  1.00  0.00     0.037 A 
BRANCH  51  65
ATOM     65  C   UNL A   1      39.739  33.589  36.754  1.00  0.00     0.064 A 
ATOM     66  C   UNL A   1      38.879  33.211  37.798  1.00  0.00     0.173 A 
ATOM     67  C   UNL A   1      40.363  34.843  36.842  1.00  0.00     0.173 A 
ATOM     68  F   UNL A   1      38.252  32.025  37.762  1.00  0.00    -0.203 F 
ATOM     69  C   UNL A   1      38.639  34.063  38.874  1.00  0.00     0.198 A 
ATOM     70  C   UNL A   1      40.145  35.679  37.934  1.00  0.00     0.198 A 
ATOM     71  F   UNL A   1      41.201  35.249  35.876  1.00  0.00    -0.203 F 
ATOM     72  F   UNL A   1      37.785  33.695  39.839  1.00  0.00    -0.200 F 
ATOM     73  C   UNL A   1      39.276  35.293  38.943  1.00  0.00     0.200 A 
ATOM     74  F   UNL A   1      40.780  36.856  38.012  1.00  0.00    -0.200 F 
ATOM     75  F   UNL A   1      39.052  36.106  39.984  1.00  0.00    -0.200 F 
ENDBRANCH  51  65
BRANCH  52  76
ATOM     76  C   UNL A   1      40.666  27.949  28.562  1.00  0.00     0.064 A 
ATOM     77  C   UNL A   1      40.048  26.694  28.467  1.00  0.00     0.173 A 
ATOM     78  C   UNL A   1      41.446  28.375  27.479  1.00  0.00     0.173 A 
ATOM     79  F   UNL A   1      39.293  26.237  29.477  1.00  0.00    -0.203 F 
ATOM     80  C   UNL A   1      40.223  25.888  27.343  1.00  0.00     0.198 A 
ATOM     81  C   UNL A   1      41.597  27.582  26.343  1.00  0.00     0.198 A 
ATOM     82  F   UNL A   1      42.041  29.577  27.513  1.00  0.00    -0.203 F 
ATOM     83  F   UNL A   1      39.654  24.677  27.293  1.00  0.00    -0.200 F 
ATOM     84  C   UNL A   1      40.993  26.336  26.280  1.00  0.00     0.200 A 
ATOM     85  F   UNL A   1      42.320  28.029  25.308  1.00  0.00    -0.200 F 
ATOM     86  F   UNL A   1      41.152  25.566  25.194  1.00  0.00    -0.200 F 
ENDBRANCH  52  76
BRANCH  64  87
ATOM     87  C   UNL A   1      44.054  28.223  34.666  1.00  0.00     0.064 A 
ATOM     88  C   UNL A   1      43.827  27.036  35.380  1.00  0.00     0.173 A 
ATOM     89  C   UNL A   1      45.373  28.691  34.577  1.00  0.00     0.173 A 
ATOM     90  F   UNL A   1      42.583  26.549  35.503  1.00  0.00    -0.203 F 
ATOM     91  C   UNL A   1      44.873  26.358  35.998  1.00  0.00     0.198 A 
ATOM     92  C   UNL A   1      46.422  27.992  35.169  1.00  0.00     0.198 A 
ATOM     93  F   UNL A   1      45.648  29.814  33.895  1.00  0.00    -0.203 F 
ATOM     94  F   UNL A   1      44.624  25.249  36.710  1.00  0.00    -0.200 F 
ATOM     95  C   UNL A   1      46.170  26.834  35.889  1.00  0.00     0.200 A 
ATOM     96  F   UNL A   1      47.679  28.439  35.040  1.00  0.00    -0.200 F 
ATOM     97  F   UNL A   1      47.179  26.175  36.476  1.00  0.00    -0.200 F 
ENDBRANCH  64  87
ENDBRANCH  38  39
ENDBRANCH  30  33
ENDBRANCH  28  29
ENDBRANCH  27  28
ENDBRANCH   1  27
TORSDOF 13
ENDMDL
