MODEL 1
REMARK VINA RESULT:     -13.5      0.000      0.000
REMARK SMILES Cc1ccnc(C(=O)c2[nH]c3cc(F)ccc3c2CC(=O)NCCCCNC(=O)c2ccc(-c3c4nc(c(-c5c(F)c(F)c(F)c(F)c5F)c5ccc([nH]5)c(-c5c(F)c(F)c(F)c(F)c5F)c5nc(c(-c6c(F)c(F)c(F)c(F)c6F)c6ccc3[nH]6)C=C5)C=C4)cc2)c1
REMARK SMILES IDX 24 1 23 2 22 3 20 4 21 5 19 7 18 8 9 9 10 10 11 11 17 13
REMARK SMILES IDX 12 14 16 15 13 16 15 17 14 18 7 19 8 20 6 21 1 22 2 23 3 24
REMARK SMILES IDX 93 25 4 26 5 27 25 28 26 29 27 30 28 31 29 33 30 34 31 35
REMARK SMILES IDX 92 36 32 37 91 38 33 39 34 40 35 41 85 42 36 43 90 44 84 45
REMARK SMILES IDX 86 46 37 47 89 48 83 49 82 50 38 52 70 53 50 54 69 55 51 56
REMARK SMILES IDX 54 57 68 58 87 59 52 60 53 61 67 63 88 64 55 65 39 66 40 67
REMARK SMILES IDX 48 68 41 69 42 70 46 71 49 72 43 73 44 74 47 75 45 76 71 77
REMARK SMILES IDX 72 78 80 79 73 80 74 81 78 82 81 83 75 84 76 85 79 86 77 87
REMARK SMILES IDX 56 88 57 89 65 90 58 91 59 92 63 93 66 94 60 95 61 96 64 97
REMARK SMILES IDX 62 98
REMARK H PARENT 22 6 10 12 27 32 86 51 54 62
REMARK Flexibility Score: inf
ROOT
ATOM      1  C   UNL A   1      31.411  30.805  25.978  1.00  0.00     0.023 C 
ENDROOT
BRANCH   1   2
ATOM      2  C   UNL A   1      32.191  29.863  26.894  1.00  0.00     0.116 C 
BRANCH   2   3
ATOM      3  N   UNL A   1      31.592  28.550  27.003  1.00  0.00    -0.356 N 
ATOM      4  C   UNL A   1      32.132  27.328  26.716  1.00  0.00     0.224 C 
ATOM      5  O   UNL A   1      31.496  26.322  27.036  1.00  0.00    -0.275 OA
ATOM      6  H   UNL A   1      30.664  28.534  27.332  1.00  0.00     0.163 HD
BRANCH   4   7
ATOM      7  C   UNL A   1      33.529  27.210  26.126  1.00  0.00     0.138 C 
BRANCH   7   8
ATOM      8  C   UNL A   1      33.654  26.270  24.960  1.00  0.00    -0.002 A 
ATOM      9  C   UNL A   1      33.403  26.547  23.618  1.00  0.00     0.093 A 
ATOM     10  N   UNL A   1      33.705  25.415  22.898  1.00  0.00    -0.351 N 
ATOM     11  C   UNL A   1      34.070  24.389  23.733  1.00  0.00     0.049 A 
ATOM     12  H   UNL A   1      33.665  25.350  21.916  1.00  0.00     0.167 HD
ATOM     13  C   UNL A   1      34.029  24.885  25.035  1.00  0.00     0.004 A 
ATOM     14  C   UNL A   1      34.449  23.077  23.431  1.00  0.00     0.066 A 
ATOM     15  C   UNL A   1      34.368  24.014  26.095  1.00  0.00     0.013 A 
ATOM     16  C   UNL A   1      34.786  22.249  24.500  1.00  0.00     0.125 A 
ATOM     17  C   UNL A   1      34.747  22.697  25.813  1.00  0.00     0.040 A 
ATOM     18  F   UNL A   1      35.160  20.986  24.251  1.00  0.00    -0.207 F 
BRANCH   9  19
ATOM     19  C   UNL A   1      32.997  27.791  22.985  1.00  0.00     0.227 C 
ATOM     20  O   UNL A   1      33.820  28.515  22.435  1.00  0.00    -0.285 OA
BRANCH  19  21
ATOM     21  C   UNL A   1      31.525  28.133  22.963  1.00  0.00     0.113 A 
ATOM     22  C   UNL A   1      28.130  26.703  23.876  1.00  0.00     0.044 C 
ATOM     23  C   UNL A   1      29.208  27.612  23.365  1.00  0.00    -0.047 A 
ATOM     24  C   UNL A   1      28.880  28.847  22.806  1.00  0.00     0.023 A 
ATOM     25  C   UNL A   1      30.558  27.261  23.466  1.00  0.00     0.036 A 
ATOM     26  C   UNL A   1      29.903  29.661  22.347  1.00  0.00     0.112 A 
ATOM     27  N   UNL A   1      31.208  29.326  22.398  1.00  0.00    -0.253 NA
ENDBRANCH  19  21
ENDBRANCH   9  19
ENDBRANCH   7   8
ENDBRANCH   4   7
ENDBRANCH   2   3
ENDBRANCH   1   2
BRANCH   1  28
ATOM     28  C   UNL A   1      31.241  32.239  26.488  1.00  0.00     0.023 C 
BRANCH  28  29
ATOM     29  C   UNL A   1      32.436  32.829  27.232  1.00  0.00     0.116 C 
BRANCH  29  30
ATOM     30  N   UNL A   1      32.227  34.203  27.656  1.00  0.00    -0.352 N 
ATOM     31  C   UNL A   1      32.917  34.948  28.577  1.00  0.00     0.251 C 
ATOM     32  H   UNL A   1      31.479  34.668  27.216  1.00  0.00     0.163 HD
ATOM     33  O   UNL A   1      32.531  36.080  28.856  1.00  0.00    -0.269 OA
BRANCH  31  34
ATOM     34  C   UNL A   1      34.102  34.394  29.268  1.00  0.00     0.039 A 
ATOM     35  C   UNL A   1      33.900  33.704  30.470  1.00  0.00     0.014 A 
ATOM     36  C   UNL A   1      35.398  34.575  28.778  1.00  0.00     0.014 A 
ATOM     37  C   UNL A   1      34.985  33.145  31.147  1.00  0.00     0.010 A 
ATOM     38  C   UNL A   1      36.480  33.994  29.439  1.00  0.00     0.010 A 
ATOM     39  C   UNL A   1      36.280  33.269  30.622  1.00  0.00    -0.014 A 
BRANCH  39  40
ATOM     40  C   UNL A   1      37.435  32.631  31.293  1.00  0.00     0.031 A 
ATOM     41  C   UNL A   1      38.176  31.512  30.626  1.00  0.00     0.074 A 
ATOM     42  C   UNL A   1      37.780  33.026  32.531  1.00  0.00     0.049 A 
ATOM     43  N   UNL A   1      39.137  30.762  31.101  1.00  0.00    -0.248 NA
ATOM     44  C   UNL A   1      37.776  31.186  29.249  1.00  0.00     0.031 C 
ATOM     45  C   UNL A   1      37.127  34.092  33.292  1.00  0.00     0.029 A 
ATOM     46  N   UNL A   1      38.762  32.566  33.371  1.00  0.00    -0.354 N 
ATOM     47  C   UNL A   1      39.435  29.852  30.098  1.00  0.00     0.074 A 
ATOM     48  C   UNL A   1      38.561  30.151  28.981  1.00  0.00     0.031 C 
ATOM     49  C   UNL A   1      37.733  34.211  34.486  1.00  0.00     0.029 A 
ATOM     50  C   UNL A   1      38.798  33.215  34.578  1.00  0.00     0.049 A 
ATOM     51  H   UNL A   1      39.382  31.840  33.130  1.00  0.00     0.167 HD
ATOM     52  C   UNL A   1      40.349  28.855  30.110  1.00  0.00     0.037 A 
ATOM     53  C   UNL A   1      39.593  33.020  35.646  1.00  0.00     0.037 A 
ATOM     54  C   UNL A   1      41.249  28.577  31.196  1.00  0.00     0.049 A 
ATOM     55  C   UNL A   1      40.625  31.934  35.618  1.00  0.00     0.074 A 
ATOM     56  C   UNL A   1      42.241  27.614  31.275  1.00  0.00     0.029 A 
ATOM     57  N   UNL A   1      41.272  29.276  32.393  1.00  0.00    -0.354 N 
ATOM     58  N   UNL A   1      40.897  31.079  34.664  1.00  0.00    -0.248 NA
ATOM     59  C   UNL A   1      41.457  31.780  36.821  1.00  0.00     0.031 C 
ATOM     60  C   UNL A   1      42.863  27.728  32.525  1.00  0.00     0.029 A 
ATOM     61  C   UNL A   1      42.260  28.763  33.218  1.00  0.00     0.049 A 
ATOM     62  H   UNL A   1      40.676  30.024  32.622  1.00  0.00     0.167 HD
ATOM     63  C   UNL A   1      41.926  30.287  35.146  1.00  0.00     0.074 A 
ATOM     64  C   UNL A   1      42.237  30.763  36.479  1.00  0.00     0.031 C 
ATOM     65  C   UNL A   1      42.554  29.253  34.538  1.00  0.00     0.037 A 
BRANCH  52  66
ATOM     66  C   UNL A   1      40.407  27.974  28.905  1.00  0.00     0.064 A 
ATOM     67  C   UNL A   1      39.667  26.787  28.837  1.00  0.00     0.173 A 
ATOM     68  C   UNL A   1      41.194  28.332  27.803  1.00  0.00     0.173 A 
ATOM     69  F   UNL A   1      38.912  26.401  29.876  1.00  0.00    -0.203 F 
ATOM     70  C   UNL A   1      39.716  25.983  27.702  1.00  0.00     0.198 A 
ATOM     71  C   UNL A   1      41.238  27.529  26.667  1.00  0.00     0.198 A 
ATOM     72  F   UNL A   1      41.925  29.457  27.832  1.00  0.00    -0.203 F 
ATOM     73  F   UNL A   1      39.014  24.842  27.658  1.00  0.00    -0.200 F 
ATOM     74  C   UNL A   1      40.500  26.356  26.618  1.00  0.00     0.200 A 
ATOM     75  F   UNL A   1      41.998  27.887  25.624  1.00  0.00    -0.200 F 
ATOM     76  F   UNL A   1      40.550  25.578  25.528  1.00  0.00    -0.200 F 
ENDBRANCH  52  66
BRANCH  53  77
ATOM     77  C   UNL A   1      39.435  33.884  36.835  1.00  0.00     0.064 A 
ATOM     78  C   UNL A   1      38.662  33.465  37.924  1.00  0.00     0.173 A 
ATOM     79  C   UNL A   1      40.069  35.131  36.912  1.00  0.00     0.173 A 
ATOM     80  F   UNL A   1      38.028  32.285  37.880  1.00  0.00    -0.203 F 
ATOM     81  C   UNL A   1      38.529  34.265  39.055  1.00  0.00     0.198 A 
ATOM     82  C   UNL A   1      39.940  35.927  38.046  1.00  0.00     0.198 A 
ATOM     83  F   UNL A   1      40.813  35.569  35.886  1.00  0.00    -0.203 F 
ATOM     84  F   UNL A   1      37.777  33.850  40.083  1.00  0.00    -0.200 F 
ATOM     85  C   UNL A   1      39.170  35.495  39.116  1.00  0.00     0.200 A 
ATOM     86  F   UNL A   1      40.558  37.115  38.103  1.00  0.00    -0.200 F 
ATOM     87  F   UNL A   1      39.042  36.264  40.206  1.00  0.00    -0.200 F 
ENDBRANCH  53  77
BRANCH  65  88
ATOM     88  C   UNL A   1      43.642  28.577  35.307  1.00  0.00     0.064 A 
ATOM     89  C   UNL A   1      44.980  28.960  35.147  1.00  0.00     0.173 A 
ATOM     90  C   UNL A   1      43.344  27.562  36.227  1.00  0.00     0.173 A 
ATOM     91  F   UNL A   1      45.307  29.918  34.266  1.00  0.00    -0.203 F 
ATOM     92  C   UNL A   1      45.988  28.345  35.883  1.00  0.00     0.198 A 
ATOM     93  C   UNL A   1      44.355  26.952  36.963  1.00  0.00     0.198 A 
ATOM     94  F   UNL A   1      42.076  27.161  36.402  1.00  0.00    -0.203 F 
ATOM     95  F   UNL A   1      47.265  28.715  35.708  1.00  0.00    -0.200 F 
ATOM     96  C   UNL A   1      45.675  27.344  36.791  1.00  0.00     0.200 A 
ATOM     97  F   UNL A   1      44.054  25.980  37.835  1.00  0.00    -0.200 F 
ATOM     98  F   UNL A   1      46.648  26.749  37.495  1.00  0.00    -0.200 F 
ENDBRANCH  65  88
ENDBRANCH  39  40
ENDBRANCH  31  34
ENDBRANCH  29  30
ENDBRANCH  28  29
ENDBRANCH   1  28
TORSDOF 14
ENDMDL
MODEL 2
REMARK VINA RESULT:     -13.3      2.031      3.168
REMARK SMILES Cc1ccnc(C(=O)c2[nH]c3cc(F)ccc3c2CC(=O)NCCCCNC(=O)c2ccc(-c3c4nc(c(-c5c(F)c(F)c(F)c(F)c5F)c5ccc([nH]5)c(-c5c(F)c(F)c(F)c(F)c5F)c5nc(c(-c6c(F)c(F)c(F)c(F)c6F)c6ccc3[nH]6)C=C5)C=C4)cc2)c1
REMARK SMILES IDX 24 1 23 2 22 3 20 4 21 5 19 7 18 8 9 9 10 10 11 11 17 13
REMARK SMILES IDX 12 14 16 15 13 16 15 17 14 18 7 19 8 20 6 21 1 22 2 23 3 24
REMARK SMILES IDX 93 25 4 26 5 27 25 28 26 29 27 30 28 31 29 33 30 34 31 35
REMARK SMILES IDX 92 36 32 37 91 38 33 39 34 40 35 41 85 42 36 43 90 44 84 45
REMARK SMILES IDX 86 46 37 47 89 48 83 49 82 50 38 52 70 53 50 54 69 55 51 56
REMARK SMILES IDX 54 57 68 58 87 59 52 60 53 61 67 63 88 64 55 65 39 66 40 67
REMARK SMILES IDX 48 68 41 69 42 70 46 71 49 72 43 73 44 74 47 75 45 76 71 77
REMARK SMILES IDX 72 78 80 79 73 80 74 81 78 82 81 83 75 84 76 85 79 86 77 87
REMARK SMILES IDX 56 88 57 89 65 90 58 91 59 92 63 93 66 94 60 95 61 96 64 97
REMARK SMILES IDX 62 98
REMARK H PARENT 22 6 10 12 27 32 86 51 54 62
REMARK Flexibility Score: inf
ROOT
ATOM      1  C   UNL A   1      32.329  26.629  26.111  1.00  0.00     0.023 C 
ENDROOT
BRANCH   1   2
ATOM      2  C   UNL A   1      33.649  26.390  25.381  1.00  0.00     0.116 C 
BRANCH   2   3
ATOM      3  N   UNL A   1      34.463  25.363  25.996  1.00  0.00    -0.356 N 
ATOM      4  C   UNL A   1      35.161  24.347  25.408  1.00  0.00     0.224 C 
ATOM      5  O   UNL A   1      35.920  23.679  26.113  1.00  0.00    -0.275 OA
ATOM      6  H   UNL A   1      34.521  25.401  26.979  1.00  0.00     0.163 HD
BRANCH   4   7
ATOM      7  C   UNL A   1      35.096  24.121  23.905  1.00  0.00     0.138 C 
BRANCH   7   8
ATOM      8  C   UNL A   1      33.957  23.258  23.437  1.00  0.00    -0.002 A 
ATOM      9  C   UNL A   1      32.907  23.624  22.598  1.00  0.00     0.093 A 
ATOM     10  N   UNL A   1      32.135  22.504  22.390  1.00  0.00    -0.351 N 
ATOM     11  C   UNL A   1      32.604  21.445  23.126  1.00  0.00     0.049 A 
ATOM     12  H   UNL A   1      31.352  22.468  21.794  1.00  0.00     0.167 HD
ATOM     13  C   UNL A   1      33.734  21.889  23.811  1.00  0.00     0.004 A 
ATOM     14  C   UNL A   1      32.125  20.134  23.218  1.00  0.00     0.066 A 
ATOM     15  C   UNL A   1      34.412  20.975  24.648  1.00  0.00     0.013 A 
ATOM     16  C   UNL A   1      32.824  19.257  24.046  1.00  0.00     0.125 A 
ATOM     17  C   UNL A   1      33.947  19.659  24.755  1.00  0.00     0.040 A 
ATOM     18  F   UNL A   1      32.400  17.991  24.156  1.00  0.00    -0.207 F 
BRANCH   9  19
ATOM     19  C   UNL A   1      32.644  24.889  21.933  1.00  0.00     0.227 C 
ATOM     20  O   UNL A   1      33.273  25.217  20.933  1.00  0.00    -0.285 OA
BRANCH  19  21
ATOM     21  C   UNL A   1      31.528  25.756  22.467  1.00  0.00     0.113 A 
ATOM     22  C   UNL A   1      30.267  29.336  22.420  1.00  0.00     0.044 C 
ATOM     23  C   UNL A   1      30.405  27.873  22.718  1.00  0.00    -0.047 A 
ATOM     24  C   UNL A   1      29.486  27.235  23.551  1.00  0.00     0.023 A 
ATOM     25  C   UNL A   1      31.431  27.112  22.148  1.00  0.00     0.036 A 
ATOM     26  C   UNL A   1      29.645  25.882  23.803  1.00  0.00     0.112 A 
ATOM     27  N   UNL A   1      30.647  25.138  23.296  1.00  0.00    -0.253 NA
ENDBRANCH  19  21
ENDBRANCH   9  19
ENDBRANCH   7   8
ENDBRANCH   4   7
ENDBRANCH   2   3
ENDBRANCH   1   2
BRANCH   1  28
ATOM     28  C   UNL A   1      31.882  28.090  26.216  1.00  0.00     0.023 C 
BRANCH  28  29
ATOM     29  C   UNL A   1      32.880  29.131  25.718  1.00  0.00     0.116 C 
BRANCH  29  30
ATOM     30  N   UNL A   1      32.501  30.494  26.050  1.00  0.00    -0.352 N 
ATOM     31  C   UNL A   1      33.100  31.384  26.904  1.00  0.00     0.251 C 
ATOM     32  H   UNL A   1      31.695  30.828  25.594  1.00  0.00     0.163 HD
ATOM     33  O   UNL A   1      32.575  32.475  27.113  1.00  0.00    -0.269 OA
BRANCH  31  34
ATOM     34  C   UNL A   1      34.354  31.034  27.609  1.00  0.00     0.039 A 
ATOM     35  C   UNL A   1      35.304  32.044  27.802  1.00  0.00     0.014 A 
ATOM     36  C   UNL A   1      34.622  29.733  28.042  1.00  0.00     0.014 A 
ATOM     37  C   UNL A   1      36.492  31.767  28.480  1.00  0.00     0.010 A 
ATOM     38  C   UNL A   1      35.796  29.461  28.744  1.00  0.00     0.010 A 
ATOM     39  C   UNL A   1      36.734  30.477  28.974  1.00  0.00    -0.014 A 
BRANCH  39  40
ATOM     40  C   UNL A   1      37.960  30.179  29.749  1.00  0.00     0.031 A 
ATOM     41  C   UNL A   1      39.010  29.269  29.187  1.00  0.00     0.074 A 
ATOM     42  C   UNL A   1      38.099  30.689  30.985  1.00  0.00     0.049 A 
ATOM     43  N   UNL A   1      40.092  28.807  29.759  1.00  0.00    -0.248 NA
ATOM     44  C   UNL A   1      38.811  28.808  27.805  1.00  0.00     0.031 C 
ATOM     45  C   UNL A   1      37.142  31.574  31.649  1.00  0.00     0.029 A 
ATOM     46  N   UNL A   1      39.101  30.524  31.909  1.00  0.00    -0.354 N 
ATOM     47  C   UNL A   1      40.686  27.973  28.824  1.00  0.00     0.074 A 
ATOM     48  C   UNL A   1      39.851  28.002  27.640  1.00  0.00     0.031 C 
ATOM     49  C   UNL A   1      37.606  31.883  32.872  1.00  0.00     0.029 A 
ATOM     50  C   UNL A   1      38.880  31.198  33.082  1.00  0.00     0.049 A 
ATOM     51  H   UNL A   1      39.901  29.975  31.744  1.00  0.00     0.167 HD
ATOM     52  C   UNL A   1      41.820  27.246  28.945  1.00  0.00     0.037 A 
ATOM     53  C   UNL A   1      39.616  31.248  34.206  1.00  0.00     0.037 A 
ATOM     54  C   UNL A   1      42.677  27.244  30.099  1.00  0.00     0.049 A 
ATOM     55  C   UNL A   1      40.890  30.464  34.299  1.00  0.00     0.074 A 
ATOM     56  C   UNL A   1      43.873  26.572  30.288  1.00  0.00     0.029 A 
ATOM     57  N   UNL A   1      42.432  27.962  31.258  1.00  0.00    -0.354 N 
ATOM     58  N   UNL A   1      41.440  29.679  33.408  1.00  0.00    -0.248 NA
ATOM     59  C   UNL A   1      41.640  30.567  35.560  1.00  0.00     0.031 C 
ATOM     60  C   UNL A   1      44.350  26.881  31.569  1.00  0.00     0.029 A 
ATOM     61  C   UNL A   1      43.453  27.748  32.170  1.00  0.00     0.049 A 
ATOM     62  H   UNL A   1      41.649  28.538  31.411  1.00  0.00     0.167 HD
ATOM     63  C   UNL A   1      42.598  29.193  33.994  1.00  0.00     0.074 A 
ATOM     64  C   UNL A   1      42.677  29.775  35.319  1.00  0.00     0.031 C 
ATOM     65  C   UNL A   1      43.513  28.338  33.480  1.00  0.00     0.037 A 
BRANCH  52  66
ATOM     66  C   UNL A   1      42.191  26.373  27.791  1.00  0.00     0.064 A 
ATOM     67  C   UNL A   1      41.620  25.104  27.628  1.00  0.00     0.173 A 
ATOM     68  C   UNL A   1      43.109  26.818  26.831  1.00  0.00     0.173 A 
ATOM     69  F   UNL A   1      40.748  24.635  28.532  1.00  0.00    -0.203 F 
ATOM     70  C   UNL A   1      41.961  24.306  26.539  1.00  0.00     0.198 A 
ATOM     71  C   UNL A   1      43.444  26.020  25.741  1.00  0.00     0.198 A 
ATOM     72  F   UNL A   1      43.684  28.024  26.955  1.00  0.00    -0.203 F 
ATOM     73  F   UNL A   1      41.418  23.088  26.406  1.00  0.00    -0.200 F 
ATOM     74  C   UNL A   1      42.871  24.766  25.597  1.00  0.00     0.200 A 
ATOM     75  F   UNL A   1      44.326  26.463  24.834  1.00  0.00    -0.200 F 
ATOM     76  F   UNL A   1      43.201  23.994  24.552  1.00  0.00    -0.200 F 
ENDBRANCH  52  66
BRANCH  53  77
ATOM     77  C   UNL A   1      39.154  32.080  35.339  1.00  0.00     0.064 A 
ATOM     78  C   UNL A   1      38.383  31.522  36.366  1.00  0.00     0.173 A 
ATOM     79  C   UNL A   1      39.493  33.436  35.425  1.00  0.00     0.173 A 
ATOM     80  F   UNL A   1      38.027  30.231  36.309  1.00  0.00    -0.203 F 
ATOM     81  C   UNL A   1      37.966  32.295  37.444  1.00  0.00     0.198 A 
ATOM     82  C   UNL A   1      39.079  34.207  36.507  1.00  0.00     0.198 A 
ATOM     83  F   UNL A   1      40.225  34.007  34.457  1.00  0.00    -0.203 F 
ATOM     84  F   UNL A   1      37.220  31.745  38.412  1.00  0.00    -0.200 F 
ATOM     85  C   UNL A   1      38.316  33.637  37.516  1.00  0.00     0.200 A 
ATOM     86  F   UNL A   1      39.417  35.502  36.574  1.00  0.00    -0.200 F 
ATOM     87  F   UNL A   1      37.915  34.380  38.556  1.00  0.00    -0.200 F 
ENDBRANCH  53  77
BRANCH  65  88
ATOM     88  C   UNL A   1      44.676  27.989  34.350  1.00  0.00     0.064 A 
ATOM     89  C   UNL A   1      44.630  26.876  35.199  1.00  0.00     0.173 A 
ATOM     90  C   UNL A   1      45.851  28.753  34.313  1.00  0.00     0.173 A 
ATOM     91  F   UNL A   1      43.519  26.128  35.272  1.00  0.00    -0.203 F 
ATOM     92  C   UNL A   1      45.724  26.540  35.989  1.00  0.00     0.198 A 
ATOM     93  C   UNL A   1      46.945  28.410  35.104  1.00  0.00     0.198 A 
ATOM     94  F   UNL A   1      45.931  29.831  33.520  1.00  0.00    -0.203 F 
ATOM     95  F   UNL A   1      45.659  25.479  36.807  1.00  0.00    -0.200 F 
ATOM     96  C   UNL A   1      46.881  27.305  35.940  1.00  0.00     0.200 A 
ATOM     97  F   UNL A   1      48.059  29.154  35.061  1.00  0.00    -0.200 F 
ATOM     98  F   UNL A   1      47.932  26.983  36.706  1.00  0.00    -0.200 F 
ENDBRANCH  65  88
ENDBRANCH  39  40
ENDBRANCH  31  34
ENDBRANCH  29  30
ENDBRANCH  28  29
ENDBRANCH   1  28
TORSDOF 14
ENDMDL
MODEL 3
REMARK VINA RESULT:     -13.3      1.490      3.423
REMARK SMILES Cc1ccnc(C(=O)c2[nH]c3cc(F)ccc3c2CC(=O)NCCCCNC(=O)c2ccc(-c3c4nc(c(-c5c(F)c(F)c(F)c(F)c5F)c5ccc([nH]5)c(-c5c(F)c(F)c(F)c(F)c5F)c5nc(c(-c6c(F)c(F)c(F)c(F)c6F)c6ccc3[nH]6)C=C5)C=C4)cc2)c1
REMARK SMILES IDX 24 1 23 2 22 3 20 4 21 5 19 7 18 8 9 9 10 10 11 11 17 13
REMARK SMILES IDX 12 14 16 15 13 16 15 17 14 18 7 19 8 20 6 21 1 22 2 23 3 24
REMARK SMILES IDX 93 25 4 26 5 27 25 28 26 29 27 30 28 31 29 33 30 34 31 35
REMARK SMILES IDX 92 36 32 37 91 38 33 39 34 40 35 41 85 42 36 43 90 44 84 45
REMARK SMILES IDX 86 46 37 47 89 48 83 49 82 50 38 52 70 53 50 54 69 55 51 56
REMARK SMILES IDX 54 57 68 58 87 59 52 60 53 61 67 63 88 64 55 65 39 66 40 67
REMARK SMILES IDX 48 68 41 69 42 70 46 71 49 72 43 73 44 74 47 75 45 76 71 77
REMARK SMILES IDX 72 78 80 79 73 80 74 81 78 82 81 83 75 84 76 85 79 86 77 87
REMARK SMILES IDX 56 88 57 89 65 90 58 91 59 92 63 93 66 94 60 95 61 96 64 97
REMARK SMILES IDX 62 98
REMARK H PARENT 22 6 10 12 27 32 86 51 54 62
REMARK Flexibility Score: inf
ROOT
ATOM      1  C   UNL A   1      31.934  30.525  26.797  1.00  0.00     0.023 C 
ENDROOT
BRANCH   1   2
ATOM      2  C   UNL A   1      33.418  30.171  26.858  1.00  0.00     0.116 C 
BRANCH   2   3
ATOM      3  N   UNL A   1      33.893  29.495  25.669  1.00  0.00    -0.356 N 
ATOM      4  C   UNL A   1      33.710  28.198  25.282  1.00  0.00     0.224 C 
ATOM      5  O   UNL A   1      34.068  27.874  24.147  1.00  0.00    -0.275 OA
ATOM      6  H   UNL A   1      34.423  30.049  25.051  1.00  0.00     0.163 HD
BRANCH   4   7
ATOM      7  C   UNL A   1      32.979  27.210  26.178  1.00  0.00     0.138 C 
BRANCH   7   8
ATOM      8  C   UNL A   1      31.741  26.601  25.582  1.00  0.00    -0.002 A 
ATOM      9  C   UNL A   1      31.313  25.280  25.687  1.00  0.00     0.093 A 
ATOM     10  N   UNL A   1      30.103  25.183  25.039  1.00  0.00    -0.351 N 
ATOM     11  C   UNL A   1      29.768  26.378  24.453  1.00  0.00     0.049 A 
ATOM     12  H   UNL A   1      29.552  24.368  25.002  1.00  0.00     0.167 HD
ATOM     13  C   UNL A   1      30.783  27.284  24.756  1.00  0.00     0.004 A 
ATOM     14  C   UNL A   1      28.641  26.723  23.699  1.00  0.00     0.066 A 
ATOM     15  C   UNL A   1      30.674  28.603  24.263  1.00  0.00     0.013 A 
ATOM     16  C   UNL A   1      28.562  28.036  23.238  1.00  0.00     0.125 A 
ATOM     17  C   UNL A   1      29.554  28.967  23.506  1.00  0.00     0.040 A 
ATOM     18  F   UNL A   1      27.494  28.407  22.518  1.00  0.00    -0.207 F 
BRANCH   9  19
ATOM     19  C   UNL A   1      31.905  24.164  26.407  1.00  0.00     0.227 C 
ATOM     20  O   UNL A   1      31.417  23.763  27.458  1.00  0.00    -0.285 OA
BRANCH  19  21
ATOM     21  C   UNL A   1      33.095  23.468  25.789  1.00  0.00     0.113 A 
ATOM     22  C   UNL A   1      36.871  23.727  25.509  1.00  0.00     0.044 C 
ATOM     23  C   UNL A   1      35.454  23.267  25.342  1.00  0.00    -0.047 A 
ATOM     24  C   UNL A   1      35.164  22.148  24.561  1.00  0.00     0.023 A 
ATOM     25  C   UNL A   1      34.400  23.923  25.986  1.00  0.00     0.036 A 
ATOM     26  C   UNL A   1      33.843  21.752  24.432  1.00  0.00     0.112 A 
ATOM     27  N   UNL A   1      32.808  22.392  25.011  1.00  0.00    -0.253 NA
ENDBRANCH  19  21
ENDBRANCH   9  19
ENDBRANCH   7   8
ENDBRANCH   4   7
ENDBRANCH   2   3
ENDBRANCH   1   2
BRANCH   1  28
ATOM     28  C   UNL A   1      31.601  32.016  26.897  1.00  0.00     0.023 C 
BRANCH  28  29
ATOM     29  C   UNL A   1      32.793  32.958  27.043  1.00  0.00     0.116 C 
BRANCH  29  30
ATOM     30  N   UNL A   1      32.441  34.246  27.616  1.00  0.00    -0.352 N 
ATOM     31  C   UNL A   1      33.012  34.923  28.663  1.00  0.00     0.251 C 
ATOM     32  H   UNL A   1      31.678  34.699  27.190  1.00  0.00     0.163 HD
ATOM     33  O   UNL A   1      32.512  35.975  29.052  1.00  0.00    -0.269 OA
BRANCH  31  34
ATOM     34  C   UNL A   1      34.204  34.384  29.355  1.00  0.00     0.039 A 
ATOM     35  C   UNL A   1      34.006  33.640  30.525  1.00  0.00     0.014 A 
ATOM     36  C   UNL A   1      35.501  34.632  28.898  1.00  0.00     0.014 A 
ATOM     37  C   UNL A   1      35.099  33.094  31.201  1.00  0.00     0.010 A 
ATOM     38  C   UNL A   1      36.592  34.064  29.556  1.00  0.00     0.010 A 
ATOM     39  C   UNL A   1      36.397  33.286  30.707  1.00  0.00    -0.014 A 
BRANCH  39  40
ATOM     40  C   UNL A   1      37.562  32.663  31.375  1.00  0.00     0.031 A 
ATOM     41  C   UNL A   1      38.311  31.548  30.710  1.00  0.00     0.074 A 
ATOM     42  C   UNL A   1      37.911  33.071  32.608  1.00  0.00     0.049 A 
ATOM     43  N   UNL A   1      39.282  30.810  31.184  1.00  0.00    -0.248 NA
ATOM     44  C   UNL A   1      37.906  31.209  29.338  1.00  0.00     0.031 C 
ATOM     45  C   UNL A   1      37.252  34.135  33.366  1.00  0.00     0.029 A 
ATOM     46  N   UNL A   1      38.903  32.626  33.445  1.00  0.00    -0.354 N 
ATOM     47  C   UNL A   1      39.583  29.897  30.185  1.00  0.00     0.074 A 
ATOM     48  C   UNL A   1      38.700  30.180  29.072  1.00  0.00     0.031 C 
ATOM     49  C   UNL A   1      37.864  34.267  34.555  1.00  0.00     0.029 A 
ATOM     50  C   UNL A   1      38.940  33.283  34.647  1.00  0.00     0.049 A 
ATOM     51  H   UNL A   1      39.528  31.904  33.205  1.00  0.00     0.167 HD
ATOM     52  C   UNL A   1      40.506  28.909  30.199  1.00  0.00     0.037 A 
ATOM     53  C   UNL A   1      39.743  33.103  35.711  1.00  0.00     0.037 A 
ATOM     54  C   UNL A   1      41.416  28.648  31.280  1.00  0.00     0.049 A 
ATOM     55  C   UNL A   1      40.786  32.027  35.684  1.00  0.00     0.074 A 
ATOM     56  C   UNL A   1      42.418  27.695  31.359  1.00  0.00     0.029 A 
ATOM     57  N   UNL A   1      41.440  29.354  32.472  1.00  0.00    -0.354 N 
ATOM     58  N   UNL A   1      41.060  31.169  34.734  1.00  0.00    -0.248 NA
ATOM     59  C   UNL A   1      41.626  31.889  36.883  1.00  0.00     0.031 C 
ATOM     60  C   UNL A   1      43.047  27.823  32.605  1.00  0.00     0.029 A 
ATOM     61  C   UNL A   1      42.437  28.857  33.295  1.00  0.00     0.049 A 
ATOM     62  H   UNL A   1      40.837  30.098  32.700  1.00  0.00     0.167 HD
ATOM     63  C   UNL A   1      42.100  30.390  35.215  1.00  0.00     0.074 A 
ATOM     64  C   UNL A   1      42.414  30.878  36.543  1.00  0.00     0.031 C 
ATOM     65  C   UNL A   1      42.735  29.358  34.610  1.00  0.00     0.037 A 
BRANCH  52  66
ATOM     66  C   UNL A   1      40.567  28.021  28.999  1.00  0.00     0.064 A 
ATOM     67  C   UNL A   1      39.789  26.858  28.916  1.00  0.00     0.173 A 
ATOM     68  C   UNL A   1      41.393  28.348  27.915  1.00  0.00     0.173 A 
ATOM     69  F   UNL A   1      38.996  26.503  29.937  1.00  0.00    -0.203 F 
ATOM     70  C   UNL A   1      39.841  26.048  27.786  1.00  0.00     0.198 A 
ATOM     71  C   UNL A   1      41.438  27.538  26.784  1.00  0.00     0.198 A 
ATOM     72  F   UNL A   1      42.159  29.449  27.958  1.00  0.00    -0.203 F 
ATOM     73  F   UNL A   1      39.104  24.931  27.729  1.00  0.00    -0.200 F 
ATOM     74  C   UNL A   1      40.664  26.390  26.721  1.00  0.00     0.200 A 
ATOM     75  F   UNL A   1      42.236  27.866  25.759  1.00  0.00    -0.200 F 
ATOM     76  F   UNL A   1      40.716  25.605  25.636  1.00  0.00    -0.200 F 
ENDBRANCH  52  66
BRANCH  53  77
ATOM     77  C   UNL A   1      39.584  33.973  36.896  1.00  0.00     0.064 A 
ATOM     78  C   UNL A   1      38.799  33.565  37.981  1.00  0.00     0.173 A 
ATOM     79  C   UNL A   1      40.228  35.214  36.973  1.00  0.00     0.173 A 
ATOM     80  F   UNL A   1      38.154  32.391  37.936  1.00  0.00    -0.203 F 
ATOM     81  C   UNL A   1      38.664  34.371  39.107  1.00  0.00     0.198 A 
ATOM     82  C   UNL A   1      40.097  36.017  38.102  1.00  0.00     0.198 A 
ATOM     83  F   UNL A   1      40.984  35.642  35.950  1.00  0.00    -0.203 F 
ATOM     84  F   UNL A   1      37.900  33.967  40.131  1.00  0.00    -0.200 F 
ATOM     85  C   UNL A   1      39.316  35.596  39.168  1.00  0.00     0.200 A 
ATOM     86  F   UNL A   1      40.726  37.199  38.160  1.00  0.00    -0.200 F 
ATOM     87  F   UNL A   1      39.186  36.370  40.254  1.00  0.00    -0.200 F 
ENDBRANCH  53  77
BRANCH  65  88
ATOM     88  C   UNL A   1      43.834  28.698  35.376  1.00  0.00     0.064 A 
ATOM     89  C   UNL A   1      43.559  27.662  36.277  1.00  0.00     0.173 A 
ATOM     90  C   UNL A   1      45.169  29.083  35.189  1.00  0.00     0.173 A 
ATOM     91  F   UNL A   1      42.294  27.273  36.494  1.00  0.00    -0.203 F 
ATOM     92  C   UNL A   1      44.588  27.032  36.971  1.00  0.00     0.198 A 
ATOM     93  C   UNL A   1      46.195  28.448  35.882  1.00  0.00     0.198 A 
ATOM     94  F   UNL A   1      45.471  30.078  34.341  1.00  0.00    -0.203 F 
ATOM     95  F   UNL A   1      44.306  26.050  37.839  1.00  0.00    -0.200 F 
ATOM     96  C   UNL A   1      45.904  27.424  36.772  1.00  0.00     0.200 A 
ATOM     97  F   UNL A   1      47.465  28.832  35.695  1.00  0.00    -0.200 F 
ATOM     98  F   UNL A   1      46.893  26.820  37.445  1.00  0.00    -0.200 F 
ENDBRANCH  65  88
ENDBRANCH  39  40
ENDBRANCH  31  34
ENDBRANCH  29  30
ENDBRANCH  28  29
ENDBRANCH   1  28
TORSDOF 14
ENDMDL
