MODEL 1
REMARK VINA RESULT:     -13.2      0.000      0.000
REMARK SMILES Cc1ccc2n[nH]cc2c1C(=O)NCCCCNC(=O)c1ccc(-c2c3nc(c(-c4c(F)c(F)c(F)c(F)c4F)c4ccc([nH]4)c(-c4c(F)c(F)c(F)c(F)c4F)c4nc(c(-c5c(F)c(F)c(F)c(F)c5F)c5ccc2[nH]5)C=C4)C=C3)cc1
REMARK SMILES IDX 16 1 15 2 14 3 13 4 11 5 12 6 10 8 1 9 2 10 3 11 4 12 9 13
REMARK SMILES IDX 5 14 8 15 6 16 7 17 17 19 18 20 19 21 20 23 21 24 22 25
REMARK SMILES IDX 83 26 23 27 82 28 24 29 25 30 26 31 76 32 27 33 81 34 75 35
REMARK SMILES IDX 77 36 28 37 80 38 74 39 73 40 29 42 61 43 41 44 60 45 42 46
REMARK SMILES IDX 45 47 59 48 78 49 43 50 44 51 58 53 79 54 46 55 30 56 31 57
REMARK SMILES IDX 39 58 32 59 33 60 37 61 40 62 34 63 35 64 38 65 36 66 62 67
REMARK SMILES IDX 63 68 71 69 64 70 65 71 69 72 72 73 66 74 67 75 70 76 68 77
REMARK SMILES IDX 47 78 48 79 56 80 49 81 50 82 54 83 57 84 51 85 52 86 55 87
REMARK SMILES IDX 53 88
REMARK H PARENT 13 7 7 18 18 22 77 41 45 52
REMARK Flexibility Score: inf
ROOT
ATOM      1  C   UNL A   1      32.568  29.384  27.271  1.00  0.00     0.023 C 
ENDROOT
BRANCH   1   2
ATOM      2  C   UNL A   1      32.520  28.238  26.258  1.00  0.00     0.023 C 
BRANCH   2   3
ATOM      3  C   UNL A   1      33.829  27.689  25.715  1.00  0.00     0.116 C 
BRANCH   3   4
ATOM      4  N   UNL A   1      33.789  26.923  24.497  1.00  0.00    -0.352 N 
ATOM      5  C   UNL A   1      33.496  25.587  24.298  1.00  0.00     0.252 C 
ATOM      6  O   UNL A   1      33.349  25.255  23.114  1.00  0.00    -0.269 OA
ATOM      7  H   UNL A   1      34.003  27.429  23.680  1.00  0.00     0.163 HD
BRANCH   5   8
ATOM      8  C   UNL A   1      33.422  24.537  25.375  1.00  0.00     0.053 A 
ATOM      9  C   UNL A   1      35.940  24.003  25.804  1.00  0.00     0.045 C 
ATOM     10  C   UNL A   1      34.462  23.776  26.012  1.00  0.00    -0.038 A 
ATOM     11  C   UNL A   1      34.202  22.739  26.993  1.00  0.00     0.006 A 
ATOM     12  C   UNL A   1      32.943  22.441  27.532  1.00  0.00     0.031 A 
ATOM     13  C   UNL A   1      32.175  24.239  25.989  1.00  0.00     0.033 A 
ATOM     14  C   UNL A   1      31.926  23.254  27.028  1.00  0.00     0.093 A 
ATOM     15  C   UNL A   1      30.950  24.817  25.757  1.00  0.00     0.114 A 
ATOM     16  N   UNL A   1      30.633  23.274  27.391  1.00  0.00    -0.176 NA
ATOM     17  N   UNL A   1      30.086  24.239  26.641  1.00  0.00    -0.284 N 
ATOM     18  H   UNL A   1      29.143  24.509  26.719  1.00  0.00     0.189 HD
ENDBRANCH   5   8
ENDBRANCH   3   4
ENDBRANCH   2   3
ENDBRANCH   1   2
BRANCH   1  19
ATOM     19  C   UNL A   1      33.471  30.578  26.951  1.00  0.00     0.116 C 
BRANCH  19  20
ATOM     20  N   UNL A   1      33.800  31.431  28.076  1.00  0.00    -0.352 N 
ATOM     21  C   UNL A   1      34.955  31.782  28.723  1.00  0.00     0.251 C 
ATOM     22  H   UNL A   1      33.005  31.859  28.468  1.00  0.00     0.163 HD
ATOM     23  O   UNL A   1      34.877  32.749  29.478  1.00  0.00    -0.269 OA
BRANCH  21  24
ATOM     24  C   UNL A   1      36.249  31.048  28.643  1.00  0.00     0.039 A 
ATOM     25  C   UNL A   1      36.408  29.740  28.190  1.00  0.00     0.014 A 
ATOM     26  C   UNL A   1      37.370  31.716  29.176  1.00  0.00     0.014 A 
ATOM     27  C   UNL A   1      37.613  29.075  28.389  1.00  0.00     0.010 A 
ATOM     28  C   UNL A   1      38.586  31.064  29.351  1.00  0.00     0.010 A 
ATOM     29  C   UNL A   1      38.685  29.720  29.016  1.00  0.00    -0.014 A 
BRANCH  29  30
ATOM     30  C   UNL A   1      39.912  28.955  29.227  1.00  0.00     0.031 A 
ATOM     31  C   UNL A   1      40.276  28.758  30.659  1.00  0.00     0.074 A 
ATOM     32  C   UNL A   1      40.641  28.416  28.227  1.00  0.00     0.049 A 
ATOM     33  N   UNL A   1      41.319  29.202  31.283  1.00  0.00    -0.248 NA
ATOM     34  C   UNL A   1      39.298  28.090  31.530  1.00  0.00     0.031 C 
ATOM     35  C   UNL A   1      40.296  28.314  26.806  1.00  0.00     0.029 A 
ATOM     36  N   UNL A   1      41.844  27.772  28.294  1.00  0.00    -0.354 N 
ATOM     37  C   UNL A   1      41.210  28.743  32.595  1.00  0.00     0.074 A 
ATOM     38  C   UNL A   1      39.897  28.167  32.721  1.00  0.00     0.031 C 
ATOM     39  C   UNL A   1      41.150  27.461  26.193  1.00  0.00     0.029 A 
ATOM     40  C   UNL A   1      42.189  27.088  27.137  1.00  0.00     0.049 A 
ATOM     41  H   UNL A   1      42.416  27.792  29.095  1.00  0.00     0.167 HD
ATOM     42  C   UNL A   1      42.291  28.684  33.419  1.00  0.00     0.037 A 
ATOM     43  C   UNL A   1      43.240  26.245  26.984  1.00  0.00     0.037 A 
ATOM     44  C   UNL A   1      43.369  29.496  32.927  1.00  0.00     0.049 A 
ATOM     45  C   UNL A   1      44.237  26.602  28.017  1.00  0.00     0.074 A 
ATOM     46  C   UNL A   1      43.648  30.842  32.843  1.00  0.00     0.029 A 
ATOM     47  N   UNL A   1      44.234  28.854  32.082  1.00  0.00    -0.354 N 
ATOM     48  N   UNL A   1      44.896  27.726  28.035  1.00  0.00    -0.248 NA
ATOM     49  C   UNL A   1      44.273  25.834  29.252  1.00  0.00     0.031 C 
ATOM     50  C   UNL A   1      44.476  30.992  31.690  1.00  0.00     0.029 A 
ATOM     51  C   UNL A   1      44.696  29.730  31.138  1.00  0.00     0.049 A 
ATOM     52  H   UNL A   1      44.485  27.904  32.144  1.00  0.00     0.167 HD
ATOM     53  C   UNL A   1      45.063  28.005  29.378  1.00  0.00     0.074 A 
ATOM     54  C   UNL A   1      44.821  26.743  30.063  1.00  0.00     0.031 C 
ATOM     55  C   UNL A   1      45.093  29.295  29.818  1.00  0.00     0.037 A 
BRANCH  42  56
ATOM     56  C   UNL A   1      42.541  27.573  34.415  1.00  0.00     0.064 A 
ATOM     57  C   UNL A   1      43.093  26.352  33.974  1.00  0.00     0.173 A 
ATOM     58  C   UNL A   1      41.962  27.546  35.702  1.00  0.00     0.173 A 
ATOM     59  F   UNL A   1      43.637  26.250  32.750  1.00  0.00    -0.203 F 
ATOM     60  C   UNL A   1      43.021  25.186  34.742  1.00  0.00     0.198 A 
ATOM     61  C   UNL A   1      41.935  26.393  36.486  1.00  0.00     0.198 A 
ATOM     62  F   UNL A   1      41.297  28.594  36.202  1.00  0.00    -0.203 F 
ATOM     63  F   UNL A   1      43.457  24.023  34.236  1.00  0.00    -0.200 F 
ATOM     64  C   UNL A   1      42.439  25.207  35.997  1.00  0.00     0.200 A 
ATOM     65  F   UNL A   1      41.339  26.427  37.687  1.00  0.00    -0.200 F 
ATOM     66  F   UNL A   1      42.316  24.080  36.712  1.00  0.00    -0.200 F 
ENDBRANCH  42  56
BRANCH  43  67
ATOM     67  C   UNL A   1      43.285  24.943  26.273  1.00  0.00     0.064 A 
ATOM     68  C   UNL A   1      44.215  24.721  25.241  1.00  0.00     0.173 A 
ATOM     69  C   UNL A   1      42.663  23.802  26.811  1.00  0.00     0.173 A 
ATOM     70  F   UNL A   1      44.878  25.752  24.698  1.00  0.00    -0.203 F 
ATOM     71  C   UNL A   1      44.545  23.431  24.816  1.00  0.00     0.198 A 
ATOM     72  C   UNL A   1      42.991  22.513  26.382  1.00  0.00     0.198 A 
ATOM     73  F   UNL A   1      41.805  23.904  27.837  1.00  0.00    -0.203 F 
ATOM     74  F   UNL A   1      45.498  23.255  23.890  1.00  0.00    -0.200 F 
ATOM     75  C   UNL A   1      43.946  22.327  25.400  1.00  0.00     0.200 A 
ATOM     76  F   UNL A   1      42.431  21.452  26.980  1.00  0.00    -0.200 F 
ATOM     77  F   UNL A   1      44.321  21.088  25.052  1.00  0.00    -0.200 F 
ENDBRANCH  43  67
BRANCH  55  78
ATOM     78  C   UNL A   1      45.372  30.360  28.797  1.00  0.00     0.064 A 
ATOM     79  C   UNL A   1      44.387  30.999  28.028  1.00  0.00     0.173 A 
ATOM     80  C   UNL A   1      46.689  30.819  28.675  1.00  0.00     0.173 A 
ATOM     81  F   UNL A   1      43.094  30.670  28.149  1.00  0.00    -0.203 F 
ATOM     82  C   UNL A   1      44.716  32.032  27.151  1.00  0.00     0.198 A 
ATOM     83  C   UNL A   1      47.010  31.874  27.828  1.00  0.00     0.198 A 
ATOM     84  F   UNL A   1      47.663  30.273  29.421  1.00  0.00    -0.203 F 
ATOM     85  F   UNL A   1      43.761  32.624  26.418  1.00  0.00    -0.200 F 
ATOM     86  C   UNL A   1      46.026  32.475  27.059  1.00  0.00     0.200 A 
ATOM     87  F   UNL A   1      48.270  32.327  27.776  1.00  0.00    -0.200 F 
ATOM     88  F   UNL A   1      46.337  33.497  26.249  1.00  0.00    -0.200 F 
ENDBRANCH  55  78
ENDBRANCH  29  30
ENDBRANCH  21  24
ENDBRANCH  19  20
ENDBRANCH   1  19
TORSDOF 11
ENDMDL
MODEL 2
REMARK VINA RESULT:     -13.1      3.404      8.896
REMARK SMILES Cc1ccc2n[nH]cc2c1C(=O)NCCCCNC(=O)c1ccc(-c2c3nc(c(-c4c(F)c(F)c(F)c(F)c4F)c4ccc([nH]4)c(-c4c(F)c(F)c(F)c(F)c4F)c4nc(c(-c5c(F)c(F)c(F)c(F)c5F)c5ccc2[nH]5)C=C4)C=C3)cc1
REMARK SMILES IDX 16 1 15 2 14 3 13 4 11 5 12 6 10 8 1 9 2 10 3 11 4 12 9 13
REMARK SMILES IDX 5 14 8 15 6 16 7 17 17 19 18 20 19 21 20 23 21 24 22 25
REMARK SMILES IDX 83 26 23 27 82 28 24 29 25 30 26 31 76 32 27 33 81 34 75 35
REMARK SMILES IDX 77 36 28 37 80 38 74 39 73 40 29 42 61 43 41 44 60 45 42 46
REMARK SMILES IDX 45 47 59 48 78 49 43 50 44 51 58 53 79 54 46 55 30 56 31 57
REMARK SMILES IDX 39 58 32 59 33 60 37 61 40 62 34 63 35 64 38 65 36 66 62 67
REMARK SMILES IDX 63 68 71 69 64 70 65 71 69 72 72 73 66 74 67 75 70 76 68 77
REMARK SMILES IDX 47 78 48 79 56 80 49 81 50 82 54 83 57 84 51 85 52 86 55 87
REMARK SMILES IDX 53 88
REMARK H PARENT 13 7 7 18 18 22 77 41 45 52
REMARK Flexibility Score: inf
ROOT
ATOM      1  C   UNL A   1      38.461  21.828  25.602  1.00  0.00     0.023 C 
ENDROOT
BRANCH   1   2
ATOM      2  C   UNL A   1      37.630  23.080  25.895  1.00  0.00     0.023 C 
BRANCH   2   3
ATOM      3  C   UNL A   1      36.532  23.471  24.919  1.00  0.00     0.116 C 
BRANCH   3   4
ATOM      4  N   UNL A   1      35.405  24.208  25.427  1.00  0.00    -0.352 N 
ATOM      5  C   UNL A   1      34.060  23.893  25.418  1.00  0.00     0.252 C 
ATOM      6  O   UNL A   1      33.344  24.632  26.106  1.00  0.00    -0.269 OA
ATOM      7  H   UNL A   1      35.628  25.071  25.848  1.00  0.00     0.163 HD
BRANCH   5   8
ATOM      8  C   UNL A   1      33.423  22.800  24.600  1.00  0.00     0.053 A 
ATOM      9  C   UNL A   1      33.354  23.860  22.216  1.00  0.00     0.045 C 
ATOM     10  C   UNL A   1      33.041  22.772  23.214  1.00  0.00    -0.038 A 
ATOM     11  C   UNL A   1      32.363  21.646  22.599  1.00  0.00     0.006 A 
ATOM     12  C   UNL A   1      32.117  20.417  23.226  1.00  0.00     0.031 A 
ATOM     13  C   UNL A   1      33.203  21.520  25.176  1.00  0.00     0.033 A 
ATOM     14  C   UNL A   1      32.595  20.366  24.537  1.00  0.00     0.093 A 
ATOM     15  C   UNL A   1      33.527  21.086  26.440  1.00  0.00     0.114 A 
ATOM     16  N   UNL A   1      32.584  19.317  25.376  1.00  0.00    -0.176 NA
ATOM     17  N   UNL A   1      33.178  19.768  26.489  1.00  0.00    -0.284 N 
ATOM     18  H   UNL A   1      33.348  19.199  27.273  1.00  0.00     0.189 HD
ENDBRANCH   5   8
ENDBRANCH   3   4
ENDBRANCH   2   3
ENDBRANCH   1   2
BRANCH   1  19
ATOM     19  C   UNL A   1      39.707  21.585  26.458  1.00  0.00     0.116 C 
BRANCH  19  20
ATOM     20  N   UNL A   1      40.955  22.053  25.890  1.00  0.00    -0.352 N 
ATOM     21  C   UNL A   1      41.777  23.128  26.105  1.00  0.00     0.251 C 
ATOM     22  H   UNL A   1      41.293  21.457  25.183  1.00  0.00     0.163 HD
ATOM     23  O   UNL A   1      42.901  23.053  25.612  1.00  0.00    -0.269 OA
BRANCH  21  24
ATOM     24  C   UNL A   1      41.393  24.384  26.806  1.00  0.00     0.039 A 
ATOM     25  C   UNL A   1      40.451  25.306  26.354  1.00  0.00     0.014 A 
ATOM     26  C   UNL A   1      42.136  24.697  27.963  1.00  0.00     0.014 A 
ATOM     27  C   UNL A   1      40.352  26.556  26.956  1.00  0.00     0.010 A 
ATOM     28  C   UNL A   1      42.019  25.934  28.587  1.00  0.00     0.010 A 
ATOM     29  C   UNL A   1      41.172  26.888  28.040  1.00  0.00    -0.014 A 
BRANCH  29  30
ATOM     30  C   UNL A   1      41.043  28.229  28.606  1.00  0.00     0.031 A 
ATOM     31  C   UNL A   1      42.134  29.168  28.219  1.00  0.00     0.074 A 
ATOM     32  C   UNL A   1      40.004  28.622  29.373  1.00  0.00     0.049 A 
ATOM     33  N   UNL A   1      43.012  29.727  28.988  1.00  0.00    -0.248 NA
ATOM     34  C   UNL A   1      42.349  29.417  26.786  1.00  0.00     0.031 C 
ATOM     35  C   UNL A   1      38.752  27.908  29.641  1.00  0.00     0.029 A 
ATOM     36  N   UNL A   1      39.825  29.806  30.031  1.00  0.00    -0.354 N 
ATOM     37  C   UNL A   1      43.802  30.522  28.158  1.00  0.00     0.074 A 
ATOM     38  C   UNL A   1      43.427  30.204  26.806  1.00  0.00     0.031 C 
ATOM     39  C   UNL A   1      37.863  28.753  30.212  1.00  0.00     0.029 A 
ATOM     40  C   UNL A   1      38.532  30.011  30.493  1.00  0.00     0.049 A 
ATOM     41  H   UNL A   1      40.551  30.456  30.167  1.00  0.00     0.167 HD
ATOM     42  C   UNL A   1      44.559  31.536  28.658  1.00  0.00     0.037 A 
ATOM     43  C   UNL A   1      38.043  31.153  31.035  1.00  0.00     0.037 A 
ATOM     44  C   UNL A   1      44.745  31.402  30.076  1.00  0.00     0.049 A 
ATOM     45  C   UNL A   1      39.198  31.914  31.561  1.00  0.00     0.074 A 
ATOM     46  C   UNL A   1      45.479  30.592  30.914  1.00  0.00     0.029 A 
ATOM     47  N   UNL A   1      43.788  32.010  30.843  1.00  0.00    -0.354 N 
ATOM     48  N   UNL A   1      39.930  31.524  32.565  1.00  0.00    -0.248 NA
ATOM     49  C   UNL A   1      39.766  32.978  30.745  1.00  0.00     0.031 C 
ATOM     50  C   UNL A   1      44.722  30.500  32.121  1.00  0.00     0.029 A 
ATOM     51  C   UNL A   1      43.575  31.283  31.982  1.00  0.00     0.049 A 
ATOM     52  H   UNL A   1      43.324  32.845  30.609  1.00  0.00     0.167 HD
ATOM     53  C   UNL A   1      41.200  31.980  32.262  1.00  0.00     0.074 A 
ATOM     54  C   UNL A   1      41.006  32.999  31.240  1.00  0.00     0.031 C 
ATOM     55  C   UNL A   1      42.299  31.278  32.660  1.00  0.00     0.037 A 
BRANCH  42  56
ATOM     56  C   UNL A   1      44.760  32.867  27.966  1.00  0.00     0.064 A 
ATOM     57  C   UNL A   1      46.040  33.216  27.485  1.00  0.00     0.173 A 
ATOM     58  C   UNL A   1      43.835  33.928  28.051  1.00  0.00     0.173 A 
ATOM     59  F   UNL A   1      47.013  32.295  27.398  1.00  0.00    -0.203 F 
ATOM     60  C   UNL A   1      46.377  34.536  27.166  1.00  0.00     0.198 A 
ATOM     61  C   UNL A   1      44.159  35.234  27.686  1.00  0.00     0.198 A 
ATOM     62  F   UNL A   1      42.624  33.771  28.598  1.00  0.00    -0.203 F 
ATOM     63  F   UNL A   1      47.636  34.840  26.823  1.00  0.00    -0.200 F 
ATOM     64  C   UNL A   1      45.436  35.544  27.270  1.00  0.00     0.200 A 
ATOM     65  F   UNL A   1      43.242  36.203  27.823  1.00  0.00    -0.200 F 
ATOM     66  F   UNL A   1      45.770  36.818  27.021  1.00  0.00    -0.200 F 
ENDBRANCH  42  56
BRANCH  43  67
ATOM     67  C   UNL A   1      36.725  31.796  30.806  1.00  0.00     0.064 A 
ATOM     68  C   UNL A   1      35.851  32.042  31.878  1.00  0.00     0.173 A 
ATOM     69  C   UNL A   1      36.450  32.476  29.605  1.00  0.00     0.173 A 
ATOM     70  F   UNL A   1      36.062  31.461  33.068  1.00  0.00    -0.203 F 
ATOM     71  C   UNL A   1      34.801  32.960  31.773  1.00  0.00     0.198 A 
ATOM     72  C   UNL A   1      35.399  33.389  29.500  1.00  0.00     0.198 A 
ATOM     73  F   UNL A   1      37.259  32.352  28.543  1.00  0.00    -0.203 F 
ATOM     74  F   UNL A   1      34.040  33.233  32.844  1.00  0.00    -0.200 F 
ATOM     75  C   UNL A   1      34.587  33.647  30.590  1.00  0.00     0.200 A 
ATOM     76  F   UNL A   1      35.225  34.074  28.361  1.00  0.00    -0.200 F 
ATOM     77  F   UNL A   1      33.634  34.587  30.512  1.00  0.00    -0.200 F 
ENDBRANCH  43  67
BRANCH  55  78
ATOM     78  C   UNL A   1      42.111  30.280  33.766  1.00  0.00     0.064 A 
ATOM     79  C   UNL A   1      41.733  28.942  33.571  1.00  0.00     0.173 A 
ATOM     80  C   UNL A   1      42.433  30.680  35.069  1.00  0.00     0.173 A 
ATOM     81  F   UNL A   1      41.488  28.465  32.344  1.00  0.00    -0.203 F 
ATOM     82  C   UNL A   1      41.649  28.055  34.643  1.00  0.00     0.198 A 
ATOM     83  C   UNL A   1      42.385  29.784  36.131  1.00  0.00     0.198 A 
ATOM     84  F   UNL A   1      42.844  31.936  35.303  1.00  0.00    -0.203 F 
ATOM     85  F   UNL A   1      41.277  26.782  34.438  1.00  0.00    -0.200 F 
ATOM     86  C   UNL A   1      41.985  28.474  35.921  1.00  0.00     0.200 A 
ATOM     87  F   UNL A   1      42.753  30.184  37.356  1.00  0.00    -0.200 F 
ATOM     88  F   UNL A   1      41.948  27.611  36.946  1.00  0.00    -0.200 F 
ENDBRANCH  55  78
ENDBRANCH  29  30
ENDBRANCH  21  24
ENDBRANCH  19  20
ENDBRANCH   1  19
TORSDOF 11
ENDMDL
MODEL 3
REMARK VINA RESULT:     -13.1      1.437      2.333
REMARK SMILES Cc1ccc2n[nH]cc2c1C(=O)NCCCCNC(=O)c1ccc(-c2c3nc(c(-c4c(F)c(F)c(F)c(F)c4F)c4ccc([nH]4)c(-c4c(F)c(F)c(F)c(F)c4F)c4nc(c(-c5c(F)c(F)c(F)c(F)c5F)c5ccc2[nH]5)C=C4)C=C3)cc1
REMARK SMILES IDX 16 1 15 2 14 3 13 4 11 5 12 6 10 8 1 9 2 10 3 11 4 12 9 13
REMARK SMILES IDX 5 14 8 15 6 16 7 17 17 19 18 20 19 21 20 23 21 24 22 25
REMARK SMILES IDX 83 26 23 27 82 28 24 29 25 30 26 31 76 32 27 33 81 34 75 35
REMARK SMILES IDX 77 36 28 37 80 38 74 39 73 40 29 42 61 43 41 44 60 45 42 46
REMARK SMILES IDX 45 47 59 48 78 49 43 50 44 51 58 53 79 54 46 55 30 56 31 57
REMARK SMILES IDX 39 58 32 59 33 60 37 61 40 62 34 63 35 64 38 65 36 66 62 67
REMARK SMILES IDX 63 68 71 69 64 70 65 71 69 72 72 73 66 74 67 75 70 76 68 77
REMARK SMILES IDX 47 78 48 79 56 80 49 81 50 82 54 83 57 84 51 85 52 86 55 87
REMARK SMILES IDX 53 88
REMARK H PARENT 13 7 7 18 18 22 77 41 45 52
REMARK Flexibility Score: inf
ROOT
ATOM      1  C   UNL A   1      32.529  29.318  27.245  1.00  0.00     0.023 C 
ENDROOT
BRANCH   1   2
ATOM      2  C   UNL A   1      32.785  28.020  26.475  1.00  0.00     0.023 C 
BRANCH   2   3
ATOM      3  C   UNL A   1      33.690  28.062  25.254  1.00  0.00     0.116 C 
BRANCH   3   4
ATOM      4  N   UNL A   1      33.717  26.911  24.391  1.00  0.00    -0.352 N 
ATOM      5  C   UNL A   1      32.764  26.441  23.508  1.00  0.00     0.252 C 
ATOM      6  O   UNL A   1      33.149  25.536  22.756  1.00  0.00    -0.269 OA
ATOM      7  H   UNL A   1      34.542  26.375  24.437  1.00  0.00     0.163 HD
BRANCH   5   8
ATOM      8  C   UNL A   1      31.327  26.886  23.452  1.00  0.00     0.053 A 
ATOM      9  C   UNL A   1      30.175  25.257  25.134  1.00  0.00     0.045 C 
ATOM     10  C   UNL A   1      30.157  26.355  24.098  1.00  0.00    -0.038 A 
ATOM     11  C   UNL A   1      28.820  26.871  23.872  1.00  0.00     0.006 A 
ATOM     12  C   UNL A   1      28.517  28.011  23.117  1.00  0.00     0.031 A 
ATOM     13  C   UNL A   1      30.978  28.068  22.743  1.00  0.00     0.033 A 
ATOM     14  C   UNL A   1      29.648  28.630  22.581  1.00  0.00     0.093 A 
ATOM     15  C   UNL A   1      31.807  28.940  22.078  1.00  0.00     0.114 A 
ATOM     16  N   UNL A   1      29.705  29.773  21.878  1.00  0.00    -0.176 NA
ATOM     17  N   UNL A   1      31.009  29.949  21.624  1.00  0.00    -0.284 N 
ATOM     18  H   UNL A   1      31.360  30.736  21.150  1.00  0.00     0.189 HD
ENDBRANCH   5   8
ENDBRANCH   3   4
ENDBRANCH   2   3
ENDBRANCH   1   2
BRANCH   1  19
ATOM     19  C   UNL A   1      33.388  30.535  26.892  1.00  0.00     0.116 C 
BRANCH  19  20
ATOM     20  N   UNL A   1      33.725  31.404  28.002  1.00  0.00    -0.352 N 
ATOM     21  C   UNL A   1      34.884  31.762  28.637  1.00  0.00     0.251 C 
ATOM     22  H   UNL A   1      32.933  31.840  28.391  1.00  0.00     0.163 HD
ATOM     23  O   UNL A   1      34.812  32.741  29.378  1.00  0.00    -0.269 OA
BRANCH  21  24
ATOM     24  C   UNL A   1      36.176  31.024  28.561  1.00  0.00     0.039 A 
ATOM     25  C   UNL A   1      36.321  29.686  28.202  1.00  0.00     0.014 A 
ATOM     26  C   UNL A   1      37.316  31.730  28.997  1.00  0.00     0.014 A 
ATOM     27  C   UNL A   1      37.535  29.037  28.403  1.00  0.00     0.010 A 
ATOM     28  C   UNL A   1      38.539  31.094  29.172  1.00  0.00     0.010 A 
ATOM     29  C   UNL A   1      38.629  29.728  28.936  1.00  0.00    -0.014 A 
BRANCH  29  30
ATOM     30  C   UNL A   1      39.866  28.981  29.156  1.00  0.00     0.031 A 
ATOM     31  C   UNL A   1      40.215  28.776  30.590  1.00  0.00     0.074 A 
ATOM     32  C   UNL A   1      40.616  28.465  28.160  1.00  0.00     0.049 A 
ATOM     33  N   UNL A   1      41.242  29.231  31.232  1.00  0.00    -0.248 NA
ATOM     34  C   UNL A   1      39.237  28.083  31.442  1.00  0.00     0.031 C 
ATOM     35  C   UNL A   1      40.291  28.371  26.733  1.00  0.00     0.029 A 
ATOM     36  N   UNL A   1      41.828  27.840  28.236  1.00  0.00    -0.354 N 
ATOM     37  C   UNL A   1      41.124  28.757  32.537  1.00  0.00     0.074 A 
ATOM     38  C   UNL A   1      39.819  28.158  32.641  1.00  0.00     0.031 C 
ATOM     39  C   UNL A   1      41.167  27.538  26.124  1.00  0.00     0.029 A 
ATOM     40  C   UNL A   1      42.200  27.173  27.076  1.00  0.00     0.049 A 
ATOM     41  H   UNL A   1      42.390  27.861  29.044  1.00  0.00     0.167 HD
ATOM     42  C   UNL A   1      42.196  28.707  33.375  1.00  0.00     0.037 A 
ATOM     43  C   UNL A   1      43.266  26.349  26.929  1.00  0.00     0.037 A 
ATOM     44  C   UNL A   1      43.266  29.541  32.904  1.00  0.00     0.049 A 
ATOM     45  C   UNL A   1      44.244  26.712  27.978  1.00  0.00     0.074 A 
ATOM     46  C   UNL A   1      43.524  30.893  32.838  1.00  0.00     0.029 A 
ATOM     47  N   UNL A   1      44.152  28.923  32.064  1.00  0.00    -0.354 N 
ATOM     48  N   UNL A   1      44.884  27.846  28.015  1.00  0.00    -0.248 NA
ATOM     49  C   UNL A   1      44.277  25.932  29.206  1.00  0.00     0.031 C 
ATOM     50  C   UNL A   1      44.364  31.068  31.697  1.00  0.00     0.029 A 
ATOM     51  C   UNL A   1      44.612  29.815  31.135  1.00  0.00     0.049 A 
ATOM     52  H   UNL A   1      44.418  27.977  32.121  1.00  0.00     0.167 HD
ATOM     53  C   UNL A   1      45.030  28.114  29.364  1.00  0.00     0.074 A 
ATOM     54  C   UNL A   1      44.799  26.841  30.033  1.00  0.00     0.031 C 
ATOM     55  C   UNL A   1      45.033  29.401  29.816  1.00  0.00     0.037 A 
BRANCH  42  56
ATOM     56  C   UNL A   1      42.451  27.591  34.363  1.00  0.00     0.064 A 
ATOM     57  C   UNL A   1      43.006  26.374  33.912  1.00  0.00     0.173 A 
ATOM     58  C   UNL A   1      41.875  27.553  35.651  1.00  0.00     0.173 A 
ATOM     59  F   UNL A   1      43.546  26.282  32.687  1.00  0.00    -0.203 F 
ATOM     60  C   UNL A   1      42.938  25.202  34.673  1.00  0.00     0.198 A 
ATOM     61  C   UNL A   1      41.854  26.395  36.428  1.00  0.00     0.198 A 
ATOM     62  F   UNL A   1      41.209  28.596  36.160  1.00  0.00    -0.203 F 
ATOM     63  F   UNL A   1      43.376  24.045  34.159  1.00  0.00    -0.200 F 
ATOM     64  C   UNL A   1      42.359  25.214  35.930  1.00  0.00     0.200 A 
ATOM     65  F   UNL A   1      41.261  26.420  37.630  1.00  0.00    -0.200 F 
ATOM     66  F   UNL A   1      42.242  24.082  36.638  1.00  0.00    -0.200 F 
ENDBRANCH  42  56
BRANCH  43  67
ATOM     67  C   UNL A   1      43.342  25.055  26.205  1.00  0.00     0.064 A 
ATOM     68  C   UNL A   1      44.381  24.804  25.293  1.00  0.00     0.173 A 
ATOM     69  C   UNL A   1      42.608  23.937  26.642  1.00  0.00     0.173 A 
ATOM     70  F   UNL A   1      45.151  25.810  24.854  1.00  0.00    -0.203 F 
ATOM     71  C   UNL A   1      44.705  23.505  24.888  1.00  0.00     0.198 A 
ATOM     72  C   UNL A   1      42.930  22.640  26.234  1.00  0.00     0.198 A 
ATOM     73  F   UNL A   1      41.635  24.066  27.556  1.00  0.00    -0.203 F 
ATOM     74  F   UNL A   1      45.757  23.297  24.083  1.00  0.00    -0.200 F 
ATOM     75  C   UNL A   1      43.991  22.422  25.374  1.00  0.00     0.200 A 
ATOM     76  F   UNL A   1      42.254  21.598  26.740  1.00  0.00    -0.200 F 
ATOM     77  F   UNL A   1      44.351  21.172  25.053  1.00  0.00    -0.200 F 
ENDBRANCH  43  67
BRANCH  55  78
ATOM     78  C   UNL A   1      45.307  30.479  28.809  1.00  0.00     0.064 A 
ATOM     79  C   UNL A   1      44.320  31.115  28.039  1.00  0.00     0.173 A 
ATOM     80  C   UNL A   1      46.619  30.957  28.704  1.00  0.00     0.173 A 
ATOM     81  F   UNL A   1      43.031  30.769  28.145  1.00  0.00    -0.203 F 
ATOM     82  C   UNL A   1      44.644  32.161  27.177  1.00  0.00     0.198 A 
ATOM     83  C   UNL A   1      46.934  32.025  27.871  1.00  0.00     0.198 A 
ATOM     84  F   UNL A   1      47.593  30.415  29.453  1.00  0.00    -0.203 F 
ATOM     85  F   UNL A   1      43.688  32.750  26.441  1.00  0.00    -0.200 F 
ATOM     86  C   UNL A   1      45.949  32.622  27.101  1.00  0.00     0.200 A 
ATOM     87  F   UNL A   1      48.189  32.494  27.835  1.00  0.00    -0.200 F 
ATOM     88  F   UNL A   1      46.254  33.656  26.305  1.00  0.00    -0.200 F 
ENDBRANCH  55  78
ENDBRANCH  29  30
ENDBRANCH  21  24
ENDBRANCH  19  20
ENDBRANCH   1  19
TORSDOF 11
ENDMDL
