MODEL 1
REMARK VINA RESULT:     -12.9      0.000      0.000
REMARK SMILES Cc1cc(C)cc(CSc2cc(C(=O)NCCCCNC(=O)c3ccc(-c4c5nc(c(-c6c(F)c(F)c(F)c(F)c6F)c6ccc([nH]6)c(-c6c(F)c(F)c(F)c(F)c6F)c6nc(c(-c7c(F)c(F)c(F)c(F)c7F)c7ccc4[nH]7)C=C6)C=C5)cc3)cc(Cl)n2)c1
REMARK SMILES IDX 17 1 16 2 15 3 13 4 14 5 12 7 10 8 11 9 89 10 87 11 86 12
REMARK SMILES IDX 88 13 9 14 8 15 7 16 1 17 2 18 3 19 90 20 4 21 5 22 6 23
REMARK SMILES IDX 18 24 19 25 20 26 21 27 22 29 23 30 24 31 85 32 25 33 84 34
REMARK SMILES IDX 26 35 27 36 28 37 78 38 29 39 83 40 77 41 79 42 30 43 82 44
REMARK SMILES IDX 76 45 75 46 31 48 63 49 43 50 62 51 44 52 47 53 61 54 80 55
REMARK SMILES IDX 45 56 46 57 60 59 81 60 48 61 32 62 33 63 41 64 34 65 35 66
REMARK SMILES IDX 39 67 42 68 36 69 37 70 40 71 38 72 64 73 65 74 73 75 66 76
REMARK SMILES IDX 67 77 71 78 74 79 68 80 69 81 72 82 70 83 49 84 50 85 58 86
REMARK SMILES IDX 51 87 52 88 56 89 59 90 53 91 54 92 57 93 55 94
REMARK H PARENT 15 6 20 28 79 47 47 58
REMARK Flexibility Score: inf
ROOT
ATOM      1  C   UNL A   1      31.611  30.721  26.103  1.00  0.00     0.023 C 
ENDROOT
BRANCH   1   2
ATOM      2  C   UNL A   1      32.939  30.090  26.526  1.00  0.00     0.116 C 
BRANCH   2   3
ATOM      3  N   UNL A   1      33.632  29.542  25.379  1.00  0.00    -0.352 N 
ATOM      4  C   UNL A   1      33.448  28.436  24.593  1.00  0.00     0.251 C 
ATOM      5  O   UNL A   1      34.258  28.280  23.676  1.00  0.00    -0.269 OA
ATOM      6  H   UNL A   1      34.406  30.084  25.104  1.00  0.00     0.163 HD
BRANCH   4   7
ATOM      7  C   UNL A   1      32.346  27.443  24.743  1.00  0.00     0.045 A 
ATOM      8  C   UNL A   1      31.688  25.296  25.624  1.00  0.00     0.099 A 
ATOM      9  C   UNL A   1      32.662  26.266  25.441  1.00  0.00     0.049 A 
ATOM     10  N   UNL A   1      30.440  25.437  25.153  1.00  0.00    -0.230 NA
ATOM     11  C   UNL A   1      30.157  26.563  24.485  1.00  0.00     0.131 A 
ATOM     12  C   UNL A   1      31.045  27.602  24.284  1.00  0.00     0.055 A 
ATOM     13  Cl  UNL A   1      28.559  26.642  23.866  1.00  0.00    -0.062 Cl
BRANCH   8  14
ATOM     14  S   UNL A   1      32.014  23.863  26.623  1.00  0.00    -0.102 SA
BRANCH  14  15
ATOM     15  C   UNL A   1      31.529  22.526  25.483  1.00  0.00     0.112 C 
BRANCH  15  16
ATOM     16  C   UNL A   1      32.578  21.482  25.188  1.00  0.00    -0.037 A 
ATOM     17  C   UNL A   1      32.712  17.811  24.146  1.00  0.00     0.044 C 
ATOM     18  C   UNL A   1      33.134  19.195  24.544  1.00  0.00    -0.051 A 
ATOM     19  C   UNL A   1      34.494  19.496  24.682  1.00  0.00     0.006 A 
ATOM     20  C   UNL A   1      32.185  20.191  24.798  1.00  0.00     0.008 A 
ATOM     21  C   UNL A   1      34.910  20.778  25.060  1.00  0.00    -0.051 A 
ATOM     22  C   UNL A   1      36.372  21.066  25.235  1.00  0.00     0.044 C 
ATOM     23  C   UNL A   1      33.948  21.769  25.291  1.00  0.00     0.008 A 
ENDBRANCH  15  16
ENDBRANCH  14  15
ENDBRANCH   8  14
ENDBRANCH   4   7
ENDBRANCH   2   3
ENDBRANCH   1   2
BRANCH   1  24
ATOM     24  C   UNL A   1      31.358  32.104  26.718  1.00  0.00     0.023 C 
BRANCH  24  25
ATOM     25  C   UNL A   1      32.611  32.851  27.175  1.00  0.00     0.116 C 
BRANCH  25  26
ATOM     26  N   UNL A   1      32.338  34.204  27.631  1.00  0.00    -0.352 N 
ATOM     27  C   UNL A   1      32.976  34.941  28.598  1.00  0.00     0.251 C 
ATOM     28  H   UNL A   1      31.587  34.656  27.183  1.00  0.00     0.163 HD
ATOM     29  O   UNL A   1      32.528  36.029  28.935  1.00  0.00    -0.269 OA
BRANCH  27  30
ATOM     30  C   UNL A   1      34.183  34.400  29.257  1.00  0.00     0.039 A 
ATOM     31  C   UNL A   1      34.018  33.621  30.405  1.00  0.00     0.014 A 
ATOM     32  C   UNL A   1      35.463  34.650  28.754  1.00  0.00     0.014 A 
ATOM     33  C   UNL A   1      35.133  33.045  31.014  1.00  0.00     0.010 A 
ATOM     34  C   UNL A   1      36.565  34.011  29.316  1.00  0.00     0.010 A 
ATOM     35  C   UNL A   1      36.412  33.205  30.452  1.00  0.00    -0.014 A 
BRANCH  35  36
ATOM     36  C   UNL A   1      37.581  32.508  31.045  1.00  0.00     0.031 A 
ATOM     37  C   UNL A   1      38.081  32.872  32.415  1.00  0.00     0.074 A 
ATOM     38  C   UNL A   1      38.209  31.556  30.328  1.00  0.00     0.049 A 
ATOM     39  N   UNL A   1      39.060  32.340  33.105  1.00  0.00    -0.248 NA
ATOM     40  C   UNL A   1      37.413  33.993  33.092  1.00  0.00     0.031 C 
ATOM     41  C   UNL A   1      37.861  31.163  28.961  1.00  0.00     0.029 A 
ATOM     42  N   UNL A   1      39.264  30.740  30.648  1.00  0.00    -0.354 N 
ATOM     43  C   UNL A   1      39.122  33.062  34.291  1.00  0.00     0.074 A 
ATOM     44  C   UNL A   1      38.129  34.109  34.200  1.00  0.00     0.031 C 
ATOM     45  C   UNL A   1      38.658  30.154  28.576  1.00  0.00     0.029 A 
ATOM     46  C   UNL A   1      39.594  29.852  29.653  1.00  0.00     0.049 A 
ATOM     47  H   UNL A   1      39.740  30.786  31.508  1.00  0.00     0.167 HD
ATOM     48  C   UNL A   1      39.917  32.851  35.367  1.00  0.00     0.037 A 
ATOM     49  C   UNL A   1      40.542  28.895  29.617  1.00  0.00     0.037 A 
ATOM     50  C   UNL A   1      40.898  31.799  35.455  1.00  0.00     0.049 A 
ATOM     51  C   UNL A   1      41.407  28.681  30.829  1.00  0.00     0.074 A 
ATOM     52  C   UNL A   1      41.713  31.465  36.522  1.00  0.00     0.029 A 
ATOM     53  N   UNL A   1      41.202  30.915  34.430  1.00  0.00    -0.354 N 
ATOM     54  N   UNL A   1      41.395  29.311  31.978  1.00  0.00    -0.248 NA
ATOM     55  C   UNL A   1      42.408  27.611  30.741  1.00  0.00     0.031 C 
ATOM     56  C   UNL A   1      42.551  30.419  36.123  1.00  0.00     0.029 A 
ATOM     57  C   UNL A   1      42.213  30.055  34.830  1.00  0.00     0.049 A 
ATOM     58  H   UNL A   1      40.765  30.901  33.547  1.00  0.00     0.167 HD
ATOM     59  C   UNL A   1      42.367  28.699  32.758  1.00  0.00     0.074 A 
ATOM     60  C   UNL A   1      42.927  27.628  31.959  1.00  0.00     0.031 C 
ATOM     61  C   UNL A   1      42.765  28.997  34.021  1.00  0.00     0.037 A 
BRANCH  48  62
ATOM     62  C   UNL A   1      39.758  33.776  36.542  1.00  0.00     0.064 A 
ATOM     63  C   UNL A   1      40.400  35.023  36.592  1.00  0.00     0.173 A 
ATOM     64  C   UNL A   1      38.920  33.431  37.613  1.00  0.00     0.173 A 
ATOM     65  F   UNL A   1      41.221  35.400  35.599  1.00  0.00    -0.203 F 
ATOM     66  C   UNL A   1      40.234  35.874  37.681  1.00  0.00     0.198 A 
ATOM     67  C   UNL A   1      38.729  34.299  38.685  1.00  0.00     0.198 A 
ATOM     68  F   UNL A   1      38.277  32.253  37.618  1.00  0.00    -0.203 F 
ATOM     69  F   UNL A   1      40.900  37.037  37.729  1.00  0.00    -0.200 F 
ATOM     70  C   UNL A   1      39.393  35.516  38.723  1.00  0.00     0.200 A 
ATOM     71  F   UNL A   1      37.904  33.957  39.685  1.00  0.00    -0.200 F 
ATOM     72  F   UNL A   1      39.226  36.340  39.766  1.00  0.00    -0.200 F 
ENDBRANCH  48  62
BRANCH  49  73
ATOM     73  C   UNL A   1      40.700  28.049  28.405  1.00  0.00     0.064 A 
ATOM     74  C   UNL A   1      40.051  26.810  28.298  1.00  0.00     0.173 A 
ATOM     75  C   UNL A   1      41.512  28.454  27.335  1.00  0.00     0.173 A 
ATOM     76  F   UNL A   1      39.278  26.371  29.301  1.00  0.00    -0.203 F 
ATOM     77  C   UNL A   1      40.231  25.997  27.180  1.00  0.00     0.198 A 
ATOM     78  C   UNL A   1      41.664  27.654  26.203  1.00  0.00     0.198 A 
ATOM     79  F   UNL A   1      42.149  29.633  27.382  1.00  0.00    -0.203 F 
ATOM     80  F   UNL A   1      39.644  24.794  27.130  1.00  0.00    -0.200 F 
ATOM     81  C   UNL A   1      41.032  26.422  26.132  1.00  0.00     0.200 A 
ATOM     82  F   UNL A   1      42.425  28.078  25.184  1.00  0.00    -0.200 F 
ATOM     83  F   UNL A   1      41.204  25.642  25.057  1.00  0.00    -0.200 F 
ENDBRANCH  49  73
BRANCH  61  84
ATOM     84  C   UNL A   1      43.839  28.132  34.619  1.00  0.00     0.064 A 
ATOM     85  C   UNL A   1      43.538  26.929  35.275  1.00  0.00     0.173 A 
ATOM     86  C   UNL A   1      45.187  28.512  34.533  1.00  0.00     0.173 A 
ATOM     87  F   UNL A   1      42.264  26.525  35.396  1.00  0.00    -0.203 F 
ATOM     88  C   UNL A   1      44.541  26.164  35.865  1.00  0.00     0.198 A 
ATOM     89  C   UNL A   1      46.191  27.723  35.090  1.00  0.00     0.198 A 
ATOM     90  F   UNL A   1      45.534  29.646  33.908  1.00  0.00    -0.203 F 
ATOM     91  F   UNL A   1      44.222  25.057  36.550  1.00  0.00    -0.200 F 
ATOM     92  C   UNL A   1      45.867  26.559  35.767  1.00  0.00     0.200 A 
ATOM     93  F   UNL A   1      47.473  28.098  34.979  1.00  0.00    -0.200 F 
ATOM     94  F   UNL A   1      46.831  25.824  36.339  1.00  0.00    -0.200 F 
ENDBRANCH  61  84
ENDBRANCH  35  36
ENDBRANCH  27  30
ENDBRANCH  25  26
ENDBRANCH  24  25
ENDBRANCH   1  24
TORSDOF 14
ENDMDL
MODEL 2
REMARK VINA RESULT:     -12.8      0.323      1.851
REMARK SMILES Cc1cc(C)cc(CSc2cc(C(=O)NCCCCNC(=O)c3ccc(-c4c5nc(c(-c6c(F)c(F)c(F)c(F)c6F)c6ccc([nH]6)c(-c6c(F)c(F)c(F)c(F)c6F)c6nc(c(-c7c(F)c(F)c(F)c(F)c7F)c7ccc4[nH]7)C=C6)C=C5)cc3)cc(Cl)n2)c1
REMARK SMILES IDX 17 1 16 2 15 3 13 4 14 5 12 7 10 8 11 9 89 10 87 11 86 12
REMARK SMILES IDX 88 13 9 14 8 15 7 16 1 17 2 18 3 19 90 20 4 21 5 22 6 23
REMARK SMILES IDX 18 24 19 25 20 26 21 27 22 29 23 30 24 31 85 32 25 33 84 34
REMARK SMILES IDX 26 35 27 36 28 37 78 38 29 39 83 40 77 41 79 42 30 43 82 44
REMARK SMILES IDX 76 45 75 46 31 48 63 49 43 50 62 51 44 52 47 53 61 54 80 55
REMARK SMILES IDX 45 56 46 57 60 59 81 60 48 61 32 62 33 63 41 64 34 65 35 66
REMARK SMILES IDX 39 67 42 68 36 69 37 70 40 71 38 72 64 73 65 74 73 75 66 76
REMARK SMILES IDX 67 77 71 78 74 79 68 80 69 81 72 82 70 83 49 84 50 85 58 86
REMARK SMILES IDX 51 87 52 88 56 89 59 90 53 91 54 92 57 93 55 94
REMARK H PARENT 15 6 20 28 79 47 47 58
REMARK Flexibility Score: inf
ROOT
ATOM      1  C   UNL A   1      31.464  30.693  26.257  1.00  0.00     0.023 C 
ENDROOT
BRANCH   1   2
ATOM      2  C   UNL A   1      32.900  30.166  26.269  1.00  0.00     0.116 C 
BRANCH   2   3
ATOM      3  N   UNL A   1      33.346  29.867  24.925  1.00  0.00    -0.352 N 
ATOM      4  C   UNL A   1      33.051  28.885  24.019  1.00  0.00     0.251 C 
ATOM      5  O   UNL A   1      33.641  28.946  22.938  1.00  0.00    -0.269 OA
ATOM      6  H   UNL A   1      34.008  30.513  24.588  1.00  0.00     0.163 HD
BRANCH   4   7
ATOM      7  C   UNL A   1      32.065  27.785  24.227  1.00  0.00     0.045 A 
ATOM      8  C   UNL A   1      31.718  25.520  24.980  1.00  0.00     0.099 A 
ATOM      9  C   UNL A   1      32.574  26.587  24.755  1.00  0.00     0.049 A 
ATOM     10  N   UNL A   1      30.406  25.584  24.708  1.00  0.00    -0.230 NA
ATOM     11  C   UNL A   1      29.938  26.732  24.201  1.00  0.00     0.131 A 
ATOM     12  C   UNL A   1      30.701  27.862  23.977  1.00  0.00     0.055 A 
ATOM     13  Cl  UNL A   1      28.264  26.715  23.828  1.00  0.00    -0.062 Cl
BRANCH   8  14
ATOM     14  S   UNL A   1      32.303  24.043  25.778  1.00  0.00    -0.102 SA
BRANCH  14  15
ATOM     15  C   UNL A   1      32.114  22.824  24.436  1.00  0.00     0.112 C 
BRANCH  15  16
ATOM     16  C   UNL A   1      32.940  21.566  24.551  1.00  0.00    -0.037 A 
ATOM     17  C   UNL A   1      36.601  20.614  25.068  1.00  0.00     0.044 C 
ATOM     18  C   UNL A   1      35.120  20.512  24.853  1.00  0.00    -0.051 A 
ATOM     19  C   UNL A   1      34.521  19.254  24.714  1.00  0.00     0.006 A 
ATOM     20  C   UNL A   1      34.324  21.659  24.769  1.00  0.00     0.008 A 
ATOM     21  C   UNL A   1      33.142  19.136  24.506  1.00  0.00    -0.051 A 
ATOM     22  C   UNL A   1      32.529  17.778  24.326  1.00  0.00     0.044 C 
ATOM     23  C   UNL A   1      32.357  20.293  24.445  1.00  0.00     0.008 A 
ENDBRANCH  15  16
ENDBRANCH  14  15
ENDBRANCH   8  14
ENDBRANCH   4   7
ENDBRANCH   2   3
ENDBRANCH   1   2
BRANCH   1  24
ATOM     24  C   UNL A   1      31.354  32.201  26.514  1.00  0.00     0.023 C 
BRANCH  24  25
ATOM     25  C   UNL A   1      32.534  32.820  27.263  1.00  0.00     0.116 C 
BRANCH  25  26
ATOM     26  N   UNL A   1      32.293  34.192  27.678  1.00  0.00    -0.352 N 
ATOM     27  C   UNL A   1      32.962  34.948  28.610  1.00  0.00     0.251 C 
ATOM     28  H   UNL A   1      31.543  34.644  27.228  1.00  0.00     0.163 HD
ATOM     29  O   UNL A   1      32.539  36.055  28.918  1.00  0.00    -0.269 OA
BRANCH  27  30
ATOM     30  C   UNL A   1      34.169  34.406  29.267  1.00  0.00     0.039 A 
ATOM     31  C   UNL A   1      34.009  33.673  30.446  1.00  0.00     0.014 A 
ATOM     32  C   UNL A   1      35.444  34.611  28.733  1.00  0.00     0.014 A 
ATOM     33  C   UNL A   1      35.123  33.097  31.055  1.00  0.00     0.010 A 
ATOM     34  C   UNL A   1      36.543  33.970  29.299  1.00  0.00     0.010 A 
ATOM     35  C   UNL A   1      36.395  33.209  30.466  1.00  0.00    -0.014 A 
BRANCH  35  36
ATOM     36  C   UNL A   1      37.560  32.510  31.064  1.00  0.00     0.031 A 
ATOM     37  C   UNL A   1      38.062  32.880  32.432  1.00  0.00     0.074 A 
ATOM     38  C   UNL A   1      38.183  31.550  30.353  1.00  0.00     0.049 A 
ATOM     39  N   UNL A   1      39.037  32.348  33.125  1.00  0.00    -0.248 NA
ATOM     40  C   UNL A   1      37.399  34.010  33.101  1.00  0.00     0.031 C 
ATOM     41  C   UNL A   1      37.833  31.151  28.989  1.00  0.00     0.029 A 
ATOM     42  N   UNL A   1      39.234  30.731  30.679  1.00  0.00    -0.354 N 
ATOM     43  C   UNL A   1      39.103  33.077  34.306  1.00  0.00     0.074 A 
ATOM     44  C   UNL A   1      38.115  34.129  34.209  1.00  0.00     0.031 C 
ATOM     45  C   UNL A   1      38.625  30.135  28.610  1.00  0.00     0.029 A 
ATOM     46  C   UNL A   1      39.559  29.835  29.689  1.00  0.00     0.049 A 
ATOM     47  H   UNL A   1      39.710  30.780  31.539  1.00  0.00     0.167 HD
ATOM     48  C   UNL A   1      39.896  32.869  35.384  1.00  0.00     0.037 A 
ATOM     49  C   UNL A   1      40.502  28.873  29.660  1.00  0.00     0.037 A 
ATOM     50  C   UNL A   1      40.872  31.812  35.479  1.00  0.00     0.049 A 
ATOM     51  C   UNL A   1      41.366  28.662  30.873  1.00  0.00     0.074 A 
ATOM     52  C   UNL A   1      41.685  31.481  36.549  1.00  0.00     0.029 A 
ATOM     53  N   UNL A   1      41.172  30.920  34.460  1.00  0.00    -0.354 N 
ATOM     54  N   UNL A   1      41.357  29.300  32.018  1.00  0.00    -0.248 NA
ATOM     55  C   UNL A   1      42.361  27.586  30.792  1.00  0.00     0.031 C 
ATOM     56  C   UNL A   1      42.518  30.428  36.156  1.00  0.00     0.029 A 
ATOM     57  C   UNL A   1      42.179  30.057  34.865  1.00  0.00     0.049 A 
ATOM     58  H   UNL A   1      40.735  30.903  33.577  1.00  0.00     0.167 HD
ATOM     59  C   UNL A   1      42.326  28.687  32.802  1.00  0.00     0.074 A 
ATOM     60  C   UNL A   1      42.880  27.609  32.010  1.00  0.00     0.031 C 
ATOM     61  C   UNL A   1      42.725  28.992  34.063  1.00  0.00     0.037 A 
BRANCH  48  62
ATOM     62  C   UNL A   1      39.742  33.802  36.553  1.00  0.00     0.064 A 
ATOM     63  C   UNL A   1      40.381  35.052  36.590  1.00  0.00     0.173 A 
ATOM     64  C   UNL A   1      38.912  33.462  37.632  1.00  0.00     0.173 A 
ATOM     65  F   UNL A   1      41.194  35.423  35.589  1.00  0.00    -0.203 F 
ATOM     66  C   UNL A   1      40.219  35.910  37.673  1.00  0.00     0.198 A 
ATOM     67  C   UNL A   1      38.726  34.338  38.699  1.00  0.00     0.198 A 
ATOM     68  F   UNL A   1      38.273  32.282  37.649  1.00  0.00    -0.203 F 
ATOM     69  F   UNL A   1      40.881  37.075  37.709  1.00  0.00    -0.200 F 
ATOM     70  C   UNL A   1      39.385  35.557  38.723  1.00  0.00     0.200 A 
ATOM     71  F   UNL A   1      37.908  34.001  39.706  1.00  0.00    -0.200 F 
ATOM     72  F   UNL A   1      39.222  36.388  39.761  1.00  0.00    -0.200 F 
ENDBRANCH  48  62
BRANCH  49  73
ATOM     73  C   UNL A   1      40.656  28.019  28.453  1.00  0.00     0.064 A 
ATOM     74  C   UNL A   1      41.437  28.435  27.366  1.00  0.00     0.173 A 
ATOM     75  C   UNL A   1      40.016  26.774  28.356  1.00  0.00     0.173 A 
ATOM     76  F   UNL A   1      42.055  29.625  27.403  1.00  0.00    -0.203 F 
ATOM     77  C   UNL A   1      41.549  27.654  26.217  1.00  0.00     0.198 A 
ATOM     78  C   UNL A   1      40.156  25.978  27.220  1.00  0.00     0.198 A 
ATOM     79  F   UNL A   1      39.263  26.323  29.370  1.00  0.00    -0.203 F 
ATOM     80  F   UNL A   1      42.257  28.103  25.172  1.00  0.00    -0.200 F 
ATOM     81  C   UNL A   1      40.914  26.424  26.148  1.00  0.00     0.200 A 
ATOM     82  F   UNL A   1      39.555  24.781  27.165  1.00  0.00    -0.200 F 
ATOM     83  F   UNL A   1      41.023  25.671  25.044  1.00  0.00    -0.200 F 
ENDBRANCH  49  73
BRANCH  61  84
ATOM     84  C   UNL A   1      43.794  28.125  34.667  1.00  0.00     0.064 A 
ATOM     85  C   UNL A   1      45.151  28.478  34.612  1.00  0.00     0.173 A 
ATOM     86  C   UNL A   1      43.455  26.924  35.311  1.00  0.00     0.173 A 
ATOM     87  F   UNL A   1      45.530  29.608  33.998  1.00  0.00    -0.203 F 
ATOM     88  C   UNL A   1      46.131  27.638  35.136  1.00  0.00     0.198 A 
ATOM     89  C   UNL A   1      44.436  26.107  35.868  1.00  0.00     0.198 A 
ATOM     90  F   UNL A   1      42.173  26.543  35.403  1.00  0.00    -0.203 F 
ATOM     91  F   UNL A   1      47.426  27.961  35.005  1.00  0.00    -0.200 F 
ATOM     92  C   UNL A   1      45.773  26.457  35.767  1.00  0.00     0.200 A 
ATOM     93  F   UNL A   1      44.085  24.975  36.492  1.00  0.00    -0.200 F 
ATOM     94  F   UNL A   1      46.718  25.649  36.266  1.00  0.00    -0.200 F 
ENDBRANCH  61  84
ENDBRANCH  35  36
ENDBRANCH  27  30
ENDBRANCH  25  26
ENDBRANCH  24  25
ENDBRANCH   1  24
TORSDOF 14
ENDMDL
MODEL 3
REMARK VINA RESULT:     -12.8      1.010      7.375
REMARK SMILES Cc1cc(C)cc(CSc2cc(C(=O)NCCCCNC(=O)c3ccc(-c4c5nc(c(-c6c(F)c(F)c(F)c(F)c6F)c6ccc([nH]6)c(-c6c(F)c(F)c(F)c(F)c6F)c6nc(c(-c7c(F)c(F)c(F)c(F)c7F)c7ccc4[nH]7)C=C6)C=C5)cc3)cc(Cl)n2)c1
REMARK SMILES IDX 17 1 16 2 15 3 13 4 14 5 12 7 10 8 11 9 89 10 87 11 86 12
REMARK SMILES IDX 88 13 9 14 8 15 7 16 1 17 2 18 3 19 90 20 4 21 5 22 6 23
REMARK SMILES IDX 18 24 19 25 20 26 21 27 22 29 23 30 24 31 85 32 25 33 84 34
REMARK SMILES IDX 26 35 27 36 28 37 78 38 29 39 83 40 77 41 79 42 30 43 82 44
REMARK SMILES IDX 76 45 75 46 31 48 63 49 43 50 62 51 44 52 47 53 61 54 80 55
REMARK SMILES IDX 45 56 46 57 60 59 81 60 48 61 32 62 33 63 41 64 34 65 35 66
REMARK SMILES IDX 39 67 42 68 36 69 37 70 40 71 38 72 64 73 65 74 73 75 66 76
REMARK SMILES IDX 67 77 71 78 74 79 68 80 69 81 72 82 70 83 49 84 50 85 58 86
REMARK SMILES IDX 51 87 52 88 56 89 59 90 53 91 54 92 57 93 55 94
REMARK H PARENT 15 6 20 28 79 47 47 58
REMARK Flexibility Score: inf
ROOT
ATOM      1  C   UNL A   1      31.596  30.722  26.188  1.00  0.00     0.023 C 
ENDROOT
BRANCH   1   2
ATOM      2  C   UNL A   1      33.000  30.190  26.480  1.00  0.00     0.116 C 
BRANCH   2   3
ATOM      3  N   UNL A   1      33.619  29.692  25.269  1.00  0.00    -0.352 N 
ATOM      4  C   UNL A   1      33.673  28.467  24.661  1.00  0.00     0.251 C 
ATOM      5  O   UNL A   1      34.312  28.409  23.608  1.00  0.00    -0.269 OA
ATOM      6  H   UNL A   1      34.111  30.387  24.776  1.00  0.00     0.163 HD
BRANCH   4   7
ATOM      7  C   UNL A   1      33.003  27.228  25.152  1.00  0.00     0.045 A 
ATOM      8  C   UNL A   1      33.291  24.942  25.866  1.00  0.00     0.099 A 
ATOM      9  C   UNL A   1      33.841  26.128  25.404  1.00  0.00     0.049 A 
ATOM     10  N   UNL A   1      31.975  24.798  26.083  1.00  0.00    -0.230 NA
ATOM     11  C   UNL A   1      31.191  25.855  25.833  1.00  0.00     0.131 A 
ATOM     12  C   UNL A   1      31.645  27.089  25.409  1.00  0.00     0.055 A 
ATOM     13  Cl  UNL A   1      29.517  25.574  26.081  1.00  0.00    -0.062 Cl
BRANCH   8  14
ATOM     14  S   UNL A   1      34.337  23.581  26.328  1.00  0.00    -0.102 SA
BRANCH  14  15
ATOM     15  C   UNL A   1      33.096  22.295  26.687  1.00  0.00     0.112 C 
BRANCH  15  16
ATOM     16  C   UNL A   1      32.907  21.231  25.633  1.00  0.00    -0.037 A 
ATOM     17  C   UNL A   1      31.912  21.031  21.953  1.00  0.00     0.044 C 
ATOM     18  C   UNL A   1      32.327  20.635  23.339  1.00  0.00    -0.051 A 
ATOM     19  C   UNL A   1      32.492  19.283  23.658  1.00  0.00     0.006 A 
ATOM     20  C   UNL A   1      32.536  21.601  24.330  1.00  0.00     0.008 A 
ATOM     21  C   UNL A   1      32.871  18.891  24.948  1.00  0.00    -0.051 A 
ATOM     22  C   UNL A   1      33.008  17.433  25.274  1.00  0.00     0.044 C 
ATOM     23  C   UNL A   1      33.096  19.870  25.922  1.00  0.00     0.008 A 
ENDBRANCH  15  16
ENDBRANCH  14  15
ENDBRANCH   8  14
ENDBRANCH   4   7
ENDBRANCH   2   3
ENDBRANCH   1   2
BRANCH   1  24
ATOM     24  C   UNL A   1      31.394  32.191  26.584  1.00  0.00     0.023 C 
BRANCH  24  25
ATOM     25  C   UNL A   1      32.587  32.847  27.277  1.00  0.00     0.116 C 
BRANCH  25  26
ATOM     26  N   UNL A   1      32.345  34.231  27.650  1.00  0.00    -0.352 N 
ATOM     27  C   UNL A   1      32.963  34.993  28.610  1.00  0.00     0.251 C 
ATOM     28  H   UNL A   1      31.634  34.686  27.143  1.00  0.00     0.163 HD
ATOM     29  O   UNL A   1      32.541  36.113  28.869  1.00  0.00    -0.269 OA
BRANCH  27  30
ATOM     30  C   UNL A   1      34.115  34.444  29.356  1.00  0.00     0.039 A 
ATOM     31  C   UNL A   1      33.869  33.785  30.562  1.00  0.00     0.014 A 
ATOM     32  C   UNL A   1      35.421  34.572  28.876  1.00  0.00     0.014 A 
ATOM     33  C   UNL A   1      34.928  33.203  31.257  1.00  0.00     0.010 A 
ATOM     34  C   UNL A   1      36.466  33.923  29.531  1.00  0.00     0.010 A 
ATOM     35  C   UNL A   1      36.230  33.234  30.728  1.00  0.00    -0.014 A 
BRANCH  35  36
ATOM     36  C   UNL A   1      37.337  32.527  31.421  1.00  0.00     0.031 A 
ATOM     37  C   UNL A   1      38.048  31.378  30.763  1.00  0.00     0.074 A 
ATOM     38  C   UNL A   1      37.682  32.911  32.665  1.00  0.00     0.049 A 
ATOM     39  N   UNL A   1      39.061  30.674  31.201  1.00  0.00    -0.248 NA
ATOM     40  C   UNL A   1      37.543  30.946  29.451  1.00  0.00     0.031 C 
ATOM     41  C   UNL A   1      37.021  33.966  33.436  1.00  0.00     0.029 A 
ATOM     42  N   UNL A   1      38.678  32.468  33.498  1.00  0.00    -0.354 N 
ATOM     43  C   UNL A   1      39.312  29.720  30.222  1.00  0.00     0.074 A 
ATOM     44  C   UNL A   1      38.305  29.893  29.198  1.00  0.00     0.031 C 
ATOM     45  C   UNL A   1      37.655  34.119  34.609  1.00  0.00     0.029 A 
ATOM     46  C   UNL A   1      38.744  33.151  34.688  1.00  0.00     0.049 A 
ATOM     47  H   UNL A   1      39.288  31.732  33.265  1.00  0.00     0.167 HD
ATOM     48  C   UNL A   1      40.308  28.804  30.170  1.00  0.00     0.037 A 
ATOM     49  C   UNL A   1      39.593  33.016  35.725  1.00  0.00     0.037 A 
ATOM     50  C   UNL A   1      41.314  28.644  31.190  1.00  0.00     0.049 A 
ATOM     51  C   UNL A   1      40.692  31.992  35.638  1.00  0.00     0.074 A 
ATOM     52  C   UNL A   1      42.399  27.785  31.206  1.00  0.00     0.029 A 
ATOM     53  N   UNL A   1      41.352  29.355  32.380  1.00  0.00    -0.354 N 
ATOM     54  N   UNL A   1      40.974  31.158  34.667  1.00  0.00    -0.248 NA
ATOM     55  C   UNL A   1      41.601  31.904  36.788  1.00  0.00     0.031 C 
ATOM     56  C   UNL A   1      43.058  27.934  32.430  1.00  0.00     0.029 A 
ATOM     57  C   UNL A   1      42.425  28.934  33.151  1.00  0.00     0.049 A 
ATOM     58  H   UNL A   1      40.711  30.057  32.641  1.00  0.00     0.167 HD
ATOM     59  C   UNL A   1      42.104  30.464  35.077  1.00  0.00     0.074 A 
ATOM     60  C   UNL A   1      42.472  30.998  36.372  1.00  0.00     0.031 C 
ATOM     61  C   UNL A   1      42.776  29.471  34.442  1.00  0.00     0.037 A 
BRANCH  48  62
ATOM     62  C   UNL A   1      40.362  27.902  28.969  1.00  0.00     0.064 A 
ATOM     63  C   UNL A   1      41.126  28.226  27.836  1.00  0.00     0.173 A 
ATOM     64  C   UNL A   1      39.677  26.678  28.964  1.00  0.00     0.173 A 
ATOM     65  F   UNL A   1      41.793  29.389  27.783  1.00  0.00    -0.203 F 
ATOM     66  C   UNL A   1      41.176  27.375  26.736  1.00  0.00     0.198 A 
ATOM     67  C   UNL A   1      39.756  25.814  27.875  1.00  0.00     0.198 A 
ATOM     68  F   UNL A   1      38.934  26.314  30.021  1.00  0.00    -0.203 F 
ATOM     69  F   UNL A   1      41.870  27.732  25.645  1.00  0.00    -0.200 F 
ATOM     70  C   UNL A   1      40.499  26.166  26.759  1.00  0.00     0.200 A 
ATOM     71  F   UNL A   1      39.112  24.638  27.906  1.00  0.00    -0.200 F 
ATOM     72  F   UNL A   1      40.556  25.343  25.703  1.00  0.00    -0.200 F 
ENDBRANCH  48  62
BRANCH  49  73
ATOM     73  C   UNL A   1      39.456  33.891  36.919  1.00  0.00     0.064 A 
ATOM     74  C   UNL A   1      40.046  35.163  36.955  1.00  0.00     0.173 A 
ATOM     75  C   UNL A   1      38.744  33.472  38.053  1.00  0.00     0.173 A 
ATOM     76  F   UNL A   1      40.752  35.603  35.903  1.00  0.00    -0.203 F 
ATOM     77  C   UNL A   1      39.954  35.969  38.089  1.00  0.00     0.198 A 
ATOM     78  C   UNL A   1      38.624  34.292  39.173  1.00  0.00     0.198 A 
ATOM     79  F   UNL A   1      38.153  32.268  38.068  1.00  0.00    -0.203 F 
ATOM     80  F   UNL A   1      40.575  37.155  38.115  1.00  0.00    -0.200 F 
ATOM     81  C   UNL A   1      39.239  35.535  39.193  1.00  0.00     0.200 A 
ATOM     82  F   UNL A   1      37.916  33.876  40.232  1.00  0.00    -0.200 F 
ATOM     83  F   UNL A   1      39.148  36.310  40.283  1.00  0.00    -0.200 F 
ENDBRANCH  49  73
BRANCH  61  84
ATOM     84  C   UNL A   1      43.993  28.922  35.132  1.00  0.00     0.064 A 
ATOM     85  C   UNL A   1      43.904  27.887  36.076  1.00  0.00     0.173 A 
ATOM     86  C   UNL A   1      45.266  29.438  34.844  1.00  0.00     0.173 A 
ATOM     87  F   UNL A   1      42.710  27.366  36.397  1.00  0.00    -0.203 F 
ATOM     88  C   UNL A   1      45.037  27.424  36.741  1.00  0.00     0.198 A 
ATOM     89  C   UNL A   1      46.401  28.944  35.483  1.00  0.00     0.198 A 
ATOM     90  F   UNL A   1      45.412  30.420  33.943  1.00  0.00    -0.203 F 
ATOM     91  F   UNL A   1      44.917  26.487  37.691  1.00  0.00    -0.200 F 
ATOM     92  C   UNL A   1      46.285  27.949  36.440  1.00  0.00     0.200 A 
ATOM     93  F   UNL A   1      47.608  29.441  35.178  1.00  0.00    -0.200 F 
ATOM     94  F   UNL A   1      47.373  27.505  37.083  1.00  0.00    -0.200 F 
ENDBRANCH  61  84
ENDBRANCH  35  36
ENDBRANCH  27  30
ENDBRANCH  25  26
ENDBRANCH  24  25
ENDBRANCH   1  24
TORSDOF 14
ENDMDL
