MODEL 1
REMARK VINA RESULT:     -10.8      0.000      0.000
REMARK SMILES C#CCN(CC(=O)NCCCCNC(=O)c1ccc(-c2c3nc(c(-c4c(F)c(F)c(F)c(F)c4F)c4ccc([nH]4)c(-c4c(F)c(F)c(F)c(F)c4F)c4nc(c(-c5c(F)c(F)c(F)c(F)c5F)c5ccc2[nH]5)C=C4)C=C3)cc1)C(=O)CCNC(=O)C(C)(C)C
REMARK SMILES IDX 6 1 7 2 8 3 5 5 4 6 3 7 2 8 1 9 79 10 80 11 81 12 82 13
REMARK SMILES IDX 83 14 84 15 85 17 86 18 87 19 88 20 89 21 9 22 10 23 11 24
REMARK SMILES IDX 12 25 13 26 14 27 15 29 16 30 17 31 78 32 18 33 77 34 19 35
REMARK SMILES IDX 20 36 21 37 71 38 22 39 76 40 70 41 72 42 23 43 75 44 69 45
REMARK SMILES IDX 68 46 24 48 56 49 36 50 55 51 37 52 40 53 54 54 73 55 38 56
REMARK SMILES IDX 39 57 53 59 74 60 41 61 25 62 26 63 34 64 27 65 28 66 32 67
REMARK SMILES IDX 35 68 29 69 30 70 33 71 31 72 57 73 58 74 66 75 59 76 60 77
REMARK SMILES IDX 64 78 67 79 61 80 62 81 65 82 63 83 42 84 43 85 51 86 44 87
REMARK SMILES IDX 45 88 49 89 52 90 46 91 47 92 50 93 48 94
REMARK H PARENT 8 4 83 16 13 28 72 47 40 58
REMARK Flexibility Score: inf
ROOT
ATOM      1  C   UNL A   1      33.236  28.747  23.723  1.00  0.00     0.239 C 
ATOM      2  O   UNL A   1      34.421  28.513  23.476  1.00  0.00    -0.273 OA
ATOM      3  N   UNL A   1      32.961  29.463  24.847  1.00  0.00    -0.355 N 
ATOM      4  H   UNL A   1      33.736  29.670  25.418  1.00  0.00     0.163 HD
ENDROOT
BRANCH   1   5
ATOM      5  C   UNL A   1      32.118  28.307  22.764  1.00  0.00     0.220 C 
BRANCH   5   6
ATOM      6  N   UNL A   1      31.896  26.857  22.644  1.00  0.00    -0.322 N 
BRANCH   6   7
ATOM      7  C   UNL A   1      30.697  26.311  23.276  1.00  0.00     0.209 C 
BRANCH   7   8
ATOM      8  C   UNL A   1      30.735  26.348  24.795  1.00  0.00    -0.085 C 
ATOM      9  C   UNL A   1      30.767  26.380  26.098  1.00  0.00     0.006 C 
ENDBRANCH   7   8
ENDBRANCH   6   7
BRANCH   6  10
ATOM     10  C   UNL A   1      32.771  25.971  22.027  1.00  0.00     0.225 C 
ATOM     11  O   UNL A   1      33.288  26.230  20.936  1.00  0.00    -0.275 OA
BRANCH  10  12
ATOM     12  C   UNL A   1      33.107  24.641  22.679  1.00  0.00     0.121 C 
BRANCH  12  13
ATOM     13  C   UNL A   1      34.016  24.791  23.896  1.00  0.00     0.125 C 
BRANCH  13  14
ATOM     14  N   UNL A   1      33.983  23.627  24.762  1.00  0.00    -0.355 N 
ATOM     15  C   UNL A   1      34.854  22.601  24.966  1.00  0.00     0.225 C 
ATOM     16  H   UNL A   1      33.168  23.567  25.311  1.00  0.00     0.163 HD
ATOM     17  O   UNL A   1      34.381  21.628  25.564  1.00  0.00    -0.275 OA
BRANCH  15  18
ATOM     18  C   UNL A   1      36.350  22.667  24.594  1.00  0.00     0.041 C 
ATOM     19  C   UNL A   1      36.648  22.952  23.118  1.00  0.00     0.021 C 
ATOM     20  C   UNL A   1      37.016  23.721  25.489  1.00  0.00     0.021 C 
ATOM     21  C   UNL A   1      36.986  21.293  24.916  1.00  0.00     0.021 C 
ENDBRANCH  15  18
ENDBRANCH  13  14
ENDBRANCH  12  13
ENDBRANCH  10  12
ENDBRANCH   6  10
ENDBRANCH   5   6
ENDBRANCH   1   5
BRANCH   3  22
ATOM     22  C   UNL A   1      31.692  29.960  25.318  1.00  0.00     0.116 C 
BRANCH  22  23
ATOM     23  C   UNL A   1      31.792  30.524  26.734  1.00  0.00     0.023 C 
BRANCH  23  24
ATOM     24  C   UNL A   1      31.554  32.030  26.846  1.00  0.00     0.023 C 
BRANCH  24  25
ATOM     25  C   UNL A   1      32.772  32.849  27.247  1.00  0.00     0.116 C 
BRANCH  25  26
ATOM     26  N   UNL A   1      32.449  34.202  27.670  1.00  0.00    -0.352 N 
ATOM     27  C   UNL A   1      33.058  34.956  28.647  1.00  0.00     0.251 C 
ATOM     28  H   UNL A   1      31.701  34.634  27.197  1.00  0.00     0.163 HD
ATOM     29  O   UNL A   1      32.637  36.058  28.945  1.00  0.00    -0.269 OA
BRANCH  27  30
ATOM     30  C   UNL A   1      34.209  34.372  29.365  1.00  0.00     0.039 A 
ATOM     31  C   UNL A   1      33.963  33.586  30.492  1.00  0.00     0.014 A 
ATOM     32  C   UNL A   1      35.510  34.546  28.885  1.00  0.00     0.014 A 
ATOM     33  C   UNL A   1      35.021  32.915  31.104  1.00  0.00     0.010 A 
ATOM     34  C   UNL A   1      36.551  33.823  29.452  1.00  0.00     0.010 A 
ATOM     35  C   UNL A   1      36.315  33.002  30.565  1.00  0.00    -0.014 A 
BRANCH  35  36
ATOM     36  C   UNL A   1      37.443  32.245  31.156  1.00  0.00     0.031 A 
ATOM     37  C   UNL A   1      37.929  32.586  32.535  1.00  0.00     0.074 A 
ATOM     38  C   UNL A   1      38.072  31.306  30.425  1.00  0.00     0.049 A 
ATOM     39  N   UNL A   1      38.944  32.098  33.200  1.00  0.00    -0.248 NA
ATOM     40  C   UNL A   1      37.191  33.640  33.248  1.00  0.00     0.031 C 
ATOM     41  C   UNL A   1      37.719  30.922  29.058  1.00  0.00     0.029 A 
ATOM     42  N   UNL A   1      39.148  30.511  30.728  1.00  0.00    -0.354 N 
ATOM     43  C   UNL A   1      38.976  32.795  34.399  1.00  0.00     0.074 A 
ATOM     44  C   UNL A   1      37.915  33.777  34.348  1.00  0.00     0.031 C 
ATOM     45  C   UNL A   1      38.545  29.944  28.650  1.00  0.00     0.029 A 
ATOM     46  C   UNL A   1      39.504  29.659  29.712  1.00  0.00     0.049 A 
ATOM     47  H   UNL A   1      39.619  30.549  31.591  1.00  0.00     0.167 HD
ATOM     48  C   UNL A   1      39.801  32.615  35.458  1.00  0.00     0.037 A 
ATOM     49  C   UNL A   1      40.496  28.751  29.650  1.00  0.00     0.037 A 
ATOM     50  C   UNL A   1      40.837  31.619  35.513  1.00  0.00     0.049 A 
ATOM     51  C   UNL A   1      41.402  28.571  30.836  1.00  0.00     0.074 A 
ATOM     52  C   UNL A   1      41.688  31.313  36.559  1.00  0.00     0.029 A 
ATOM     53  N   UNL A   1      41.163  30.764  34.468  1.00  0.00    -0.354 N 
ATOM     54  N   UNL A   1      41.386  29.192  31.991  1.00  0.00    -0.248 NA
ATOM     55  C   UNL A   1      42.463  27.563  30.711  1.00  0.00     0.031 C 
ATOM     56  C   UNL A   1      42.555  30.299  36.135  1.00  0.00     0.029 A 
ATOM     57  C   UNL A   1      42.215  29.944  34.839  1.00  0.00     0.049 A 
ATOM     58  H   UNL A   1      40.713  30.745  33.593  1.00  0.00     0.167 HD
ATOM     59  C   UNL A   1      42.411  28.632  32.740  1.00  0.00     0.074 A 
ATOM     60  C   UNL A   1      43.026  27.616  31.910  1.00  0.00     0.031 C 
ATOM     61  C   UNL A   1      42.807  28.932  34.001  1.00  0.00     0.037 A 
BRANCH  48  62
ATOM     62  C   UNL A   1      39.606  33.520  36.639  1.00  0.00     0.064 A 
ATOM     63  C   UNL A   1      38.792  33.150  37.722  1.00  0.00     0.173 A 
ATOM     64  C   UNL A   1      40.235  34.772  36.689  1.00  0.00     0.173 A 
ATOM     65  F   UNL A   1      38.156  31.969  37.715  1.00  0.00    -0.203 F 
ATOM     66  C   UNL A   1      38.584  34.017  38.790  1.00  0.00     0.198 A 
ATOM     67  C   UNL A   1      40.049  35.624  37.774  1.00  0.00     0.198 A 
ATOM     68  F   UNL A   1      41.026  35.174  35.682  1.00  0.00    -0.203 F 
ATOM     69  F   UNL A   1      37.753  33.667  39.782  1.00  0.00    -0.200 F 
ATOM     70  C   UNL A   1      39.215  35.251  38.819  1.00  0.00     0.200 A 
ATOM     71  F   UNL A   1      40.668  36.813  37.805  1.00  0.00    -0.200 F 
ATOM     72  F   UNL A   1      39.011  36.087  39.846  1.00  0.00    -0.200 F 
ENDBRANCH  48  62
BRANCH  49  73
ATOM     73  C   UNL A   1      40.649  27.910  28.436  1.00  0.00     0.064 A 
ATOM     74  C   UNL A   1      41.410  28.361  27.349  1.00  0.00     0.173 A 
ATOM     75  C   UNL A   1      40.061  26.641  28.343  1.00  0.00     0.173 A 
ATOM     76  F   UNL A   1      41.975  29.577  27.386  1.00  0.00    -0.203 F 
ATOM     77  C   UNL A   1      41.568  27.578  26.208  1.00  0.00     0.198 A 
ATOM     78  C   UNL A   1      40.238  25.850  27.210  1.00  0.00     0.198 A 
ATOM     79  F   UNL A   1      39.328  26.163  29.358  1.00  0.00    -0.203 F 
ATOM     80  F   UNL A   1      42.275  28.046  25.170  1.00  0.00    -0.200 F 
ATOM     81  C   UNL A   1      40.988  26.320  26.141  1.00  0.00     0.200 A 
ATOM     82  F   UNL A   1      39.687  24.630  27.153  1.00  0.00    -0.200 F 
ATOM     83  F   UNL A   1      41.148  25.564  25.047  1.00  0.00    -0.200 F 
ENDBRANCH  49  73
BRANCH  61  84
ATOM     84  C   UNL A   1      43.937  28.129  34.574  1.00  0.00     0.064 A 
ATOM     85  C   UNL A   1      43.715  26.908  35.226  1.00  0.00     0.173 A 
ATOM     86  C   UNL A   1      45.261  28.568  34.429  1.00  0.00     0.173 A 
ATOM     87  F   UNL A   1      42.464  26.455  35.403  1.00  0.00    -0.203 F 
ATOM     88  C   UNL A   1      44.778  26.163  35.729  1.00  0.00     0.198 A 
ATOM     89  C   UNL A   1      46.323  27.808  34.911  1.00  0.00     0.198 A 
ATOM     90  F   UNL A   1      45.526  29.728  33.809  1.00  0.00    -0.203 F 
ATOM     91  F   UNL A   1      44.540  25.018  36.384  1.00  0.00    -0.200 F 
ATOM     92  C   UNL A   1      46.081  26.610  35.564  1.00  0.00     0.200 A 
ATOM     93  F   UNL A   1      47.582  28.236  34.741  1.00  0.00    -0.200 F 
ATOM     94  F   UNL A   1      47.103  25.888  36.044  1.00  0.00    -0.200 F 
ENDBRANCH  61  84
ENDBRANCH  35  36
ENDBRANCH  27  30
ENDBRANCH  25  26
ENDBRANCH  24  25
ENDBRANCH  23  24
ENDBRANCH  22  23
ENDBRANCH   3  22
TORSDOF 19
ENDMDL
MODEL 2
REMARK VINA RESULT:     -10.8      1.298      7.696
REMARK SMILES C#CCN(CC(=O)NCCCCNC(=O)c1ccc(-c2c3nc(c(-c4c(F)c(F)c(F)c(F)c4F)c4ccc([nH]4)c(-c4c(F)c(F)c(F)c(F)c4F)c4nc(c(-c5c(F)c(F)c(F)c(F)c5F)c5ccc2[nH]5)C=C4)C=C3)cc1)C(=O)CCNC(=O)C(C)(C)C
REMARK SMILES IDX 6 1 7 2 8 3 5 5 4 6 3 7 2 8 1 9 79 10 80 11 81 12 82 13
REMARK SMILES IDX 83 14 84 15 85 17 86 18 87 19 88 20 89 21 9 22 10 23 11 24
REMARK SMILES IDX 12 25 13 26 14 27 15 29 16 30 17 31 78 32 18 33 77 34 19 35
REMARK SMILES IDX 20 36 21 37 71 38 22 39 76 40 70 41 72 42 23 43 75 44 69 45
REMARK SMILES IDX 68 46 24 48 56 49 36 50 55 51 37 52 40 53 54 54 73 55 38 56
REMARK SMILES IDX 39 57 53 59 74 60 41 61 25 62 26 63 34 64 27 65 28 66 32 67
REMARK SMILES IDX 35 68 29 69 30 70 33 71 31 72 57 73 58 74 66 75 59 76 60 77
REMARK SMILES IDX 64 78 67 79 61 80 62 81 65 82 63 83 42 84 43 85 51 86 44 87
REMARK SMILES IDX 45 88 49 89 52 90 46 91 47 92 50 93 48 94
REMARK H PARENT 8 4 83 16 13 28 72 47 40 58
REMARK Flexibility Score: inf
ROOT
ATOM      1  C   UNL A   1      33.514  28.689  23.764  1.00  0.00     0.239 C 
ATOM      2  O   UNL A   1      34.383  28.989  22.943  1.00  0.00    -0.273 OA
ATOM      3  N   UNL A   1      32.886  29.709  24.411  1.00  0.00    -0.355 N 
ATOM      4  H   UNL A   1      33.238  30.609  24.225  1.00  0.00     0.163 HD
ENDROOT
BRANCH   1   5
ATOM      5  C   UNL A   1      33.106  27.226  23.996  1.00  0.00     0.220 C 
BRANCH   5   6
ATOM      6  N   UNL A   1      32.201  26.635  22.997  1.00  0.00    -0.322 N 
BRANCH   6   7
ATOM      7  C   UNL A   1      32.802  25.791  21.967  1.00  0.00     0.209 C 
BRANCH   7   8
ATOM      8  C   UNL A   1      33.751  24.737  22.516  1.00  0.00    -0.085 C 
ATOM      9  C   UNL A   1      34.564  23.834  22.988  1.00  0.00     0.006 C 
ENDBRANCH   7   8
ENDBRANCH   6   7
BRANCH   6  10
ATOM     10  C   UNL A   1      30.833  26.870  22.933  1.00  0.00     0.225 C 
ATOM     11  O   UNL A   1      30.357  27.701  22.154  1.00  0.00    -0.275 OA
BRANCH  10  12
ATOM     12  C   UNL A   1      29.878  26.111  23.838  1.00  0.00     0.121 C 
BRANCH  12  13
ATOM     13  C   UNL A   1      30.397  24.729  24.221  1.00  0.00     0.125 C 
BRANCH  13  14
ATOM     14  N   UNL A   1      30.079  24.374  25.592  1.00  0.00    -0.355 N 
ATOM     15  C   UNL A   1      30.682  23.560  26.501  1.00  0.00     0.225 C 
ATOM     16  H   UNL A   1      29.263  24.808  25.932  1.00  0.00     0.163 HD
ATOM     17  O   UNL A   1      29.985  23.263  27.478  1.00  0.00    -0.275 OA
BRANCH  15  18
ATOM     18  C   UNL A   1      32.158  23.120  26.403  1.00  0.00     0.041 C 
ATOM     19  C   UNL A   1      32.466  22.088  25.313  1.00  0.00     0.021 C 
ATOM     20  C   UNL A   1      33.016  24.378  26.208  1.00  0.00     0.021 C 
ATOM     21  C   UNL A   1      32.557  22.472  27.750  1.00  0.00     0.021 C 
ENDBRANCH  15  18
ENDBRANCH  13  14
ENDBRANCH  12  13
ENDBRANCH  10  12
ENDBRANCH   6  10
ENDBRANCH   5   6
ENDBRANCH   1   5
BRANCH   3  22
ATOM     22  C   UNL A   1      31.778  29.652  25.332  1.00  0.00     0.116 C 
BRANCH  22  23
ATOM     23  C   UNL A   1      32.122  30.293  26.675  1.00  0.00     0.023 C 
BRANCH  23  24
ATOM     24  C   UNL A   1      31.768  31.775  26.792  1.00  0.00     0.023 C 
BRANCH  24  25
ATOM     25  C   UNL A   1      32.897  32.674  27.275  1.00  0.00     0.116 C 
BRANCH  25  26
ATOM     26  N   UNL A   1      32.467  34.026  27.595  1.00  0.00    -0.352 N 
ATOM     27  C   UNL A   1      32.992  34.885  28.533  1.00  0.00     0.251 C 
ATOM     28  H   UNL A   1      31.705  34.370  27.075  1.00  0.00     0.163 HD
ATOM     29  O   UNL A   1      32.487  35.971  28.745  1.00  0.00    -0.269 OA
BRANCH  27  30
ATOM     30  C   UNL A   1      34.159  34.434  29.319  1.00  0.00     0.039 A 
ATOM     31  C   UNL A   1      33.936  33.826  30.556  1.00  0.00     0.014 A 
ATOM     32  C   UNL A   1      35.452  34.552  28.803  1.00  0.00     0.014 A 
ATOM     33  C   UNL A   1      35.010  33.273  31.250  1.00  0.00     0.010 A 
ATOM     34  C   UNL A   1      36.510  33.940  29.462  1.00  0.00     0.010 A 
ATOM     35  C   UNL A   1      36.298  33.295  30.690  1.00  0.00    -0.014 A 
BRANCH  35  36
ATOM     36  C   UNL A   1      37.443  32.654  31.376  1.00  0.00     0.031 A 
ATOM     37  C   UNL A   1      38.170  31.520  30.714  1.00  0.00     0.074 A 
ATOM     38  C   UNL A   1      37.780  33.045  32.620  1.00  0.00     0.049 A 
ATOM     39  N   UNL A   1      39.145  30.779  31.175  1.00  0.00    -0.248 NA
ATOM     40  C   UNL A   1      37.718  31.151  29.364  1.00  0.00     0.031 C 
ATOM     41  C   UNL A   1      37.117  34.104  33.381  1.00  0.00     0.029 A 
ATOM     42  N   UNL A   1      38.758  32.588  33.466  1.00  0.00    -0.354 N 
ATOM     43  C   UNL A   1      39.410  29.848  30.181  1.00  0.00     0.074 A 
ATOM     44  C   UNL A   1      38.458  30.081  29.116  1.00  0.00     0.031 C 
ATOM     45  C   UNL A   1      37.726  34.236  34.571  1.00  0.00     0.029 A 
ATOM     46  C   UNL A   1      38.797  33.249  34.668  1.00  0.00     0.049 A 
ATOM     47  H   UNL A   1      39.374  31.857  33.232  1.00  0.00     0.167 HD
ATOM     48  C   UNL A   1      40.376  28.900  30.148  1.00  0.00     0.037 A 
ATOM     49  C   UNL A   1      39.608  33.074  35.728  1.00  0.00     0.037 A 
ATOM     50  C   UNL A   1      41.337  28.691  31.199  1.00  0.00     0.049 A 
ATOM     51  C   UNL A   1      40.671  32.013  35.671  1.00  0.00     0.074 A 
ATOM     52  C   UNL A   1      42.393  27.799  31.239  1.00  0.00     0.029 A 
ATOM     53  N   UNL A   1      41.352  29.387  32.400  1.00  0.00    -0.354 N 
ATOM     54  N   UNL A   1      40.955  31.177  34.701  1.00  0.00    -0.248 NA
ATOM     55  C   UNL A   1      41.528  31.871  36.856  1.00  0.00     0.031 C 
ATOM     56  C   UNL A   1      43.026  27.929  32.481  1.00  0.00     0.029 A 
ATOM     57  C   UNL A   1      42.390  28.932  33.197  1.00  0.00     0.049 A 
ATOM     58  H   UNL A   1      40.720  30.099  32.648  1.00  0.00     0.167 HD
ATOM     59  C   UNL A   1      42.039  30.432  35.144  1.00  0.00     0.074 A 
ATOM     60  C   UNL A   1      42.366  30.919  36.469  1.00  0.00     0.031 C 
ATOM     61  C   UNL A   1      42.704  29.436  34.510  1.00  0.00     0.037 A 
BRANCH  48  62
ATOM     62  C   UNL A   1      40.435  28.024  28.932  1.00  0.00     0.064 A 
ATOM     63  C   UNL A   1      41.190  28.382  27.804  1.00  0.00     0.173 A 
ATOM     64  C   UNL A   1      39.726  26.814  28.890  1.00  0.00     0.173 A 
ATOM     65  F   UNL A   1      41.873  29.536  27.788  1.00  0.00    -0.203 F 
ATOM     66  C   UNL A   1      41.200  27.582  26.665  1.00  0.00     0.198 A 
ATOM     67  C   UNL A   1      39.763  26.001  27.760  1.00  0.00     0.198 A 
ATOM     68  F   UNL A   1      38.992  26.422  29.942  1.00  0.00    -0.203 F 
ATOM     69  F   UNL A   1      41.877  27.976  25.577  1.00  0.00    -0.200 F 
ATOM     70  C   UNL A   1      40.490  26.390  26.645  1.00  0.00     0.200 A 
ATOM     71  F   UNL A   1      39.086  24.845  27.746  1.00  0.00    -0.200 F 
ATOM     72  F   UNL A   1      40.498  25.623  25.546  1.00  0.00    -0.200 F 
ENDBRANCH  48  62
BRANCH  49  73
ATOM     73  C   UNL A   1      39.473  33.959  36.912  1.00  0.00     0.064 A 
ATOM     74  C   UNL A   1      38.733  33.547  38.029  1.00  0.00     0.173 A 
ATOM     75  C   UNL A   1      40.091  35.217  36.964  1.00  0.00     0.173 A 
ATOM     76  F   UNL A   1      38.109  32.360  38.017  1.00  0.00    -0.203 F 
ATOM     77  C   UNL A   1      38.606  34.365  39.150  1.00  0.00     0.198 A 
ATOM     78  C   UNL A   1      39.981  36.024  38.094  1.00  0.00     0.198 A 
ATOM     79  F   UNL A   1      40.813  35.654  35.923  1.00  0.00    -0.203 F 
ATOM     80  F   UNL A   1      37.868  33.959  40.191  1.00  0.00    -0.200 F 
ATOM     81  C   UNL A   1      39.236  35.599  39.184  1.00  0.00     0.200 A 
ATOM     82  F   UNL A   1      40.601  37.211  38.129  1.00  0.00    -0.200 F 
ATOM     83  F   UNL A   1      39.121  36.382  40.265  1.00  0.00    -0.200 F 
ENDBRANCH  49  73
BRANCH  61  84
ATOM     84  C   UNL A   1      43.873  28.828  35.226  1.00  0.00     0.064 A 
ATOM     85  C   UNL A   1      45.174  29.324  35.064  1.00  0.00     0.173 A 
ATOM     86  C   UNL A   1      43.679  27.763  36.119  1.00  0.00     0.173 A 
ATOM     87  F   UNL A   1      45.411  30.330  34.208  1.00  0.00    -0.203 F 
ATOM     88  C   UNL A   1      46.243  28.763  35.757  1.00  0.00     0.198 A 
ATOM     89  C   UNL A   1      44.747  27.223  36.830  1.00  0.00     0.198 A 
ATOM     90  F   UNL A   1      42.452  27.257  36.312  1.00  0.00    -0.203 F 
ATOM     91  F   UNL A   1      47.485  29.226  35.557  1.00  0.00    -0.200 F 
ATOM     92  C   UNL A   1      46.028  27.719  36.644  1.00  0.00     0.200 A 
ATOM     93  F   UNL A   1      44.535  26.221  37.695  1.00  0.00    -0.200 F 
ATOM     94  F   UNL A   1      47.057  27.185  37.315  1.00  0.00    -0.200 F 
ENDBRANCH  61  84
ENDBRANCH  35  36
ENDBRANCH  27  30
ENDBRANCH  25  26
ENDBRANCH  24  25
ENDBRANCH  23  24
ENDBRANCH  22  23
ENDBRANCH   3  22
TORSDOF 19
ENDMDL
MODEL 3
REMARK VINA RESULT:     -10.6      5.608      9.885
REMARK SMILES C#CCN(CC(=O)NCCCCNC(=O)c1ccc(-c2c3nc(c(-c4c(F)c(F)c(F)c(F)c4F)c4ccc([nH]4)c(-c4c(F)c(F)c(F)c(F)c4F)c4nc(c(-c5c(F)c(F)c(F)c(F)c5F)c5ccc2[nH]5)C=C4)C=C3)cc1)C(=O)CCNC(=O)C(C)(C)C
REMARK SMILES IDX 6 1 7 2 8 3 5 5 4 6 3 7 2 8 1 9 79 10 80 11 81 12 82 13
REMARK SMILES IDX 83 14 84 15 85 17 86 18 87 19 88 20 89 21 9 22 10 23 11 24
REMARK SMILES IDX 12 25 13 26 14 27 15 29 16 30 17 31 78 32 18 33 77 34 19 35
REMARK SMILES IDX 20 36 21 37 71 38 22 39 76 40 70 41 72 42 23 43 75 44 69 45
REMARK SMILES IDX 68 46 24 48 56 49 36 50 55 51 37 52 40 53 54 54 73 55 38 56
REMARK SMILES IDX 39 57 53 59 74 60 41 61 25 62 26 63 34 64 27 65 28 66 32 67
REMARK SMILES IDX 35 68 29 69 30 70 33 71 31 72 57 73 58 74 66 75 59 76 60 77
REMARK SMILES IDX 64 78 67 79 61 80 62 81 65 82 63 83 42 84 43 85 51 86 44 87
REMARK SMILES IDX 45 88 49 89 52 90 46 91 47 92 50 93 48 94
REMARK H PARENT 8 4 83 16 13 28 72 47 40 58
REMARK Flexibility Score: inf
ROOT
ATOM      1  C   UNL A   1      34.519  21.899  26.893  1.00  0.00     0.239 C 
ATOM      2  O   UNL A   1      33.802  21.089  27.485  1.00  0.00    -0.273 OA
ATOM      3  N   UNL A   1      35.749  21.473  26.498  1.00  0.00    -0.355 N 
ATOM      4  H   UNL A   1      35.998  20.567  26.791  1.00  0.00     0.163 HD
ENDROOT
BRANCH   1   5
ATOM      5  C   UNL A   1      34.016  23.311  26.553  1.00  0.00     0.220 C 
BRANCH   5   6
ATOM      6  N   UNL A   1      33.406  23.483  25.224  1.00  0.00    -0.322 N 
BRANCH   6   7
ATOM      7  C   UNL A   1      34.205  24.157  24.204  1.00  0.00     0.209 C 
BRANCH   7   8
ATOM      8  C   UNL A   1      33.826  25.614  23.994  1.00  0.00    -0.085 C 
ATOM      9  C   UNL A   1      33.500  26.864  23.813  1.00  0.00     0.006 C 
ENDBRANCH   7   8
ENDBRANCH   6   7
BRANCH   6  10
ATOM     10  C   UNL A   1      32.111  23.102  24.894  1.00  0.00     0.225 C 
ATOM     11  O   UNL A   1      31.204  23.932  24.777  1.00  0.00    -0.275 OA
BRANCH  10  12
ATOM     12  C   UNL A   1      31.770  21.637  24.677  1.00  0.00     0.121 C 
BRANCH  12  13
ATOM     13  C   UNL A   1      32.851  20.886  23.905  1.00  0.00     0.125 C 
BRANCH  13  14
ATOM     14  N   UNL A   1      32.320  19.766  23.151  1.00  0.00    -0.355 N 
ATOM     15  C   UNL A   1      32.597  18.433  23.156  1.00  0.00     0.225 C 
ATOM     16  H   UNL A   1      31.621  20.020  22.506  1.00  0.00     0.163 HD
ATOM     17  O   UNL A   1      32.162  17.807  22.182  1.00  0.00    -0.275 OA
BRANCH  15  18
ATOM     18  C   UNL A   1      33.295  17.712  24.329  1.00  0.00     0.041 C 
ATOM     19  C   UNL A   1      33.301  16.182  24.249  1.00  0.00     0.021 C 
ATOM     20  C   UNL A   1      34.729  18.251  24.430  1.00  0.00     0.021 C 
ATOM     21  C   UNL A   1      32.550  18.084  25.633  1.00  0.00     0.021 C 
ENDBRANCH  15  18
ENDBRANCH  13  14
ENDBRANCH  12  13
ENDBRANCH  10  12
ENDBRANCH   6  10
ENDBRANCH   5   6
ENDBRANCH   1   5
BRANCH   3  22
ATOM     22  C   UNL A   1      36.739  22.166  25.711  1.00  0.00     0.116 C 
BRANCH  22  23
ATOM     23  C   UNL A   1      37.302  21.283  24.600  1.00  0.00     0.023 C 
BRANCH  23  24
ATOM     24  C   UNL A   1      38.046  20.037  25.080  1.00  0.00     0.023 C 
BRANCH  24  25
ATOM     25  C   UNL A   1      39.312  20.309  25.879  1.00  0.00     0.116 C 
BRANCH  25  26
ATOM     26  N   UNL A   1      40.241  19.190  25.896  1.00  0.00    -0.352 N 
ATOM     27  C   UNL A   1      41.599  19.215  26.115  1.00  0.00     0.251 C 
ATOM     28  H   UNL A   1      39.849  18.302  25.729  1.00  0.00     0.163 HD
ATOM     29  O   UNL A   1      42.269  18.203  26.032  1.00  0.00    -0.269 OA
BRANCH  27  30
ATOM     30  C   UNL A   1      42.236  20.516  26.405  1.00  0.00     0.039 A 
ATOM     31  C   UNL A   1      42.736  21.266  25.340  1.00  0.00     0.014 A 
ATOM     32  C   UNL A   1      42.276  21.013  27.711  1.00  0.00     0.014 A 
ATOM     33  C   UNL A   1      43.217  22.553  25.575  1.00  0.00     0.010 A 
ATOM     34  C   UNL A   1      42.691  22.319  27.933  1.00  0.00     0.010 A 
ATOM     35  C   UNL A   1      43.164  23.100  26.868  1.00  0.00    -0.014 A 
BRANCH  35  36
ATOM     36  C   UNL A   1      43.606  24.489  27.131  1.00  0.00     0.031 A 
ATOM     37  C   UNL A   1      42.630  25.494  27.669  1.00  0.00     0.074 A 
ATOM     38  C   UNL A   1      44.862  24.859  26.819  1.00  0.00     0.049 A 
ATOM     39  N   UNL A   1      42.796  26.771  27.896  1.00  0.00    -0.248 NA
ATOM     40  C   UNL A   1      41.275  25.000  27.961  1.00  0.00     0.031 C 
ATOM     41  C   UNL A   1      45.886  23.982  26.248  1.00  0.00     0.029 A 
ATOM     42  N   UNL A   1      45.488  26.075  26.929  1.00  0.00    -0.354 N 
ATOM     43  C   UNL A   1      41.566  27.236  28.340  1.00  0.00     0.074 A 
ATOM     44  C   UNL A   1      40.649  26.117  28.297  1.00  0.00     0.031 C 
ATOM     45  C   UNL A   1      47.021  24.681  26.085  1.00  0.00     0.029 A 
ATOM     46  C   UNL A   1      46.794  26.060  26.506  1.00  0.00     0.049 A 
ATOM     47  H   UNL A   1      45.043  26.880  27.278  1.00  0.00     0.167 HD
ATOM     48  C   UNL A   1      41.237  28.477  28.768  1.00  0.00     0.037 A 
ATOM     49  C   UNL A   1      47.703  27.052  26.465  1.00  0.00     0.037 A 
ATOM     50  C   UNL A   1      42.160  29.579  28.833  1.00  0.00     0.049 A 
ATOM     51  C   UNL A   1      47.315  28.424  26.941  1.00  0.00     0.074 A 
ATOM     52  C   UNL A   1      41.945  30.860  29.306  1.00  0.00     0.029 A 
ATOM     53  N   UNL A   1      43.480  29.525  28.405  1.00  0.00    -0.354 N 
ATOM     54  N   UNL A   1      46.166  28.840  27.419  1.00  0.00    -0.248 NA
ATOM     55  C   UNL A   1      48.349  29.465  26.875  1.00  0.00     0.031 C 
ATOM     56  C   UNL A   1      43.125  31.594  29.132  1.00  0.00     0.029 A 
ATOM     57  C   UNL A   1      44.087  30.756  28.588  1.00  0.00     0.049 A 
ATOM     58  H   UNL A   1      43.920  28.729  28.029  1.00  0.00     0.167 HD
ATOM     59  C   UNL A   1      46.347  30.179  27.737  1.00  0.00     0.074 A 
ATOM     60  C   UNL A   1      47.719  30.504  27.404  1.00  0.00     0.031 C 
ATOM     61  C   UNL A   1      45.457  31.058  28.259  1.00  0.00     0.037 A 
BRANCH  48  62
ATOM     62  C   UNL A   1      39.817  28.700  29.199  1.00  0.00     0.064 A 
ATOM     63  C   UNL A   1      38.839  29.156  28.301  1.00  0.00     0.173 A 
ATOM     64  C   UNL A   1      39.428  28.459  30.525  1.00  0.00     0.173 A 
ATOM     65  F   UNL A   1      39.164  29.416  27.026  1.00  0.00    -0.203 F 
ATOM     66  C   UNL A   1      37.536  29.401  28.724  1.00  0.00     0.198 A 
ATOM     67  C   UNL A   1      38.117  28.676  30.938  1.00  0.00     0.198 A 
ATOM     68  F   UNL A   1      40.322  28.019  31.424  1.00  0.00    -0.203 F 
ATOM     69  F   UNL A   1      36.637  29.897  27.863  1.00  0.00    -0.200 F 
ATOM     70  C   UNL A   1      37.174  29.158  30.040  1.00  0.00     0.200 A 
ATOM     71  F   UNL A   1      37.766  28.431  32.207  1.00  0.00    -0.200 F 
ATOM     72  F   UNL A   1      35.920  29.397  30.448  1.00  0.00    -0.200 F 
ENDBRANCH  48  62
BRANCH  49  73
ATOM     73  C   UNL A   1      49.083  26.767  25.997  1.00  0.00     0.064 A 
ATOM     74  C   UNL A   1      50.041  26.250  26.880  1.00  0.00     0.173 A 
ATOM     75  C   UNL A   1      49.467  26.984  24.667  1.00  0.00     0.173 A 
ATOM     76  F   UNL A   1      49.724  26.045  28.166  1.00  0.00    -0.203 F 
ATOM     77  C   UNL A   1      51.337  25.971  26.451  1.00  0.00     0.198 A 
ATOM     78  C   UNL A   1      50.757  26.683  24.234  1.00  0.00     0.198 A 
ATOM     79  F   UNL A   1      48.585  27.473  23.783  1.00  0.00    -0.203 F 
ATOM     80  F   UNL A   1      52.242  25.506  27.322  1.00  0.00    -0.200 F 
ATOM     81  C   UNL A   1      51.692  26.181  25.128  1.00  0.00     0.200 A 
ATOM     82  F   UNL A   1      51.094  26.876  22.952  1.00  0.00    -0.200 F 
ATOM     83  F   UNL A   1      52.936  25.903  24.714  1.00  0.00    -0.200 F 
ENDBRANCH  49  73
BRANCH  61  84
ATOM     84  C   UNL A   1      45.948  32.448  28.534  1.00  0.00     0.064 A 
ATOM     85  C   UNL A   1      46.543  32.789  29.756  1.00  0.00     0.173 A 
ATOM     86  C   UNL A   1      45.861  33.438  27.543  1.00  0.00     0.173 A 
ATOM     87  F   UNL A   1      46.634  31.880  30.739  1.00  0.00    -0.203 F 
ATOM     88  C   UNL A   1      47.016  34.078  29.984  1.00  0.00     0.198 A 
ATOM     89  C   UNL A   1      46.358  34.718  27.766  1.00  0.00     0.198 A 
ATOM     90  F   UNL A   1      45.303  33.159  26.355  1.00  0.00    -0.203 F 
ATOM     91  F   UNL A   1      47.545  34.394  31.175  1.00  0.00    -0.200 F 
ATOM     92  C   UNL A   1      46.931  35.039  28.987  1.00  0.00     0.200 A 
ATOM     93  F   UNL A   1      46.284  35.642  26.798  1.00  0.00    -0.200 F 
ATOM     94  F   UNL A   1      47.393  36.277  29.207  1.00  0.00    -0.200 F 
ENDBRANCH  61  84
ENDBRANCH  35  36
ENDBRANCH  27  30
ENDBRANCH  25  26
ENDBRANCH  24  25
ENDBRANCH  23  24
ENDBRANCH  22  23
ENDBRANCH   3  22
TORSDOF 19
ENDMDL
