MODEL 1
REMARK VINA RESULT:     -13.9      0.000      0.000
REMARK SMILES O=C(COc1ccc(Cl)c2ccccc12)N[C@@H](Cc1c[nH]c2ccccc12)C(=O)NCCCCNC(=O)c1ccc(-c2c3nc(c(-c4c(F)c(F)c(F)c(F)c4F)c4ccc([nH]4)c(-c4c(F)c(F)c(F)c(F)c4F)c4nc(c(-c5c(F)c(F)c(F)c(F)c5F)c5ccc2[nH]5)C=C4)C=C3)cc1
REMARK SMILES IDX 31 1 30 2 28 3 29 4 17 6 16 7 1 8 2 9 3 11 4 12 5 13 6 14
REMARK SMILES IDX 15 15 7 16 10 17 14 18 8 19 11 20 13 21 9 22 12 23 18 24
REMARK SMILES IDX 19 25 20 26 27 27 21 28 22 29 26 30 23 32 25 33 24 34 32 35
REMARK SMILES IDX 33 36 34 37 35 38 36 39 37 41 38 42 39 43 100 44 40 45 99 46
REMARK SMILES IDX 41 47 42 48 43 49 93 50 44 51 98 52 92 53 94 54 45 55 97 56
REMARK SMILES IDX 91 57 90 58 46 60 78 61 58 62 77 63 59 64 62 65 76 66 95 67
REMARK SMILES IDX 60 68 61 69 75 71 96 72 63 73 47 74 48 75 56 76 49 77 50 78
REMARK SMILES IDX 54 79 57 80 51 81 52 82 55 83 53 84 79 85 80 86 88 87 81 88
REMARK SMILES IDX 82 89 86 90 89 91 83 92 84 93 87 94 85 95 64 96 65 97 73 98
REMARK SMILES IDX 66 99 67 100 71 101 74 102 68 103 69 104 72 105 70 106
REMARK H PARENT 30 5 16 10 21 31 35 40 94 59 62 70
REMARK Flexibility Score: inf
ROOT
ATOM      1  C   UNL A   1      32.315  29.864  26.823  1.00  0.00     0.116 C 
ENDROOT
BRANCH   1   2
ATOM      2  N   UNL A   1      31.582  28.675  27.208  1.00  0.00    -0.354 N 
ATOM      3  C   UNL A   1      31.406  27.504  26.521  1.00  0.00     0.242 C 
ATOM      4  O   UNL A   1      31.227  26.489  27.204  1.00  0.00    -0.273 OA
ATOM      5  H   UNL A   1      31.146  28.716  28.090  1.00  0.00     0.163 HD
BRANCH   3   6
ATOM      6  C   UNL A   1      31.496  27.404  24.976  1.00  0.00     0.175 C 
BRANCH   6   7
ATOM      7  N   UNL A   1      32.266  26.227  24.552  1.00  0.00    -0.341 N 
ATOM      8  O   UNL A   1      33.937  27.388  23.486  1.00  0.00    -0.271 OA
ATOM      9  C   UNL A   1      33.538  26.362  24.030  1.00  0.00     0.258 C 
ATOM     10  H   UNL A   1      31.869  25.330  24.639  1.00  0.00     0.164 HD
BRANCH   9  11
ATOM     11  C   UNL A   1      34.447  25.148  24.241  1.00  0.00     0.329 C 
BRANCH  11  12
ATOM     12  O   UNL A   1      34.262  24.105  23.277  1.00  0.00    -0.483 OA
BRANCH  12  13
ATOM     13  C   UNL A   1      33.957  22.880  23.836  1.00  0.00     0.128 A 
ATOM     14  C   UNL A   1      32.627  22.463  23.930  1.00  0.00     0.048 A 
ATOM     15  C   UNL A   1      35.011  22.005  24.199  1.00  0.00     0.025 A 
ATOM     16  C   UNL A   1      32.321  21.198  24.416  1.00  0.00     0.025 A 
ATOM     17  C   UNL A   1      34.702  20.706  24.692  1.00  0.00     0.004 A 
ATOM     18  C   UNL A   1      36.369  22.380  24.092  1.00  0.00     0.012 A 
ATOM     19  C   UNL A   1      33.342  20.328  24.794  1.00  0.00     0.049 A 
ATOM     20  C   UNL A   1      35.769  19.848  25.052  1.00  0.00     0.010 A 
ATOM     21  C   UNL A   1      37.401  21.513  24.458  1.00  0.00     0.001 A 
ATOM     22  Cl  UNL A   1      32.852  18.767  25.371  1.00  0.00    -0.084 Cl
ATOM     23  C   UNL A   1      37.101  20.246  24.937  1.00  0.00     0.001 A 
ENDBRANCH  12  13
ENDBRANCH  11  12
ENDBRANCH   9  11
ENDBRANCH   6   7
BRANCH   6  24
ATOM     24  C   UNL A   1      30.176  27.669  24.232  1.00  0.00     0.072 C 
BRANCH  24  25
ATOM     25  C   UNL A   1      30.158  28.769  23.215  1.00  0.00    -0.020 A 
ATOM     26  C   UNL A   1      30.996  28.877  22.118  1.00  0.00     0.087 A 
ATOM     27  C   UNL A   1      29.227  29.854  23.118  1.00  0.00     0.003 A 
ATOM     28  N   UNL A   1      30.714  30.050  21.471  1.00  0.00    -0.361 N 
ATOM     29  C   UNL A   1      29.641  30.668  22.064  1.00  0.00     0.046 A 
ATOM     30  C   UNL A   1      28.065  30.220  23.826  1.00  0.00     0.010 A 
ATOM     31  H   UNL A   1      31.208  30.398  20.694  1.00  0.00     0.166 HD
ATOM     32  C   UNL A   1      29.000  31.867  21.729  1.00  0.00     0.026 A 
ATOM     33  C   UNL A   1      27.377  31.385  23.468  1.00  0.00     0.001 A 
ATOM     34  C   UNL A   1      27.852  32.206  22.448  1.00  0.00     0.002 A 
ENDBRANCH  24  25
ENDBRANCH   6  24
ENDBRANCH   3   6
ENDBRANCH   1   2
BRANCH   1  35
ATOM     35  C   UNL A   1      31.528  30.826  25.947  1.00  0.00     0.023 C 
BRANCH  35  36
ATOM     36  C   UNL A   1      31.313  32.214  26.558  1.00  0.00     0.023 C 
BRANCH  36  37
ATOM     37  C   UNL A   1      32.527  32.860  27.228  1.00  0.00     0.116 C 
BRANCH  37  38
ATOM     38  N   UNL A   1      32.304  34.222  27.687  1.00  0.00    -0.352 N 
ATOM     39  C   UNL A   1      33.004  34.944  28.629  1.00  0.00     0.251 C 
ATOM     40  H   UNL A   1      31.549  34.694  27.267  1.00  0.00     0.163 HD
ATOM     41  O   UNL A   1      32.651  36.071  28.937  1.00  0.00    -0.269 OA
BRANCH  39  42
ATOM     42  C   UNL A   1      34.179  34.332  29.289  1.00  0.00     0.039 A 
ATOM     43  C   UNL A   1      33.973  33.487  30.382  1.00  0.00     0.014 A 
ATOM     44  C   UNL A   1      35.473  34.580  28.823  1.00  0.00     0.014 A 
ATOM     45  C   UNL A   1      35.061  32.840  30.970  1.00  0.00     0.010 A 
ATOM     46  C   UNL A   1      36.548  33.881  29.367  1.00  0.00     0.010 A 
ATOM     47  C   UNL A   1      36.355  33.010  30.451  1.00  0.00    -0.014 A 
BRANCH  47  48
ATOM     48  C   UNL A   1      37.516  32.297  31.041  1.00  0.00     0.031 A 
ATOM     49  C   UNL A   1      38.011  32.664  32.412  1.00  0.00     0.074 A 
ATOM     50  C   UNL A   1      38.163  31.357  30.324  1.00  0.00     0.049 A 
ATOM     51  N   UNL A   1      39.024  32.181  33.086  1.00  0.00    -0.248 NA
ATOM     52  C   UNL A   1      37.285  33.739  33.106  1.00  0.00     0.031 C 
ATOM     53  C   UNL A   1      37.826  30.955  28.958  1.00  0.00     0.029 A 
ATOM     54  N   UNL A   1      39.246  30.577  30.644  1.00  0.00    -0.354 N 
ATOM     55  C   UNL A   1      39.063  32.898  34.274  1.00  0.00     0.074 A 
ATOM     56  C   UNL A   1      38.014  33.893  34.201  1.00  0.00     0.031 C 
ATOM     57  C   UNL A   1      38.671  29.989  28.564  1.00  0.00     0.029 A 
ATOM     58  C   UNL A   1      39.622  29.719  29.639  1.00  0.00     0.049 A 
ATOM     59  H   UNL A   1      39.710  30.628  31.511  1.00  0.00     0.167 HD
ATOM     60  C   UNL A   1      39.877  32.727  35.344  1.00  0.00     0.037 A 
ATOM     61  C   UNL A   1      40.617  28.813  29.594  1.00  0.00     0.037 A 
ATOM     62  C   UNL A   1      40.909  31.726  35.423  1.00  0.00     0.049 A 
ATOM     63  C   UNL A   1      41.489  28.616  30.805  1.00  0.00     0.074 A 
ATOM     64  C   UNL A   1      41.763  31.446  36.475  1.00  0.00     0.029 A 
ATOM     65  N   UNL A   1      41.225  30.839  34.405  1.00  0.00    -0.354 N 
ATOM     66  N   UNL A   1      41.472  29.252  31.950  1.00  0.00    -0.248 NA
ATOM     67  C   UNL A   1      42.506  27.558  30.722  1.00  0.00     0.031 C 
ATOM     68  C   UNL A   1      42.619  30.410  36.081  1.00  0.00     0.029 A 
ATOM     69  C   UNL A   1      42.266  30.013  34.802  1.00  0.00     0.049 A 
ATOM     70  H   UNL A   1      40.777  30.801  33.529  1.00  0.00     0.167 HD
ATOM     71  C   UNL A   1      42.449  28.653  32.735  1.00  0.00     0.074 A 
ATOM     72  C   UNL A   1      43.031  27.594  31.938  1.00  0.00     0.031 C 
ATOM     73  C   UNL A   1      42.826  28.953  34.003  1.00  0.00     0.037 A 
BRANCH  60  74
ATOM     74  C   UNL A   1      39.670  33.642  36.516  1.00  0.00     0.064 A 
ATOM     75  C   UNL A   1      38.848  33.276  37.594  1.00  0.00     0.173 A 
ATOM     76  C   UNL A   1      40.300  34.894  36.568  1.00  0.00     0.173 A 
ATOM     77  F   UNL A   1      38.211  32.096  37.588  1.00  0.00    -0.203 F 
ATOM     78  C   UNL A   1      38.632  34.146  38.660  1.00  0.00     0.198 A 
ATOM     79  C   UNL A   1      40.108  35.748  37.651  1.00  0.00     0.198 A 
ATOM     80  F   UNL A   1      41.100  35.292  35.568  1.00  0.00    -0.203 F 
ATOM     81  F   UNL A   1      37.792  33.800  39.645  1.00  0.00    -0.200 F 
ATOM     82  C   UNL A   1      39.265  35.379  38.689  1.00  0.00     0.200 A 
ATOM     83  F   UNL A   1      40.729  36.935  37.684  1.00  0.00    -0.200 F 
ATOM     84  F   UNL A   1      39.055  36.217  39.714  1.00  0.00    -0.200 F 
ENDBRANCH  60  74
BRANCH  61  85
ATOM     85  C   UNL A   1      40.807  27.987  28.375  1.00  0.00     0.064 A 
ATOM     86  C   UNL A   1      40.191  26.733  28.252  1.00  0.00     0.173 A 
ATOM     87  C   UNL A   1      41.596  28.433  27.306  1.00  0.00     0.173 A 
ATOM     88  F   UNL A   1      39.441  26.255  29.256  1.00  0.00    -0.203 F 
ATOM     89  C   UNL A   1      40.374  25.949  27.115  1.00  0.00     0.198 A 
ATOM     90  C   UNL A   1      41.758  27.660  26.159  1.00  0.00     0.198 A 
ATOM     91  F   UNL A   1      42.200  29.629  27.372  1.00  0.00    -0.203 F 
ATOM     92  F   UNL A   1      39.807  24.737  27.042  1.00  0.00    -0.200 F 
ATOM     93  C   UNL A   1      41.153  26.415  26.067  1.00  0.00     0.200 A 
ATOM     94  F   UNL A   1      42.499  28.120  25.142  1.00  0.00    -0.200 F 
ATOM     95  F   UNL A   1      41.323  25.665  24.970  1.00  0.00    -0.200 F 
ENDBRANCH  61  85
BRANCH  73  96
ATOM     96  C   UNL A   1      43.889  28.094  34.625  1.00  0.00     0.064 A 
ATOM     97  C   UNL A   1      45.244  28.449  34.588  1.00  0.00     0.173 A 
ATOM     98  C   UNL A   1      43.538  26.908  35.289  1.00  0.00     0.173 A 
ATOM     99  F   UNL A   1      45.634  29.565  33.953  1.00  0.00    -0.203 F 
ATOM    100  C   UNL A   1      46.214  27.634  35.168  1.00  0.00     0.198 A 
ATOM    101  C   UNL A   1      44.506  26.111  35.893  1.00  0.00     0.198 A 
ATOM    102  F   UNL A   1      42.254  26.526  35.359  1.00  0.00    -0.203 F 
ATOM    103  F   UNL A   1      47.509  27.967  35.074  1.00  0.00    -0.200 F 
ATOM    104  C   UNL A   1      45.843  26.469  35.823  1.00  0.00     0.200 A 
ATOM    105  F   UNL A   1      44.145  24.993  36.537  1.00  0.00    -0.200 F 
ATOM    106  F   UNL A   1      46.778  25.687  36.381  1.00  0.00    -0.200 F 
ENDBRANCH  73  96
ENDBRANCH  47  48
ENDBRANCH  39  42
ENDBRANCH  37  38
ENDBRANCH  36  37
ENDBRANCH  35  36
ENDBRANCH   1  35
TORSDOF 17
ENDMDL
MODEL 2
REMARK VINA RESULT:     -13.8      5.285      9.732
REMARK SMILES O=C(COc1ccc(Cl)c2ccccc12)N[C@@H](Cc1c[nH]c2ccccc12)C(=O)NCCCCNC(=O)c1ccc(-c2c3nc(c(-c4c(F)c(F)c(F)c(F)c4F)c4ccc([nH]4)c(-c4c(F)c(F)c(F)c(F)c4F)c4nc(c(-c5c(F)c(F)c(F)c(F)c5F)c5ccc2[nH]5)C=C4)C=C3)cc1
REMARK SMILES IDX 31 1 30 2 28 3 29 4 17 6 16 7 1 8 2 9 3 11 4 12 5 13 6 14
REMARK SMILES IDX 15 15 7 16 10 17 14 18 8 19 11 20 13 21 9 22 12 23 18 24
REMARK SMILES IDX 19 25 20 26 27 27 21 28 22 29 26 30 23 32 25 33 24 34 32 35
REMARK SMILES IDX 33 36 34 37 35 38 36 39 37 41 38 42 39 43 100 44 40 45 99 46
REMARK SMILES IDX 41 47 42 48 43 49 93 50 44 51 98 52 92 53 94 54 45 55 97 56
REMARK SMILES IDX 91 57 90 58 46 60 78 61 58 62 77 63 59 64 62 65 76 66 95 67
REMARK SMILES IDX 60 68 61 69 75 71 96 72 63 73 47 74 48 75 56 76 49 77 50 78
REMARK SMILES IDX 54 79 57 80 51 81 52 82 55 83 53 84 79 85 80 86 88 87 81 88
REMARK SMILES IDX 82 89 86 90 89 91 83 92 84 93 87 94 85 95 64 96 65 97 73 98
REMARK SMILES IDX 66 99 67 100 71 101 74 102 68 103 69 104 72 105 70 106
REMARK H PARENT 30 5 16 10 21 31 35 40 94 59 62 70
REMARK Flexibility Score: inf
ROOT
ATOM      1  C   UNL A   1      35.699  20.346  24.546  1.00  0.00     0.116 C 
ENDROOT
BRANCH   1   2
ATOM      2  N   UNL A   1      34.592  19.898  25.366  1.00  0.00    -0.354 N 
ATOM      3  C   UNL A   1      33.262  20.208  25.272  1.00  0.00     0.242 C 
ATOM      4  O   UNL A   1      32.470  19.356  25.689  1.00  0.00    -0.273 OA
ATOM      5  H   UNL A   1      34.831  19.284  26.098  1.00  0.00     0.163 HD
BRANCH   3   6
ATOM      6  C   UNL A   1      32.738  21.512  24.616  1.00  0.00     0.175 C 
BRANCH   6   7
ATOM      7  N   UNL A   1      31.514  21.996  25.270  1.00  0.00    -0.341 N 
ATOM      8  O   UNL A   1      32.541  22.823  27.151  1.00  0.00    -0.271 OA
ATOM      9  C   UNL A   1      31.580  22.805  26.387  1.00  0.00     0.258 C 
ATOM     10  H   UNL A   1      30.637  21.739  24.906  1.00  0.00     0.164 HD
BRANCH   9  11
ATOM     11  C   UNL A   1      30.380  23.740  26.569  1.00  0.00     0.329 C 
BRANCH  11  12
ATOM     12  O   UNL A   1      30.735  25.090  26.889  1.00  0.00    -0.483 OA
BRANCH  12  13
ATOM     13  C   UNL A   1      30.626  25.959  25.822  1.00  0.00     0.128 A 
ATOM     14  C   UNL A   1      29.987  25.554  24.649  1.00  0.00     0.048 A 
ATOM     15  C   UNL A   1      31.059  27.301  25.977  1.00  0.00     0.025 A 
ATOM     16  C   UNL A   1      29.802  26.451  23.603  1.00  0.00     0.025 A 
ATOM     17  C   UNL A   1      30.867  28.224  24.911  1.00  0.00     0.004 A 
ATOM     18  C   UNL A   1      31.685  27.756  27.159  1.00  0.00     0.012 A 
ATOM     19  C   UNL A   1      30.235  27.769  23.728  1.00  0.00     0.049 A 
ATOM     20  C   UNL A   1      31.309  29.558  25.084  1.00  0.00     0.010 A 
ATOM     21  C   UNL A   1      32.115  29.077  27.299  1.00  0.00     0.001 A 
ATOM     22  Cl  UNL A   1      29.941  28.811  22.373  1.00  0.00    -0.084 Cl
ATOM     23  C   UNL A   1      31.926  29.979  26.262  1.00  0.00     0.001 A 
ENDBRANCH  12  13
ENDBRANCH  11  12
ENDBRANCH   9  11
ENDBRANCH   6   7
BRANCH   6  24
ATOM     24  C   UNL A   1      33.819  22.564  24.313  1.00  0.00     0.072 C 
BRANCH  24  25
ATOM     25  C   UNL A   1      33.496  23.622  23.301  1.00  0.00    -0.020 A 
ATOM     26  C   UNL A   1      32.893  23.417  22.073  1.00  0.00     0.087 A 
ATOM     27  C   UNL A   1      33.654  25.039  23.442  1.00  0.00     0.003 A 
ATOM     28  N   UNL A   1      32.832  24.616  21.414  1.00  0.00    -0.361 N 
ATOM     29  C   UNL A   1      33.294  25.623  22.226  1.00  0.00     0.046 A 
ATOM     30  C   UNL A   1      34.064  25.886  24.491  1.00  0.00     0.010 A 
ATOM     31  H   UNL A   1      32.504  24.738  20.495  1.00  0.00     0.166 HD
ATOM     32  C   UNL A   1      33.395  26.997  21.980  1.00  0.00     0.026 A 
ATOM     33  C   UNL A   1      34.116  27.269  24.282  1.00  0.00     0.001 A 
ATOM     34  C   UNL A   1      33.806  27.812  23.037  1.00  0.00     0.002 A 
ENDBRANCH  24  25
ENDBRANCH   6  24
ENDBRANCH   3   6
ENDBRANCH   1   2
BRANCH   1  35
ATOM     35  C   UNL A   1      36.930  20.766  25.334  1.00  0.00     0.023 C 
BRANCH  35  36
ATOM     36  C   UNL A   1      38.165  19.891  25.103  1.00  0.00     0.023 C 
BRANCH  36  37
ATOM     37  C   UNL A   1      39.352  20.125  26.040  1.00  0.00     0.116 C 
BRANCH  37  38
ATOM     38  N   UNL A   1      40.396  19.115  25.949  1.00  0.00    -0.352 N 
ATOM     39  C   UNL A   1      41.759  19.265  26.079  1.00  0.00     0.251 C 
ATOM     40  H   UNL A   1      40.085  18.198  25.770  1.00  0.00     0.163 HD
ATOM     41  O   UNL A   1      42.506  18.313  25.923  1.00  0.00    -0.269 OA
BRANCH  39  42
ATOM     42  C   UNL A   1      42.318  20.601  26.386  1.00  0.00     0.039 A 
ATOM     43  C   UNL A   1      42.697  21.431  25.328  1.00  0.00     0.014 A 
ATOM     44  C   UNL A   1      42.455  21.034  27.707  1.00  0.00     0.014 A 
ATOM     45  C   UNL A   1      43.155  22.723  25.594  1.00  0.00     0.010 A 
ATOM     46  C   UNL A   1      42.847  22.346  27.966  1.00  0.00     0.010 A 
ATOM     47  C   UNL A   1      43.208  23.201  26.913  1.00  0.00    -0.014 A 
BRANCH  47  48
ATOM     48  C   UNL A   1      43.655  24.586  27.208  1.00  0.00     0.031 A 
ATOM     49  C   UNL A   1      42.670  25.611  27.698  1.00  0.00     0.074 A 
ATOM     50  C   UNL A   1      44.935  24.941  26.982  1.00  0.00     0.049 A 
ATOM     51  N   UNL A   1      42.859  26.875  27.981  1.00  0.00    -0.248 NA
ATOM     52  C   UNL A   1      41.280  25.159  27.864  1.00  0.00     0.031 C 
ATOM     53  C   UNL A   1      45.975  24.061  26.446  1.00  0.00     0.029 A 
ATOM     54  N   UNL A   1      45.577  26.140  27.168  1.00  0.00    -0.354 N 
ATOM     55  C   UNL A   1      41.614  27.369  28.347  1.00  0.00     0.074 A 
ATOM     56  C   UNL A   1      40.667  26.287  28.187  1.00  0.00     0.031 C 
ATOM     57  C   UNL A   1      47.128  24.743  26.365  1.00  0.00     0.029 A 
ATOM     58  C   UNL A   1      46.906  26.112  26.823  1.00  0.00     0.049 A 
ATOM     59  H   UNL A   1      45.127  26.943  27.517  1.00  0.00     0.167 HD
ATOM     60  C   UNL A   1      41.292  28.603  28.804  1.00  0.00     0.037 A 
ATOM     61  C   UNL A   1      47.840  27.080  26.876  1.00  0.00     0.037 A 
ATOM     62  C   UNL A   1      42.237  29.674  28.980  1.00  0.00     0.049 A 
ATOM     63  C   UNL A   1      47.468  28.435  27.418  1.00  0.00     0.074 A 
ATOM     64  C   UNL A   1      42.019  30.949  29.471  1.00  0.00     0.029 A 
ATOM     65  N   UNL A   1      43.587  29.592  28.669  1.00  0.00    -0.354 N 
ATOM     66  N   UNL A   1      46.303  28.871  27.827  1.00  0.00    -0.248 NA
ATOM     67  C   UNL A   1      48.550  29.424  27.524  1.00  0.00     0.031 C 
ATOM     68  C   UNL A   1      43.230  31.650  29.427  1.00  0.00     0.029 A 
ATOM     69  C   UNL A   1      44.213  30.796  28.953  1.00  0.00     0.049 A 
ATOM     70  H   UNL A   1      44.034  28.796  28.300  1.00  0.00     0.167 HD
ATOM     71  C   UNL A   1      46.514  30.170  28.270  1.00  0.00     0.074 A 
ATOM     72  C   UNL A   1      47.923  30.446  28.089  1.00  0.00     0.031 C 
ATOM     73  C   UNL A   1      45.620  31.052  28.781  1.00  0.00     0.037 A 
BRANCH  60  74
ATOM     74  C   UNL A   1      39.852  28.849  29.154  1.00  0.00     0.064 A 
ATOM     75  C   UNL A   1      39.363  28.615  30.449  1.00  0.00     0.173 A 
ATOM     76  C   UNL A   1      38.952  29.327  28.191  1.00  0.00     0.173 A 
ATOM     77  F   UNL A   1      40.178  28.144  31.404  1.00  0.00    -0.203 F 
ATOM     78  C   UNL A   1      38.018  28.810  30.755  1.00  0.00     0.198 A 
ATOM     79  C   UNL A   1      37.615  29.553  28.509  1.00  0.00     0.198 A 
ATOM     80  F   UNL A   1      39.367  29.574  26.939  1.00  0.00    -0.203 F 
ATOM     81  F   UNL A   1      37.563  28.516  31.980  1.00  0.00    -0.200 F 
ATOM     82  C   UNL A   1      37.147  29.283  29.786  1.00  0.00     0.200 A 
ATOM     83  F   UNL A   1      36.776  30.021  27.575  1.00  0.00    -0.200 F 
ATOM     84  F   UNL A   1      35.853  29.468  30.081  1.00  0.00    -0.200 F 
ENDBRANCH  60  74
BRANCH  61  85
ATOM     85  C   UNL A   1      49.232  26.785  26.450  1.00  0.00     0.064 A 
ATOM     86  C   UNL A   1      49.632  26.967  25.119  1.00  0.00     0.173 A 
ATOM     87  C   UNL A   1      50.192  26.326  27.363  1.00  0.00     0.173 A 
ATOM     88  F   UNL A   1      48.744  27.387  24.205  1.00  0.00    -0.203 F 
ATOM     89  C   UNL A   1      50.934  26.683  24.712  1.00  0.00     0.198 A 
ATOM     90  C   UNL A   1      51.500  26.066  26.961  1.00  0.00     0.198 A 
ATOM     91  F   UNL A   1      49.861  26.143  28.650  1.00  0.00    -0.203 F 
ATOM     92  F   UNL A   1      51.277  26.826  23.425  1.00  0.00    -0.200 F 
ATOM     93  C   UNL A   1      51.868  26.238  25.634  1.00  0.00     0.200 A 
ATOM     94  F   UNL A   1      52.405  25.651  27.858  1.00  0.00    -0.200 F 
ATOM     95  F   UNL A   1      53.122  25.971  25.245  1.00  0.00    -0.200 F 
ENDBRANCH  61  85
BRANCH  73  96
ATOM     96  C   UNL A   1      46.149  32.385  29.227  1.00  0.00     0.064 A 
ATOM     97  C   UNL A   1      46.196  33.489  28.365  1.00  0.00     0.173 A 
ATOM     98  C   UNL A   1      46.591  32.562  30.547  1.00  0.00     0.173 A 
ATOM     99  F   UNL A   1      45.798  33.368  27.089  1.00  0.00    -0.203 F 
ATOM    100  C   UNL A   1      46.696  34.715  28.799  1.00  0.00     0.198 A 
ATOM    101  C   UNL A   1      47.062  33.797  30.986  1.00  0.00     0.198 A 
ATOM    102  F   UNL A   1      46.560  31.539  31.415  1.00  0.00    -0.203 F 
ATOM    103  F   UNL A   1      46.781  35.743  27.942  1.00  0.00    -0.200 F 
ATOM    104  C   UNL A   1      47.123  34.869  30.110  1.00  0.00     0.200 A 
ATOM    105  F   UNL A   1      47.462  33.947  32.256  1.00  0.00    -0.200 F 
ATOM    106  F   UNL A   1      47.602  36.050  30.525  1.00  0.00    -0.200 F 
ENDBRANCH  73  96
ENDBRANCH  47  48
ENDBRANCH  39  42
ENDBRANCH  37  38
ENDBRANCH  36  37
ENDBRANCH  35  36
ENDBRANCH   1  35
TORSDOF 17
ENDMDL
MODEL 3
REMARK VINA RESULT:     -13.8      5.087     10.709
REMARK SMILES O=C(COc1ccc(Cl)c2ccccc12)N[C@@H](Cc1c[nH]c2ccccc12)C(=O)NCCCCNC(=O)c1ccc(-c2c3nc(c(-c4c(F)c(F)c(F)c(F)c4F)c4ccc([nH]4)c(-c4c(F)c(F)c(F)c(F)c4F)c4nc(c(-c5c(F)c(F)c(F)c(F)c5F)c5ccc2[nH]5)C=C4)C=C3)cc1
REMARK SMILES IDX 31 1 30 2 28 3 29 4 17 6 16 7 1 8 2 9 3 11 4 12 5 13 6 14
REMARK SMILES IDX 15 15 7 16 10 17 14 18 8 19 11 20 13 21 9 22 12 23 18 24
REMARK SMILES IDX 19 25 20 26 27 27 21 28 22 29 26 30 23 32 25 33 24 34 32 35
REMARK SMILES IDX 33 36 34 37 35 38 36 39 37 41 38 42 39 43 100 44 40 45 99 46
REMARK SMILES IDX 41 47 42 48 43 49 93 50 44 51 98 52 92 53 94 54 45 55 97 56
REMARK SMILES IDX 91 57 90 58 46 60 78 61 58 62 77 63 59 64 62 65 76 66 95 67
REMARK SMILES IDX 60 68 61 69 75 71 96 72 63 73 47 74 48 75 56 76 49 77 50 78
REMARK SMILES IDX 54 79 57 80 51 81 52 82 55 83 53 84 79 85 80 86 88 87 81 88
REMARK SMILES IDX 82 89 86 90 89 91 83 92 84 93 87 94 85 95 64 96 65 97 73 98
REMARK SMILES IDX 66 99 67 100 71 101 74 102 68 103 69 104 72 105 70 106
REMARK H PARENT 30 5 16 10 21 31 35 40 94 59 62 70
REMARK Flexibility Score: inf
ROOT
ATOM      1  C   UNL A   1      35.435  20.080  24.499  1.00  0.00     0.116 C 
ENDROOT
BRANCH   1   2
ATOM      2  N   UNL A   1      34.329  19.725  25.365  1.00  0.00    -0.354 N 
ATOM      3  C   UNL A   1      33.020  20.122  25.309  1.00  0.00     0.242 C 
ATOM      4  O   UNL A   1      32.187  19.333  25.770  1.00  0.00    -0.273 OA
ATOM      5  H   UNL A   1      34.552  19.110  26.102  1.00  0.00     0.163 HD
BRANCH   3   6
ATOM      6  C   UNL A   1      32.563  21.446  24.643  1.00  0.00     0.175 C 
BRANCH   6   7
ATOM      7  N   UNL A   1      31.383  22.011  25.311  1.00  0.00    -0.341 N 
ATOM      8  O   UNL A   1      32.504  22.867  27.124  1.00  0.00    -0.271 OA
ATOM      9  C   UNL A   1      31.520  22.862  26.391  1.00  0.00     0.258 C 
ATOM     10  H   UNL A   1      30.483  21.779  24.985  1.00  0.00     0.164 HD
BRANCH   9  11
ATOM     11  C   UNL A   1      30.368  23.857  26.569  1.00  0.00     0.329 C 
BRANCH  11  12
ATOM     12  O   UNL A   1      30.791  25.190  26.877  1.00  0.00    -0.483 OA
BRANCH  12  13
ATOM     13  C   UNL A   1      30.664  26.070  25.822  1.00  0.00     0.128 A 
ATOM     14  C   UNL A   1      30.010  25.675  24.653  1.00  0.00     0.048 A 
ATOM     15  C   UNL A   1      31.097  27.411  25.984  1.00  0.00     0.025 A 
ATOM     16  C   UNL A   1      29.807  26.582  23.620  1.00  0.00     0.025 A 
ATOM     17  C   UNL A   1      30.887  28.344  24.931  1.00  0.00     0.004 A 
ATOM     18  C   UNL A   1      31.739  27.855  27.161  1.00  0.00     0.012 A 
ATOM     19  C   UNL A   1      30.240  27.900  23.753  1.00  0.00     0.049 A 
ATOM     20  C   UNL A   1      31.329  29.678  25.111  1.00  0.00     0.010 A 
ATOM     21  C   UNL A   1      32.167  29.176  27.310  1.00  0.00     0.001 A 
ATOM     22  Cl  UNL A   1      29.923  28.955  22.412  1.00  0.00    -0.084 Cl
ATOM     23  C   UNL A   1      31.961  30.088  26.285  1.00  0.00     0.001 A 
ENDBRANCH  12  13
ENDBRANCH  11  12
ENDBRANCH   9  11
ENDBRANCH   6   7
BRANCH   6  24
ATOM     24  C   UNL A   1      33.698  22.426  24.304  1.00  0.00     0.072 C 
BRANCH  24  25
ATOM     25  C   UNL A   1      33.412  23.505  23.303  1.00  0.00    -0.020 A 
ATOM     26  C   UNL A   1      32.816  23.330  22.066  1.00  0.00     0.087 A 
ATOM     27  C   UNL A   1      33.601  24.916  23.463  1.00  0.00     0.003 A 
ATOM     28  N   UNL A   1      32.791  24.538  21.422  1.00  0.00    -0.361 N 
ATOM     29  C   UNL A   1      33.268  25.523  22.252  1.00  0.00     0.046 A 
ATOM     30  C   UNL A   1      34.020  25.740  24.528  1.00  0.00     0.010 A 
ATOM     31  H   UNL A   1      32.475  24.680  20.501  1.00  0.00     0.166 HD
ATOM     32  C   UNL A   1      33.404  26.898  22.025  1.00  0.00     0.026 A 
ATOM     33  C   UNL A   1      34.107  27.124  24.337  1.00  0.00     0.001 A 
ATOM     34  C   UNL A   1      33.823  27.689  23.096  1.00  0.00     0.002 A 
ENDBRANCH  24  25
ENDBRANCH   6  24
ENDBRANCH   3   6
ENDBRANCH   1   2
BRANCH   1  35
ATOM     35  C   UNL A   1      36.657  20.610  25.233  1.00  0.00     0.023 C 
BRANCH  35  36
ATOM     36  C   UNL A   1      37.935  19.794  25.014  1.00  0.00     0.023 C 
BRANCH  36  37
ATOM     37  C   UNL A   1      39.146  20.184  25.864  1.00  0.00     0.116 C 
BRANCH  37  38
ATOM     38  N   UNL A   1      40.222  19.204  25.859  1.00  0.00    -0.352 N 
ATOM     39  C   UNL A   1      41.567  19.394  26.086  1.00  0.00     0.251 C 
ATOM     40  H   UNL A   1      39.951  18.277  25.667  1.00  0.00     0.163 HD
ATOM     41  O   UNL A   1      42.350  18.463  25.994  1.00  0.00    -0.269 OA
BRANCH  39  42
ATOM     42  C   UNL A   1      42.065  20.747  26.420  1.00  0.00     0.039 A 
ATOM     43  C   UNL A   1      42.306  21.650  25.381  1.00  0.00     0.014 A 
ATOM     44  C   UNL A   1      42.279  21.126  27.748  1.00  0.00     0.014 A 
ATOM     45  C   UNL A   1      42.703  22.956  25.679  1.00  0.00     0.010 A 
ATOM     46  C   UNL A   1      42.607  22.446  28.045  1.00  0.00     0.010 A 
ATOM     47  C   UNL A   1      42.830  23.373  27.014  1.00  0.00    -0.014 A 
BRANCH  47  48
ATOM     48  C   UNL A   1      43.212  24.769  27.347  1.00  0.00     0.031 A 
ATOM     49  C   UNL A   1      44.622  25.240  27.124  1.00  0.00     0.074 A 
ATOM     50  C   UNL A   1      42.307  25.599  27.900  1.00  0.00     0.049 A 
ATOM     51  N   UNL A   1      45.157  26.408  27.378  1.00  0.00    -0.248 NA
ATOM     52  C   UNL A   1      45.563  24.256  26.569  1.00  0.00     0.031 C 
ATOM     53  C   UNL A   1      40.925  25.246  28.230  1.00  0.00     0.029 A 
ATOM     54  N   UNL A   1      42.418  26.910  28.293  1.00  0.00    -0.354 N 
ATOM     55  C   UNL A   1      46.494  26.294  27.023  1.00  0.00     0.074 A 
ATOM     56  C   UNL A   1      46.704  24.927  26.600  1.00  0.00     0.031 C 
ATOM     57  C   UNL A   1      40.311  26.319  28.755  1.00  0.00     0.029 A 
ATOM     58  C   UNL A   1      41.260  27.427  28.820  1.00  0.00     0.049 A 
ATOM     59  H   UNL A   1      43.250  27.429  28.206  1.00  0.00     0.167 HD
ATOM     60  C   UNL A   1      47.456  27.249  27.021  1.00  0.00     0.037 A 
ATOM     61  C   UNL A   1      40.994  28.658  29.296  1.00  0.00     0.037 A 
ATOM     62  C   UNL A   1      47.242  28.614  27.426  1.00  0.00     0.049 A 
ATOM     63  C   UNL A   1      42.067  29.713  29.254  1.00  0.00     0.074 A 
ATOM     64  C   UNL A   1      48.140  29.667  27.425  1.00  0.00     0.029 A 
ATOM     65  N   UNL A   1      46.040  29.114  27.904  1.00  0.00    -0.354 N 
ATOM     66  N   UNL A   1      43.309  29.614  28.851  1.00  0.00    -0.248 NA
ATOM     67  C   UNL A   1      41.690  31.057  29.714  1.00  0.00     0.031 C 
ATOM     68  C   UNL A   1      47.491  30.798  27.935  1.00  0.00     0.029 A 
ATOM     69  C   UNL A   1      46.174  30.461  28.206  1.00  0.00     0.049 A 
ATOM     70  H   UNL A   1      45.213  28.591  28.012  1.00  0.00     0.167 HD
ATOM     71  C   UNL A   1      43.855  30.885  28.976  1.00  0.00     0.074 A 
ATOM     72  C   UNL A   1      42.802  31.741  29.482  1.00  0.00     0.031 C 
ATOM     73  C   UNL A   1      45.114  31.304  28.696  1.00  0.00     0.037 A 
BRANCH  60  74
ATOM     74  C   UNL A   1      48.824  26.842  26.554  1.00  0.00     0.064 A 
ATOM     75  C   UNL A   1      49.773  26.312  27.443  1.00  0.00     0.173 A 
ATOM     76  C   UNL A   1      49.193  26.980  25.208  1.00  0.00     0.173 A 
ATOM     77  F   UNL A   1      49.477  26.173  28.744  1.00  0.00    -0.203 F 
ATOM     78  C   UNL A   1      51.052  25.973  27.010  1.00  0.00     0.198 A 
ATOM     79  C   UNL A   1      50.462  26.608  24.772  1.00  0.00     0.198 A 
ATOM     80  F   UNL A   1      48.324  27.476  24.315  1.00  0.00    -0.203 F 
ATOM     81  F   UNL A   1      51.960  25.531  27.890  1.00  0.00    -0.200 F 
ATOM     82  C   UNL A   1      51.394  26.118  25.674  1.00  0.00     0.200 A 
ATOM     83  F   UNL A   1      50.788  26.738  23.478  1.00  0.00    -0.200 F 
ATOM     84  F   UNL A   1      52.626  25.794  25.258  1.00  0.00    -0.200 F 
ENDBRANCH  60  74
BRANCH  61  85
ATOM     85  C   UNL A   1      39.634  28.973  29.804  1.00  0.00     0.064 A 
ATOM     86  C   UNL A   1      39.305  28.770  31.152  1.00  0.00     0.173 A 
ATOM     87  C   UNL A   1      38.641  29.490  28.961  1.00  0.00     0.173 A 
ATOM     88  F   UNL A   1      40.216  28.259  31.994  1.00  0.00    -0.203 F 
ATOM     89  C   UNL A   1      38.028  29.054  31.633  1.00  0.00     0.198 A 
ATOM     90  C   UNL A   1      37.373  29.799  29.448  1.00  0.00     0.198 A 
ATOM     91  F   UNL A   1      38.910  29.710  27.665  1.00  0.00    -0.203 F 
ATOM     92  F   UNL A   1      37.728  28.812  32.916  1.00  0.00    -0.200 F 
ATOM     93  C   UNL A   1      37.065  29.573  30.781  1.00  0.00     0.200 A 
ATOM     94  F   UNL A   1      36.449  30.315  28.625  1.00  0.00    -0.200 F 
ATOM     95  F   UNL A   1      35.839  29.854  31.244  1.00  0.00    -0.200 F 
ENDBRANCH  61  85
BRANCH  73  96
ATOM     96  C   UNL A   1      45.409  32.764  28.884  1.00  0.00     0.064 A 
ATOM     97  C   UNL A   1      45.925  33.267  30.087  1.00  0.00     0.173 A 
ATOM     98  C   UNL A   1      45.197  33.668  27.832  1.00  0.00     0.173 A 
ATOM     99  F   UNL A   1      46.133  32.446  31.128  1.00  0.00    -0.203 F 
ATOM    100  C   UNL A   1      46.186  34.626  30.241  1.00  0.00     0.198 A 
ATOM    101  C   UNL A   1      45.488  35.022  27.979  1.00  0.00     0.198 A 
ATOM    102  F   UNL A   1      44.712  33.238  26.657  1.00  0.00    -0.203 F 
ATOM    103  F   UNL A   1      46.628  35.092  31.418  1.00  0.00    -0.200 F 
ATOM    104  C   UNL A   1      45.973  35.501  29.186  1.00  0.00     0.200 A 
ATOM    105  F   UNL A   1      45.292  35.863  26.955  1.00  0.00    -0.200 F 
ATOM    106  F   UNL A   1      46.227  36.808  29.336  1.00  0.00    -0.200 F 
ENDBRANCH  73  96
ENDBRANCH  47  48
ENDBRANCH  39  42
ENDBRANCH  37  38
ENDBRANCH  36  37
ENDBRANCH  35  36
ENDBRANCH   1  35
TORSDOF 17
ENDMDL
