MODEL 1
REMARK VINA RESULT:     -12.8      0.000      0.000
REMARK SMILES C[C@@H]1CCCC[C@@H]1NC(=O)NCc1ccc(C(=O)NCCCCNC(=O)c2ccc(-c3c4nc(c(-c5c(F)c(F)c(F)c(F)c5F)c5ccc([nH]5)c(-c5c(F)c(F)c(F)c(F)c5F)c5nc(c(-c6c(F)c(F)c(F)c(F)c6F)c6ccc3[nH]6)C=C5)C=C4)cc2)o1
REMARK SMILES IDX 21 1 20 2 19 3 17 4 18 5 16 7 13 8 14 9 90 10 15 11 12 12
REMARK SMILES IDX 11 13 8 14 9 15 10 17 7 19 1 20 2 21 3 22 4 23 6 24 5 25
REMARK SMILES IDX 22 26 23 27 24 28 25 29 26 31 27 32 28 33 89 34 29 35 88 36
REMARK SMILES IDX 30 37 31 38 32 39 82 40 33 41 87 42 81 43 83 44 34 45 86 46
REMARK SMILES IDX 80 47 79 48 35 50 67 51 47 52 66 53 48 54 51 55 65 56 84 57
REMARK SMILES IDX 49 58 50 59 64 61 85 62 52 63 36 64 37 65 45 66 38 67 39 68
REMARK SMILES IDX 43 69 46 70 40 71 41 72 44 73 42 74 68 75 69 76 77 77 70 78
REMARK SMILES IDX 71 79 75 80 78 81 72 82 73 83 76 84 74 85 53 86 54 87 62 88
REMARK SMILES IDX 55 89 56 90 60 91 63 92 57 93 58 94 61 95 59 96
REMARK H PARENT 19 6 8 16 11 18 24 30 83 49 51 60
REMARK Flexibility Score: inf
ROOT
ATOM      1  C   UNL A   1      31.559  30.964  25.804  1.00  0.00     0.023 C 
ENDROOT
BRANCH   1   2
ATOM      2  C   UNL A   1      32.610  29.884  26.056  1.00  0.00     0.116 C 
BRANCH   2   3
ATOM      3  N   UNL A   1      33.331  29.575  24.844  1.00  0.00    -0.349 N 
ATOM      4  C   UNL A   1      33.050  28.699  23.822  1.00  0.00     0.286 C 
ATOM      5  O   UNL A   1      33.893  28.681  22.923  1.00  0.00    -0.266 OA
ATOM      6  H   UNL A   1      34.168  30.079  24.730  1.00  0.00     0.163 HD
BRANCH   4   7
ATOM      7  C   UNL A   1      31.851  27.871  23.813  1.00  0.00     0.191 A 
ATOM      8  C   UNL A   1      30.805  25.904  23.777  1.00  0.00     0.124 A 
ATOM      9  C   UNL A   1      29.822  26.868  23.782  1.00  0.00     0.048 A 
ATOM     10  O   UNL A   1      32.031  26.502  23.804  1.00  0.00    -0.454 OA
ATOM     11  C   UNL A   1      30.487  28.116  23.832  1.00  0.00     0.056 A 
BRANCH   8  12
ATOM     12  C   UNL A   1      30.747  24.421  23.770  1.00  0.00     0.193 C 
BRANCH  12  13
ATOM     13  N   UNL A   1      30.281  23.943  25.053  1.00  0.00    -0.331 N 
ATOM     14  N   UNL A   1      32.181  23.867  26.456  1.00  0.00    -0.335 N 
ATOM     15  C   UNL A   1      30.854  23.893  26.262  1.00  0.00     0.315 C 
ATOM     16  H   UNL A   1      32.466  24.183  27.345  1.00  0.00     0.165 HD
ATOM     17  O   UNL A   1      30.119  23.867  27.250  1.00  0.00    -0.249 OA
ATOM     18  H   UNL A   1      29.365  23.586  25.034  1.00  0.00     0.165 HD
BRANCH  14  19
ATOM     19  C   UNL A   1      33.273  23.457  25.587  1.00  0.00     0.086 C 
ATOM     20  C   UNL A   1      34.250  21.738  27.251  1.00  0.00     0.010 C 
ATOM     21  C   UNL A   1      33.722  22.003  25.838  1.00  0.00     0.008 C 
ATOM     22  C   UNL A   1      34.775  21.641  24.776  1.00  0.00     0.005 C 
ATOM     23  C   UNL A   1      35.948  22.622  24.707  1.00  0.00     0.000 C 
ATOM     24  C   UNL A   1      34.450  24.433  25.668  1.00  0.00     0.025 C 
ATOM     25  C   UNL A   1      35.491  24.077  24.609  1.00  0.00     0.002 C 
ENDBRANCH  14  19
ENDBRANCH  12  13
ENDBRANCH   8  12
ENDBRANCH   4   7
ENDBRANCH   2   3
ENDBRANCH   1   2
BRANCH   1  26
ATOM     26  C   UNL A   1      31.403  31.965  26.954  1.00  0.00     0.023 C 
BRANCH  26  27
ATOM     27  C   UNL A   1      32.644  32.803  27.255  1.00  0.00     0.116 C 
BRANCH  27  28
ATOM     28  N   UNL A   1      32.345  34.184  27.591  1.00  0.00    -0.352 N 
ATOM     29  C   UNL A   1      32.956  34.993  28.522  1.00  0.00     0.251 C 
ATOM     30  H   UNL A   1      31.607  34.597  27.087  1.00  0.00     0.163 HD
ATOM     31  O   UNL A   1      32.524  36.112  28.752  1.00  0.00    -0.269 OA
BRANCH  29  32
ATOM     32  C   UNL A   1      34.118  34.475  29.272  1.00  0.00     0.039 A 
ATOM     33  C   UNL A   1      33.892  33.802  30.475  1.00  0.00     0.014 A 
ATOM     34  C   UNL A   1      35.416  34.626  28.777  1.00  0.00     0.014 A 
ATOM     35  C   UNL A   1      34.966  33.222  31.151  1.00  0.00     0.010 A 
ATOM     36  C   UNL A   1      36.474  33.989  29.416  1.00  0.00     0.010 A 
ATOM     37  C   UNL A   1      36.260  33.282  30.608  1.00  0.00    -0.014 A 
BRANCH  37  38
ATOM     38  C   UNL A   1      37.403  32.615  31.277  1.00  0.00     0.031 A 
ATOM     39  C   UNL A   1      38.103  31.468  30.605  1.00  0.00     0.074 A 
ATOM     40  C   UNL A   1      37.766  33.000  32.517  1.00  0.00     0.049 A 
ATOM     41  N   UNL A   1      39.072  30.711  31.053  1.00  0.00    -0.248 NA
ATOM     42  C   UNL A   1      37.631  31.103  29.260  1.00  0.00     0.031 C 
ATOM     43  C   UNL A   1      37.127  34.064  33.293  1.00  0.00     0.029 A 
ATOM     44  N   UNL A   1      38.752  32.530  33.347  1.00  0.00    -0.354 N 
ATOM     45  C   UNL A   1      39.312  29.775  30.057  1.00  0.00     0.074 A 
ATOM     46  C   UNL A   1      38.354  30.023  29.002  1.00  0.00     0.031 C 
ATOM     47  C   UNL A   1      37.751  34.179  34.477  1.00  0.00     0.029 A 
ATOM     48  C   UNL A   1      38.809  33.177  34.557  1.00  0.00     0.049 A 
ATOM     49  H   UNL A   1      39.363  31.798  33.098  1.00  0.00     0.167 HD
ATOM     50  C   UNL A   1      40.262  28.812  30.015  1.00  0.00     0.037 A 
ATOM     51  C   UNL A   1      39.621  32.979  35.612  1.00  0.00     0.037 A 
ATOM     52  C   UNL A   1      41.235  28.591  31.051  1.00  0.00     0.049 A 
ATOM     53  C   UNL A   1      40.679  31.910  35.532  1.00  0.00     0.074 A 
ATOM     54  C   UNL A   1      42.278  27.683  31.077  1.00  0.00     0.029 A 
ATOM     55  N   UNL A   1      41.285  29.291  32.249  1.00  0.00    -0.354 N 
ATOM     56  N   UNL A   1      40.942  31.078  34.554  1.00  0.00    -0.248 NA
ATOM     57  C   UNL A   1      41.558  31.761  36.700  1.00  0.00     0.031 C 
ATOM     58  C   UNL A   1      42.934  27.804  32.307  1.00  0.00     0.029 A 
ATOM     59  C   UNL A   1      42.331  28.823  33.026  1.00  0.00     0.049 A 
ATOM     60  H   UNL A   1      40.667  30.013  32.507  1.00  0.00     0.167 HD
ATOM     61  C   UNL A   1      42.036  30.331  34.973  1.00  0.00     0.074 A 
ATOM     62  C   UNL A   1      42.394  30.817  36.289  1.00  0.00     0.031 C 
ATOM     63  C   UNL A   1      42.684  29.332  34.326  1.00  0.00     0.037 A 
BRANCH  50  64
ATOM     64  C   UNL A   1      40.305  27.928  28.803  1.00  0.00     0.064 A 
ATOM     65  C   UNL A   1      41.050  28.275  27.665  1.00  0.00     0.173 A 
ATOM     66  C   UNL A   1      39.628  26.700  28.793  1.00  0.00     0.173 A 
ATOM     67  F   UNL A   1      41.704  29.446  27.619  1.00  0.00    -0.203 F 
ATOM     68  C   UNL A   1      41.096  27.437  26.555  1.00  0.00     0.198 A 
ATOM     69  C   UNL A   1      39.701  25.850  27.692  1.00  0.00     0.198 A 
ATOM     70  F   UNL A   1      38.905  26.317  29.856  1.00  0.00    -0.203 F 
ATOM     71  F   UNL A   1      41.777  27.812  25.463  1.00  0.00    -0.200 F 
ATOM     72  C   UNL A   1      40.429  26.222  26.572  1.00  0.00     0.200 A 
ATOM     73  F   UNL A   1      39.065  24.669  27.716  1.00  0.00    -0.200 F 
ATOM     74  F   UNL A   1      40.482  25.412  25.506  1.00  0.00    -0.200 F 
ENDBRANCH  50  64
BRANCH  51  75
ATOM     75  C   UNL A   1      39.490  33.827  36.826  1.00  0.00     0.064 A 
ATOM     76  C   UNL A   1      38.726  33.401  37.922  1.00  0.00     0.173 A 
ATOM     77  C   UNL A   1      40.108  35.082  36.911  1.00  0.00     0.173 A 
ATOM     78  F   UNL A   1      38.100  32.215  37.880  1.00  0.00    -0.203 F 
ATOM     79  C   UNL A   1      38.562  34.210  39.044  1.00  0.00     0.198 A 
ATOM     80  C   UNL A   1      39.967  35.879  38.046  1.00  0.00     0.198 A 
ATOM     81  F   UNL A   1      40.854  35.535  35.893  1.00  0.00    -0.203 F 
ATOM     82  F   UNL A   1      37.784  33.800  40.054  1.00  0.00    -0.200 F 
ATOM     83  C   UNL A   1      39.185  35.446  39.107  1.00  0.00     0.200 A 
ATOM     84  F   UNL A   1      40.583  37.067  38.108  1.00  0.00    -0.200 F 
ATOM     85  F   UNL A   1      39.028  36.225  40.186  1.00  0.00    -0.200 F 
ENDBRANCH  51  75
BRANCH  63  86
ATOM     86  C   UNL A   1      43.876  28.729  35.010  1.00  0.00     0.064 A 
ATOM     87  C   UNL A   1      45.166  29.253  34.843  1.00  0.00     0.173 A 
ATOM     88  C   UNL A   1      43.717  27.636  35.875  1.00  0.00     0.173 A 
ATOM     89  F   UNL A   1      45.372  30.288  34.015  1.00  0.00    -0.203 F 
ATOM     90  C   UNL A   1      46.257  28.688  35.498  1.00  0.00     0.198 A 
ATOM     91  C   UNL A   1      44.805  27.093  36.552  1.00  0.00     0.198 A 
ATOM     92  F   UNL A   1      42.502  27.103  36.074  1.00  0.00    -0.203 F 
ATOM     93  F   UNL A   1      47.488  29.174  35.287  1.00  0.00    -0.200 F 
ATOM     94  C   UNL A   1      46.074  27.614  36.357  1.00  0.00     0.200 A 
ATOM     95  F   UNL A   1      44.624  26.064  37.391  1.00  0.00    -0.200 F 
ATOM     96  F   UNL A   1      47.126  27.076  36.991  1.00  0.00    -0.200 F 
ENDBRANCH  63  86
ENDBRANCH  37  38
ENDBRANCH  29  32
ENDBRANCH  27  28
ENDBRANCH  26  27
ENDBRANCH   1  26
TORSDOF 14
ENDMDL
MODEL 2
REMARK VINA RESULT:     -12.7      5.558     11.079
REMARK SMILES C[C@@H]1CCCC[C@@H]1NC(=O)NCc1ccc(C(=O)NCCCCNC(=O)c2ccc(-c3c4nc(c(-c5c(F)c(F)c(F)c(F)c5F)c5ccc([nH]5)c(-c5c(F)c(F)c(F)c(F)c5F)c5nc(c(-c6c(F)c(F)c(F)c(F)c6F)c6ccc3[nH]6)C=C5)C=C4)cc2)o1
REMARK SMILES IDX 21 1 20 2 19 3 17 4 18 5 16 7 13 8 14 9 90 10 15 11 12 12
REMARK SMILES IDX 11 13 8 14 9 15 10 17 7 19 1 20 2 21 3 22 4 23 6 24 5 25
REMARK SMILES IDX 22 26 23 27 24 28 25 29 26 31 27 32 28 33 89 34 29 35 88 36
REMARK SMILES IDX 30 37 31 38 32 39 82 40 33 41 87 42 81 43 83 44 34 45 86 46
REMARK SMILES IDX 80 47 79 48 35 50 67 51 47 52 66 53 48 54 51 55 65 56 84 57
REMARK SMILES IDX 49 58 50 59 64 61 85 62 52 63 36 64 37 65 45 66 38 67 39 68
REMARK SMILES IDX 43 69 46 70 40 71 41 72 44 73 42 74 68 75 69 76 77 77 70 78
REMARK SMILES IDX 71 79 75 80 78 81 72 82 73 83 76 84 74 85 53 86 54 87 62 88
REMARK SMILES IDX 55 89 56 90 60 91 63 92 57 93 58 94 61 95 59 96
REMARK H PARENT 19 6 8 16 11 18 24 30 83 49 51 60
REMARK Flexibility Score: inf
ROOT
ATOM      1  C   UNL A   1      36.755  20.356  25.088  1.00  0.00     0.023 C 
ENDROOT
BRANCH   1   2
ATOM      2  C   UNL A   1      36.491  21.766  25.614  1.00  0.00     0.116 C 
BRANCH   2   3
ATOM      3  N   UNL A   1      35.508  21.745  26.671  1.00  0.00    -0.349 N 
ATOM      4  C   UNL A   1      34.133  21.773  26.630  1.00  0.00     0.286 C 
ATOM      5  O   UNL A   1      33.592  21.743  27.737  1.00  0.00    -0.266 OA
ATOM      6  H   UNL A   1      35.887  21.703  27.577  1.00  0.00     0.163 HD
BRANCH   4   7
ATOM      7  C   UNL A   1      33.392  21.829  25.376  1.00  0.00     0.191 A 
ATOM      8  C   UNL A   1      32.048  22.843  23.917  1.00  0.00     0.124 A 
ATOM      9  C   UNL A   1      32.340  21.607  23.385  1.00  0.00     0.048 A 
ATOM     10  O   UNL A   1      32.686  22.987  25.114  1.00  0.00    -0.454 OA
ATOM     11  C   UNL A   1      33.216  20.975  24.300  1.00  0.00     0.056 A 
BRANCH   8  12
ATOM     12  C   UNL A   1      31.225  23.973  23.419  1.00  0.00     0.193 C 
BRANCH  12  13
ATOM     13  N   UNL A   1      31.707  24.396  22.122  1.00  0.00    -0.331 N 
ATOM     14  N   UNL A   1      33.476  25.907  22.536  1.00  0.00    -0.335 N 
ATOM     15  C   UNL A   1      32.797  25.069  21.737  1.00  0.00     0.315 C 
ATOM     16  H   UNL A   1      34.413  26.050  22.271  1.00  0.00     0.165 HD
ATOM     17  O   UNL A   1      33.199  24.910  20.584  1.00  0.00    -0.249 OA
ATOM     18  H   UNL A   1      31.118  24.137  21.377  1.00  0.00     0.165 HD
BRANCH  14  19
ATOM     19  C   UNL A   1      33.072  26.640  23.726  1.00  0.00     0.086 C 
ATOM     20  C   UNL A   1      34.263  28.832  23.053  1.00  0.00     0.010 C 
ATOM     21  C   UNL A   1      32.956  28.158  23.481  1.00  0.00     0.008 C 
ATOM     22  C   UNL A   1      32.392  28.804  24.758  1.00  0.00     0.005 C 
ATOM     23  C   UNL A   1      33.182  28.464  26.025  1.00  0.00     0.000 C 
ATOM     24  C   UNL A   1      33.987  26.328  24.914  1.00  0.00     0.025 C 
ATOM     25  C   UNL A   1      33.422  26.963  26.183  1.00  0.00     0.002 C 
ENDBRANCH  14  19
ENDBRANCH  12  13
ENDBRANCH   8  12
ENDBRANCH   4   7
ENDBRANCH   2   3
ENDBRANCH   1   2
BRANCH   1  26
ATOM     26  C   UNL A   1      38.217  20.096  24.705  1.00  0.00     0.023 C 
BRANCH  26  27
ATOM     27  C   UNL A   1      39.220  20.244  25.846  1.00  0.00     0.116 C 
BRANCH  27  28
ATOM     28  N   UNL A   1      40.185  19.159  25.917  1.00  0.00    -0.352 N 
ATOM     29  C   UNL A   1      41.537  19.227  26.160  1.00  0.00     0.251 C 
ATOM     30  H   UNL A   1      39.823  18.255  25.772  1.00  0.00     0.163 HD
ATOM     31  O   UNL A   1      42.231  18.224  26.095  1.00  0.00    -0.269 OA
BRANCH  29  32
ATOM     32  C   UNL A   1      42.149  20.538  26.459  1.00  0.00     0.039 A 
ATOM     33  C   UNL A   1      42.584  21.332  25.396  1.00  0.00     0.014 A 
ATOM     34  C   UNL A   1      42.264  20.991  27.776  1.00  0.00     0.014 A 
ATOM     35  C   UNL A   1      43.078  22.612  25.650  1.00  0.00     0.010 A 
ATOM     36  C   UNL A   1      42.691  22.292  28.021  1.00  0.00     0.010 A 
ATOM     37  C   UNL A   1      43.102  23.114  26.961  1.00  0.00    -0.014 A 
BRANCH  37  38
ATOM     38  C   UNL A   1      43.560  24.496  27.244  1.00  0.00     0.031 A 
ATOM     39  C   UNL A   1      42.589  25.518  27.764  1.00  0.00     0.074 A 
ATOM     40  C   UNL A   1      44.832  24.845  26.970  1.00  0.00     0.049 A 
ATOM     41  N   UNL A   1      42.776  26.791  28.006  1.00  0.00    -0.248 NA
ATOM     42  C   UNL A   1      41.216  25.055  28.020  1.00  0.00     0.031 C 
ATOM     43  C   UNL A   1      45.852  23.956  26.411  1.00  0.00     0.029 A 
ATOM     44  N   UNL A   1      45.480  26.047  27.110  1.00  0.00    -0.354 N 
ATOM     45  C   UNL A   1      41.546  27.280  28.423  1.00  0.00     0.074 A 
ATOM     46  C   UNL A   1      40.606  26.183  28.353  1.00  0.00     0.031 C 
ATOM     47  C   UNL A   1      47.002  24.636  26.276  1.00  0.00     0.029 A 
ATOM     48  C   UNL A   1      46.792  26.015  26.706  1.00  0.00     0.049 A 
ATOM     49  H   UNL A   1      45.046  26.854  27.468  1.00  0.00     0.167 HD
ATOM     50  C   UNL A   1      41.234  28.527  28.849  1.00  0.00     0.037 A 
ATOM     51  C   UNL A   1      47.719  26.992  26.681  1.00  0.00     0.037 A 
ATOM     52  C   UNL A   1      42.180  29.606  28.950  1.00  0.00     0.049 A 
ATOM     53  C   UNL A   1      47.349  28.365  27.175  1.00  0.00     0.074 A 
ATOM     54  C   UNL A   1      41.979  30.888  29.429  1.00  0.00     0.029 A 
ATOM     55  N   UNL A   1      43.511  29.527  28.565  1.00  0.00    -0.354 N 
ATOM     56  N   UNL A   1      46.200  28.797  27.635  1.00  0.00    -0.248 NA
ATOM     57  C   UNL A   1      48.408  29.383  27.156  1.00  0.00     0.031 C 
ATOM     58  C   UNL A   1      43.177  31.598  29.296  1.00  0.00     0.029 A 
ATOM     59  C   UNL A   1      44.137  30.743  28.781  1.00  0.00     0.049 A 
ATOM     60  H   UNL A   1      43.945  28.725  28.193  1.00  0.00     0.167 HD
ATOM     61  C   UNL A   1      46.406  30.124  27.991  1.00  0.00     0.074 A 
ATOM     62  C   UNL A   1      47.794  30.422  27.705  1.00  0.00     0.031 C 
ATOM     63  C   UNL A   1      45.525  31.015  28.507  1.00  0.00     0.037 A 
BRANCH  50  64
ATOM     64  C   UNL A   1      39.813  28.790  29.252  1.00  0.00     0.064 A 
ATOM     65  C   UNL A   1      38.866  29.273  28.336  1.00  0.00     0.173 A 
ATOM     66  C   UNL A   1      39.380  28.514  30.558  1.00  0.00     0.173 A 
ATOM     67  F   UNL A   1      39.232  29.565  27.078  1.00  0.00    -0.203 F 
ATOM     68  C   UNL A   1      37.546  29.495  28.718  1.00  0.00     0.198 A 
ATOM     69  C   UNL A   1      38.052  28.709  30.928  1.00  0.00     0.198 A 
ATOM     70  F   UNL A   1      40.242  28.046  31.472  1.00  0.00    -0.203 F 
ATOM     71  F   UNL A   1      36.672  30.001  27.838  1.00  0.00    -0.200 F 
ATOM     72  C   UNL A   1      37.138  29.204  30.011  1.00  0.00     0.200 A 
ATOM     73  F   UNL A   1      37.656  28.415  32.176  1.00  0.00    -0.200 F 
ATOM     74  F   UNL A   1      35.864  29.409  30.375  1.00  0.00    -0.200 F 
ENDBRANCH  50  64
BRANCH  51  75
ATOM     75  C   UNL A   1      49.095  26.705  26.197  1.00  0.00     0.064 A 
ATOM     76  C   UNL A   1      49.462  26.972  24.871  1.00  0.00     0.173 A 
ATOM     77  C   UNL A   1      50.063  26.144  27.041  1.00  0.00     0.173 A 
ATOM     78  F   UNL A   1      48.564  27.491  24.020  1.00  0.00    -0.203 F 
ATOM     79  C   UNL A   1      50.736  26.664  24.400  1.00  0.00     0.198 A 
ATOM     80  C   UNL A   1      51.347  25.863  26.577  1.00  0.00     0.198 A 
ATOM     81  F   UNL A   1      49.766  25.874  28.321  1.00  0.00    -0.203 F 
ATOM     82  F   UNL A   1      51.043  26.881  23.114  1.00  0.00    -0.200 F 
ATOM     83  C   UNL A   1      51.679  26.113  25.254  1.00  0.00     0.200 A 
ATOM     84  F   UNL A   1      52.259  25.344  27.410  1.00  0.00    -0.200 F 
ATOM     85  F   UNL A   1      52.905  25.816  24.801  1.00  0.00    -0.200 F 
ENDBRANCH  51  75
BRANCH  63  86
ATOM     86  C   UNL A   1      46.045  32.382  28.841  1.00  0.00     0.064 A 
ATOM     87  C   UNL A   1      46.607  32.674  30.093  1.00  0.00     0.173 A 
ATOM     88  C   UNL A   1      46.017  33.404  27.879  1.00  0.00     0.173 A 
ATOM     89  F   UNL A   1      46.643  31.735  31.050  1.00  0.00    -0.203 F 
ATOM     90  C   UNL A   1      47.097  33.945  30.377  1.00  0.00     0.198 A 
ATOM     91  C   UNL A   1      46.536  34.665  28.157  1.00  0.00     0.198 A 
ATOM     92  F   UNL A   1      45.497  33.174  26.664  1.00  0.00    -0.203 F 
ATOM     93  F   UNL A   1      47.585  34.215  31.597  1.00  0.00    -0.200 F 
ATOM     94  C   UNL A   1      47.068  34.937  29.408  1.00  0.00     0.200 A 
ATOM     95  F   UNL A   1      46.520  35.617  27.215  1.00  0.00    -0.200 F 
ATOM     96  F   UNL A   1      47.548  36.158  29.683  1.00  0.00    -0.200 F 
ENDBRANCH  63  86
ENDBRANCH  37  38
ENDBRANCH  29  32
ENDBRANCH  27  28
ENDBRANCH  26  27
ENDBRANCH   1  26
TORSDOF 14
ENDMDL
MODEL 3
REMARK VINA RESULT:     -12.7      5.597     11.176
REMARK SMILES C[C@@H]1CCCC[C@@H]1NC(=O)NCc1ccc(C(=O)NCCCCNC(=O)c2ccc(-c3c4nc(c(-c5c(F)c(F)c(F)c(F)c5F)c5ccc([nH]5)c(-c5c(F)c(F)c(F)c(F)c5F)c5nc(c(-c6c(F)c(F)c(F)c(F)c6F)c6ccc3[nH]6)C=C5)C=C4)cc2)o1
REMARK SMILES IDX 21 1 20 2 19 3 17 4 18 5 16 7 13 8 14 9 90 10 15 11 12 12
REMARK SMILES IDX 11 13 8 14 9 15 10 17 7 19 1 20 2 21 3 22 4 23 6 24 5 25
REMARK SMILES IDX 22 26 23 27 24 28 25 29 26 31 27 32 28 33 89 34 29 35 88 36
REMARK SMILES IDX 30 37 31 38 32 39 82 40 33 41 87 42 81 43 83 44 34 45 86 46
REMARK SMILES IDX 80 47 79 48 35 50 67 51 47 52 66 53 48 54 51 55 65 56 84 57
REMARK SMILES IDX 49 58 50 59 64 61 85 62 52 63 36 64 37 65 45 66 38 67 39 68
REMARK SMILES IDX 43 69 46 70 40 71 41 72 44 73 42 74 68 75 69 76 77 77 70 78
REMARK SMILES IDX 71 79 75 80 78 81 72 82 73 83 76 84 74 85 53 86 54 87 62 88
REMARK SMILES IDX 55 89 56 90 60 91 63 92 57 93 58 94 61 95 59 96
REMARK H PARENT 19 6 8 16 11 18 24 30 83 49 51 60
REMARK Flexibility Score: inf
ROOT
ATOM      1  C   UNL A   1      36.759  20.250  25.017  1.00  0.00     0.023 C 
ENDROOT
BRANCH   1   2
ATOM      2  C   UNL A   1      36.513  21.683  25.488  1.00  0.00     0.116 C 
BRANCH   2   3
ATOM      3  N   UNL A   1      35.553  21.713  26.565  1.00  0.00    -0.349 N 
ATOM      4  C   UNL A   1      34.178  21.777  26.551  1.00  0.00     0.286 C 
ATOM      5  O   UNL A   1      33.660  21.787  27.670  1.00  0.00    -0.266 OA
ATOM      6  H   UNL A   1      35.949  21.682  27.464  1.00  0.00     0.163 HD
BRANCH   4   7
ATOM      7  C   UNL A   1      33.413  21.824  25.312  1.00  0.00     0.191 A 
ATOM      8  C   UNL A   1      32.030  22.822  23.878  1.00  0.00     0.124 A 
ATOM      9  C   UNL A   1      32.327  21.590  23.341  1.00  0.00     0.048 A 
ATOM     10  O   UNL A   1      32.688  22.974  25.063  1.00  0.00    -0.454 OA
ATOM     11  C   UNL A   1      33.226  20.968  24.239  1.00  0.00     0.056 A 
BRANCH   8  12
ATOM     12  C   UNL A   1      31.184  23.943  23.396  1.00  0.00     0.193 C 
BRANCH  12  13
ATOM     13  N   UNL A   1      31.725  24.468  22.161  1.00  0.00    -0.331 N 
ATOM     14  N   UNL A   1      33.306  26.111  22.780  1.00  0.00    -0.335 N 
ATOM     15  C   UNL A   1      32.774  25.254  21.895  1.00  0.00     0.315 C 
ATOM     16  H   UNL A   1      34.244  26.351  22.599  1.00  0.00     0.165 HD
ATOM     17  O   UNL A   1      33.278  25.187  20.773  1.00  0.00    -0.249 OA
ATOM     18  H   UNL A   1      31.223  24.192  21.361  1.00  0.00     0.165 HD
BRANCH  14  19
ATOM     19  C   UNL A   1      32.743  26.748  23.961  1.00  0.00     0.086 C 
ATOM     20  C   UNL A   1      33.641  29.103  23.395  1.00  0.00     0.010 C 
ATOM     21  C   UNL A   1      32.423  28.240  23.739  1.00  0.00     0.008 C 
ATOM     22  C   UNL A   1      31.710  28.765  24.997  1.00  0.00     0.005 C 
ATOM     23  C   UNL A   1      32.476  28.507  26.297  1.00  0.00     0.000 C 
ATOM     24  C   UNL A   1      33.632  26.537  25.189  1.00  0.00     0.025 C 
ATOM     25  C   UNL A   1      32.919  27.052  26.439  1.00  0.00     0.002 C 
ENDBRANCH  14  19
ENDBRANCH  12  13
ENDBRANCH   8  12
ENDBRANCH   4   7
ENDBRANCH   2   3
ENDBRANCH   1   2
BRANCH   1  26
ATOM     26  C   UNL A   1      38.214  19.961  24.633  1.00  0.00     0.023 C 
BRANCH  26  27
ATOM     27  C   UNL A   1      39.231  20.156  25.755  1.00  0.00     0.116 C 
BRANCH  27  28
ATOM     28  N   UNL A   1      40.194  19.073  25.863  1.00  0.00    -0.352 N 
ATOM     29  C   UNL A   1      41.544  19.146  26.119  1.00  0.00     0.251 C 
ATOM     30  H   UNL A   1      39.833  18.166  25.735  1.00  0.00     0.163 HD
ATOM     31  O   UNL A   1      42.237  18.141  26.086  1.00  0.00    -0.269 OA
BRANCH  29  32
ATOM     32  C   UNL A   1      42.153  20.463  26.394  1.00  0.00     0.039 A 
ATOM     33  C   UNL A   1      42.584  21.239  25.316  1.00  0.00     0.014 A 
ATOM     34  C   UNL A   1      42.269  20.940  27.702  1.00  0.00     0.014 A 
ATOM     35  C   UNL A   1      43.075  22.525  25.546  1.00  0.00     0.010 A 
ATOM     36  C   UNL A   1      42.693  22.246  27.923  1.00  0.00     0.010 A 
ATOM     37  C   UNL A   1      43.100  23.050  26.848  1.00  0.00    -0.014 A 
BRANCH  37  38
ATOM     38  C   UNL A   1      43.555  24.438  27.106  1.00  0.00     0.031 A 
ATOM     39  C   UNL A   1      42.584  25.465  27.616  1.00  0.00     0.074 A 
ATOM     40  C   UNL A   1      44.824  24.787  26.817  1.00  0.00     0.049 A 
ATOM     41  N   UNL A   1      42.769  26.742  27.836  1.00  0.00    -0.248 NA
ATOM     42  C   UNL A   1      41.214  25.002  27.889  1.00  0.00     0.031 C 
ATOM     43  C   UNL A   1      45.843  23.892  26.266  1.00  0.00     0.029 A 
ATOM     44  N   UNL A   1      45.469  25.993  26.934  1.00  0.00    -0.354 N 
ATOM     45  C   UNL A   1      41.539  27.234  28.254  1.00  0.00     0.074 A 
ATOM     46  C   UNL A   1      40.603  26.133  28.207  1.00  0.00     0.031 C 
ATOM     47  C   UNL A   1      46.990  24.574  26.112  1.00  0.00     0.029 A 
ATOM     48  C   UNL A   1      46.778  25.959  26.521  1.00  0.00     0.049 A 
ATOM     49  H   UNL A   1      45.035  26.805  27.282  1.00  0.00     0.167 HD
ATOM     50  C   UNL A   1      41.227  28.486  28.662  1.00  0.00     0.037 A 
ATOM     51  C   UNL A   1      47.701  26.939  26.474  1.00  0.00     0.037 A 
ATOM     52  C   UNL A   1      42.169  29.570  28.739  1.00  0.00     0.049 A 
ATOM     53  C   UNL A   1      47.330  28.318  26.949  1.00  0.00     0.074 A 
ATOM     54  C   UNL A   1      41.967  30.859  29.199  1.00  0.00     0.029 A 
ATOM     55  N   UNL A   1      43.498  29.490  28.346  1.00  0.00    -0.354 N 
ATOM     56  N   UNL A   1      46.183  28.754  27.410  1.00  0.00    -0.248 NA
ATOM     57  C   UNL A   1      48.386  29.339  26.906  1.00  0.00     0.031 C 
ATOM     58  C   UNL A   1      43.162  31.571  29.046  1.00  0.00     0.029 A 
ATOM     59  C   UNL A   1      44.122  30.711  28.538  1.00  0.00     0.049 A 
ATOM     60  H   UNL A   1      43.932  28.683  27.984  1.00  0.00     0.167 HD
ATOM     61  C   UNL A   1      46.387  30.086  27.743  1.00  0.00     0.074 A 
ATOM     62  C   UNL A   1      47.772  30.385  27.443  1.00  0.00     0.031 C 
ATOM     63  C   UNL A   1      45.507  30.983  28.251  1.00  0.00     0.037 A 
BRANCH  50  64
ATOM     64  C   UNL A   1      39.807  28.751  29.070  1.00  0.00     0.064 A 
ATOM     65  C   UNL A   1      39.376  28.572  30.393  1.00  0.00     0.173 A 
ATOM     66  C   UNL A   1      38.876  29.232  28.137  1.00  0.00     0.173 A 
ATOM     67  F   UNL A   1      40.224  28.101  31.321  1.00  0.00    -0.203 F 
ATOM     68  C   UNL A   1      38.061  28.839  30.762  1.00  0.00     0.198 A 
ATOM     69  C   UNL A   1      37.569  29.527  28.516  1.00  0.00     0.198 A 
ATOM     70  F   UNL A   1      39.236  29.426  26.860  1.00  0.00    -0.203 F 
ATOM     71  F   UNL A   1      37.661  28.616  32.021  1.00  0.00    -0.200 F 
ATOM     72  C   UNL A   1      37.161  29.324  29.826  1.00  0.00     0.200 A 
ATOM     73  F   UNL A   1      36.704  30.009  27.612  1.00  0.00    -0.200 F 
ATOM     74  F   UNL A   1      35.897  29.591  30.184  1.00  0.00    -0.200 F 
ENDBRANCH  50  64
BRANCH  51  75
ATOM     75  C   UNL A   1      49.075  26.648  25.986  1.00  0.00     0.064 A 
ATOM     76  C   UNL A   1      50.040  26.094  26.839  1.00  0.00     0.173 A 
ATOM     77  C   UNL A   1      49.457  26.931  24.667  1.00  0.00     0.173 A 
ATOM     78  F   UNL A   1      49.727  25.823  28.115  1.00  0.00    -0.203 F 
ATOM     79  C   UNL A   1      51.341  25.860  26.401  1.00  0.00     0.198 A 
ATOM     80  C   UNL A   1      50.751  26.671  24.221  1.00  0.00     0.198 A 
ATOM     81  F   UNL A   1      48.571  27.457  23.808  1.00  0.00    -0.203 F 
ATOM     82  F   UNL A   1      52.256  25.380  27.252  1.00  0.00    -0.200 F 
ATOM     83  C   UNL A   1      51.695  26.145  25.091  1.00  0.00     0.200 A 
ATOM     84  F   UNL A   1      51.085  26.934  22.950  1.00  0.00    -0.200 F 
ATOM     85  F   UNL A   1      52.947  25.922  24.669  1.00  0.00    -0.200 F 
ENDBRANCH  51  75
BRANCH  63  86
ATOM     86  C   UNL A   1      46.024  32.357  28.559  1.00  0.00     0.064 A 
ATOM     87  C   UNL A   1      46.570  32.678  29.811  1.00  0.00     0.173 A 
ATOM     88  C   UNL A   1      46.009  33.356  27.573  1.00  0.00     0.173 A 
ATOM     89  F   UNL A   1      46.593  31.761  30.791  1.00  0.00    -0.203 F 
ATOM     90  C   UNL A   1      47.058  33.955  30.072  1.00  0.00     0.198 A 
ATOM     91  C   UNL A   1      46.527  34.623  27.828  1.00  0.00     0.198 A 
ATOM     92  F   UNL A   1      45.505  33.098  26.357  1.00  0.00    -0.203 F 
ATOM     93  F   UNL A   1      47.531  34.253  31.291  1.00  0.00    -0.200 F 
ATOM     94  C   UNL A   1      47.043  34.923  29.079  1.00  0.00     0.200 A 
ATOM     95  F   UNL A   1      46.524  35.553  26.863  1.00  0.00    -0.200 F 
ATOM     96  F   UNL A   1      47.521  36.150  29.331  1.00  0.00    -0.200 F 
ENDBRANCH  63  86
ENDBRANCH  37  38
ENDBRANCH  29  32
ENDBRANCH  27  28
ENDBRANCH  26  27
ENDBRANCH   1  26
TORSDOF 14
ENDMDL
