MODEL 1
REMARK VINA RESULT:     -13.2      0.000      0.000
REMARK SMILES COc1cc(C)cc2c1O[C@H](C(F)(F)F)C(C(=O)NCCCCNC(=O)c1ccc(-c3c4nc(c(-c5c(F)c(F)c(F)c(F)c5F)c5ccc([nH]5)c(-c5c(F)c(F)c(F)c(F)c5F)c5nc(c(-c6c(F)c(F)c(F)c(F)c6F)c6ccc3[nH]6)C=C5)C=C4)cc1)=C2
REMARK SMILES IDX 22 1 21 2 20 3 19 4 17 5 18 6 16 8 3 9 4 10 9 11 5 12 8 13
REMARK SMILES IDX 10 14 6 15 7 16 90 17 11 18 2 19 1 20 12 21 13 22 14 23
REMARK SMILES IDX 15 24 23 25 24 26 25 27 26 29 27 30 28 31 89 32 29 33 88 34
REMARK SMILES IDX 30 35 31 36 32 37 82 38 33 39 87 40 81 41 83 42 34 43 86 44
REMARK SMILES IDX 80 45 79 46 35 48 67 49 47 50 66 51 48 52 51 53 65 54 84 55
REMARK SMILES IDX 49 56 50 57 64 59 85 60 52 61 36 62 37 63 45 64 38 65 39 66
REMARK SMILES IDX 43 67 46 68 40 69 41 70 44 71 42 72 68 73 69 74 77 75 70 76
REMARK SMILES IDX 71 77 75 78 78 79 72 80 73 81 76 82 74 83 53 84 54 85 62 86
REMARK SMILES IDX 55 87 56 88 60 89 63 90 57 91 58 92 61 93 59 94
REMARK H PARENT 19 7 24 28 83 47 51 58
REMARK Flexibility Score: inf
ROOT
ATOM      1  C   UNL A   1      31.997  31.683  26.881  1.00  0.00     0.023 C 
ENDROOT
BRANCH   1   2
ATOM      2  C   UNL A   1      32.303  30.194  27.070  1.00  0.00     0.023 C 
BRANCH   2   3
ATOM      3  C   UNL A   1      33.731  29.794  26.706  1.00  0.00     0.116 C 
BRANCH   3   4
ATOM      4  N   UNL A   1      33.842  29.369  25.323  1.00  0.00    -0.352 N 
ATOM      5  C   UNL A   1      33.652  28.224  24.625  1.00  0.00     0.251 C 
ATOM      6  O   UNL A   1      33.888  28.305  23.415  1.00  0.00    -0.270 OA
ATOM      7  H   UNL A   1      34.132  30.106  24.738  1.00  0.00     0.163 HD
BRANCH   5   8
ATOM      8  C   UNL A   1      33.195  26.924  25.201  1.00  0.00     0.067 C 
ATOM      9  C   UNL A   1      32.142  23.214  26.872  1.00  0.00     0.161 A 
ATOM     10  C   UNL A   1      32.879  22.074  26.544  1.00  0.00     0.054 A 
ATOM     11  C   UNL A   1      32.521  24.458  26.359  1.00  0.00     0.169 A 
ATOM     12  C   UNL A   1      34.023  22.180  25.741  1.00  0.00    -0.047 A 
ATOM     13  C   UNL A   1      33.656  24.578  25.555  1.00  0.00     0.021 A 
ATOM     14  O   UNL A   1      31.783  25.551  26.728  1.00  0.00    -0.471 OA
ATOM     15  C   UNL A   1      34.822  20.962  25.377  1.00  0.00     0.044 C 
ATOM     16  C   UNL A   1      34.406  23.437  25.251  1.00  0.00     0.015 A 
ATOM     17  C   UNL A   1      34.051  25.894  25.065  1.00  0.00     0.025 C 
ATOM     18  C   UNL A   1      31.856  26.703  25.850  1.00  0.00     0.314 C 
BRANCH   9  19
ATOM     19  O   UNL A   1      30.993  23.163  27.619  1.00  0.00    -0.493 OA
ATOM     20  C   UNL A   1      29.849  22.742  26.883  1.00  0.00     0.278 C 
ENDBRANCH   9  19
BRANCH  18  21
ATOM     21  C   UNL A   1      30.701  26.645  24.833  1.00  0.00     0.429 C 
ATOM     22  F   UNL A   1      30.314  27.896  24.479  1.00  0.00    -0.167 F 
ATOM     23  F   UNL A   1      31.060  26.022  23.684  1.00  0.00    -0.167 F 
ATOM     24  F   UNL A   1      29.613  25.998  25.305  1.00  0.00    -0.167 F 
ENDBRANCH  18  21
ENDBRANCH   5   8
ENDBRANCH   3   4
ENDBRANCH   2   3
ENDBRANCH   1   2
BRANCH   1  25
ATOM     25  C   UNL A   1      33.013  32.648  27.491  1.00  0.00     0.116 C 
BRANCH  25  26
ATOM     26  N   UNL A   1      32.507  33.996  27.708  1.00  0.00    -0.352 N 
ATOM     27  C   UNL A   1      33.004  34.954  28.565  1.00  0.00     0.251 C 
ATOM     28  H   UNL A   1      31.718  34.254  27.180  1.00  0.00     0.163 HD
ATOM     29  O   UNL A   1      32.447  36.038  28.695  1.00  0.00    -0.269 OA
BRANCH  27  30
ATOM     30  C   UNL A   1      34.188  34.620  29.378  1.00  0.00     0.039 A 
ATOM     31  C   UNL A   1      35.471  34.783  28.853  1.00  0.00     0.014 A 
ATOM     32  C   UNL A   1      33.996  34.020  30.625  1.00  0.00     0.014 A 
ATOM     33  C   UNL A   1      36.549  34.185  29.494  1.00  0.00     0.010 A 
ATOM     34  C   UNL A   1      35.091  33.476  31.298  1.00  0.00     0.010 A 
ATOM     35  C   UNL A   1      36.362  33.496  30.703  1.00  0.00    -0.014 A 
BRANCH  35  36
ATOM     36  C   UNL A   1      37.487  32.729  31.289  1.00  0.00     0.031 A 
ATOM     37  C   UNL A   1      37.945  33.016  32.694  1.00  0.00     0.074 A 
ATOM     38  C   UNL A   1      38.050  31.728  30.588  1.00  0.00     0.049 A 
ATOM     39  N   UNL A   1      38.923  32.471  33.375  1.00  0.00    -0.248 NA
ATOM     40  C   UNL A   1      37.205  34.051  33.435  1.00  0.00     0.031 C 
ATOM     41  C   UNL A   1      37.664  31.329  29.236  1.00  0.00     0.029 A 
ATOM     42  N   UNL A   1      39.046  30.851  30.929  1.00  0.00    -0.354 N 
ATOM     43  C   UNL A   1      38.933  33.113  34.606  1.00  0.00     0.074 A 
ATOM     44  C   UNL A   1      37.873  34.098  34.580  1.00  0.00     0.031 C 
ATOM     45  C   UNL A   1      38.383  30.253  28.877  1.00  0.00     0.029 A 
ATOM     46  C   UNL A   1      39.315  29.925  29.952  1.00  0.00     0.049 A 
ATOM     47  H   UNL A   1      39.523  30.881  31.789  1.00  0.00     0.167 HD
ATOM     48  C   UNL A   1      39.746  32.893  35.666  1.00  0.00     0.037 A 
ATOM     49  C   UNL A   1      40.221  28.930  29.923  1.00  0.00     0.037 A 
ATOM     50  C   UNL A   1      40.778  31.892  35.705  1.00  0.00     0.049 A 
ATOM     51  C   UNL A   1      41.139  28.736  31.094  1.00  0.00     0.074 A 
ATOM     52  C   UNL A   1      41.648  31.586  36.738  1.00  0.00     0.029 A 
ATOM     53  N   UNL A   1      41.070  31.022  34.665  1.00  0.00    -0.354 N 
ATOM     54  N   UNL A   1      41.169  29.379  32.235  1.00  0.00    -0.248 NA
ATOM     55  C   UNL A   1      42.164  27.691  30.963  1.00  0.00     0.031 C 
ATOM     56  C   UNL A   1      42.486  30.550  36.311  1.00  0.00     0.029 A 
ATOM     57  C   UNL A   1      42.117  30.190  35.025  1.00  0.00     0.049 A 
ATOM     58  H   UNL A   1      40.602  31.000  33.799  1.00  0.00     0.167 HD
ATOM     59  C   UNL A   1      42.217  28.826  32.956  1.00  0.00     0.074 A 
ATOM     60  C   UNL A   1      42.782  27.774  32.134  1.00  0.00     0.031 C 
ATOM     61  C   UNL A   1      42.678  29.165  34.184  1.00  0.00     0.037 A 
BRANCH  48  62
ATOM     62  C   UNL A   1      39.565  33.764  36.872  1.00  0.00     0.064 A 
ATOM     63  C   UNL A   1      40.161  35.030  36.960  1.00  0.00     0.173 A 
ATOM     64  C   UNL A   1      38.748  33.345  37.933  1.00  0.00     0.173 A 
ATOM     65  F   UNL A   1      40.965  35.467  35.979  1.00  0.00    -0.203 F 
ATOM     66  C   UNL A   1      39.956  35.840  38.074  1.00  0.00     0.198 A 
ATOM     67  C   UNL A   1      38.530  34.166  39.036  1.00  0.00     0.198 A 
ATOM     68  F   UNL A   1      38.155  32.143  37.896  1.00  0.00    -0.203 F 
ATOM     69  F   UNL A   1      40.561  37.034  38.153  1.00  0.00    -0.200 F 
ATOM     70  C   UNL A   1      39.137  35.411  39.107  1.00  0.00     0.200 A 
ATOM     71  F   UNL A   1      37.732  33.753  40.031  1.00  0.00    -0.200 F 
ATOM     72  F   UNL A   1      38.936  36.195  40.176  1.00  0.00    -0.200 F 
ENDBRANCH  48  62
BRANCH  49  73
ATOM     73  C   UNL A   1      40.301  28.053  28.730  1.00  0.00     0.064 A 
ATOM     74  C   UNL A   1      41.063  28.427  27.617  1.00  0.00     0.173 A 
ATOM     75  C   UNL A   1      39.650  26.812  28.696  1.00  0.00     0.173 A 
ATOM     76  F   UNL A   1      41.685  29.615  27.600  1.00  0.00    -0.203 F 
ATOM     77  C   UNL A   1      41.174  27.588  26.511  1.00  0.00     0.198 A 
ATOM     78  C   UNL A   1      39.779  25.965  27.599  1.00  0.00     0.198 A 
ATOM     79  F   UNL A   1      38.911  26.412  29.741  1.00  0.00    -0.203 F 
ATOM     80  F   UNL A   1      41.893  27.976  25.449  1.00  0.00    -0.200 F 
ATOM     81  C   UNL A   1      40.540  26.355  26.506  1.00  0.00     0.200 A 
ATOM     82  F   UNL A   1      39.174  24.769  27.603  1.00  0.00    -0.200 F 
ATOM     83  F   UNL A   1      40.659  25.542  25.447  1.00  0.00    -0.200 F 
ENDBRANCH  49  73
BRANCH  61  84
ATOM     84  C   UNL A   1      43.861  28.407  34.701  1.00  0.00     0.064 A 
ATOM     85  C   UNL A   1      45.165  28.888  34.516  1.00  0.00     0.173 A 
ATOM     86  C   UNL A   1      43.690  27.214  35.417  1.00  0.00     0.173 A 
ATOM     87  F   UNL A   1      45.376  30.017  33.824  1.00  0.00    -0.203 F 
ATOM     88  C   UNL A   1      46.260  28.192  35.019  1.00  0.00     0.198 A 
ATOM     89  C   UNL A   1      44.786  26.530  35.936  1.00  0.00     0.198 A 
ATOM     90  F   UNL A   1      42.461  26.718  35.621  1.00  0.00    -0.203 F 
ATOM     91  F   UNL A   1      47.500  28.650  34.805  1.00  0.00    -0.200 F 
ATOM     92  C   UNL A   1      46.069  27.017  35.733  1.00  0.00     0.200 A 
ATOM     93  F   UNL A   1      44.601  25.399  36.630  1.00  0.00    -0.200 F 
ATOM     94  F   UNL A   1      47.124  26.349  36.220  1.00  0.00    -0.200 F 
ENDBRANCH  61  84
ENDBRANCH  35  36
ENDBRANCH  27  30
ENDBRANCH  25  26
ENDBRANCH   1  25
TORSDOF 13
ENDMDL
MODEL 2
REMARK VINA RESULT:     -13.1      0.420      1.691
REMARK SMILES COc1cc(C)cc2c1O[C@H](C(F)(F)F)C(C(=O)NCCCCNC(=O)c1ccc(-c3c4nc(c(-c5c(F)c(F)c(F)c(F)c5F)c5ccc([nH]5)c(-c5c(F)c(F)c(F)c(F)c5F)c5nc(c(-c6c(F)c(F)c(F)c(F)c6F)c6ccc3[nH]6)C=C5)C=C4)cc1)=C2
REMARK SMILES IDX 22 1 21 2 20 3 19 4 17 5 18 6 16 8 3 9 4 10 9 11 5 12 8 13
REMARK SMILES IDX 10 14 6 15 7 16 90 17 11 18 2 19 1 20 12 21 13 22 14 23
REMARK SMILES IDX 15 24 23 25 24 26 25 27 26 29 27 30 28 31 89 32 29 33 88 34
REMARK SMILES IDX 30 35 31 36 32 37 82 38 33 39 87 40 81 41 83 42 34 43 86 44
REMARK SMILES IDX 80 45 79 46 35 48 67 49 47 50 66 51 48 52 51 53 65 54 84 55
REMARK SMILES IDX 49 56 50 57 64 59 85 60 52 61 36 62 37 63 45 64 38 65 39 66
REMARK SMILES IDX 43 67 46 68 40 69 41 70 44 71 42 72 68 73 69 74 77 75 70 76
REMARK SMILES IDX 71 77 75 78 78 79 72 80 73 81 76 82 74 83 53 84 54 85 62 86
REMARK SMILES IDX 55 87 56 88 60 89 63 90 57 91 58 92 61 93 59 94
REMARK H PARENT 19 7 24 28 83 47 51 58
REMARK Flexibility Score: inf
ROOT
ATOM      1  C   UNL A   1      32.100  31.701  27.004  1.00  0.00     0.023 C 
ENDROOT
BRANCH   1   2
ATOM      2  C   UNL A   1      32.486  30.237  27.239  1.00  0.00     0.023 C 
BRANCH   2   3
ATOM      3  C   UNL A   1      33.937  29.906  26.899  1.00  0.00     0.116 C 
BRANCH   3   4
ATOM      4  N   UNL A   1      34.090  29.475  25.522  1.00  0.00    -0.352 N 
ATOM      5  C   UNL A   1      33.773  28.380  24.791  1.00  0.00     0.251 C 
ATOM      6  O   UNL A   1      34.117  28.427  23.605  1.00  0.00    -0.270 OA
ATOM      7  H   UNL A   1      34.543  30.157  24.976  1.00  0.00     0.163 HD
BRANCH   5   8
ATOM      8  C   UNL A   1      33.063  27.171  25.305  1.00  0.00     0.067 C 
ATOM      9  C   UNL A   1      31.271  23.706  26.869  1.00  0.00     0.161 A 
ATOM     10  C   UNL A   1      31.968  22.496  26.844  1.00  0.00     0.054 A 
ATOM     11  C   UNL A   1      31.884  24.871  26.397  1.00  0.00     0.169 A 
ATOM     12  C   UNL A   1      33.294  22.454  26.392  1.00  0.00    -0.047 A 
ATOM     13  C   UNL A   1      33.202  24.843  25.940  1.00  0.00     0.021 A 
ATOM     14  O   UNL A   1      31.171  26.038  26.464  1.00  0.00    -0.471 OA
ATOM     15  C   UNL A   1      34.053  21.159  26.357  1.00  0.00     0.044 C 
ATOM     16  C   UNL A   1      33.906  23.634  25.943  1.00  0.00     0.015 A 
ATOM     17  C   UNL A   1      33.830  26.081  25.490  1.00  0.00     0.025 C 
ATOM     18  C   UNL A   1      31.583  27.096  25.562  1.00  0.00     0.314 C 
BRANCH   9  19
ATOM     19  O   UNL A   1      29.960  23.798  27.263  1.00  0.00    -0.493 OA
ATOM     20  C   UNL A   1      29.272  22.551  27.259  1.00  0.00     0.278 C 
ENDBRANCH   9  19
BRANCH  18  21
ATOM     21  C   UNL A   1      30.753  27.018  24.267  1.00  0.00     0.429 C 
ATOM     22  F   UNL A   1      31.367  26.223  23.356  1.00  0.00    -0.167 F 
ATOM     23  F   UNL A   1      29.528  26.477  24.476  1.00  0.00    -0.167 F 
ATOM     24  F   UNL A   1      30.556  28.225  23.693  1.00  0.00    -0.167 F 
ENDBRANCH  18  21
ENDBRANCH   5   8
ENDBRANCH   3   4
ENDBRANCH   2   3
ENDBRANCH   1   2
BRANCH   1  25
ATOM     25  C   UNL A   1      33.121  32.736  27.477  1.00  0.00     0.116 C 
BRANCH  25  26
ATOM     26  N   UNL A   1      32.564  34.057  27.732  1.00  0.00    -0.352 N 
ATOM     27  C   UNL A   1      33.023  35.007  28.618  1.00  0.00     0.251 C 
ATOM     28  H   UNL A   1      31.766  34.301  27.210  1.00  0.00     0.163 HD
ATOM     29  O   UNL A   1      32.425  36.064  28.779  1.00  0.00    -0.269 OA
BRANCH  27  30
ATOM     30  C   UNL A   1      34.217  34.694  29.425  1.00  0.00     0.039 A 
ATOM     31  C   UNL A   1      35.490  34.773  28.856  1.00  0.00     0.014 A 
ATOM     32  C   UNL A   1      34.041  34.196  30.718  1.00  0.00     0.014 A 
ATOM     33  C   UNL A   1      36.566  34.188  29.513  1.00  0.00     0.010 A 
ATOM     34  C   UNL A   1      35.135  33.666  31.402  1.00  0.00     0.010 A 
ATOM     35  C   UNL A   1      36.390  33.597  30.775  1.00  0.00    -0.014 A 
BRANCH  35  36
ATOM     36  C   UNL A   1      37.505  32.838  31.389  1.00  0.00     0.031 A 
ATOM     37  C   UNL A   1      37.952  33.155  32.791  1.00  0.00     0.074 A 
ATOM     38  C   UNL A   1      38.069  31.818  30.716  1.00  0.00     0.049 A 
ATOM     39  N   UNL A   1      38.920  32.620  33.493  1.00  0.00    -0.248 NA
ATOM     40  C   UNL A   1      37.211  34.210  33.501  1.00  0.00     0.031 C 
ATOM     41  C   UNL A   1      37.693  31.391  29.370  1.00  0.00     0.029 A 
ATOM     42  N   UNL A   1      39.057  30.944  31.086  1.00  0.00    -0.354 N 
ATOM     43  C   UNL A   1      38.923  33.290  34.709  1.00  0.00     0.074 A 
ATOM     44  C   UNL A   1      37.869  34.280  34.651  1.00  0.00     0.031 C 
ATOM     45  C   UNL A   1      38.409  30.303  29.042  1.00  0.00     0.029 A 
ATOM     46  C   UNL A   1      39.329  29.994  30.133  1.00  0.00     0.049 A 
ATOM     47  H   UNL A   1      39.526  30.991  31.950  1.00  0.00     0.167 HD
ATOM     48  C   UNL A   1      39.725  33.090  35.782  1.00  0.00     0.037 A 
ATOM     49  C   UNL A   1      40.230  28.994  30.134  1.00  0.00     0.037 A 
ATOM     50  C   UNL A   1      40.751  32.084  35.853  1.00  0.00     0.049 A 
ATOM     51  C   UNL A   1      41.137  28.822  31.319  1.00  0.00     0.074 A 
ATOM     52  C   UNL A   1      41.610  31.798  36.900  1.00  0.00     0.029 A 
ATOM     53  N   UNL A   1      41.048  31.189  34.836  1.00  0.00    -0.354 N 
ATOM     54  N   UNL A   1      41.159  29.490  32.445  1.00  0.00    -0.248 NA
ATOM     55  C   UNL A   1      42.156  27.769  31.221  1.00  0.00     0.031 C 
ATOM     56  C   UNL A   1      42.446  30.748  36.505  1.00  0.00     0.029 A 
ATOM     57  C   UNL A   1      42.087  30.360  35.224  1.00  0.00     0.049 A 
ATOM     58  H   UNL A   1      40.588  31.150  33.966  1.00  0.00     0.167 HD
ATOM     59  C   UNL A   1      42.198  28.948  33.188  1.00  0.00     0.074 A 
ATOM     60  C   UNL A   1      42.765  27.875  32.395  1.00  0.00     0.031 C 
ATOM     61  C   UNL A   1      42.649  29.313  34.412  1.00  0.00     0.037 A 
BRANCH  48  62
ATOM     62  C   UNL A   1      39.538  33.989  36.966  1.00  0.00     0.064 A 
ATOM     63  C   UNL A   1      38.770  33.597  38.071  1.00  0.00     0.173 A 
ATOM     64  C   UNL A   1      40.171  35.240  37.014  1.00  0.00     0.173 A 
ATOM     65  F   UNL A   1      38.131  32.417  38.064  1.00  0.00    -0.203 F 
ATOM     66  C   UNL A   1      38.632  34.431  39.177  1.00  0.00     0.198 A 
ATOM     67  C   UNL A   1      40.046  36.063  38.129  1.00  0.00     0.198 A 
ATOM     68  F   UNL A   1      40.917  35.660  35.982  1.00  0.00    -0.203 F 
ATOM     69  F   UNL A   1      37.867  34.051  40.210  1.00  0.00    -0.200 F 
ATOM     70  C   UNL A   1      39.274  35.660  39.209  1.00  0.00     0.200 A 
ATOM     71  F   UNL A   1      40.673  37.248  38.161  1.00  0.00    -0.200 F 
ATOM     72  F   UNL A   1      39.145  36.459  40.277  1.00  0.00    -0.200 F 
ENDBRANCH  48  62
BRANCH  49  73
ATOM     73  C   UNL A   1      40.316  28.090  28.963  1.00  0.00     0.064 A 
ATOM     74  C   UNL A   1      39.613  26.878  28.942  1.00  0.00     0.173 A 
ATOM     75  C   UNL A   1      41.068  28.435  27.832  1.00  0.00     0.173 A 
ATOM     76  F   UNL A   1      38.897  26.501  30.011  1.00  0.00    -0.203 F 
ATOM     77  C   UNL A   1      39.659  26.044  27.828  1.00  0.00     0.198 A 
ATOM     78  C   UNL A   1      41.096  27.610  26.711  1.00  0.00     0.198 A 
ATOM     79  F   UNL A   1      41.756  29.585  27.808  1.00  0.00    -0.203 F 
ATOM     80  F   UNL A   1      38.994  24.880  27.838  1.00  0.00    -0.200 F 
ATOM     81  C   UNL A   1      40.392  26.414  26.711  1.00  0.00     0.200 A 
ATOM     82  F   UNL A   1      41.796  27.976  25.629  1.00  0.00    -0.200 F 
ATOM     83  F   UNL A   1      40.423  25.617  25.634  1.00  0.00    -0.200 F 
ENDBRANCH  49  73
BRANCH  61  84
ATOM     84  C   UNL A   1      43.823  28.560  34.957  1.00  0.00     0.064 A 
ATOM     85  C   UNL A   1      45.133  29.019  34.755  1.00  0.00     0.173 A 
ATOM     86  C   UNL A   1      43.638  27.397  35.716  1.00  0.00     0.173 A 
ATOM     87  F   UNL A   1      45.357  30.119  34.021  1.00  0.00    -0.203 F 
ATOM     88  C   UNL A   1      46.220  28.329  35.284  1.00  0.00     0.198 A 
ATOM     89  C   UNL A   1      44.726  26.720  36.261  1.00  0.00     0.198 A 
ATOM     90  F   UNL A   1      42.403  26.924  35.939  1.00  0.00    -0.203 F 
ATOM     91  F   UNL A   1      47.465  28.765  35.053  1.00  0.00    -0.200 F 
ATOM     92  C   UNL A   1      46.015  27.183  36.040  1.00  0.00     0.200 A 
ATOM     93  F   UNL A   1      44.527  25.618  36.997  1.00  0.00    -0.200 F 
ATOM     94  F   UNL A   1      47.062  26.522  36.552  1.00  0.00    -0.200 F 
ENDBRANCH  61  84
ENDBRANCH  35  36
ENDBRANCH  27  30
ENDBRANCH  25  26
ENDBRANCH   1  25
TORSDOF 13
ENDMDL
MODEL 3
REMARK VINA RESULT:     -13.0      0.623      7.199
REMARK SMILES COc1cc(C)cc2c1O[C@H](C(F)(F)F)C(C(=O)NCCCCNC(=O)c1ccc(-c3c4nc(c(-c5c(F)c(F)c(F)c(F)c5F)c5ccc([nH]5)c(-c5c(F)c(F)c(F)c(F)c5F)c5nc(c(-c6c(F)c(F)c(F)c(F)c6F)c6ccc3[nH]6)C=C5)C=C4)cc1)=C2
REMARK SMILES IDX 22 1 21 2 20 3 19 4 17 5 18 6 16 8 3 9 4 10 9 11 5 12 8 13
REMARK SMILES IDX 10 14 6 15 7 16 90 17 11 18 2 19 1 20 12 21 13 22 14 23
REMARK SMILES IDX 15 24 23 25 24 26 25 27 26 29 27 30 28 31 89 32 29 33 88 34
REMARK SMILES IDX 30 35 31 36 32 37 82 38 33 39 87 40 81 41 83 42 34 43 86 44
REMARK SMILES IDX 80 45 79 46 35 48 67 49 47 50 66 51 48 52 51 53 65 54 84 55
REMARK SMILES IDX 49 56 50 57 64 59 85 60 52 61 36 62 37 63 45 64 38 65 39 66
REMARK SMILES IDX 43 67 46 68 40 69 41 70 44 71 42 72 68 73 69 74 77 75 70 76
REMARK SMILES IDX 71 77 75 78 78 79 72 80 73 81 76 82 74 83 53 84 54 85 62 86
REMARK SMILES IDX 55 87 56 88 60 89 63 90 57 91 58 92 61 93 59 94
REMARK H PARENT 19 7 24 28 83 47 51 58
REMARK Flexibility Score: inf
ROOT
ATOM      1  C   UNL A   1      32.151  31.567  27.092  1.00  0.00     0.023 C 
ENDROOT
BRANCH   1   2
ATOM      2  C   UNL A   1      32.585  30.107  27.261  1.00  0.00     0.023 C 
BRANCH   2   3
ATOM      3  C   UNL A   1      34.026  29.827  26.841  1.00  0.00     0.116 C 
BRANCH   3   4
ATOM      4  N   UNL A   1      34.118  29.405  25.455  1.00  0.00    -0.352 N 
ATOM      5  C   UNL A   1      33.753  28.324  24.727  1.00  0.00     0.251 C 
ATOM      6  O   UNL A   1      34.053  28.375  23.530  1.00  0.00    -0.270 OA
ATOM      7  H   UNL A   1      34.562  30.084  24.898  1.00  0.00     0.163 HD
BRANCH   5   8
ATOM      8  C   UNL A   1      33.042  27.122  25.258  1.00  0.00     0.067 C 
ATOM      9  C   UNL A   1      31.248  23.678  26.866  1.00  0.00     0.161 A 
ATOM     10  C   UNL A   1      31.935  22.463  26.837  1.00  0.00     0.054 A 
ATOM     11  C   UNL A   1      31.862  24.836  26.379  1.00  0.00     0.169 A 
ATOM     12  C   UNL A   1      33.254  22.408  26.365  1.00  0.00    -0.047 A 
ATOM     13  C   UNL A   1      33.173  24.796  25.902  1.00  0.00     0.021 A 
ATOM     14  O   UNL A   1      31.159  26.009  26.451  1.00  0.00    -0.471 OA
ATOM     15  C   UNL A   1      34.003  21.108  26.324  1.00  0.00     0.044 C 
ATOM     16  C   UNL A   1      33.868  23.581  25.900  1.00  0.00     0.015 A 
ATOM     17  C   UNL A   1      33.804  26.027  25.437  1.00  0.00     0.025 C 
ATOM     18  C   UNL A   1      31.566  27.060  25.538  1.00  0.00     0.314 C 
BRANCH   9  19
ATOM     19  O   UNL A   1      29.944  23.782  27.279  1.00  0.00    -0.493 OA
ATOM     20  C   UNL A   1      29.241  22.544  27.274  1.00  0.00     0.278 C 
ENDBRANCH   9  19
BRANCH  18  21
ATOM     21  C   UNL A   1      30.716  26.982  24.256  1.00  0.00     0.429 C 
ATOM     22  F   UNL A   1      30.441  28.225  23.791  1.00  0.00    -0.167 F 
ATOM     23  F   UNL A   1      31.360  26.337  23.253  1.00  0.00    -0.167 F 
ATOM     24  F   UNL A   1      29.540  26.343  24.441  1.00  0.00    -0.167 F 
ENDBRANCH  18  21
ENDBRANCH   5   8
ENDBRANCH   3   4
ENDBRANCH   2   3
ENDBRANCH   1   2
BRANCH   1  25
ATOM     25  C   UNL A   1      33.164  32.614  27.555  1.00  0.00     0.116 C 
BRANCH  25  26
ATOM     26  N   UNL A   1      32.606  33.943  27.755  1.00  0.00    -0.352 N 
ATOM     27  C   UNL A   1      33.042  34.917  28.628  1.00  0.00     0.251 C 
ATOM     28  H   UNL A   1      31.826  34.175  27.202  1.00  0.00     0.163 HD
ATOM     29  O   UNL A   1      32.444  35.980  28.741  1.00  0.00    -0.269 OA
BRANCH  27  30
ATOM     30  C   UNL A   1      34.209  34.621  29.479  1.00  0.00     0.039 A 
ATOM     31  C   UNL A   1      35.495  34.627  28.935  1.00  0.00     0.014 A 
ATOM     32  C   UNL A   1      33.992  34.214  30.798  1.00  0.00     0.014 A 
ATOM     33  C   UNL A   1      36.539  34.055  29.652  1.00  0.00     0.010 A 
ATOM     34  C   UNL A   1      35.056  33.698  31.539  1.00  0.00     0.010 A 
ATOM     35  C   UNL A   1      36.320  33.553  30.946  1.00  0.00    -0.014 A 
BRANCH  35  36
ATOM     36  C   UNL A   1      37.399  32.803  31.631  1.00  0.00     0.031 A 
ATOM     37  C   UNL A   1      38.106  31.680  30.921  1.00  0.00     0.074 A 
ATOM     38  C   UNL A   1      37.793  33.176  32.863  1.00  0.00     0.049 A 
ATOM     39  N   UNL A   1      39.058  30.893  31.357  1.00  0.00    -0.248 NA
ATOM     40  C   UNL A   1      37.693  31.406  29.535  1.00  0.00     0.031 C 
ATOM     41  C   UNL A   1      37.213  34.273  33.634  1.00  0.00     0.029 A 
ATOM     42  N   UNL A   1      38.790  32.688  33.666  1.00  0.00    -0.354 N 
ATOM     43  C   UNL A   1      39.335  30.017  30.315  1.00  0.00     0.074 A 
ATOM     44  C   UNL A   1      38.444  30.358  29.226  1.00  0.00     0.031 C 
ATOM     45  C   UNL A   1      37.895  34.408  34.782  1.00  0.00     0.029 A 
ATOM     46  C   UNL A   1      38.922  33.371  34.848  1.00  0.00     0.049 A 
ATOM     47  H   UNL A   1      39.357  31.921  33.420  1.00  0.00     0.167 HD
ATOM     48  C   UNL A   1      40.256  29.026  30.267  1.00  0.00     0.037 A 
ATOM     49  C   UNL A   1      39.769  33.176  35.876  1.00  0.00     0.037 A 
ATOM     50  C   UNL A   1      41.164  28.707  31.337  1.00  0.00     0.049 A 
ATOM     51  C   UNL A   1      40.751  32.042  35.816  1.00  0.00     0.074 A 
ATOM     52  C   UNL A   1      42.139  27.726  31.379  1.00  0.00     0.029 A 
ATOM     53  N   UNL A   1      41.215  29.377  32.550  1.00  0.00    -0.354 N 
ATOM     54  N   UNL A   1      40.973  31.193  34.843  1.00  0.00    -0.248 NA
ATOM     55  C   UNL A   1      41.585  31.828  37.006  1.00  0.00     0.031 C 
ATOM     56  C   UNL A   1      42.762  27.784  32.631  1.00  0.00     0.029 A 
ATOM     57  C   UNL A   1      42.195  28.820  33.356  1.00  0.00     0.049 A 
ATOM     58  H   UNL A   1      40.640  30.134  32.802  1.00  0.00     0.167 HD
ATOM     59  C   UNL A   1      41.963  30.338  35.303  1.00  0.00     0.074 A 
ATOM     60  C   UNL A   1      42.321  30.788  36.634  1.00  0.00     0.031 C 
ATOM     61  C   UNL A   1      42.519  29.269  34.684  1.00  0.00     0.037 A 
BRANCH  48  62
ATOM     62  C   UNL A   1      40.319  28.197  29.020  1.00  0.00     0.064 A 
ATOM     63  C   UNL A   1      41.121  28.569  27.932  1.00  0.00     0.173 A 
ATOM     64  C   UNL A   1      39.604  26.994  28.930  1.00  0.00     0.173 A 
ATOM     65  F   UNL A   1      41.810  29.720  27.963  1.00  0.00    -0.203 F 
ATOM     66  C   UNL A   1      41.194  27.772  26.793  1.00  0.00     0.198 A 
ATOM     67  C   UNL A   1      39.694  26.190  27.798  1.00  0.00     0.198 A 
ATOM     68  F   UNL A   1      38.823  26.595  29.945  1.00  0.00    -0.203 F 
ATOM     69  F   UNL A   1      41.942  28.161  25.750  1.00  0.00    -0.200 F 
ATOM     70  C   UNL A   1      40.486  26.581  26.728  1.00  0.00     0.200 A 
ATOM     71  F   UNL A   1      39.015  25.035  27.740  1.00  0.00    -0.200 F 
ATOM     72  F   UNL A   1      40.562  25.812  25.633  1.00  0.00    -0.200 F 
ENDBRANCH  48  62
BRANCH  49  73
ATOM     73  C   UNL A   1      39.708  34.077  37.051  1.00  0.00     0.064 A 
ATOM     74  C   UNL A   1      40.412  35.288  37.061  1.00  0.00     0.173 A 
ATOM     75  C   UNL A   1      38.919  33.765  38.166  1.00  0.00     0.173 A 
ATOM     76  F   UNL A   1      41.195  35.616  36.023  1.00  0.00    -0.203 F 
ATOM     77  C   UNL A   1      40.326  36.157  38.146  1.00  0.00     0.198 A 
ATOM     78  C   UNL A   1      38.817  34.644  39.241  1.00  0.00     0.198 A 
ATOM     79  F   UNL A   1      38.227  32.617  38.200  1.00  0.00    -0.203 F 
ATOM     80  F   UNL A   1      41.023  37.301  38.142  1.00  0.00    -0.200 F 
ATOM     81  C   UNL A   1      39.522  35.839  39.230  1.00  0.00     0.200 A 
ATOM     82  F   UNL A   1      38.031  34.339  40.283  1.00  0.00    -0.200 F 
ATOM     83  F   UNL A   1      39.429  36.683  40.268  1.00  0.00    -0.200 F 
ENDBRANCH  49  73
BRANCH  61  84
ATOM     84  C   UNL A   1      43.556  28.504  35.447  1.00  0.00     0.064 A 
ATOM     85  C   UNL A   1      44.920  28.800  35.311  1.00  0.00     0.173 A 
ATOM     86  C   UNL A   1      43.184  27.496  36.347  1.00  0.00     0.173 A 
ATOM     87  F   UNL A   1      45.322  29.747  34.449  1.00  0.00    -0.203 F 
ATOM     88  C   UNL A   1      45.878  28.102  36.039  1.00  0.00     0.198 A 
ATOM     89  C   UNL A   1      44.143  26.813  37.089  1.00  0.00     0.198 A 
ATOM     90  F   UNL A   1      41.891  27.181  36.513  1.00  0.00    -0.203 F 
ATOM     91  F   UNL A   1      47.178  28.378  35.871  1.00  0.00    -0.200 F 
ATOM     92  C   UNL A   1      45.488  27.113  36.931  1.00  0.00     0.200 A 
ATOM     93  F   UNL A   1      43.766  25.862  37.956  1.00  0.00    -0.200 F 
ATOM     94  F   UNL A   1      46.412  26.444  37.636  1.00  0.00    -0.200 F 
ENDBRANCH  61  84
ENDBRANCH  35  36
ENDBRANCH  27  30
ENDBRANCH  25  26
ENDBRANCH   1  25
TORSDOF 13
ENDMDL
