MODEL 1
REMARK VINA RESULT:     -13.0      0.000      0.000
REMARK SMILES O=C(CCc1cncc([C@@H]2CN(c3ccccc3)CCO2)n1)NCCCCNC(=O)c1ccc(-c2c3nc(c(-c4c(F)c(F)c(F)c(F)c4F)c4ccc([nH]4)c(-c4c(F)c(F)c(F)c(F)c4F)c4nc(c(-c5c(F)c(F)c(F)c(F)c5F)c5ccc2[nH]5)C=C4)C=C3)cc1
REMARK SMILES IDX 24 1 23 2 1 3 2 4 3 6 4 7 5 8 6 9 22 10 7 11 9 12 8 13 10 14
REMARK SMILES IDX 11 15 21 16 12 17 20 18 19 19 13 20 14 21 18 22 15 23 17 24
REMARK SMILES IDX 16 25 25 26 26 27 27 28 28 29 29 30 30 32 31 33 32 34 93 35
REMARK SMILES IDX 33 36 92 37 34 38 35 39 36 40 86 41 37 42 91 43 85 44 87 45
REMARK SMILES IDX 38 46 90 47 84 48 83 49 39 51 71 52 51 53 70 54 52 55 55 56
REMARK SMILES IDX 69 57 88 58 53 59 54 60 68 62 89 63 56 64 40 65 41 66 49 67
REMARK SMILES IDX 42 68 43 69 47 70 50 71 44 72 45 73 48 74 46 75 72 76 73 77
REMARK SMILES IDX 81 78 74 79 75 80 79 81 82 82 76 83 77 84 80 85 78 86 57 87
REMARK SMILES IDX 58 88 66 89 59 90 60 91 64 92 67 93 61 94 62 95 65 96 63 97
REMARK H PARENT 23 5 28 31 87 50 55 61
REMARK Flexibility Score: inf
ROOT
ATOM      1  C   UNL A   1      32.383  29.882  26.311  1.00  0.00     0.116 C 
ENDROOT
BRANCH   1   2
ATOM      2  N   UNL A   1      32.016  28.537  25.924  1.00  0.00    -0.356 N 
ATOM      3  O   UNL A   1      31.170  27.884  27.962  1.00  0.00    -0.275 OA
ATOM      4  C   UNL A   1      31.399  27.653  26.777  1.00  0.00     0.220 C 
ATOM      5  H   UNL A   1      32.219  28.241  25.008  1.00  0.00     0.163 HD
BRANCH   4   6
ATOM      6  C   UNL A   1      31.032  26.331  26.135  1.00  0.00     0.106 C 
BRANCH   6   7
ATOM      7  C   UNL A   1      30.547  26.501  24.696  1.00  0.00     0.068 C 
BRANCH   7   8
ATOM      8  C   UNL A   1      31.412  25.796  23.687  1.00  0.00     0.060 A 
ATOM      9  C   UNL A   1      31.515  26.257  22.380  1.00  0.00     0.134 A 
ATOM     10  N   UNL A   1      32.035  24.653  24.075  1.00  0.00    -0.252 NA
ATOM     11  N   UNL A   1      32.237  25.615  21.435  1.00  0.00    -0.261 NA
ATOM     12  C   UNL A   1      32.813  24.022  23.154  1.00  0.00     0.090 A 
ATOM     13  C   UNL A   1      32.907  24.519  21.860  1.00  0.00     0.137 A 
BRANCH  12  14
ATOM     14  C   UNL A   1      33.615  22.799  23.557  1.00  0.00     0.188 C 
ATOM     15  C   UNL A   1      32.786  21.803  24.402  1.00  0.00     0.155 C 
ATOM     16  O   UNL A   1      34.803  23.235  24.255  1.00  0.00    -0.368 OA
ATOM     17  N   UNL A   1      33.629  20.702  24.900  1.00  0.00    -0.366 N 
ATOM     18  C   UNL A   1      35.619  22.113  24.639  1.00  0.00     0.182 C 
ATOM     19  C   UNL A   1      34.865  21.138  25.560  1.00  0.00     0.145 C 
BRANCH  17  20
ATOM     20  C   UNL A   1      33.607  19.442  24.334  1.00  0.00     0.037 A 
ATOM     21  C   UNL A   1      32.581  19.105  23.441  1.00  0.00     0.026 A 
ATOM     22  C   UNL A   1      34.559  18.463  24.626  1.00  0.00     0.026 A 
ATOM     23  C   UNL A   1      32.528  17.846  22.834  1.00  0.00     0.002 A 
ATOM     24  C   UNL A   1      34.507  17.198  24.031  1.00  0.00     0.002 A 
ATOM     25  C   UNL A   1      33.497  16.892  23.126  1.00  0.00     0.000 A 
ENDBRANCH  17  20
ENDBRANCH  12  14
ENDBRANCH   7   8
ENDBRANCH   6   7
ENDBRANCH   4   6
ENDBRANCH   1   2
BRANCH   1  26
ATOM     26  C   UNL A   1      31.401  30.923  25.775  1.00  0.00     0.023 C 
BRANCH  26  27
ATOM     27  C   UNL A   1      31.246  32.195  26.619  1.00  0.00     0.023 C 
BRANCH  27  28
ATOM     28  C   UNL A   1      32.534  32.790  27.183  1.00  0.00     0.116 C 
BRANCH  28  29
ATOM     29  N   UNL A   1      32.377  34.164  27.624  1.00  0.00    -0.352 N 
ATOM     30  C   UNL A   1      33.011  34.864  28.619  1.00  0.00     0.251 C 
ATOM     31  H   UNL A   1      31.703  34.680  27.125  1.00  0.00     0.163 HD
ATOM     32  O   UNL A   1      32.561  35.963  28.948  1.00  0.00    -0.269 OA
BRANCH  30  33
ATOM     33  C   UNL A   1      34.211  34.341  29.323  1.00  0.00     0.039 A 
ATOM     34  C   UNL A   1      34.021  33.665  30.536  1.00  0.00     0.014 A 
ATOM     35  C   UNL A   1      35.514  34.567  28.869  1.00  0.00     0.014 A 
ATOM     36  C   UNL A   1      35.115  33.164  31.248  1.00  0.00     0.010 A 
ATOM     37  C   UNL A   1      36.607  34.044  29.560  1.00  0.00     0.010 A 
ATOM     38  C   UNL A   1      36.414  33.322  30.745  1.00  0.00    -0.014 A 
BRANCH  38  39
ATOM     39  C   UNL A   1      37.565  32.633  31.373  1.00  0.00     0.031 A 
ATOM     40  C   UNL A   1      38.236  31.467  30.713  1.00  0.00     0.074 A 
ATOM     41  C   UNL A   1      37.936  33.021  32.609  1.00  0.00     0.049 A 
ATOM     42  N   UNL A   1      39.215  30.720  31.156  1.00  0.00    -0.248 NA
ATOM     43  C   UNL A   1      37.731  31.076  29.389  1.00  0.00     0.031 C 
ATOM     44  C   UNL A   1      37.314  34.108  33.367  1.00  0.00     0.029 A 
ATOM     45  N   UNL A   1      38.901  32.534  33.451  1.00  0.00    -0.354 N 
ATOM     46  C   UNL A   1      39.445  29.769  30.172  1.00  0.00     0.074 A 
ATOM     47  C   UNL A   1      38.477  30.011  29.120  1.00  0.00     0.031 C 
ATOM     48  C   UNL A   1      37.911  34.204  34.565  1.00  0.00     0.029 A 
ATOM     49  C   UNL A   1      38.938  33.174  34.666  1.00  0.00     0.049 A 
ATOM     50  H   UNL A   1      39.507  31.798  33.209  1.00  0.00     0.167 HD
ATOM     51  C   UNL A   1      40.388  28.795  30.148  1.00  0.00     0.037 A 
ATOM     52  C   UNL A   1      39.710  32.948  35.744  1.00  0.00     0.037 A 
ATOM     53  C   UNL A   1      41.348  28.568  31.198  1.00  0.00     0.049 A 
ATOM     54  C   UNL A   1      40.743  31.859  35.690  1.00  0.00     0.074 A 
ATOM     55  C   UNL A   1      42.391  27.656  31.234  1.00  0.00     0.029 A 
ATOM     56  N   UNL A   1      41.377  29.252  32.405  1.00  0.00    -0.354 N 
ATOM     57  N   UNL A   1      41.013  31.026  34.717  1.00  0.00    -0.248 NA
ATOM     58  C   UNL A   1      41.586  31.689  36.881  1.00  0.00     0.031 C 
ATOM     59  C   UNL A   1      43.021  27.758  32.479  1.00  0.00     0.029 A 
ATOM     60  C   UNL A   1      42.401  28.764  33.202  1.00  0.00     0.049 A 
ATOM     61  H   UNL A   1      40.761  29.977  32.658  1.00  0.00     0.167 HD
ATOM     62  C   UNL A   1      42.074  30.251  35.162  1.00  0.00     0.074 A 
ATOM     63  C   UNL A   1      42.403  30.721  36.492  1.00  0.00     0.031 C 
ATOM     64  C   UNL A   1      42.717  29.243  34.524  1.00  0.00     0.037 A 
BRANCH  51  65
ATOM     65  C   UNL A   1      40.434  27.896  28.946  1.00  0.00     0.064 A 
ATOM     66  C   UNL A   1      39.673  26.719  28.880  1.00  0.00     0.173 A 
ATOM     67  C   UNL A   1      41.198  28.247  27.822  1.00  0.00     0.173 A 
ATOM     68  F   UNL A   1      38.932  26.336  29.930  1.00  0.00    -0.203 F 
ATOM     69  C   UNL A   1      39.691  25.916  27.741  1.00  0.00     0.198 A 
ATOM     70  C   UNL A   1      41.193  27.455  26.676  1.00  0.00     0.198 A 
ATOM     71  F   UNL A   1      41.937  29.366  27.829  1.00  0.00    -0.203 F 
ATOM     72  F   UNL A   1      38.983  24.779  27.715  1.00  0.00    -0.200 F 
ATOM     73  C   UNL A   1      40.444  26.289  26.639  1.00  0.00     0.200 A 
ATOM     74  F   UNL A   1      41.913  27.822  25.606  1.00  0.00    -0.200 F 
ATOM     75  F   UNL A   1      40.453  25.520  25.541  1.00  0.00    -0.200 F 
ENDBRANCH  51  65
BRANCH  52  76
ATOM     76  C   UNL A   1      39.552  33.799  36.950  1.00  0.00     0.064 A 
ATOM     77  C   UNL A   1      40.187  35.045  37.035  1.00  0.00     0.173 A 
ATOM     78  C   UNL A   1      38.747  33.399  38.026  1.00  0.00     0.173 A 
ATOM     79  F   UNL A   1      40.979  35.461  36.036  1.00  0.00    -0.203 F 
ATOM     80  C   UNL A   1      40.033  35.854  38.157  1.00  0.00     0.198 A 
ATOM     81  C   UNL A   1      38.575  34.220  39.138  1.00  0.00     0.198 A 
ATOM     82  F   UNL A   1      38.110  32.219  37.986  1.00  0.00    -0.203 F 
ATOM     83  F   UNL A   1      40.679  37.026  38.228  1.00  0.00    -0.200 F 
ATOM     84  C   UNL A   1      39.223  35.444  39.205  1.00  0.00     0.200 A 
ATOM     85  F   UNL A   1      37.779  33.827  40.141  1.00  0.00    -0.200 F 
ATOM     86  F   UNL A   1      39.069  36.227  40.281  1.00  0.00    -0.200 F 
ENDBRANCH  52  76
BRANCH  64  87
ATOM     87  C   UNL A   1      43.862  28.602  35.249  1.00  0.00     0.064 A 
ATOM     88  C   UNL A   1      45.168  29.104  35.149  1.00  0.00     0.173 A 
ATOM     89  C   UNL A   1      43.647  27.484  36.070  1.00  0.00     0.173 A 
ATOM     90  F   UNL A   1      45.427  30.159  34.361  1.00  0.00    -0.203 F 
ATOM     91  C   UNL A   1      46.221  28.496  35.827  1.00  0.00     0.198 A 
ATOM     92  C   UNL A   1      44.698  26.895  36.766  1.00  0.00     0.198 A 
ATOM     93  F   UNL A   1      42.416  26.968  36.200  1.00  0.00    -0.203 F 
ATOM     94  F   UNL A   1      47.469  28.964  35.680  1.00  0.00    -0.200 F 
ATOM     95  C   UNL A   1      45.985  27.396  36.639  1.00  0.00     0.200 A 
ATOM     96  F   UNL A   1      44.467  25.838  37.557  1.00  0.00    -0.200 F 
ATOM     97  F   UNL A   1      46.999  26.815  37.293  1.00  0.00    -0.200 F 
ENDBRANCH  64  87
ENDBRANCH  38  39
ENDBRANCH  30  33
ENDBRANCH  28  29
ENDBRANCH  27  28
ENDBRANCH  26  27
ENDBRANCH   1  26
TORSDOF 15
ENDMDL
MODEL 2
REMARK VINA RESULT:     -12.4      1.113      2.141
REMARK SMILES O=C(CCc1cncc([C@@H]2CN(c3ccccc3)CCO2)n1)NCCCCNC(=O)c1ccc(-c2c3nc(c(-c4c(F)c(F)c(F)c(F)c4F)c4ccc([nH]4)c(-c4c(F)c(F)c(F)c(F)c4F)c4nc(c(-c5c(F)c(F)c(F)c(F)c5F)c5ccc2[nH]5)C=C4)C=C3)cc1
REMARK SMILES IDX 24 1 23 2 1 3 2 4 3 6 4 7 5 8 6 9 22 10 7 11 9 12 8 13 10 14
REMARK SMILES IDX 11 15 21 16 12 17 20 18 19 19 13 20 14 21 18 22 15 23 17 24
REMARK SMILES IDX 16 25 25 26 26 27 27 28 28 29 29 30 30 32 31 33 32 34 93 35
REMARK SMILES IDX 33 36 92 37 34 38 35 39 36 40 86 41 37 42 91 43 85 44 87 45
REMARK SMILES IDX 38 46 90 47 84 48 83 49 39 51 71 52 51 53 70 54 52 55 55 56
REMARK SMILES IDX 69 57 88 58 53 59 54 60 68 62 89 63 56 64 40 65 41 66 49 67
REMARK SMILES IDX 42 68 43 69 47 70 50 71 44 72 45 73 48 74 46 75 72 76 73 77
REMARK SMILES IDX 81 78 74 79 75 80 79 81 82 82 76 83 77 84 80 85 78 86 57 87
REMARK SMILES IDX 58 88 66 89 59 90 60 91 64 92 67 93 61 94 62 95 65 96 63 97
REMARK H PARENT 23 5 28 31 87 50 55 61
REMARK Flexibility Score: inf
ROOT
ATOM      1  C   UNL A   1      32.576  30.128  25.821  1.00  0.00     0.116 C 
ENDROOT
BRANCH   1   2
ATOM      2  N   UNL A   1      31.997  29.353  24.746  1.00  0.00    -0.356 N 
ATOM      3  O   UNL A   1      33.904  28.194  24.183  1.00  0.00    -0.275 OA
ATOM      4  C   UNL A   1      32.704  28.413  24.034  1.00  0.00     0.220 C 
ATOM      5  H   UNL A   1      31.053  29.505  24.513  1.00  0.00     0.163 HD
BRANCH   4   6
ATOM      6  C   UNL A   1      31.876  27.662  23.011  1.00  0.00     0.106 C 
BRANCH   6   7
ATOM      7  C   UNL A   1      30.572  27.127  23.603  1.00  0.00     0.068 C 
BRANCH   7   8
ATOM      8  C   UNL A   1      30.769  25.936  24.501  1.00  0.00     0.060 A 
ATOM      9  C   UNL A   1      30.015  25.775  25.657  1.00  0.00     0.134 A 
ATOM     10  N   UNL A   1      31.755  25.058  24.183  1.00  0.00    -0.252 NA
ATOM     11  N   UNL A   1      30.206  24.748  26.515  1.00  0.00    -0.261 NA
ATOM     12  C   UNL A   1      31.925  23.986  25.003  1.00  0.00     0.090 A 
ATOM     13  C   UNL A   1      31.144  23.846  26.143  1.00  0.00     0.137 A 
BRANCH  12  14
ATOM     14  C   UNL A   1      32.941  22.918  24.643  1.00  0.00     0.188 C 
ATOM     15  C   UNL A   1      32.863  21.690  25.582  1.00  0.00     0.155 C 
ATOM     16  O   UNL A   1      34.258  23.512  24.646  1.00  0.00    -0.368 OA
ATOM     17  N   UNL A   1      33.952  20.739  25.301  1.00  0.00    -0.366 N 
ATOM     18  C   UNL A   1      35.262  22.546  24.284  1.00  0.00     0.182 C 
ATOM     19  C   UNL A   1      35.287  21.347  25.248  1.00  0.00     0.145 C 
BRANCH  17  20
ATOM     20  C   UNL A   1      33.746  19.567  24.599  1.00  0.00     0.037 A 
ATOM     21  C   UNL A   1      32.580  19.416  23.836  1.00  0.00     0.026 A 
ATOM     22  C   UNL A   1      34.644  18.499  24.626  1.00  0.00     0.026 A 
ATOM     23  C   UNL A   1      32.337  18.253  23.098  1.00  0.00     0.002 A 
ATOM     24  C   UNL A   1      34.405  17.328  23.899  1.00  0.00     0.002 A 
ATOM     25  C   UNL A   1      33.255  17.209  23.126  1.00  0.00     0.000 A 
ENDBRANCH  17  20
ENDBRANCH  12  14
ENDBRANCH   7   8
ENDBRANCH   6   7
ENDBRANCH   4   6
ENDBRANCH   1   2
BRANCH   1  26
ATOM     26  C   UNL A   1      31.515  30.659  26.784  1.00  0.00     0.023 C 
BRANCH  26  27
ATOM     27  C   UNL A   1      31.384  32.187  26.861  1.00  0.00     0.023 C 
BRANCH  27  28
ATOM     28  C   UNL A   1      32.691  32.976  26.862  1.00  0.00     0.116 C 
BRANCH  28  29
ATOM     29  N   UNL A   1      32.611  34.202  27.633  1.00  0.00    -0.352 N 
ATOM     30  C   UNL A   1      33.278  34.594  28.766  1.00  0.00     0.251 C 
ATOM     31  H   UNL A   1      31.971  34.864  27.284  1.00  0.00     0.163 HD
ATOM     32  O   UNL A   1      32.891  35.601  29.362  1.00  0.00    -0.269 OA
BRANCH  30  33
ATOM     33  C   UNL A   1      34.442  33.845  29.306  1.00  0.00     0.039 A 
ATOM     34  C   UNL A   1      35.727  34.290  28.969  1.00  0.00     0.014 A 
ATOM     35  C   UNL A   1      34.305  32.676  30.062  1.00  0.00     0.014 A 
ATOM     36  C   UNL A   1      36.858  33.616  29.438  1.00  0.00     0.010 A 
ATOM     37  C   UNL A   1      35.430  32.015  30.557  1.00  0.00     0.010 A 
ATOM     38  C   UNL A   1      36.715  32.492  30.264  1.00  0.00    -0.014 A 
BRANCH  38  39
ATOM     39  C   UNL A   1      37.888  31.881  30.932  1.00  0.00     0.031 A 
ATOM     40  C   UNL A   1      38.696  30.809  30.267  1.00  0.00     0.074 A 
ATOM     41  C   UNL A   1      38.152  32.245  32.202  1.00  0.00     0.049 A 
ATOM     42  N   UNL A   1      39.713  30.131  30.738  1.00  0.00    -0.248 NA
ATOM     43  C   UNL A   1      38.303  30.433  28.902  1.00  0.00     0.031 C 
ATOM     44  C   UNL A   1      37.394  33.238  32.964  1.00  0.00     0.029 A 
ATOM     45  N   UNL A   1      39.110  31.807  33.080  1.00  0.00    -0.354 N 
ATOM     46  C   UNL A   1      40.082  29.249  29.733  1.00  0.00     0.074 A 
ATOM     47  C   UNL A   1      39.156  29.452  28.636  1.00  0.00     0.031 C 
ATOM     48  C   UNL A   1      37.913  33.333  34.198  1.00  0.00     0.029 A 
ATOM     49  C   UNL A   1      39.022  32.394  34.318  1.00  0.00     0.049 A 
ATOM     50  H   UNL A   1      39.792  31.139  32.846  1.00  0.00     0.167 HD
ATOM     51  C   UNL A   1      41.109  28.363  29.726  1.00  0.00     0.037 A 
ATOM     52  C   UNL A   1      39.749  32.189  35.431  1.00  0.00     0.037 A 
ATOM     53  C   UNL A   1      42.026  28.175  30.822  1.00  0.00     0.049 A 
ATOM     54  C   UNL A   1      40.878  31.199  35.396  1.00  0.00     0.074 A 
ATOM     55  C   UNL A   1      43.143  27.358  30.884  1.00  0.00     0.029 A 
ATOM     56  N   UNL A   1      41.926  28.805  32.054  1.00  0.00    -0.354 N 
ATOM     57  N   UNL A   1      41.275  30.437  34.408  1.00  0.00    -0.248 NA
ATOM     58  C   UNL A   1      41.665  31.051  36.627  1.00  0.00     0.031 C 
ATOM     59  C   UNL A   1      43.691  27.460  32.167  1.00  0.00     0.029 A 
ATOM     60  C   UNL A   1      42.944  28.375  32.891  1.00  0.00     0.049 A 
ATOM     61  H   UNL A   1      41.234  29.461  32.298  1.00  0.00     0.167 HD
ATOM     62  C   UNL A   1      42.376  29.739  34.885  1.00  0.00     0.074 A 
ATOM     63  C   UNL A   1      42.587  30.177  36.250  1.00  0.00     0.031 C 
ATOM     64  C   UNL A   1      43.142  28.820  34.247  1.00  0.00     0.037 A 
BRANCH  51  65
ATOM     65  C   UNL A   1      41.303  27.526  28.495  1.00  0.00     0.064 A 
ATOM     66  C   UNL A   1      40.539  26.372  28.265  1.00  0.00     0.173 A 
ATOM     67  C   UNL A   1      42.216  27.917  27.504  1.00  0.00     0.173 A 
ATOM     68  F   UNL A   1      39.657  25.952  29.184  1.00  0.00    -0.203 F 
ATOM     69  C   UNL A   1      40.698  25.627  27.098  1.00  0.00     0.198 A 
ATOM     70  C   UNL A   1      42.353  27.184  26.327  1.00  0.00     0.198 A 
ATOM     71  F   UNL A   1      42.965  29.017  27.669  1.00  0.00    -0.203 F 
ATOM     72  F   UNL A   1      39.982  24.509  26.916  1.00  0.00    -0.200 F 
ATOM     73  C   UNL A   1      41.599  26.039  26.127  1.00  0.00     0.200 A 
ATOM     74  F   UNL A   1      43.216  27.589  25.384  1.00  0.00    -0.200 F 
ATOM     75  F   UNL A   1      41.743  25.327  25.001  1.00  0.00    -0.200 F 
ENDBRANCH  51  65
BRANCH  52  76
ATOM     76  C   UNL A   1      39.449  32.969  36.658  1.00  0.00     0.064 A 
ATOM     77  C   UNL A   1      38.496  32.514  37.579  1.00  0.00     0.173 A 
ATOM     78  C   UNL A   1      40.121  34.165  36.947  1.00  0.00     0.173 A 
ATOM     79  F   UNL A   1      37.818  31.383  37.335  1.00  0.00    -0.203 F 
ATOM     80  C   UNL A   1      38.217  33.233  38.738  1.00  0.00     0.198 A 
ATOM     81  C   UNL A   1      39.859  34.871  38.118  1.00  0.00     0.198 A 
ATOM     82  F   UNL A   1      41.049  34.635  36.100  1.00  0.00    -0.203 F 
ATOM     83  F   UNL A   1      37.277  32.793  39.586  1.00  0.00    -0.200 F 
ATOM     84  C   UNL A   1      38.903  34.408  39.010  1.00  0.00     0.200 A 
ATOM     85  F   UNL A   1      40.534  35.997  38.385  1.00  0.00    -0.200 F 
ATOM     86  F   UNL A   1      38.640  35.094  40.129  1.00  0.00    -0.200 F 
ENDBRANCH  52  76
BRANCH  64  87
ATOM     87  C   UNL A   1      44.298  28.251  35.012  1.00  0.00     0.064 A 
ATOM     88  C   UNL A   1      44.176  27.068  35.756  1.00  0.00     0.173 A 
ATOM     89  C   UNL A   1      45.551  28.884  34.984  1.00  0.00     0.173 A 
ATOM     90  F   UNL A   1      42.995  26.436  35.830  1.00  0.00    -0.203 F 
ATOM     91  C   UNL A   1      45.259  26.554  36.463  1.00  0.00     0.198 A 
ATOM     92  C   UNL A   1      46.637  28.353  35.671  1.00  0.00     0.198 A 
ATOM     93  F   UNL A   1      45.719  30.017  34.284  1.00  0.00    -0.203 F 
ATOM     94  F   UNL A   1      45.108  25.448  37.205  1.00  0.00    -0.200 F 
ATOM     95  C   UNL A   1      46.490  27.192  36.415  1.00  0.00     0.200 A 
ATOM     96  F   UNL A   1      47.828  28.966  35.616  1.00  0.00    -0.200 F 
ATOM     97  F   UNL A   1      47.532  26.693  37.093  1.00  0.00    -0.200 F 
ENDBRANCH  64  87
ENDBRANCH  38  39
ENDBRANCH  30  33
ENDBRANCH  28  29
ENDBRANCH  27  28
ENDBRANCH  26  27
ENDBRANCH   1  26
TORSDOF 15
ENDMDL
MODEL 3
REMARK VINA RESULT:     -12.2      1.322      7.322
REMARK SMILES O=C(CCc1cncc([C@@H]2CN(c3ccccc3)CCO2)n1)NCCCCNC(=O)c1ccc(-c2c3nc(c(-c4c(F)c(F)c(F)c(F)c4F)c4ccc([nH]4)c(-c4c(F)c(F)c(F)c(F)c4F)c4nc(c(-c5c(F)c(F)c(F)c(F)c5F)c5ccc2[nH]5)C=C4)C=C3)cc1
REMARK SMILES IDX 24 1 23 2 1 3 2 4 3 6 4 7 5 8 6 9 22 10 7 11 9 12 8 13 10 14
REMARK SMILES IDX 11 15 21 16 12 17 20 18 19 19 13 20 14 21 18 22 15 23 17 24
REMARK SMILES IDX 16 25 25 26 26 27 27 28 28 29 29 30 30 32 31 33 32 34 93 35
REMARK SMILES IDX 33 36 92 37 34 38 35 39 36 40 86 41 37 42 91 43 85 44 87 45
REMARK SMILES IDX 38 46 90 47 84 48 83 49 39 51 71 52 51 53 70 54 52 55 55 56
REMARK SMILES IDX 69 57 88 58 53 59 54 60 68 62 89 63 56 64 40 65 41 66 49 67
REMARK SMILES IDX 42 68 43 69 47 70 50 71 44 72 45 73 48 74 46 75 72 76 73 77
REMARK SMILES IDX 81 78 74 79 75 80 79 81 82 82 76 83 77 84 80 85 78 86 57 87
REMARK SMILES IDX 58 88 66 89 59 90 60 91 64 92 67 93 61 94 62 95 65 96 63 97
REMARK H PARENT 23 5 28 31 87 50 55 61
REMARK Flexibility Score: inf
ROOT
ATOM      1  C   UNL A   1      32.583  29.743  25.911  1.00  0.00     0.116 C 
ENDROOT
BRANCH   1   2
ATOM      2  N   UNL A   1      31.959  28.888  24.926  1.00  0.00    -0.356 N 
ATOM      3  O   UNL A   1      33.852  28.465  23.688  1.00  0.00    -0.275 OA
ATOM      4  C   UNL A   1      32.657  28.282  23.908  1.00  0.00     0.220 C 
ATOM      5  H   UNL A   1      30.989  28.732  24.986  1.00  0.00     0.163 HD
BRANCH   4   6
ATOM      6  C   UNL A   1      31.817  27.364  23.044  1.00  0.00     0.106 C 
BRANCH   6   7
ATOM      7  C   UNL A   1      30.565  26.873  23.769  1.00  0.00     0.068 C 
BRANCH   7   8
ATOM      8  C   UNL A   1      30.820  25.696  24.673  1.00  0.00     0.060 A 
ATOM      9  C   UNL A   1      30.128  25.543  25.867  1.00  0.00     0.134 A 
ATOM     10  N   UNL A   1      31.800  24.826  24.316  1.00  0.00    -0.252 NA
ATOM     11  N   UNL A   1      30.374  24.530  26.728  1.00  0.00    -0.261 NA
ATOM     12  C   UNL A   1      32.024  23.767  25.141  1.00  0.00     0.090 A 
ATOM     13  C   UNL A   1      31.303  23.634  26.321  1.00  0.00     0.137 A 
BRANCH  12  14
ATOM     14  C   UNL A   1      33.033  22.705  24.745  1.00  0.00     0.188 C 
ATOM     15  C   UNL A   1      32.972  21.462  25.663  1.00  0.00     0.155 C 
ATOM     16  O   UNL A   1      34.350  23.300  24.734  1.00  0.00    -0.368 OA
ATOM     17  N   UNL A   1      34.056  20.516  25.347  1.00  0.00    -0.366 N 
ATOM     18  C   UNL A   1      35.347  22.341  24.337  1.00  0.00     0.182 C 
ATOM     19  C   UNL A   1      35.390  21.126  25.279  1.00  0.00     0.145 C 
BRANCH  17  20
ATOM     20  C   UNL A   1      33.837  19.357  24.628  1.00  0.00     0.037 A 
ATOM     21  C   UNL A   1      32.662  19.222  23.878  1.00  0.00     0.026 A 
ATOM     22  C   UNL A   1      34.732  18.284  24.628  1.00  0.00     0.026 A 
ATOM     23  C   UNL A   1      32.406  18.071  23.124  1.00  0.00     0.002 A 
ATOM     24  C   UNL A   1      34.479  17.126  23.886  1.00  0.00     0.002 A 
ATOM     25  C   UNL A   1      33.320  17.023  23.125  1.00  0.00     0.000 A 
ENDBRANCH  17  20
ENDBRANCH  12  14
ENDBRANCH   7   8
ENDBRANCH   6   7
ENDBRANCH   4   6
ENDBRANCH   1   2
BRANCH   1  26
ATOM     26  C   UNL A   1      31.567  30.335  26.886  1.00  0.00     0.023 C 
BRANCH  26  27
ATOM     27  C   UNL A   1      31.305  31.841  26.749  1.00  0.00     0.023 C 
BRANCH  27  28
ATOM     28  C   UNL A   1      32.530  32.718  26.500  1.00  0.00     0.116 C 
BRANCH  28  29
ATOM     29  N   UNL A   1      32.500  33.959  27.252  1.00  0.00    -0.352 N 
ATOM     30  C   UNL A   1      33.180  34.339  28.381  1.00  0.00     0.251 C 
ATOM     31  H   UNL A   1      31.890  34.642  26.891  1.00  0.00     0.163 HD
ATOM     32  O   UNL A   1      32.834  35.370  28.961  1.00  0.00    -0.269 OA
BRANCH  30  33
ATOM     33  C   UNL A   1      34.308  33.549  28.938  1.00  0.00     0.039 A 
ATOM     34  C   UNL A   1      35.593  34.106  28.883  1.00  0.00     0.014 A 
ATOM     35  C   UNL A   1      34.152  32.250  29.433  1.00  0.00     0.014 A 
ATOM     36  C   UNL A   1      36.694  33.402  29.379  1.00  0.00     0.010 A 
ATOM     37  C   UNL A   1      35.243  31.555  29.956  1.00  0.00     0.010 A 
ATOM     38  C   UNL A   1      36.519  32.134  29.950  1.00  0.00    -0.014 A 
BRANCH  38  39
ATOM     39  C   UNL A   1      37.630  31.454  30.657  1.00  0.00     0.031 A 
ATOM     40  C   UNL A   1      38.016  31.834  32.054  1.00  0.00     0.074 A 
ATOM     41  C   UNL A   1      38.353  30.547  29.973  1.00  0.00     0.049 A 
ATOM     42  N   UNL A   1      38.999  31.378  32.790  1.00  0.00    -0.248 NA
ATOM     43  C   UNL A   1      37.207  32.873  32.706  1.00  0.00     0.031 C 
ATOM     44  C   UNL A   1      38.098  30.144  28.589  1.00  0.00     0.029 A 
ATOM     45  N   UNL A   1      39.458  29.822  30.335  1.00  0.00    -0.354 N 
ATOM     46  C   UNL A   1      38.930  32.072  33.989  1.00  0.00     0.074 A 
ATOM     47  C   UNL A   1      37.830  33.008  33.871  1.00  0.00     0.031 C 
ATOM     48  C   UNL A   1      39.023  29.246  28.217  1.00  0.00     0.029 A 
ATOM     49  C   UNL A   1      39.945  29.029  29.326  1.00  0.00     0.049 A 
ATOM     50  H   UNL A   1      39.863  29.867  31.231  1.00  0.00     0.167 HD
ATOM     51  C   UNL A   1      39.709  31.929  35.090  1.00  0.00     0.037 A 
ATOM     52  C   UNL A   1      41.021  28.223  29.296  1.00  0.00     0.037 A 
ATOM     53  C   UNL A   1      40.798  30.990  35.198  1.00  0.00     0.049 A 
ATOM     54  C   UNL A   1      41.869  28.085  30.528  1.00  0.00     0.074 A 
ATOM     55  C   UNL A   1      41.597  30.715  36.295  1.00  0.00     0.029 A 
ATOM     56  N   UNL A   1      41.249  30.180  34.165  1.00  0.00    -0.354 N 
ATOM     57  N   UNL A   1      41.738  28.680  31.688  1.00  0.00    -0.248 NA
ATOM     58  C   UNL A   1      43.004  27.157  30.450  1.00  0.00     0.031 C 
ATOM     59  C   UNL A   1      42.559  29.773  35.913  1.00  0.00     0.029 A 
ATOM     60  C   UNL A   1      42.332  29.426  34.591  1.00  0.00     0.049 A 
ATOM     61  H   UNL A   1      40.858  30.146  33.262  1.00  0.00     0.167 HD
ATOM     62  C   UNL A   1      42.754  28.178  32.488  1.00  0.00     0.074 A 
ATOM     63  C   UNL A   1      43.487  27.223  31.682  1.00  0.00     0.031 C 
ATOM     64  C   UNL A   1      43.050  28.480  33.776  1.00  0.00     0.037 A 
BRANCH  51  65
ATOM     65  C   UNL A   1      39.415  32.803  36.275  1.00  0.00     0.064 A 
ATOM     66  C   UNL A   1      38.484  32.424  37.253  1.00  0.00     0.173 A 
ATOM     67  C   UNL A   1      40.119  34.002  36.468  1.00  0.00     0.173 A 
ATOM     68  F   UNL A   1      37.780  31.291  37.111  1.00  0.00    -0.203 F 
ATOM     69  C   UNL A   1      38.252  33.224  38.370  1.00  0.00     0.198 A 
ATOM     70  C   UNL A   1      39.903  34.785  37.600  1.00  0.00     0.198 A 
ATOM     71  F   UNL A   1      41.028  34.406  35.568  1.00  0.00    -0.203 F 
ATOM     72  F   UNL A   1      37.332  32.858  39.274  1.00  0.00    -0.200 F 
ATOM     73  C   UNL A   1      38.967  34.398  38.546  1.00  0.00     0.200 A 
ATOM     74  F   UNL A   1      40.603  35.915  37.775  1.00  0.00    -0.200 F 
ATOM     75  F   UNL A   1      38.749  35.161  39.627  1.00  0.00    -0.200 F 
ENDBRANCH  51  65
BRANCH  52  76
ATOM     76  C   UNL A   1      41.331  27.458  28.062  1.00  0.00     0.064 A 
ATOM     77  C   UNL A   1      42.167  27.999  27.076  1.00  0.00     0.173 A 
ATOM     78  C   UNL A   1      40.822  26.168  27.854  1.00  0.00     0.173 A 
ATOM     79  F   UNL A   1      42.664  29.235  27.226  1.00  0.00    -0.203 F 
ATOM     80  C   UNL A   1      42.472  27.283  25.921  1.00  0.00     0.198 A 
ATOM     81  C   UNL A   1      41.146  25.444  26.710  1.00  0.00     0.198 A 
ATOM     82  F   UNL A   1      40.025  25.605  28.774  1.00  0.00    -0.203 F 
ATOM     83  F   UNL A   1      43.246  27.837  24.979  1.00  0.00    -0.200 F 
ATOM     84  C   UNL A   1      41.966  26.004  25.741  1.00  0.00     0.200 A 
ATOM     85  F   UNL A   1      40.668  24.203  26.547  1.00  0.00    -0.200 F 
ATOM     86  F   UNL A   1      42.267  25.313  24.634  1.00  0.00    -0.200 F 
ENDBRANCH  52  76
BRANCH  64  87
ATOM     87  C   UNL A   1      44.200  27.747  34.400  1.00  0.00     0.064 A 
ATOM     88  C   UNL A   1      44.022  26.515  35.044  1.00  0.00     0.173 A 
ATOM     89  C   UNL A   1      45.499  28.273  34.331  1.00  0.00     0.173 A 
ATOM     90  F   UNL A   1      42.796  25.980  35.152  1.00  0.00    -0.203 F 
ATOM     91  C   UNL A   1      45.100  25.847  35.620  1.00  0.00     0.198 A 
ATOM     92  C   UNL A   1      46.578  27.590  34.886  1.00  0.00     0.198 A 
ATOM     93  F   UNL A   1      45.721  29.447  33.722  1.00  0.00    -0.203 F 
ATOM     94  F   UNL A   1      44.899  24.693  36.273  1.00  0.00    -0.200 F 
ATOM     95  C   UNL A   1      46.377  26.381  35.535  1.00  0.00     0.200 A 
ATOM     96  F   UNL A   1      47.812  28.104  34.794  1.00  0.00    -0.200 F 
ATOM     97  F   UNL A   1      47.413  25.736  36.087  1.00  0.00    -0.200 F 
ENDBRANCH  64  87
ENDBRANCH  38  39
ENDBRANCH  30  33
ENDBRANCH  28  29
ENDBRANCH  27  28
ENDBRANCH  26  27
ENDBRANCH   1  26
TORSDOF 15
ENDMDL
