MODEL 1
REMARK VINA RESULT:     -12.4      0.000      0.000
REMARK SMILES COc1ccc([C@@H](CC(=O)NCCCCNC(=O)c2ccc(-c3c4nc(c(-c5c(F)c(F)c(F)c(F)c5F)c5ccc([nH]5)c(-c5c(F)c(F)c(F)c(F)c5F)c5nc(c(-c6c(F)c(F)c(F)c(F)c6F)c6ccc3[nH]6)C=C5)C=C4)cc2)C2CCCCC2)cc1Cl
REMARK SMILES IDX 13 1 12 2 11 3 9 4 10 5 8 7 7 8 6 9 3 10 4 11 89 12 5 13
REMARK SMILES IDX 88 14 90 15 2 16 1 17 82 18 83 19 87 20 84 21 86 22 85 23
REMARK SMILES IDX 14 24 15 25 16 26 17 27 18 29 19 30 20 31 81 32 21 33 80 34
REMARK SMILES IDX 22 35 23 36 24 37 74 38 25 39 79 40 73 41 75 42 26 43 78 44
REMARK SMILES IDX 72 45 71 46 27 48 59 49 39 50 58 51 40 52 43 53 57 54 76 55
REMARK SMILES IDX 41 56 42 57 56 59 77 60 44 61 28 62 29 63 37 64 30 65 31 66
REMARK SMILES IDX 35 67 38 68 32 69 33 70 36 71 34 72 60 73 61 74 69 75 62 76
REMARK SMILES IDX 63 77 67 78 70 79 64 80 65 81 68 82 66 83 45 84 46 85 54 86
REMARK SMILES IDX 47 87 48 88 52 89 55 90 49 91 50 92 53 93 51 94
REMARK H PARENT 11 6 16 28 75 47 43 58
REMARK Flexibility Score: inf
ROOT
ATOM      1  C   UNL A   1      32.135  29.046  23.192  1.00  0.00     0.023 C 
ENDROOT
BRANCH   1   2
ATOM      2  C   UNL A   1      31.527  27.655  23.132  1.00  0.00     0.116 C 
BRANCH   2   3
ATOM      3  N   UNL A   1      32.095  26.895  22.039  1.00  0.00    -0.356 N 
ATOM      4  C   UNL A   1      33.177  26.068  22.027  1.00  0.00     0.220 C 
ATOM      5  O   UNL A   1      33.444  25.495  20.968  1.00  0.00    -0.275 OA
ATOM      6  H   UNL A   1      31.631  26.991  21.176  1.00  0.00     0.163 HD
BRANCH   4   7
ATOM      7  C   UNL A   1      33.992  25.794  23.281  1.00  0.00     0.108 C 
BRANCH   7   8
ATOM      8  C   UNL A   1      34.165  24.346  23.842  1.00  0.00     0.032 C 
BRANCH   8   9
ATOM      9  C   UNL A   1      33.037  23.923  24.799  1.00  0.00    -0.042 A 
ATOM     10  C   UNL A   1      30.934  23.300  26.640  1.00  0.00     0.137 A 
ATOM     11  C   UNL A   1      31.966  22.398  26.402  1.00  0.00     0.048 A 
ATOM     12  C   UNL A   1      30.928  24.497  25.909  1.00  0.00     0.083 A 
ATOM     13  C   UNL A   1      32.989  22.702  25.485  1.00  0.00     0.008 A 
ATOM     14  C   UNL A   1      31.953  24.795  24.999  1.00  0.00     0.028 A 
ATOM     15  Cl  UNL A   1      29.676  25.675  26.117  1.00  0.00    -0.080 Cl
BRANCH  10  16
ATOM     16  O   UNL A   1      29.953  23.153  27.576  1.00  0.00    -0.495 OA
ATOM     17  C   UNL A   1      28.807  22.353  27.325  1.00  0.00     0.278 C 
ENDBRANCH  10  16
ENDBRANCH   8   9
BRANCH   8  18
ATOM     18  C   UNL A   1      35.647  23.910  24.157  1.00  0.00    -0.003 C 
ATOM     19  C   UNL A   1      36.155  24.226  25.579  1.00  0.00     0.004 C 
ATOM     20  C   UNL A   1      35.885  22.437  23.724  1.00  0.00     0.004 C 
ATOM     21  C   UNL A   1      37.492  23.577  25.926  1.00  0.00     0.000 C 
ATOM     22  C   UNL A   1      37.216  21.843  24.171  1.00  0.00     0.000 C 
ATOM     23  C   UNL A   1      37.469  22.085  25.650  1.00  0.00     0.000 C 
ENDBRANCH   8  18
ENDBRANCH   7   8
ENDBRANCH   4   7
ENDBRANCH   2   3
ENDBRANCH   1   2
BRANCH   1  24
ATOM     24  C   UNL A   1      33.222  29.279  24.223  1.00  0.00     0.023 C 
BRANCH  24  25
ATOM     25  C   UNL A   1      32.736  29.219  25.660  1.00  0.00     0.116 C 
BRANCH  25  26
ATOM     26  N   UNL A   1      32.312  30.502  26.214  1.00  0.00    -0.352 N 
ATOM     27  C   UNL A   1      32.990  31.367  27.046  1.00  0.00     0.251 C 
ATOM     28  H   UNL A   1      31.407  30.792  25.956  1.00  0.00     0.163 HD
ATOM     29  O   UNL A   1      32.450  32.381  27.467  1.00  0.00    -0.269 OA
BRANCH  27  30
ATOM     30  C   UNL A   1      34.358  31.021  27.492  1.00  0.00     0.039 A 
ATOM     31  C   UNL A   1      35.282  32.049  27.693  1.00  0.00     0.014 A 
ATOM     32  C   UNL A   1      34.693  29.705  27.806  1.00  0.00     0.014 A 
ATOM     33  C   UNL A   1      36.494  31.770  28.326  1.00  0.00     0.010 A 
ATOM     34  C   UNL A   1      35.832  29.454  28.554  1.00  0.00     0.010 A 
ATOM     35  C   UNL A   1      36.745  30.483  28.826  1.00  0.00    -0.014 A 
BRANCH  35  36
ATOM     36  C   UNL A   1      37.950  30.175  29.639  1.00  0.00     0.031 A 
ATOM     37  C   UNL A   1      39.005  29.255  29.086  1.00  0.00     0.074 A 
ATOM     38  C   UNL A   1      38.039  30.622  30.906  1.00  0.00     0.049 A 
ATOM     39  N   UNL A   1      40.047  28.736  29.682  1.00  0.00    -0.248 NA
ATOM     40  C   UNL A   1      38.828  28.814  27.693  1.00  0.00     0.031 C 
ATOM     41  C   UNL A   1      37.048  31.458  31.587  1.00  0.00     0.029 A 
ATOM     42  N   UNL A   1      39.013  30.429  31.854  1.00  0.00    -0.354 N 
ATOM     43  C   UNL A   1      40.610  27.866  28.756  1.00  0.00     0.074 A 
ATOM     44  C   UNL A   1      39.764  27.886  27.584  1.00  0.00     0.031 C 
ATOM     45  C   UNL A   1      37.489  31.749  32.822  1.00  0.00     0.029 A 
ATOM     46  C   UNL A   1      38.769  31.083  33.037  1.00  0.00     0.049 A 
ATOM     47  H   UNL A   1      39.811  29.873  31.701  1.00  0.00     0.167 HD
ATOM     48  C   UNL A   1      41.749  27.140  28.863  1.00  0.00     0.037 A 
ATOM     49  C   UNL A   1      39.503  31.144  34.164  1.00  0.00     0.037 A 
ATOM     50  C   UNL A   1      42.631  27.195  29.996  1.00  0.00     0.049 A 
ATOM     51  C   UNL A   1      40.799  30.386  34.232  1.00  0.00     0.074 A 
ATOM     52  C   UNL A   1      43.865  26.592  30.160  1.00  0.00     0.029 A 
ATOM     53  N   UNL A   1      42.376  27.912  31.156  1.00  0.00    -0.354 N 
ATOM     54  N   UNL A   1      41.361  29.623  33.328  1.00  0.00    -0.248 NA
ATOM     55  C   UNL A   1      41.565  30.501  35.482  1.00  0.00     0.031 C 
ATOM     56  C   UNL A   1      44.345  26.925  31.432  1.00  0.00     0.029 A 
ATOM     57  C   UNL A   1      43.424  27.759  32.047  1.00  0.00     0.049 A 
ATOM     58  H   UNL A   1      41.567  28.449  31.321  1.00  0.00     0.167 HD
ATOM     59  C   UNL A   1      42.555  29.188  33.883  1.00  0.00     0.074 A 
ATOM     60  C   UNL A   1      42.642  29.780  35.202  1.00  0.00     0.031 C 
ATOM     61  C   UNL A   1      43.495  28.371  33.349  1.00  0.00     0.037 A 
BRANCH  48  62
ATOM     62  C   UNL A   1      42.099  26.240  27.714  1.00  0.00     0.064 A 
ATOM     63  C   UNL A   1      41.479  24.993  27.536  1.00  0.00     0.173 A 
ATOM     64  C   UNL A   1      43.076  26.624  26.784  1.00  0.00     0.173 A 
ATOM     65  F   UNL A   1      40.548  24.571  28.406  1.00  0.00    -0.203 F 
ATOM     66  C   UNL A   1      41.861  24.143  26.502  1.00  0.00     0.198 A 
ATOM     67  C   UNL A   1      43.431  25.786  25.730  1.00  0.00     0.198 A 
ATOM     68  F   UNL A   1      43.696  27.808  26.903  1.00  0.00    -0.203 F 
ATOM     69  F   UNL A   1      41.308  22.927  26.398  1.00  0.00    -0.200 F 
ATOM     70  C   UNL A   1      42.835  24.541  25.598  1.00  0.00     0.200 A 
ATOM     71  F   UNL A   1      44.365  26.175  24.851  1.00  0.00    -0.200 F 
ATOM     72  F   UNL A   1      43.206  23.720  24.608  1.00  0.00    -0.200 F 
ENDBRANCH  48  62
BRANCH  49  73
ATOM     73  C   UNL A   1      39.061  32.006  35.289  1.00  0.00     0.064 A 
ATOM     74  C   UNL A   1      38.330  31.459  36.353  1.00  0.00     0.173 A 
ATOM     75  C   UNL A   1      39.367  33.373  35.341  1.00  0.00     0.173 A 
ATOM     76  F   UNL A   1      37.999  30.159  36.339  1.00  0.00    -0.203 F 
ATOM     77  C   UNL A   1      37.912  32.249  37.421  1.00  0.00     0.198 A 
ATOM     78  C   UNL A   1      38.965  34.157  36.420  1.00  0.00     0.198 A 
ATOM     79  F   UNL A   1      40.069  33.941  34.350  1.00  0.00    -0.203 F 
ATOM     80  F   UNL A   1      37.188  31.706  38.410  1.00  0.00    -0.200 F 
ATOM     81  C   UNL A   1      38.234  33.597  37.456  1.00  0.00     0.200 A 
ATOM     82  F   UNL A   1      39.289  35.458  36.457  1.00  0.00    -0.200 F 
ATOM     83  F   UNL A   1      37.837  34.355  38.487  1.00  0.00    -0.200 F 
ENDBRANCH  49  73
BRANCH  61  84
ATOM     84  C   UNL A   1      44.715  28.100  34.176  1.00  0.00     0.064 A 
ATOM     85  C   UNL A   1      45.833  28.942  34.129  1.00  0.00     0.173 A 
ATOM     86  C   UNL A   1      44.743  27.011  35.059  1.00  0.00     0.173 A 
ATOM     87  F   UNL A   1      45.859  29.986  33.286  1.00  0.00    -0.203 F 
ATOM     88  C   UNL A   1      46.948  28.693  34.925  1.00  0.00     0.198 A 
ATOM     89  C   UNL A   1      45.848  26.779  35.872  1.00  0.00     0.198 A 
ATOM     90  F   UNL A   1      43.693  26.180  35.143  1.00  0.00    -0.203 F 
ATOM     91  F   UNL A   1      48.023  29.488  34.838  1.00  0.00    -0.200 F 
ATOM     92  C   UNL A   1      46.951  27.617  35.801  1.00  0.00     0.200 A 
ATOM     93  F   UNL A   1      45.846  25.745  36.725  1.00  0.00    -0.200 F 
ATOM     94  F   UNL A   1      48.022  27.384  36.573  1.00  0.00    -0.200 F 
ENDBRANCH  61  84
ENDBRANCH  35  36
ENDBRANCH  27  30
ENDBRANCH  25  26
ENDBRANCH  24  25
ENDBRANCH   1  24
TORSDOF 15
ENDMDL
MODEL 2
REMARK VINA RESULT:     -12.4      2.183      3.825
REMARK SMILES COc1ccc([C@@H](CC(=O)NCCCCNC(=O)c2ccc(-c3c4nc(c(-c5c(F)c(F)c(F)c(F)c5F)c5ccc([nH]5)c(-c5c(F)c(F)c(F)c(F)c5F)c5nc(c(-c6c(F)c(F)c(F)c(F)c6F)c6ccc3[nH]6)C=C5)C=C4)cc2)C2CCCCC2)cc1Cl
REMARK SMILES IDX 13 1 12 2 11 3 9 4 10 5 8 7 7 8 6 9 3 10 4 11 89 12 5 13
REMARK SMILES IDX 88 14 90 15 2 16 1 17 82 18 83 19 87 20 84 21 86 22 85 23
REMARK SMILES IDX 14 24 15 25 16 26 17 27 18 29 19 30 20 31 81 32 21 33 80 34
REMARK SMILES IDX 22 35 23 36 24 37 74 38 25 39 79 40 73 41 75 42 26 43 78 44
REMARK SMILES IDX 72 45 71 46 27 48 59 49 39 50 58 51 40 52 43 53 57 54 76 55
REMARK SMILES IDX 41 56 42 57 56 59 77 60 44 61 28 62 29 63 37 64 30 65 31 66
REMARK SMILES IDX 35 67 38 68 32 69 33 70 36 71 34 72 60 73 61 74 69 75 62 76
REMARK SMILES IDX 63 77 67 78 70 79 64 80 65 81 68 82 66 83 45 84 46 85 54 86
REMARK SMILES IDX 47 87 48 88 52 89 55 90 49 91 50 92 53 93 51 94
REMARK H PARENT 11 6 16 28 75 47 43 58
REMARK Flexibility Score: inf
ROOT
ATOM      1  C   UNL A   1      31.670  30.657  26.254  1.00  0.00     0.023 C 
ENDROOT
BRANCH   1   2
ATOM      2  C   UNL A   1      31.861  29.526  27.249  1.00  0.00     0.116 C 
BRANCH   2   3
ATOM      3  N   UNL A   1      33.260  29.368  27.583  1.00  0.00    -0.356 N 
ATOM      4  C   UNL A   1      34.250  28.734  26.896  1.00  0.00     0.220 C 
ATOM      5  O   UNL A   1      35.388  28.771  27.373  1.00  0.00    -0.275 OA
ATOM      6  H   UNL A   1      33.538  29.780  28.433  1.00  0.00     0.163 HD
BRANCH   4   7
ATOM      7  C   UNL A   1      33.996  28.065  25.555  1.00  0.00     0.108 C 
BRANCH   7   8
ATOM      8  C   UNL A   1      32.948  26.917  25.401  1.00  0.00     0.032 C 
BRANCH   8   9
ATOM      9  C   UNL A   1      33.534  25.517  25.654  1.00  0.00    -0.042 A 
ATOM     10  C   UNL A   1      34.713  22.927  25.974  1.00  0.00     0.137 A 
ATOM     11  C   UNL A   1      33.388  23.159  26.333  1.00  0.00     0.048 A 
ATOM     12  C   UNL A   1      35.464  24.013  25.504  1.00  0.00     0.083 A 
ATOM     13  C   UNL A   1      32.818  24.437  26.189  1.00  0.00     0.008 A 
ATOM     14  C   UNL A   1      34.889  25.285  25.359  1.00  0.00     0.028 A 
ATOM     15  Cl  UNL A   1      37.126  23.832  25.052  1.00  0.00    -0.080 Cl
BRANCH  10  16
ATOM     16  O   UNL A   1      35.333  21.712  25.977  1.00  0.00    -0.495 OA
ATOM     17  C   UNL A   1      34.816  20.617  25.237  1.00  0.00     0.278 C 
ENDBRANCH  10  16
ENDBRANCH   8   9
BRANCH   8  18
ATOM     18  C   UNL A   1      31.887  27.112  24.251  1.00  0.00    -0.003 C 
ATOM     19  C   UNL A   1      30.418  26.837  24.635  1.00  0.00     0.004 C 
ATOM     20  C   UNL A   1      32.099  28.476  23.539  1.00  0.00     0.004 C 
ATOM     21  C   UNL A   1      29.404  27.268  23.580  1.00  0.00     0.000 C 
ATOM     22  C   UNL A   1      31.003  28.864  22.553  1.00  0.00     0.000 C 
ATOM     23  C   UNL A   1      29.620  28.711  23.164  1.00  0.00     0.000 C 
ENDBRANCH   8  18
ENDBRANCH   7   8
ENDBRANCH   4   7
ENDBRANCH   2   3
ENDBRANCH   1   2
BRANCH   1  24
ATOM     24  C   UNL A   1      31.291  32.013  26.818  1.00  0.00     0.023 C 
BRANCH  24  25
ATOM     25  C   UNL A   1      32.389  33.056  26.715  1.00  0.00     0.116 C 
BRANCH  25  26
ATOM     26  N   UNL A   1      32.216  34.213  27.589  1.00  0.00    -0.352 N 
ATOM     27  C   UNL A   1      33.004  34.653  28.631  1.00  0.00     0.251 C 
ATOM     28  H   UNL A   1      31.416  34.759  27.409  1.00  0.00     0.163 HD
ATOM     29  O   UNL A   1      32.668  35.619  29.303  1.00  0.00    -0.269 OA
BRANCH  27  30
ATOM     30  C   UNL A   1      34.228  33.901  28.981  1.00  0.00     0.039 A 
ATOM     31  C   UNL A   1      35.472  34.505  28.781  1.00  0.00     0.014 A 
ATOM     32  C   UNL A   1      34.145  32.653  29.596  1.00  0.00     0.014 A 
ATOM     33  C   UNL A   1      36.618  33.911  29.312  1.00  0.00     0.010 A 
ATOM     34  C   UNL A   1      35.260  32.136  30.238  1.00  0.00     0.010 A 
ATOM     35  C   UNL A   1      36.509  32.760  30.107  1.00  0.00    -0.014 A 
BRANCH  35  36
ATOM     36  C   UNL A   1      37.677  32.180  30.818  1.00  0.00     0.031 A 
ATOM     37  C   UNL A   1      38.506  31.119  30.146  1.00  0.00     0.074 A 
ATOM     38  C   UNL A   1      37.921  32.519  32.099  1.00  0.00     0.049 A 
ATOM     39  N   UNL A   1      39.462  30.377  30.640  1.00  0.00    -0.248 NA
ATOM     40  C   UNL A   1      38.170  30.812  28.746  1.00  0.00     0.031 C 
ATOM     41  C   UNL A   1      37.147  33.478  32.889  1.00  0.00     0.029 A 
ATOM     42  N   UNL A   1      38.893  32.085  32.966  1.00  0.00    -0.354 N 
ATOM     43  C   UNL A   1      39.797  29.480  29.633  1.00  0.00     0.074 A 
ATOM     44  C   UNL A   1      38.905  29.734  28.524  1.00  0.00     0.031 C 
ATOM     45  C   UNL A   1      37.704  33.599  34.105  1.00  0.00     0.029 A 
ATOM     46  C   UNL A   1      38.845  32.694  34.197  1.00  0.00     0.049 A 
ATOM     47  H   UNL A   1      39.561  31.402  32.729  1.00  0.00     0.167 HD
ATOM     48  C   UNL A   1      40.781  28.550  29.622  1.00  0.00     0.037 A 
ATOM     49  C   UNL A   1      39.640  32.543  35.272  1.00  0.00     0.037 A 
ATOM     50  C   UNL A   1      41.720  28.365  30.694  1.00  0.00     0.049 A 
ATOM     51  C   UNL A   1      40.771  31.554  35.212  1.00  0.00     0.074 A 
ATOM     52  C   UNL A   1      42.825  27.533  30.740  1.00  0.00     0.029 A 
ATOM     53  N   UNL A   1      41.672  29.038  31.906  1.00  0.00    -0.354 N 
ATOM     54  N   UNL A   1      41.125  30.761  34.231  1.00  0.00    -0.248 NA
ATOM     55  C   UNL A   1      41.614  31.442  36.411  1.00  0.00     0.031 C 
ATOM     56  C   UNL A   1      43.430  27.686  31.994  1.00  0.00     0.029 A 
ATOM     57  C   UNL A   1      42.721  28.635  32.714  1.00  0.00     0.049 A 
ATOM     58  H   UNL A   1      40.990  29.704  32.154  1.00  0.00     0.167 HD
ATOM     59  C   UNL A   1      42.244  30.075  34.679  1.00  0.00     0.074 A 
ATOM     60  C   UNL A   1      42.517  30.553  36.020  1.00  0.00     0.031 C 
ATOM     61  C   UNL A   1      42.980  29.135  34.039  1.00  0.00     0.037 A 
BRANCH  48  62
ATOM     62  C   UNL A   1      40.888  27.678  28.405  1.00  0.00     0.064 A 
ATOM     63  C   UNL A   1      41.674  28.043  27.300  1.00  0.00     0.173 A 
ATOM     64  C   UNL A   1      40.185  26.466  28.337  1.00  0.00     0.173 A 
ATOM     65  F   UNL A   1      42.354  29.200  27.308  1.00  0.00    -0.203 F 
ATOM     66  C   UNL A   1      41.711  27.254  26.154  1.00  0.00     0.198 A 
ATOM     67  C   UNL A   1      40.252  25.662  27.202  1.00  0.00     0.198 A 
ATOM     68  F   UNL A   1      39.423  26.066  29.366  1.00  0.00    -0.203 F 
ATOM     69  F   UNL A   1      42.408  27.661  25.085  1.00  0.00    -0.200 F 
ATOM     70  C   UNL A   1      41.003  26.062  26.107  1.00  0.00     0.200 A 
ATOM     71  F   UNL A   1      39.576  24.506  27.161  1.00  0.00    -0.200 F 
ATOM     72  F   UNL A   1      41.034  25.307  25.001  1.00  0.00    -0.200 F 
ENDBRANCH  48  62
BRANCH  49  73
ATOM     73  C   UNL A   1      39.434  33.396  36.470  1.00  0.00     0.064 A 
ATOM     74  C   UNL A   1      40.024  34.665  36.543  1.00  0.00     0.173 A 
ATOM     75  C   UNL A   1      38.641  32.980  37.549  1.00  0.00     0.173 A 
ATOM     76  F   UNL A   1      40.805  35.098  35.543  1.00  0.00    -0.203 F 
ATOM     77  C   UNL A   1      39.839  35.483  37.655  1.00  0.00     0.198 A 
ATOM     78  C   UNL A   1      38.440  33.808  38.652  1.00  0.00     0.198 A 
ATOM     79  F   UNL A   1      38.050  31.777  37.523  1.00  0.00    -0.203 F 
ATOM     80  F   UNL A   1      40.440  36.679  37.712  1.00  0.00    -0.200 F 
ATOM     81  C   UNL A   1      39.042  35.056  38.707  1.00  0.00     0.200 A 
ATOM     82  F   UNL A   1      37.659  33.398  39.661  1.00  0.00    -0.200 F 
ATOM     83  F   UNL A   1      38.859  35.846  39.774  1.00  0.00    -0.200 F 
ENDBRANCH  49  73
BRANCH  61  84
ATOM     84  C   UNL A   1      44.171  28.588  34.765  1.00  0.00     0.064 A 
ATOM     85  C   UNL A   1      45.421  29.217  34.701  1.00  0.00     0.173 A 
ATOM     86  C   UNL A   1      44.045  27.447  35.571  1.00  0.00     0.173 A 
ATOM     87  F   UNL A   1      45.593  30.302  33.929  1.00  0.00    -0.203 F 
ATOM     88  C   UNL A   1      46.511  28.713  35.405  1.00  0.00     0.198 A 
ATOM     89  C   UNL A   1      45.130  26.960  36.294  1.00  0.00     0.198 A 
ATOM     90  F   UNL A   1      42.867  26.813  35.668  1.00  0.00    -0.203 F 
ATOM     91  F   UNL A   1      47.707  29.307  35.301  1.00  0.00    -0.200 F 
ATOM     92  C   UNL A   1      46.363  27.590  36.206  1.00  0.00     0.200 A 
ATOM     93  F   UNL A   1      44.983  25.881  37.074  1.00  0.00    -0.200 F 
ATOM     94  F   UNL A   1      47.411  27.111  36.890  1.00  0.00    -0.200 F 
ENDBRANCH  61  84
ENDBRANCH  35  36
ENDBRANCH  27  30
ENDBRANCH  25  26
ENDBRANCH  24  25
ENDBRANCH   1  24
TORSDOF 15
ENDMDL
MODEL 3
REMARK VINA RESULT:     -12.3      2.078      7.952
REMARK SMILES COc1ccc([C@@H](CC(=O)NCCCCNC(=O)c2ccc(-c3c4nc(c(-c5c(F)c(F)c(F)c(F)c5F)c5ccc([nH]5)c(-c5c(F)c(F)c(F)c(F)c5F)c5nc(c(-c6c(F)c(F)c(F)c(F)c6F)c6ccc3[nH]6)C=C5)C=C4)cc2)C2CCCCC2)cc1Cl
REMARK SMILES IDX 13 1 12 2 11 3 9 4 10 5 8 7 7 8 6 9 3 10 4 11 89 12 5 13
REMARK SMILES IDX 88 14 90 15 2 16 1 17 82 18 83 19 87 20 84 21 86 22 85 23
REMARK SMILES IDX 14 24 15 25 16 26 17 27 18 29 19 30 20 31 81 32 21 33 80 34
REMARK SMILES IDX 22 35 23 36 24 37 74 38 25 39 79 40 73 41 75 42 26 43 78 44
REMARK SMILES IDX 72 45 71 46 27 48 59 49 39 50 58 51 40 52 43 53 57 54 76 55
REMARK SMILES IDX 41 56 42 57 56 59 77 60 44 61 28 62 29 63 37 64 30 65 31 66
REMARK SMILES IDX 35 67 38 68 32 69 33 70 36 71 34 72 60 73 61 74 69 75 62 76
REMARK SMILES IDX 63 77 67 78 70 79 64 80 65 81 68 82 66 83 45 84 46 85 54 86
REMARK SMILES IDX 47 87 48 88 52 89 55 90 49 91 50 92 53 93 51 94
REMARK H PARENT 11 6 16 28 75 47 43 58
REMARK Flexibility Score: inf
ROOT
ATOM      1  C   UNL A   1      31.630  30.494  26.236  1.00  0.00     0.023 C 
ENDROOT
BRANCH   1   2
ATOM      2  C   UNL A   1      31.856  29.369  27.232  1.00  0.00     0.116 C 
BRANCH   2   3
ATOM      3  N   UNL A   1      33.267  29.216  27.519  1.00  0.00    -0.356 N 
ATOM      4  C   UNL A   1      34.226  28.545  26.823  1.00  0.00     0.220 C 
ATOM      5  O   UNL A   1      35.381  28.594  27.254  1.00  0.00    -0.275 OA
ATOM      6  H   UNL A   1      33.578  29.662  28.339  1.00  0.00     0.163 HD
BRANCH   4   7
ATOM      7  C   UNL A   1      33.917  27.820  25.524  1.00  0.00     0.108 C 
BRANCH   7   8
ATOM      8  C   UNL A   1      32.914  26.623  25.475  1.00  0.00     0.032 C 
BRANCH   8   9
ATOM      9  C   UNL A   1      33.572  25.262  25.763  1.00  0.00    -0.042 A 
ATOM     10  C   UNL A   1      34.890  22.751  26.153  1.00  0.00     0.137 A 
ATOM     11  C   UNL A   1      33.539  22.903  26.451  1.00  0.00     0.048 A 
ATOM     12  C   UNL A   1      35.594  23.879  25.709  1.00  0.00     0.083 A 
ATOM     13  C   UNL A   1      32.900  24.143  26.273  1.00  0.00     0.008 A 
ATOM     14  C   UNL A   1      34.950  25.112  25.530  1.00  0.00     0.028 A 
ATOM     15  Cl  UNL A   1      37.283  23.797  25.333  1.00  0.00    -0.080 Cl
BRANCH  10  16
ATOM     16  O   UNL A   1      35.583  21.576  26.191  1.00  0.00    -0.495 OA
ATOM     17  C   UNL A   1      35.628  20.709  25.068  1.00  0.00     0.278 C 
ENDBRANCH  10  16
ENDBRANCH   8   9
BRANCH   8  18
ATOM     18  C   UNL A   1      31.792  26.718  24.371  1.00  0.00    -0.003 C 
ATOM     19  C   UNL A   1      30.341  26.544  24.867  1.00  0.00     0.004 C 
ATOM     20  C   UNL A   1      32.001  27.980  23.489  1.00  0.00     0.004 C 
ATOM     21  C   UNL A   1      29.278  26.883  23.826  1.00  0.00     0.000 C 
ATOM     22  C   UNL A   1      30.859  28.286  22.526  1.00  0.00     0.000 C 
ATOM     23  C   UNL A   1      29.511  28.257  23.227  1.00  0.00     0.000 C 
ENDBRANCH   8  18
ENDBRANCH   7   8
ENDBRANCH   4   7
ENDBRANCH   2   3
ENDBRANCH   1   2
BRANCH   1  24
ATOM     24  C   UNL A   1      31.358  31.872  26.806  1.00  0.00     0.023 C 
BRANCH  24  25
ATOM     25  C   UNL A   1      32.527  32.833  26.689  1.00  0.00     0.116 C 
BRANCH  25  26
ATOM     26  N   UNL A   1      32.463  33.984  27.586  1.00  0.00    -0.352 N 
ATOM     27  C   UNL A   1      33.327  34.364  28.591  1.00  0.00     0.251 C 
ATOM     28  H   UNL A   1      31.686  34.576  27.454  1.00  0.00     0.163 HD
ATOM     29  O   UNL A   1      33.079  35.337  29.292  1.00  0.00    -0.269 OA
BRANCH  27  30
ATOM     30  C   UNL A   1      34.524  33.541  28.867  1.00  0.00     0.039 A 
ATOM     31  C   UNL A   1      35.777  34.158  28.890  1.00  0.00     0.014 A 
ATOM     32  C   UNL A   1      34.399  32.194  29.202  1.00  0.00     0.014 A 
ATOM     33  C   UNL A   1      36.881  33.453  29.370  1.00  0.00     0.010 A 
ATOM     34  C   UNL A   1      35.464  31.542  29.805  1.00  0.00     0.010 A 
ATOM     35  C   UNL A   1      36.717  32.164  29.899  1.00  0.00    -0.014 A 
BRANCH  35  36
ATOM     36  C   UNL A   1      37.830  31.435  30.560  1.00  0.00     0.031 A 
ATOM     37  C   UNL A   1      38.182  31.752  31.988  1.00  0.00     0.074 A 
ATOM     38  C   UNL A   1      38.593  30.583  29.848  1.00  0.00     0.049 A 
ATOM     39  N   UNL A   1      39.204  31.351  32.699  1.00  0.00    -0.248 NA
ATOM     40  C   UNL A   1      37.295  32.694  32.690  1.00  0.00     0.031 C 
ATOM     41  C   UNL A   1      38.405  30.247  28.435  1.00  0.00     0.029 A 
ATOM     42  N   UNL A   1      39.689  29.845  30.219  1.00  0.00    -0.354 N 
ATOM     43  C   UNL A   1      39.113  32.037  33.903  1.00  0.00     0.074 A 
ATOM     44  C   UNL A   1      37.971  32.918  33.806  1.00  0.00     0.031 C 
ATOM     45  C   UNL A   1      39.319  29.332  28.074  1.00  0.00     0.029 A 
ATOM     46  C   UNL A   1      40.185  29.051  29.213  1.00  0.00     0.049 A 
ATOM     47  H   UNL A   1      40.084  29.882  31.120  1.00  0.00     0.167 HD
ATOM     48  C   UNL A   1      39.892  31.919  35.005  1.00  0.00     0.037 A 
ATOM     49  C   UNL A   1      41.217  28.187  29.217  1.00  0.00     0.037 A 
ATOM     50  C   UNL A   1      40.970  30.977  35.125  1.00  0.00     0.049 A 
ATOM     51  C   UNL A   1      42.025  28.021  30.474  1.00  0.00     0.074 A 
ATOM     52  C   UNL A   1      41.749  30.692  36.233  1.00  0.00     0.029 A 
ATOM     53  N   UNL A   1      41.410  30.150  34.101  1.00  0.00    -0.354 N 
ATOM     54  N   UNL A   1      41.889  28.620  31.631  1.00  0.00    -0.248 NA
ATOM     55  C   UNL A   1      43.131  27.054  30.424  1.00  0.00     0.031 C 
ATOM     56  C   UNL A   1      42.679  29.710  35.870  1.00  0.00     0.029 A 
ATOM     57  C   UNL A   1      42.457  29.362  34.546  1.00  0.00     0.049 A 
ATOM     58  H   UNL A   1      41.033  30.129  33.192  1.00  0.00     0.167 HD
ATOM     59  C   UNL A   1      42.870  28.088  32.455  1.00  0.00     0.074 A 
ATOM     60  C   UNL A   1      43.590  27.109  31.667  1.00  0.00     0.031 C 
ATOM     61  C   UNL A   1      43.149  28.383  33.747  1.00  0.00     0.037 A 
BRANCH  48  62
ATOM     62  C   UNL A   1      39.590  32.828  36.161  1.00  0.00     0.064 A 
ATOM     63  C   UNL A   1      38.646  32.486  37.142  1.00  0.00     0.173 A 
ATOM     64  C   UNL A   1      40.243  34.063  36.281  1.00  0.00     0.173 A 
ATOM     65  F   UNL A   1      37.982  31.322  37.065  1.00  0.00    -0.203 F 
ATOM     66  C   UNL A   1      38.331  33.367  38.172  1.00  0.00     0.198 A 
ATOM     67  C   UNL A   1      39.950  34.928  37.333  1.00  0.00     0.198 A 
ATOM     68  F   UNL A   1      41.157  34.438  35.374  1.00  0.00    -0.203 F 
ATOM     69  F   UNL A   1      37.374  33.050  39.054  1.00  0.00    -0.200 F 
ATOM     70  C   UNL A   1      38.985  34.587  38.269  1.00  0.00     0.200 A 
ATOM     71  F   UNL A   1      40.590  36.101  37.431  1.00  0.00    -0.200 F 
ATOM     72  F   UNL A   1      38.677  35.437  39.256  1.00  0.00    -0.200 F 
ENDBRANCH  48  62
BRANCH  49  73
ATOM     73  C   UNL A   1      41.501  27.367  28.013  1.00  0.00     0.064 A 
ATOM     74  C   UNL A   1      40.869  26.128  27.838  1.00  0.00     0.173 A 
ATOM     75  C   UNL A   1      42.382  27.799  27.011  1.00  0.00     0.173 A 
ATOM     76  F   UNL A   1      40.032  25.665  28.778  1.00  0.00    -0.203 F 
ATOM     77  C   UNL A   1      41.117  25.346  26.712  1.00  0.00     0.198 A 
ATOM     78  C   UNL A   1      42.612  27.025  25.876  1.00  0.00     0.198 A 
ATOM     79  F   UNL A   1      43.004  28.980  27.130  1.00  0.00    -0.203 F 
ATOM     80  F   UNL A   1      40.523  24.151  26.585  1.00  0.00    -0.200 F 
ATOM     81  C   UNL A   1      41.984  25.797  25.729  1.00  0.00     0.200 A 
ATOM     82  F   UNL A   1      43.441  27.470  24.921  1.00  0.00    -0.200 F 
ATOM     83  F   UNL A   1      42.217  25.047  24.643  1.00  0.00    -0.200 F 
ENDBRANCH  49  73
BRANCH  61  84
ATOM     84  C   UNL A   1      44.256  27.613  34.401  1.00  0.00     0.064 A 
ATOM     85  C   UNL A   1      44.025  26.373  35.010  1.00  0.00     0.173 A 
ATOM     86  C   UNL A   1      45.570  28.103  34.373  1.00  0.00     0.173 A 
ATOM     87  F   UNL A   1      42.782  25.873  35.075  1.00  0.00    -0.203 F 
ATOM     88  C   UNL A   1      45.070  25.656  35.587  1.00  0.00     0.198 A 
ATOM     89  C   UNL A   1      46.616  27.373  34.928  1.00  0.00     0.198 A 
ATOM     90  F   UNL A   1      45.840  29.283  33.796  1.00  0.00    -0.203 F 
ATOM     91  F   UNL A   1      44.823  24.490  36.199  1.00  0.00    -0.200 F 
ATOM     92  C   UNL A   1      46.365  26.153  35.540  1.00  0.00     0.200 A 
ATOM     93  F   UNL A   1      47.867  27.849  34.873  1.00  0.00    -0.200 F 
ATOM     94  F   UNL A   1      47.371  25.457  36.088  1.00  0.00    -0.200 F 
ENDBRANCH  61  84
ENDBRANCH  35  36
ENDBRANCH  27  30
ENDBRANCH  25  26
ENDBRANCH  24  25
ENDBRANCH   1  24
TORSDOF 15
ENDMDL
