MODEL 1
REMARK VINA RESULT:     -12.5      0.000      0.000
REMARK SMILES CN(C)Nc1ncnc(Nc2ccc(C(=O)NCCCCNC(=O)c3ccc(-c4c5nc(c(-c6c(F)c(F)c(F)c(F)c6F)c6ccc([nH]6)c(-c6c(F)c(F)c(F)c(F)c6F)c6nc(c(-c7c(F)c(F)c(F)c(F)c7F)c7ccc4[nH]7)C=C6)C=C5)cc3)cc2)c1[N+](=O)[O-]
REMARK SMILES IDX 18 1 17 2 15 3 16 4 14 6 11 7 12 8 89 9 13 10 88 11 10 12
REMARK SMILES IDX 9 14 5 15 6 16 90 17 7 18 8 19 4 20 2 22 1 23 3 24 91 25
REMARK SMILES IDX 92 26 93 27 19 28 20 29 21 30 22 31 23 32 24 34 25 35 26 36
REMARK SMILES IDX 87 37 27 38 86 39 28 40 29 41 30 42 80 43 31 44 85 45 79 46
REMARK SMILES IDX 81 47 32 48 84 49 78 50 77 51 33 53 65 54 45 55 64 56 46 57
REMARK SMILES IDX 49 58 63 59 82 60 47 61 48 62 62 64 83 65 50 66 34 67 35 68
REMARK SMILES IDX 43 69 36 70 37 71 41 72 44 73 38 74 39 75 42 76 40 77 66 78
REMARK SMILES IDX 67 79 75 80 68 81 69 82 73 83 76 84 70 85 71 86 74 87 72 88
REMARK SMILES IDX 51 89 52 90 60 91 53 92 54 93 58 94 61 95 55 96 56 97 59 98
REMARK SMILES IDX 57 99
REMARK H PARENT 17 5 10 13 4 21 22 33 81 52 49 63
REMARK Flexibility Score: inf
ROOT
ATOM      1  C   UNL A   1      32.238  29.791  25.363  1.00  0.00     0.116 C 
ENDROOT
BRANCH   1   2
ATOM      2  N   UNL A   1      31.098  30.033  24.500  1.00  0.00    -0.352 N 
ATOM      3  C   UNL A   1      30.337  29.195  23.724  1.00  0.00     0.251 C 
ATOM      4  O   UNL A   1      29.399  29.692  23.100  1.00  0.00    -0.269 OA
ATOM      5  H   UNL A   1      30.815  30.975  24.466  1.00  0.00     0.163 HD
BRANCH   3   6
ATOM      6  C   UNL A   1      30.553  27.722  23.656  1.00  0.00     0.039 A 
ATOM      7  C   UNL A   1      30.867  24.944  23.278  1.00  0.00     0.040 A 
ATOM      8  C   UNL A   1      31.344  25.839  22.324  1.00  0.00     0.027 A 
ATOM      9  C   UNL A   1      30.351  25.452  24.476  1.00  0.00     0.027 A 
ATOM     10  C   UNL A   1      31.167  27.217  22.500  1.00  0.00     0.016 A 
ATOM     11  C   UNL A   1      30.212  26.829  24.672  1.00  0.00     0.016 A 
BRANCH   7  12
ATOM     12  N   UNL A   1      30.998  23.556  23.079  1.00  0.00    -0.334 N 
ATOM     13  H   UNL A   1      30.397  23.123  22.429  1.00  0.00     0.168 HD
BRANCH  12  14
ATOM     14  C   UNL A   1      31.938  22.745  23.751  1.00  0.00     0.215 A 
ATOM     15  C   UNL A   1      34.133  21.993  24.256  1.00  0.00     0.225 A 
ATOM     16  N   UNL A   1      33.642  21.143  25.183  1.00  0.00    -0.212 NA
ATOM     17  C   UNL A   1      33.290  22.737  23.453  1.00  0.00     0.354 A 
ATOM     18  C   UNL A   1      32.319  21.136  25.355  1.00  0.00     0.227 A 
ATOM     19  N   UNL A   1      31.455  21.924  24.713  1.00  0.00    -0.212 NA
BRANCH  15  20
ATOM     20  N   UNL A   1      35.525  22.110  24.333  1.00  0.00    -0.298 N 
ATOM     21  H   UNL A   1      36.040  22.010  23.500  1.00  0.00     0.184 HD
BRANCH  20  22
ATOM     22  N   UNL A   1      36.243  22.363  25.529  1.00  0.00    -0.228 NA
ATOM     23  C   UNL A   1      37.688  22.127  25.352  1.00  0.00     0.130 C 
ATOM     24  C   UNL A   1      36.053  23.790  25.854  1.00  0.00     0.130 C 
ENDBRANCH  20  22
ENDBRANCH  15  20
BRANCH  17  25
ATOM     25  N   UNL A   1      33.791  23.468  22.329  1.00  0.00     0.070 N 
ATOM     26  O   UNL A   1      33.406  23.105  21.205  1.00  0.00    -0.258 OA
ATOM     27  O   UNL A   1      34.659  24.326  22.541  1.00  0.00    -0.258 OA
ENDBRANCH  17  25
ENDBRANCH  12  14
ENDBRANCH   7  12
ENDBRANCH   3   6
ENDBRANCH   1   2
BRANCH   1  28
ATOM     28  C   UNL A   1      31.971  30.333  26.770  1.00  0.00     0.023 C 
BRANCH  28  29
ATOM     29  C   UNL A   1      31.674  31.836  26.817  1.00  0.00     0.023 C 
BRANCH  29  30
ATOM     30  C   UNL A   1      32.848  32.703  27.257  1.00  0.00     0.116 C 
BRANCH  30  31
ATOM     31  N   UNL A   1      32.460  34.060  27.606  1.00  0.00    -0.352 N 
ATOM     32  C   UNL A   1      33.008  34.884  28.563  1.00  0.00     0.251 C 
ATOM     33  H   UNL A   1      31.710  34.438  27.092  1.00  0.00     0.163 HD
ATOM     34  O   UNL A   1      32.509  35.967  28.817  1.00  0.00    -0.269 OA
BRANCH  32  35
ATOM     35  C   UNL A   1      34.191  34.413  29.311  1.00  0.00     0.039 A 
ATOM     36  C   UNL A   1      33.999  33.717  30.507  1.00  0.00     0.014 A 
ATOM     37  C   UNL A   1      35.479  34.626  28.812  1.00  0.00     0.014 A 
ATOM     38  C   UNL A   1      35.101  33.175  31.174  1.00  0.00     0.010 A 
ATOM     39  C   UNL A   1      36.567  34.034  29.443  1.00  0.00     0.010 A 
ATOM     40  C   UNL A   1      36.388  33.303  30.629  1.00  0.00    -0.014 A 
BRANCH  40  41
ATOM     41  C   UNL A   1      37.573  32.699  31.286  1.00  0.00     0.031 A 
ATOM     42  C   UNL A   1      38.301  31.571  30.611  1.00  0.00     0.074 A 
ATOM     43  C   UNL A   1      37.935  33.101  32.519  1.00  0.00     0.049 A 
ATOM     44  N   UNL A   1      39.266  30.815  31.069  1.00  0.00    -0.248 NA
ATOM     45  C   UNL A   1      37.861  31.226  29.249  1.00  0.00     0.031 C 
ATOM     46  C   UNL A   1      37.282  34.158  33.292  1.00  0.00     0.029 A 
ATOM     47  N   UNL A   1      38.931  32.650  33.349  1.00  0.00    -0.354 N 
ATOM     48  C   UNL A   1      39.528  29.892  30.065  1.00  0.00     0.074 A 
ATOM     49  C   UNL A   1      38.596  30.155  28.991  1.00  0.00     0.031 C 
ATOM     50  C   UNL A   1      37.898  34.280  34.479  1.00  0.00     0.029 A 
ATOM     51  C   UNL A   1      38.964  33.286  34.566  1.00  0.00     0.049 A 
ATOM     52  H   UNL A   1      39.563  31.939  33.096  1.00  0.00     0.167 HD
ATOM     53  C   UNL A   1      40.475  28.925  30.036  1.00  0.00     0.037 A 
ATOM     54  C   UNL A   1      39.756  33.078  35.635  1.00  0.00     0.037 A 
ATOM     55  C   UNL A   1      41.427  28.696  31.090  1.00  0.00     0.049 A 
ATOM     56  C   UNL A   1      40.812  32.007  35.570  1.00  0.00     0.074 A 
ATOM     57  C   UNL A   1      42.464  27.781  31.132  1.00  0.00     0.029 A 
ATOM     58  N   UNL A   1      41.461  29.396  32.287  1.00  0.00    -0.354 N 
ATOM     59  N   UNL A   1      41.089  31.178  34.593  1.00  0.00    -0.248 NA
ATOM     60  C   UNL A   1      41.670  31.846  36.753  1.00  0.00     0.031 C 
ATOM     61  C   UNL A   1      43.106  27.904  32.368  1.00  0.00     0.029 A 
ATOM     62  C   UNL A   1      42.496  28.926  33.078  1.00  0.00     0.049 A 
ATOM     63  H   UNL A   1      40.841  30.119  32.537  1.00  0.00     0.167 HD
ATOM     64  C   UNL A   1      42.173  30.426  35.026  1.00  0.00     0.074 A 
ATOM     65  C   UNL A   1      42.506  30.899  36.353  1.00  0.00     0.031 C 
ATOM     66  C   UNL A   1      42.832  29.433  34.383  1.00  0.00     0.037 A 
BRANCH  53  67
ATOM     67  C   UNL A   1      40.535  28.045  28.824  1.00  0.00     0.064 A 
ATOM     68  C   UNL A   1      39.810  26.847  28.750  1.00  0.00     0.173 A 
ATOM     69  C   UNL A   1      41.291  28.426  27.705  1.00  0.00     0.173 A 
ATOM     70  F   UNL A   1      39.083  26.432  29.798  1.00  0.00    -0.203 F 
ATOM     71  C   UNL A   1      39.858  26.051  27.608  1.00  0.00     0.198 A 
ATOM     72  C   UNL A   1      41.313  27.642  26.555  1.00  0.00     0.198 A 
ATOM     73  F   UNL A   1      42.000  29.565  27.723  1.00  0.00    -0.203 F 
ATOM     74  F   UNL A   1      39.190  24.889  27.577  1.00  0.00    -0.200 F 
ATOM     75  C   UNL A   1      40.602  26.453  26.510  1.00  0.00     0.200 A 
ATOM     76  F   UNL A   1      42.024  28.038  25.489  1.00  0.00    -0.200 F 
ATOM     77  F   UNL A   1      40.638  25.690  25.408  1.00  0.00    -0.200 F 
ENDBRANCH  53  67
BRANCH  54  78
ATOM     78  C   UNL A   1      39.599  33.914  36.854  1.00  0.00     0.064 A 
ATOM     79  C   UNL A   1      38.805  33.479  37.925  1.00  0.00     0.173 A 
ATOM     80  C   UNL A   1      40.219  35.166  36.969  1.00  0.00     0.173 A 
ATOM     81  F   UNL A   1      38.174  32.298  37.853  1.00  0.00    -0.203 F 
ATOM     82  C   UNL A   1      38.615  34.277  39.052  1.00  0.00     0.198 A 
ATOM     83  C   UNL A   1      40.051  35.951  38.107  1.00  0.00     0.198 A 
ATOM     84  F   UNL A   1      40.993  35.626  35.974  1.00  0.00    -0.203 F 
ATOM     85  F   UNL A   1      37.810  33.858  40.038  1.00  0.00    -0.200 F 
ATOM     86  C   UNL A   1      39.242  35.510  39.144  1.00  0.00     0.200 A 
ATOM     87  F   UNL A   1      40.669  37.137  38.199  1.00  0.00    -0.200 F 
ATOM     88  F   UNL A   1      39.059  36.277  40.227  1.00  0.00    -0.200 F 
ENDBRANCH  54  78
BRANCH  66  89
ATOM     89  C   UNL A   1      44.019  28.829  35.072  1.00  0.00     0.064 A 
ATOM     90  C   UNL A   1      45.302  29.378  34.946  1.00  0.00     0.173 A 
ATOM     91  C   UNL A   1      43.853  27.723  35.919  1.00  0.00     0.173 A 
ATOM     92  F   UNL A   1      45.513  30.427  34.137  1.00  0.00    -0.203 F 
ATOM     93  C   UNL A   1      46.383  28.830  35.633  1.00  0.00     0.198 A 
ATOM     94  C   UNL A   1      44.930  27.194  36.625  1.00  0.00     0.198 A 
ATOM     95  F   UNL A   1      42.643  27.168  36.077  1.00  0.00    -0.203 F 
ATOM     96  F   UNL A   1      47.609  29.348  35.473  1.00  0.00    -0.200 F 
ATOM     97  C   UNL A   1      46.195  27.746  36.478  1.00  0.00     0.200 A 
ATOM     98  F   UNL A   1      44.744  26.155  37.451  1.00  0.00    -0.200 F 
ATOM     99  F   UNL A   1      47.234  27.229  37.149  1.00  0.00    -0.200 F 
ENDBRANCH  66  89
ENDBRANCH  40  41
ENDBRANCH  32  35
ENDBRANCH  30  31
ENDBRANCH  29  30
ENDBRANCH  28  29
ENDBRANCH   1  28
TORSDOF 16
ENDMDL
MODEL 2
REMARK VINA RESULT:     -12.2      3.964      8.258
REMARK SMILES CN(C)Nc1ncnc(Nc2ccc(C(=O)NCCCCNC(=O)c3ccc(-c4c5nc(c(-c6c(F)c(F)c(F)c(F)c6F)c6ccc([nH]6)c(-c6c(F)c(F)c(F)c(F)c6F)c6nc(c(-c7c(F)c(F)c(F)c(F)c7F)c7ccc4[nH]7)C=C6)C=C5)cc3)cc2)c1[N+](=O)[O-]
REMARK SMILES IDX 18 1 17 2 15 3 16 4 14 6 11 7 12 8 89 9 13 10 88 11 10 12
REMARK SMILES IDX 9 14 5 15 6 16 90 17 7 18 8 19 4 20 2 22 1 23 3 24 91 25
REMARK SMILES IDX 92 26 93 27 19 28 20 29 21 30 22 31 23 32 24 34 25 35 26 36
REMARK SMILES IDX 87 37 27 38 86 39 28 40 29 41 30 42 80 43 31 44 85 45 79 46
REMARK SMILES IDX 81 47 32 48 84 49 78 50 77 51 33 53 65 54 45 55 64 56 46 57
REMARK SMILES IDX 49 58 63 59 82 60 47 61 48 62 62 64 83 65 50 66 34 67 35 68
REMARK SMILES IDX 43 69 36 70 37 71 41 72 44 73 38 74 39 75 42 76 40 77 66 78
REMARK SMILES IDX 67 79 75 80 68 81 69 82 73 83 76 84 70 85 71 86 74 87 72 88
REMARK SMILES IDX 51 89 52 90 60 91 53 92 54 93 58 94 61 95 55 96 56 97 59 98
REMARK SMILES IDX 57 99
REMARK H PARENT 17 5 10 13 4 21 22 33 81 52 49 63
REMARK Flexibility Score: inf
ROOT
ATOM      1  C   UNL A   1      35.455  20.297  25.000  1.00  0.00     0.116 C 
ENDROOT
BRANCH   1   2
ATOM      2  N   UNL A   1      34.278  19.468  25.175  1.00  0.00    -0.352 N 
ATOM      3  C   UNL A   1      32.938  19.736  25.057  1.00  0.00     0.251 C 
ATOM      4  O   UNL A   1      32.152  18.807  25.252  1.00  0.00    -0.269 OA
ATOM      5  H   UNL A   1      34.479  18.537  25.425  1.00  0.00     0.163 HD
BRANCH   3   6
ATOM      6  C   UNL A   1      32.402  21.063  24.644  1.00  0.00     0.039 A 
ATOM      7  C   UNL A   1      31.618  23.617  23.736  1.00  0.00     0.040 A 
ATOM      8  C   UNL A   1      32.166  22.695  22.847  1.00  0.00     0.027 A 
ATOM      9  C   UNL A   1      31.348  23.206  25.047  1.00  0.00     0.027 A 
ATOM     10  C   UNL A   1      32.577  21.436  23.303  1.00  0.00     0.016 A 
ATOM     11  C   UNL A   1      31.719  21.935  25.493  1.00  0.00     0.016 A 
BRANCH   7  12
ATOM     12  N   UNL A   1      31.251  24.902  23.291  1.00  0.00    -0.334 N 
ATOM     13  H   UNL A   1      30.377  25.006  22.850  1.00  0.00     0.168 HD
BRANCH  12  14
ATOM     14  C   UNL A   1      32.057  26.051  23.439  1.00  0.00     0.215 A 
ATOM     15  C   UNL A   1      32.955  27.887  24.647  1.00  0.00     0.225 A 
ATOM     16  N   UNL A   1      33.722  28.226  23.587  1.00  0.00    -0.212 NA
ATOM     17  C   UNL A   1      32.037  26.859  24.563  1.00  0.00     0.354 A 
ATOM     18  C   UNL A   1      33.624  27.457  22.502  1.00  0.00     0.227 A 
ATOM     19  N   UNL A   1      32.861  26.368  22.396  1.00  0.00    -0.212 NA
BRANCH  15  20
ATOM     20  N   UNL A   1      33.316  28.587  25.803  1.00  0.00    -0.298 N 
ATOM     21  H   UNL A   1      33.681  28.069  26.557  1.00  0.00     0.184 HD
BRANCH  20  22
ATOM     22  N   UNL A   1      33.193  29.991  25.962  1.00  0.00    -0.228 NA
ATOM     23  C   UNL A   1      31.779  30.405  26.024  1.00  0.00     0.130 C 
ATOM     24  C   UNL A   1      33.824  30.336  27.251  1.00  0.00     0.130 C 
ENDBRANCH  20  22
ENDBRANCH  15  20
BRANCH  17  25
ATOM     25  N   UNL A   1      31.075  26.638  25.599  1.00  0.00     0.070 N 
ATOM     26  O   UNL A   1      29.889  26.519  25.249  1.00  0.00    -0.258 OA
ATOM     27  O   UNL A   1      31.468  26.699  26.772  1.00  0.00    -0.258 OA
ENDBRANCH  17  25
ENDBRANCH  12  14
ENDBRANCH   7  12
ENDBRANCH   3   6
ENDBRANCH   1   2
BRANCH   1  28
ATOM     28  C   UNL A   1      35.470  21.430  26.031  1.00  0.00     0.023 C 
BRANCH  28  29
ATOM     29  C   UNL A   1      35.562  22.832  25.422  1.00  0.00     0.023 C 
BRANCH  29  30
ATOM     30  C   UNL A   1      36.952  23.455  25.462  1.00  0.00     0.116 C 
BRANCH  30  31
ATOM     31  N   UNL A   1      37.993  22.510  25.834  1.00  0.00    -0.352 N 
ATOM     32  C   UNL A   1      39.180  22.762  26.485  1.00  0.00     0.251 C 
ATOM     33  H   UNL A   1      37.828  21.571  25.590  1.00  0.00     0.163 HD
ATOM     34  O   UNL A   1      40.008  21.881  26.640  1.00  0.00    -0.269 OA
BRANCH  32  35
ATOM     35  C   UNL A   1      39.452  24.135  26.958  1.00  0.00     0.039 A 
ATOM     36  C   UNL A   1      39.106  24.478  28.267  1.00  0.00     0.014 A 
ATOM     37  C   UNL A   1      40.081  25.062  26.124  1.00  0.00     0.014 A 
ATOM     38  C   UNL A   1      39.448  25.738  28.763  1.00  0.00     0.010 A 
ATOM     39  C   UNL A   1      40.477  26.291  26.638  1.00  0.00     0.010 A 
ATOM     40  C   UNL A   1      40.165  26.640  27.962  1.00  0.00    -0.014 A 
BRANCH  40  41
ATOM     41  C   UNL A   1      40.588  27.967  28.474  1.00  0.00     0.031 A 
ATOM     42  C   UNL A   1      42.025  28.195  28.846  1.00  0.00     0.074 A 
ATOM     43  C   UNL A   1      39.669  28.928  28.687  1.00  0.00     0.049 A 
ATOM     44  N   UNL A   1      42.575  29.225  29.438  1.00  0.00    -0.248 NA
ATOM     45  C   UNL A   1      42.965  27.104  28.541  1.00  0.00     0.031 C 
ATOM     46  C   UNL A   1      38.238  28.811  28.403  1.00  0.00     0.029 A 
ATOM     47  N   UNL A   1      39.800  30.189  29.215  1.00  0.00    -0.354 N 
ATOM     48  C   UNL A   1      43.914  28.894  29.599  1.00  0.00     0.074 A 
ATOM     49  C   UNL A   1      44.087  27.554  29.081  1.00  0.00     0.031 C 
ATOM     50  C   UNL A   1      37.625  29.954  28.751  1.00  0.00     0.029 A 
ATOM     51  C   UNL A   1      38.611  30.870  29.318  1.00  0.00     0.049 A 
ATOM     52  H   UNL A   1      40.665  30.569  29.492  1.00  0.00     0.167 HD
ATOM     53  C   UNL A   1      44.912  29.649  30.115  1.00  0.00     0.037 A 
ATOM     54  C   UNL A   1      38.348  32.088  29.827  1.00  0.00     0.037 A 
ATOM     55  C   UNL A   1      44.742  30.996  30.590  1.00  0.00     0.049 A 
ATOM     56  C   UNL A   1      39.480  32.913  30.380  1.00  0.00     0.074 A 
ATOM     57  C   UNL A   1      45.701  31.867  31.076  1.00  0.00     0.029 A 
ATOM     58  N   UNL A   1      43.531  31.671  30.631  1.00  0.00    -0.354 N 
ATOM     59  N   UNL A   1      40.753  32.613  30.474  1.00  0.00    -0.248 NA
ATOM     60  C   UNL A   1      39.141  34.249  30.891  1.00  0.00     0.031 C 
ATOM     61  C   UNL A   1      45.066  33.057  31.443  1.00  0.00     0.029 A 
ATOM     62  C   UNL A   1      43.717  32.943  31.143  1.00  0.00     0.049 A 
ATOM     63  H   UNL A   1      42.667  31.299  30.339  1.00  0.00     0.167 HD
ATOM     64  C   UNL A   1      41.370  33.732  31.018  1.00  0.00     0.074 A 
ATOM     65  C   UNL A   1      40.333  34.719  31.229  1.00  0.00     0.031 C 
ATOM     66  C   UNL A   1      42.677  33.924  31.315  1.00  0.00     0.037 A 
BRANCH  53  67
ATOM     67  C   UNL A   1      46.280  29.040  30.188  1.00  0.00     0.064 A 
ATOM     68  C   UNL A   1      46.703  28.315  31.312  1.00  0.00     0.173 A 
ATOM     69  C   UNL A   1      47.163  29.143  29.102  1.00  0.00     0.173 A 
ATOM     70  F   UNL A   1      45.900  28.199  32.380  1.00  0.00    -0.203 F 
ATOM     71  C   UNL A   1      47.968  27.735  31.356  1.00  0.00     0.198 A 
ATOM     72  C   UNL A   1      48.417  28.538  29.139  1.00  0.00     0.198 A 
ATOM     73  F   UNL A   1      46.806  29.822  28.002  1.00  0.00    -0.203 F 
ATOM     74  F   UNL A   1      48.365  27.084  32.458  1.00  0.00    -0.200 F 
ATOM     75  C   UNL A   1      48.820  27.841  30.267  1.00  0.00     0.200 A 
ATOM     76  F   UNL A   1      49.235  28.630  28.081  1.00  0.00    -0.200 F 
ATOM     77  F   UNL A   1      50.033  27.272  30.308  1.00  0.00    -0.200 F 
ENDBRANCH  53  67
BRANCH  54  78
ATOM     78  C   UNL A   1      36.959  32.616  29.820  1.00  0.00     0.064 A 
ATOM     79  C   UNL A   1      36.452  33.289  28.700  1.00  0.00     0.173 A 
ATOM     80  C   UNL A   1      36.118  32.478  30.934  1.00  0.00     0.173 A 
ATOM     81  F   UNL A   1      37.225  33.464  27.618  1.00  0.00    -0.203 F 
ATOM     82  C   UNL A   1      35.167  33.828  28.703  1.00  0.00     0.198 A 
ATOM     83  C   UNL A   1      34.824  32.993  30.926  1.00  0.00     0.198 A 
ATOM     84  F   UNL A   1      36.554  31.839  32.029  1.00  0.00    -0.203 F 
ATOM     85  F   UNL A   1      34.726  34.509  27.637  1.00  0.00    -0.200 F 
ATOM     86  C   UNL A   1      34.352  33.675  29.814  1.00  0.00     0.200 A 
ATOM     87  F   UNL A   1      34.034  32.832  31.997  1.00  0.00    -0.200 F 
ATOM     88  F   UNL A   1      33.116  34.194  29.818  1.00  0.00    -0.200 F 
ENDBRANCH  54  78
BRANCH  66  89
ATOM     89  C   UNL A   1      43.078  35.268  31.843  1.00  0.00     0.064 A 
ATOM     90  C   UNL A   1      43.003  35.577  33.208  1.00  0.00     0.173 A 
ATOM     91  C   UNL A   1      43.602  36.238  30.974  1.00  0.00     0.173 A 
ATOM     92  F   UNL A   1      42.495  34.688  34.075  1.00  0.00    -0.203 F 
ATOM     93  C   UNL A   1      43.425  36.816  33.683  1.00  0.00     0.198 A 
ATOM     94  C   UNL A   1      44.048  37.465  31.456  1.00  0.00     0.198 A 
ATOM     95  F   UNL A   1      43.701  35.986  29.661  1.00  0.00    -0.203 F 
ATOM     96  F   UNL A   1      43.313  37.105  34.987  1.00  0.00    -0.200 F 
ATOM     97  C   UNL A   1      43.956  37.754  32.809  1.00  0.00     0.200 A 
ATOM     98  F   UNL A   1      44.573  38.364  30.612  1.00  0.00    -0.200 F 
ATOM     99  F   UNL A   1      44.374  38.941  33.271  1.00  0.00    -0.200 F 
ENDBRANCH  66  89
ENDBRANCH  40  41
ENDBRANCH  32  35
ENDBRANCH  30  31
ENDBRANCH  29  30
ENDBRANCH  28  29
ENDBRANCH   1  28
TORSDOF 16
ENDMDL
MODEL 3
REMARK VINA RESULT:     -12.2      0.340      2.053
REMARK SMILES CN(C)Nc1ncnc(Nc2ccc(C(=O)NCCCCNC(=O)c3ccc(-c4c5nc(c(-c6c(F)c(F)c(F)c(F)c6F)c6ccc([nH]6)c(-c6c(F)c(F)c(F)c(F)c6F)c6nc(c(-c7c(F)c(F)c(F)c(F)c7F)c7ccc4[nH]7)C=C6)C=C5)cc3)cc2)c1[N+](=O)[O-]
REMARK SMILES IDX 18 1 17 2 15 3 16 4 14 6 11 7 12 8 89 9 13 10 88 11 10 12
REMARK SMILES IDX 9 14 5 15 6 16 90 17 7 18 8 19 4 20 2 22 1 23 3 24 91 25
REMARK SMILES IDX 92 26 93 27 19 28 20 29 21 30 22 31 23 32 24 34 25 35 26 36
REMARK SMILES IDX 87 37 27 38 86 39 28 40 29 41 30 42 80 43 31 44 85 45 79 46
REMARK SMILES IDX 81 47 32 48 84 49 78 50 77 51 33 53 65 54 45 55 64 56 46 57
REMARK SMILES IDX 49 58 63 59 82 60 47 61 48 62 62 64 83 65 50 66 34 67 35 68
REMARK SMILES IDX 43 69 36 70 37 71 41 72 44 73 38 74 39 75 42 76 40 77 66 78
REMARK SMILES IDX 67 79 75 80 68 81 69 82 73 83 76 84 70 85 71 86 74 87 72 88
REMARK SMILES IDX 51 89 52 90 60 91 53 92 54 93 58 94 61 95 55 96 56 97 59 98
REMARK SMILES IDX 57 99
REMARK H PARENT 17 5 10 13 4 21 22 33 81 52 49 63
REMARK Flexibility Score: inf
ROOT
ATOM      1  C   UNL A   1      31.982  29.758  25.438  1.00  0.00     0.116 C 
ENDROOT
BRANCH   1   2
ATOM      2  N   UNL A   1      30.907  30.176  24.560  1.00  0.00    -0.352 N 
ATOM      3  C   UNL A   1      30.165  29.496  23.626  1.00  0.00     0.251 C 
ATOM      4  O   UNL A   1      29.286  30.122  23.033  1.00  0.00    -0.269 OA
ATOM      5  H   UNL A   1      30.662  31.125  24.651  1.00  0.00     0.163 HD
BRANCH   3   6
ATOM      6  C   UNL A   1      30.330  28.042  23.351  1.00  0.00     0.039 A 
ATOM      7  C   UNL A   1      30.670  25.253  23.094  1.00  0.00     0.040 A 
ATOM      8  C   UNL A   1      29.769  25.766  24.024  1.00  0.00     0.027 A 
ATOM      9  C   UNL A   1      31.299  26.138  22.210  1.00  0.00     0.027 A 
ATOM     10  C   UNL A   1      29.618  27.150  24.168  1.00  0.00     0.016 A 
ATOM     11  C   UNL A   1      31.117  27.518  22.325  1.00  0.00     0.016 A 
BRANCH   7  12
ATOM     12  N   UNL A   1      30.861  23.862  22.982  1.00  0.00    -0.334 N 
ATOM     13  H   UNL A   1      30.312  23.371  22.328  1.00  0.00     0.168 HD
BRANCH  12  14
ATOM     14  C   UNL A   1      31.792  23.127  23.746  1.00  0.00     0.215 A 
ATOM     15  C   UNL A   1      33.977  22.403  24.330  1.00  0.00     0.225 A 
ATOM     16  N   UNL A   1      33.478  21.689  25.363  1.00  0.00    -0.212 NA
ATOM     17  C   UNL A   1      33.141  23.053  23.443  1.00  0.00     0.354 A 
ATOM     18  C   UNL A   1      32.158  21.731  25.543  1.00  0.00     0.227 A 
ATOM     19  N   UNL A   1      31.303  22.445  24.810  1.00  0.00    -0.212 NA
BRANCH  15  20
ATOM     20  N   UNL A   1      35.371  22.502  24.382  1.00  0.00    -0.298 N 
ATOM     21  H   UNL A   1      35.898  21.731  24.071  1.00  0.00     0.184 HD
BRANCH  20  22
ATOM     22  N   UNL A   1      36.077  23.639  24.853  1.00  0.00    -0.228 NA
ATOM     23  C   UNL A   1      35.229  24.482  25.716  1.00  0.00     0.130 C 
ATOM     24  C   UNL A   1      37.201  23.141  25.670  1.00  0.00     0.130 C 
ENDBRANCH  20  22
ENDBRANCH  15  20
BRANCH  17  25
ATOM     25  N   UNL A   1      33.645  23.624  22.232  1.00  0.00     0.070 N 
ATOM     26  O   UNL A   1      34.324  24.659  22.337  1.00  0.00    -0.258 OA
ATOM     27  O   UNL A   1      33.275  23.122  21.161  1.00  0.00    -0.258 OA
ENDBRANCH  17  25
ENDBRANCH  12  14
ENDBRANCH   7  12
ENDBRANCH   3   6
ENDBRANCH   1   2
BRANCH   1  28
ATOM     28  C   UNL A   1      31.835  30.413  26.815  1.00  0.00     0.023 C 
BRANCH  28  29
ATOM     29  C   UNL A   1      31.606  31.927  26.768  1.00  0.00     0.023 C 
BRANCH  29  30
ATOM     30  C   UNL A   1      32.772  32.764  27.282  1.00  0.00     0.116 C 
BRANCH  30  31
ATOM     31  N   UNL A   1      32.394  34.125  27.623  1.00  0.00    -0.352 N 
ATOM     32  C   UNL A   1      32.955  34.954  28.570  1.00  0.00     0.251 C 
ATOM     33  H   UNL A   1      31.643  34.504  27.112  1.00  0.00     0.163 HD
ATOM     34  O   UNL A   1      32.464  36.042  28.818  1.00  0.00    -0.269 OA
BRANCH  32  35
ATOM     35  C   UNL A   1      34.141  34.482  29.312  1.00  0.00     0.039 A 
ATOM     36  C   UNL A   1      33.959  33.872  30.555  1.00  0.00     0.014 A 
ATOM     37  C   UNL A   1      35.420  34.608  28.764  1.00  0.00     0.014 A 
ATOM     38  C   UNL A   1      35.058  33.328  31.225  1.00  0.00     0.010 A 
ATOM     39  C   UNL A   1      36.502  34.012  29.400  1.00  0.00     0.010 A 
ATOM     40  C   UNL A   1      36.332  33.366  30.636  1.00  0.00    -0.014 A 
BRANCH  40  41
ATOM     41  C   UNL A   1      37.511  32.755  31.296  1.00  0.00     0.031 A 
ATOM     42  C   UNL A   1      38.224  31.611  30.631  1.00  0.00     0.074 A 
ATOM     43  C   UNL A   1      37.882  33.167  32.524  1.00  0.00     0.049 A 
ATOM     44  N   UNL A   1      39.182  30.849  31.095  1.00  0.00    -0.248 NA
ATOM     45  C   UNL A   1      37.777  31.257  29.275  1.00  0.00     0.031 C 
ATOM     46  C   UNL A   1      37.242  34.240  33.287  1.00  0.00     0.029 A 
ATOM     47  N   UNL A   1      38.874  32.713  33.356  1.00  0.00    -0.354 N 
ATOM     48  C   UNL A   1      39.430  29.913  30.101  1.00  0.00     0.074 A 
ATOM     49  C   UNL A   1      38.498  30.174  29.026  1.00  0.00     0.031 C 
ATOM     50  C   UNL A   1      37.864  34.367  34.471  1.00  0.00     0.029 A 
ATOM     51  C   UNL A   1      38.918  33.362  34.566  1.00  0.00     0.049 A 
ATOM     52  H   UNL A   1      39.497  31.992  33.109  1.00  0.00     0.167 HD
ATOM     53  C   UNL A   1      40.366  28.934  30.080  1.00  0.00     0.037 A 
ATOM     54  C   UNL A   1      39.710  33.157  35.635  1.00  0.00     0.037 A 
ATOM     55  C   UNL A   1      41.318  28.706  31.134  1.00  0.00     0.049 A 
ATOM     56  C   UNL A   1      40.753  32.072  35.579  1.00  0.00     0.074 A 
ATOM     57  C   UNL A   1      42.344  27.779  31.183  1.00  0.00     0.029 A 
ATOM     58  N   UNL A   1      41.363  29.418  32.323  1.00  0.00    -0.354 N 
ATOM     59  N   UNL A   1      41.019  31.229  34.611  1.00  0.00    -0.248 NA
ATOM     60  C   UNL A   1      41.612  31.915  36.761  1.00  0.00     0.031 C 
ATOM     61  C   UNL A   1      42.991  27.908  32.416  1.00  0.00     0.029 A 
ATOM     62  C   UNL A   1      42.395  28.945  33.117  1.00  0.00     0.049 A 
ATOM     63  H   UNL A   1      40.753  30.151  32.567  1.00  0.00     0.167 HD
ATOM     64  C   UNL A   1      42.095  30.469  35.049  1.00  0.00     0.074 A 
ATOM     65  C   UNL A   1      42.437  30.953  36.369  1.00  0.00     0.031 C 
ATOM     66  C   UNL A   1      42.741  29.462  34.415  1.00  0.00     0.037 A 
BRANCH  53  67
ATOM     67  C   UNL A   1      40.413  28.040  28.878  1.00  0.00     0.064 A 
ATOM     68  C   UNL A   1      41.183  28.364  27.751  1.00  0.00     0.173 A 
ATOM     69  C   UNL A   1      39.715  26.823  28.869  1.00  0.00     0.173 A 
ATOM     70  F   UNL A   1      41.857  29.523  27.706  1.00  0.00    -0.203 F 
ATOM     71  C   UNL A   1      41.235  27.512  26.651  1.00  0.00     0.198 A 
ATOM     72  C   UNL A   1      39.793  25.961  27.778  1.00  0.00     0.198 A 
ATOM     73  F   UNL A   1      38.967  26.464  29.923  1.00  0.00    -0.203 F 
ATOM     74  F   UNL A   1      41.944  27.864  25.569  1.00  0.00    -0.200 F 
ATOM     75  C   UNL A   1      40.547  26.309  26.669  1.00  0.00     0.200 A 
ATOM     76  F   UNL A   1      39.137  24.792  27.802  1.00  0.00    -0.200 F 
ATOM     77  F   UNL A   1      40.608  25.487  25.612  1.00  0.00    -0.200 F 
ENDBRANCH  53  67
BRANCH  54  78
ATOM     78  C   UNL A   1      39.566  34.007  36.846  1.00  0.00     0.064 A 
ATOM     79  C   UNL A   1      40.230  35.238  36.942  1.00  0.00     0.173 A 
ATOM     80  C   UNL A   1      38.783  33.602  37.936  1.00  0.00     0.173 A 
ATOM     81  F   UNL A   1      41.009  35.658  35.934  1.00  0.00    -0.203 F 
ATOM     82  C   UNL A   1      40.138  36.019  38.092  1.00  0.00     0.198 A 
ATOM     83  C   UNL A   1      38.669  34.397  39.074  1.00  0.00     0.198 A 
ATOM     84  F   UNL A   1      38.124  32.435  37.892  1.00  0.00    -0.203 F 
ATOM     85  F   UNL A   1      40.823  37.167  38.176  1.00  0.00    -0.200 F 
ATOM     86  C   UNL A   1      39.353  35.600  39.155  1.00  0.00     0.200 A 
ATOM     87  F   UNL A   1      37.899  33.995  40.096  1.00  0.00    -0.200 F 
ATOM     88  F   UNL A   1      39.265  36.351  40.262  1.00  0.00    -0.200 F 
ENDBRANCH  54  78
BRANCH  66  89
ATOM     89  C   UNL A   1      43.922  28.852  35.108  1.00  0.00     0.064 A 
ATOM     90  C   UNL A   1      43.788  27.749  35.961  1.00  0.00     0.173 A 
ATOM     91  C   UNL A   1      45.213  29.344  34.861  1.00  0.00     0.173 A 
ATOM     92  F   UNL A   1      42.572  27.253  36.239  1.00  0.00    -0.203 F 
ATOM     93  C   UNL A   1      44.905  27.168  36.557  1.00  0.00     0.198 A 
ATOM     94  C   UNL A   1      46.329  28.744  35.437  1.00  0.00     0.198 A 
ATOM     95  F   UNL A   1      45.393  30.393  34.046  1.00  0.00    -0.203 F 
ATOM     96  F   UNL A   1      44.752  26.135  37.397  1.00  0.00    -0.200 F 
ATOM     97  C   UNL A   1      46.174  27.659  36.287  1.00  0.00     0.200 A 
ATOM     98  F   UNL A   1      47.555  29.212  35.165  1.00  0.00    -0.200 F 
ATOM     99  F   UNL A   1      47.248  27.090  36.851  1.00  0.00    -0.200 F 
ENDBRANCH  66  89
ENDBRANCH  40  41
ENDBRANCH  32  35
ENDBRANCH  30  31
ENDBRANCH  29  30
ENDBRANCH  28  29
ENDBRANCH   1  28
TORSDOF 16
ENDMDL
