MODEL 1
REMARK VINA RESULT:     -11.8      0.000      0.000
REMARK SMILES CCOc1c(F)cccc1C(=O)NCCCCNC(=O)c1ccc(-c2c3nc(c(-c4c(F)c(F)c(F)c(F)c4F)c4ccc([nH]4)c(-c4c(F)c(F)c(F)c(F)c4F)c4nc(c(-c5c(F)c(F)c(F)c(F)c5F)c5ccc2[nH]5)C=C4)C=C3)cc1
REMARK SMILES IDX 15 1 14 2 13 3 11 4 12 5 10 7 4 8 5 9 6 10 7 11 9 12 8 13
REMARK SMILES IDX 3 14 2 15 1 16 16 17 17 18 18 19 19 20 20 22 21 23 22 24
REMARK SMILES IDX 83 25 23 26 82 27 24 28 25 29 26 30 76 31 27 32 81 33 75 34
REMARK SMILES IDX 77 35 28 36 80 37 74 38 73 39 29 41 61 42 41 43 60 44 42 45
REMARK SMILES IDX 45 46 59 47 78 48 43 49 44 50 58 52 79 53 46 54 30 55 31 56
REMARK SMILES IDX 39 57 32 58 33 59 37 60 40 61 34 62 35 63 38 64 36 65 62 66
REMARK SMILES IDX 63 67 71 68 64 69 65 70 69 71 72 72 66 73 67 74 70 75 68 76
REMARK SMILES IDX 47 77 48 78 56 79 49 80 50 81 54 82 57 83 51 84 52 85 55 86
REMARK SMILES IDX 53 87
REMARK H PARENT 13 6 18 21 77 40 45 51
REMARK Flexibility Score: inf
ROOT
ATOM      1  C   UNL A   1      31.783  30.450  26.755  1.00  0.00     0.023 C 
ENDROOT
BRANCH   1   2
ATOM      2  C   UNL A   1      33.095  29.782  26.341  1.00  0.00     0.116 C 
BRANCH   2   3
ATOM      3  N   UNL A   1      33.204  29.702  24.905  1.00  0.00    -0.352 N 
ATOM      4  C   UNL A   1      32.479  29.181  23.875  1.00  0.00     0.255 C 
ATOM      5  O   UNL A   1      33.047  29.329  22.781  1.00  0.00    -0.269 OA
ATOM      6  H   UNL A   1      34.024  30.143  24.582  1.00  0.00     0.163 HD
BRANCH   4   7
ATOM      7  C   UNL A   1      31.138  28.491  23.876  1.00  0.00     0.084 A 
ATOM      8  C   UNL A   1      29.884  28.889  23.388  1.00  0.00     0.167 A 
ATOM      9  C   UNL A   1      28.826  27.953  23.355  1.00  0.00     0.165 A 
ATOM     10  F   UNL A   1      27.669  28.267  22.753  1.00  0.00    -0.203 F 
ATOM     11  C   UNL A   1      28.933  26.679  23.893  1.00  0.00     0.043 A 
ATOM     12  C   UNL A   1      31.211  27.181  24.432  1.00  0.00     0.018 A 
ATOM     13  C   UNL A   1      30.131  26.293  24.456  1.00  0.00     0.004 A 
BRANCH   8  14
ATOM     14  O   UNL A   1      29.622  30.111  22.837  1.00  0.00    -0.490 OA
BRANCH  14  15
ATOM     15  C   UNL A   1      29.148  31.071  23.796  1.00  0.00     0.226 C 
ATOM     16  C   UNL A   1      27.750  31.582  23.499  1.00  0.00     0.049 C 
ENDBRANCH  14  15
ENDBRANCH   8  14
ENDBRANCH   4   7
ENDBRANCH   2   3
ENDBRANCH   1   2
BRANCH   1  17
ATOM     17  C   UNL A   1      31.748  31.966  26.545  1.00  0.00     0.023 C 
BRANCH  17  18
ATOM     18  C   UNL A   1      32.801  32.751  27.325  1.00  0.00     0.116 C 
BRANCH  18  19
ATOM     19  N   UNL A   1      32.429  34.130  27.617  1.00  0.00    -0.352 N 
ATOM     20  C   UNL A   1      32.974  34.966  28.566  1.00  0.00     0.251 C 
ATOM     21  H   UNL A   1      31.703  34.509  27.072  1.00  0.00     0.163 HD
ATOM     22  O   UNL A   1      32.533  36.090  28.754  1.00  0.00    -0.269 OA
BRANCH  20  23
ATOM     23  C   UNL A   1      34.077  34.445  29.394  1.00  0.00     0.039 A 
ATOM     24  C   UNL A   1      33.771  33.746  30.562  1.00  0.00     0.014 A 
ATOM     25  C   UNL A   1      35.394  34.556  28.944  1.00  0.00     0.014 A 
ATOM     26  C   UNL A   1      34.787  33.069  31.238  1.00  0.00     0.010 A 
ATOM     27  C   UNL A   1      36.390  33.829  29.579  1.00  0.00     0.010 A 
ATOM     28  C   UNL A   1      36.092  33.065  30.721  1.00  0.00    -0.014 A 
BRANCH  28  29
ATOM     29  C   UNL A   1      37.169  32.251  31.330  1.00  0.00     0.031 A 
ATOM     30  C   UNL A   1      37.663  32.584  32.705  1.00  0.00     0.074 A 
ATOM     31  C   UNL A   1      37.781  31.301  30.597  1.00  0.00     0.049 A 
ATOM     32  N   UNL A   1      38.703  32.118  33.346  1.00  0.00    -0.248 NA
ATOM     33  C   UNL A   1      36.907  33.608  33.443  1.00  0.00     0.031 C 
ATOM     34  C   UNL A   1      37.425  30.927  29.228  1.00  0.00     0.029 A 
ATOM     35  N   UNL A   1      38.851  30.496  30.896  1.00  0.00    -0.354 N 
ATOM     36  C   UNL A   1      38.753  32.823  34.539  1.00  0.00     0.074 A 
ATOM     37  C   UNL A   1      37.656  33.766  34.523  1.00  0.00     0.031 C 
ATOM     38  C   UNL A   1      38.252  29.955  28.810  1.00  0.00     0.029 A 
ATOM     39  C   UNL A   1      39.220  29.667  29.864  1.00  0.00     0.049 A 
ATOM     40  H   UNL A   1      39.311  30.510  31.767  1.00  0.00     0.167 HD
ATOM     41  C   UNL A   1      39.629  32.684  35.560  1.00  0.00     0.037 A 
ATOM     42  C   UNL A   1      40.232  28.784  29.774  1.00  0.00     0.037 A 
ATOM     43  C   UNL A   1      40.678  31.701  35.594  1.00  0.00     0.049 A 
ATOM     44  C   UNL A   1      41.164  28.611  30.940  1.00  0.00     0.074 A 
ATOM     45  C   UNL A   1      41.552  31.410  36.626  1.00  0.00     0.029 A 
ATOM     46  N   UNL A   1      40.989  30.844  34.547  1.00  0.00    -0.354 N 
ATOM     47  N   UNL A   1      41.170  29.242  32.088  1.00  0.00    -0.248 NA
ATOM     48  C   UNL A   1      42.229  27.607  30.800  1.00  0.00     0.031 C 
ATOM     49  C   UNL A   1      42.412  30.395  36.194  1.00  0.00     0.029 A 
ATOM     50  C   UNL A   1      42.052  30.033  34.905  1.00  0.00     0.049 A 
ATOM     51  H   UNL A   1      40.523  30.817  33.681  1.00  0.00     0.167 HD
ATOM     52  C   UNL A   1      42.223  28.704  32.814  1.00  0.00     0.074 A 
ATOM     53  C   UNL A   1      42.834  27.691  31.978  1.00  0.00     0.031 C 
ATOM     54  C   UNL A   1      42.641  29.023  34.062  1.00  0.00     0.037 A 
BRANCH  41  55
ATOM     55  C   UNL A   1      39.488  33.613  36.726  1.00  0.00     0.064 A 
ATOM     56  C   UNL A   1      40.171  34.838  36.741  1.00  0.00     0.173 A 
ATOM     57  C   UNL A   1      38.699  33.285  37.838  1.00  0.00     0.173 A 
ATOM     58  F   UNL A   1      40.942  35.197  35.703  1.00  0.00    -0.203 F 
ATOM     59  C   UNL A   1      40.067  35.701  37.829  1.00  0.00     0.198 A 
ATOM     60  C   UNL A   1      38.576  34.162  38.912  1.00  0.00     0.198 A 
ATOM     61  F   UNL A   1      38.016  32.131  37.864  1.00  0.00    -0.203 F 
ATOM     62  F   UNL A   1      40.741  36.861  37.829  1.00  0.00    -0.200 F 
ATOM     63  C   UNL A   1      39.265  35.367  38.909  1.00  0.00     0.200 A 
ATOM     64  F   UNL A   1      37.780  33.850  39.942  1.00  0.00    -0.200 F 
ATOM     65  F   UNL A   1      39.147  36.209  39.944  1.00  0.00    -0.200 F 
ENDBRANCH  41  55
BRANCH  42  66
ATOM     66  C   UNL A   1      40.382  27.980  28.538  1.00  0.00     0.064 A 
ATOM     67  C   UNL A   1      39.819  26.701  28.422  1.00  0.00     0.173 A 
ATOM     68  C   UNL A   1      41.153  28.456  27.468  1.00  0.00     0.173 A 
ATOM     69  F   UNL A   1      39.082  26.201  29.424  1.00  0.00    -0.203 F 
ATOM     70  C   UNL A   1      40.042  25.919  27.291  1.00  0.00     0.198 A 
ATOM     71  C   UNL A   1      41.361  27.680  26.330  1.00  0.00     0.198 A 
ATOM     72  F   UNL A   1      41.697  29.680  27.531  1.00  0.00    -0.203 F 
ATOM     73  F   UNL A   1      39.522  24.686  27.218  1.00  0.00    -0.200 F 
ATOM     74  C   UNL A   1      40.812  26.409  26.247  1.00  0.00     0.200 A 
ATOM     75  F   UNL A   1      42.094  28.162  25.318  1.00  0.00    -0.200 F 
ATOM     76  F   UNL A   1      41.028  25.655  25.159  1.00  0.00    -0.200 F 
ENDBRANCH  42  66
BRANCH  54  77
ATOM     77  C   UNL A   1      43.804  28.265  34.624  1.00  0.00     0.064 A 
ATOM     78  C   UNL A   1      45.116  28.690  34.364  1.00  0.00     0.173 A 
ATOM     79  C   UNL A   1      43.621  27.062  35.317  1.00  0.00     0.173 A 
ATOM     80  F   UNL A   1      45.337  29.832  33.697  1.00  0.00    -0.203 F 
ATOM     81  C   UNL A   1      46.205  27.920  34.760  1.00  0.00     0.198 A 
ATOM     82  C   UNL A   1      44.714  26.304  35.727  1.00  0.00     0.198 A 
ATOM     83  F   UNL A   1      42.384  26.625  35.596  1.00  0.00    -0.203 F 
ATOM     84  F   UNL A   1      47.450  28.323  34.468  1.00  0.00    -0.200 F 
ATOM     85  C   UNL A   1      46.004  26.727  35.438  1.00  0.00     0.200 A 
ATOM     86  F   UNL A   1      44.520  25.159  36.396  1.00  0.00    -0.200 F 
ATOM     87  F   UNL A   1      47.054  25.982  35.812  1.00  0.00    -0.200 F 
ENDBRANCH  54  77
ENDBRANCH  28  29
ENDBRANCH  20  23
ENDBRANCH  18  19
ENDBRANCH  17  18
ENDBRANCH   1  17
TORSDOF 13
ENDMDL
MODEL 2
REMARK VINA RESULT:     -11.5      1.111      7.751
REMARK SMILES CCOc1c(F)cccc1C(=O)NCCCCNC(=O)c1ccc(-c2c3nc(c(-c4c(F)c(F)c(F)c(F)c4F)c4ccc([nH]4)c(-c4c(F)c(F)c(F)c(F)c4F)c4nc(c(-c5c(F)c(F)c(F)c(F)c5F)c5ccc2[nH]5)C=C4)C=C3)cc1
REMARK SMILES IDX 15 1 14 2 13 3 11 4 12 5 10 7 4 8 5 9 6 10 7 11 9 12 8 13
REMARK SMILES IDX 3 14 2 15 1 16 16 17 17 18 18 19 19 20 20 22 21 23 22 24
REMARK SMILES IDX 83 25 23 26 82 27 24 28 25 29 26 30 76 31 27 32 81 33 75 34
REMARK SMILES IDX 77 35 28 36 80 37 74 38 73 39 29 41 61 42 41 43 60 44 42 45
REMARK SMILES IDX 45 46 59 47 78 48 43 49 44 50 58 52 79 53 46 54 30 55 31 56
REMARK SMILES IDX 39 57 32 58 33 59 37 60 40 61 34 62 35 63 38 64 36 65 62 66
REMARK SMILES IDX 63 67 71 68 64 69 65 70 69 71 72 72 66 73 67 74 70 75 68 76
REMARK SMILES IDX 47 77 48 78 56 79 49 80 50 81 54 82 57 83 51 84 52 85 55 86
REMARK SMILES IDX 53 87
REMARK H PARENT 13 6 18 21 77 40 45 51
REMARK Flexibility Score: inf
ROOT
ATOM      1  C   UNL A   1      32.313  29.862  27.130  1.00  0.00     0.023 C 
ENDROOT
BRANCH   1   2
ATOM      2  C   UNL A   1      33.693  29.301  26.787  1.00  0.00     0.116 C 
BRANCH   2   3
ATOM      3  N   UNL A   1      33.902  29.279  25.360  1.00  0.00    -0.352 N 
ATOM      4  C   UNL A   1      33.273  28.766  24.265  1.00  0.00     0.255 C 
ATOM      5  O   UNL A   1      33.906  28.979  23.219  1.00  0.00    -0.269 OA
ATOM      6  H   UNL A   1      34.721  29.767  25.109  1.00  0.00     0.163 HD
BRANCH   4   7
ATOM      7  C   UNL A   1      31.969  28.018  24.150  1.00  0.00     0.084 A 
ATOM      8  C   UNL A   1      31.440  26.947  24.887  1.00  0.00     0.167 A 
ATOM      9  C   UNL A   1      30.097  26.561  24.679  1.00  0.00     0.165 A 
ATOM     10  F   UNL A   1      29.529  25.645  25.478  1.00  0.00    -0.203 F 
ATOM     11  C   UNL A   1      29.298  27.119  23.692  1.00  0.00     0.043 A 
ATOM     12  C   UNL A   1      31.127  28.560  23.136  1.00  0.00     0.018 A 
ATOM     13  C   UNL A   1      29.824  28.116  22.897  1.00  0.00     0.004 A 
BRANCH   8  14
ATOM     14  O   UNL A   1      32.106  26.292  25.884  1.00  0.00    -0.490 OA
BRANCH  14  15
ATOM     15  C   UNL A   1      32.803  25.123  25.423  1.00  0.00     0.226 C 
ATOM     16  C   UNL A   1      34.309  25.300  25.369  1.00  0.00     0.049 C 
ENDBRANCH  14  15
ENDBRANCH   8  14
ENDBRANCH   4   7
ENDBRANCH   2   3
ENDBRANCH   1   2
BRANCH   1  17
ATOM     17  C   UNL A   1      32.126  31.343  26.791  1.00  0.00     0.023 C 
BRANCH  17  18
ATOM     18  C   UNL A   1      33.070  32.297  27.520  1.00  0.00     0.116 C 
BRANCH  18  19
ATOM     19  N   UNL A   1      32.579  33.665  27.628  1.00  0.00    -0.352 N 
ATOM     20  C   UNL A   1      33.067  34.675  28.427  1.00  0.00     0.251 C 
ATOM     21  H   UNL A   1      31.806  33.894  27.063  1.00  0.00     0.163 HD
ATOM     22  O   UNL A   1      32.528  35.771  28.470  1.00  0.00    -0.269 OA
BRANCH  20  23
ATOM     23  C   UNL A   1      34.236  34.380  29.276  1.00  0.00     0.039 A 
ATOM     24  C   UNL A   1      34.028  33.822  30.538  1.00  0.00     0.014 A 
ATOM     25  C   UNL A   1      35.524  34.552  28.767  1.00  0.00     0.014 A 
ATOM     26  C   UNL A   1      35.122  33.345  31.261  1.00  0.00     0.010 A 
ATOM     27  C   UNL A   1      36.603  34.017  29.457  1.00  0.00     0.010 A 
ATOM     28  C   UNL A   1      36.408  33.393  30.701  1.00  0.00    -0.014 A 
BRANCH  28  29
ATOM     29  C   UNL A   1      37.575  32.776  31.374  1.00  0.00     0.031 A 
ATOM     30  C   UNL A   1      38.281  31.625  30.726  1.00  0.00     0.074 A 
ATOM     31  C   UNL A   1      37.912  33.170  32.617  1.00  0.00     0.049 A 
ATOM     32  N   UNL A   1      39.200  30.834  31.217  1.00  0.00    -0.248 NA
ATOM     33  C   UNL A   1      37.869  31.291  29.353  1.00  0.00     0.031 C 
ATOM     34  C   UNL A   1      37.262  34.243  33.370  1.00  0.00     0.029 A 
ATOM     35  N   UNL A   1      38.872  32.694  33.474  1.00  0.00    -0.354 N 
ATOM     36  C   UNL A   1      39.442  29.887  30.234  1.00  0.00     0.074 A 
ATOM     37  C   UNL A   1      38.556  30.182  29.129  1.00  0.00     0.031 C 
ATOM     38  C   UNL A   1      37.850  34.352  34.573  1.00  0.00     0.029 A 
ATOM     39  C   UNL A   1      38.890  33.334  34.689  1.00  0.00     0.049 A 
ATOM     40  H   UNL A   1      39.489  31.963  33.240  1.00  0.00     0.167 HD
ATOM     41  C   UNL A   1      40.334  28.870  30.251  1.00  0.00     0.037 A 
ATOM     42  C   UNL A   1      39.650  33.115  35.779  1.00  0.00     0.037 A 
ATOM     43  C   UNL A   1      41.255  28.622  31.327  1.00  0.00     0.049 A 
ATOM     44  C   UNL A   1      40.669  32.012  35.756  1.00  0.00     0.074 A 
ATOM     45  C   UNL A   1      42.268  27.683  31.395  1.00  0.00     0.029 A 
ATOM     46  N   UNL A   1      41.275  29.325  32.524  1.00  0.00    -0.354 N 
ATOM     47  N   UNL A   1      40.931  31.154  34.801  1.00  0.00    -0.248 NA
ATOM     48  C   UNL A   1      41.495  31.841  36.960  1.00  0.00     0.031 C 
ATOM     49  C   UNL A   1      42.884  27.797  32.645  1.00  0.00     0.029 A 
ATOM     50  C   UNL A   1      42.276  28.829  33.342  1.00  0.00     0.049 A 
ATOM     51  H   UNL A   1      40.669  30.065  32.755  1.00  0.00     0.167 HD
ATOM     52  C   UNL A   1      41.961  30.355  35.276  1.00  0.00     0.074 A 
ATOM     53  C   UNL A   1      42.280  30.830  36.607  1.00  0.00     0.031 C 
ATOM     54  C   UNL A   1      42.584  29.322  34.661  1.00  0.00     0.037 A 
BRANCH  41  55
ATOM     55  C   UNL A   1      40.361  27.952  29.067  1.00  0.00     0.064 A 
ATOM     56  C   UNL A   1      41.113  28.286  27.930  1.00  0.00     0.173 A 
ATOM     57  C   UNL A   1      39.627  26.758  29.045  1.00  0.00     0.173 A 
ATOM     58  F   UNL A   1      41.829  29.420  27.900  1.00  0.00    -0.203 F 
ATOM     59  C   UNL A   1      41.127  27.453  26.814  1.00  0.00     0.198 A 
ATOM     60  C   UNL A   1      39.666  25.915  27.938  1.00  0.00     0.198 A 
ATOM     61  F   UNL A   1      38.904  26.390  30.113  1.00  0.00    -0.203 F 
ATOM     62  F   UNL A   1      41.840  27.799  25.733  1.00  0.00    -0.200 F 
ATOM     63  C   UNL A   1      40.411  26.266  26.821  1.00  0.00     0.200 A 
ATOM     64  F   UNL A   1      38.994  24.756  27.957  1.00  0.00    -0.200 F 
ATOM     65  F   UNL A   1      40.445  25.455  25.756  1.00  0.00    -0.200 F 
ENDBRANCH  41  55
BRANCH  42  66
ATOM     66  C   UNL A   1      39.485  33.991  36.963  1.00  0.00     0.064 A 
ATOM     67  C   UNL A   1      40.158  35.217  37.068  1.00  0.00     0.173 A 
ATOM     68  C   UNL A   1      38.695  33.582  38.047  1.00  0.00     0.173 A 
ATOM     69  F   UNL A   1      40.932  35.644  36.060  1.00  0.00    -0.203 F 
ATOM     70  C   UNL A   1      40.066  35.989  38.223  1.00  0.00     0.198 A 
ATOM     71  C   UNL A   1      38.589  34.364  39.195  1.00  0.00     0.198 A 
ATOM     72  F   UNL A   1      38.021  32.424  37.982  1.00  0.00    -0.203 F 
ATOM     73  F   UNL A   1      40.746  37.140  38.314  1.00  0.00    -0.200 F 
ATOM     74  C   UNL A   1      39.282  35.563  39.285  1.00  0.00     0.200 A 
ATOM     75  F   UNL A   1      37.820  33.955  40.213  1.00  0.00    -0.200 F 
ATOM     76  F   UNL A   1      39.195  36.305  40.398  1.00  0.00    -0.200 F 
ENDBRANCH  42  66
BRANCH  54  77
ATOM     77  C   UNL A   1      43.691  28.635  35.399  1.00  0.00     0.064 A 
ATOM     78  C   UNL A   1      45.027  28.987  35.156  1.00  0.00     0.173 A 
ATOM     79  C   UNL A   1      43.435  27.556  36.254  1.00  0.00     0.173 A 
ATOM     80  F   UNL A   1      45.319  30.010  34.338  1.00  0.00    -0.203 F 
ATOM     81  C   UNL A   1      46.070  28.265  35.727  1.00  0.00     0.198 A 
ATOM     82  C   UNL A   1      44.481  26.847  36.839  1.00  0.00     0.198 A 
ATOM     83  F   UNL A   1      42.172  27.193  36.523  1.00  0.00    -0.203 F 
ATOM     84  F   UNL A   1      47.341  28.593  35.452  1.00  0.00    -0.200 F 
ATOM     85  C   UNL A   1      45.797  27.195  36.566  1.00  0.00     0.200 A 
ATOM     86  F   UNL A   1      44.217  25.823  37.660  1.00  0.00    -0.200 F 
ATOM     87  F   UNL A   1      46.802  26.494  37.109  1.00  0.00    -0.200 F 
ENDBRANCH  54  77
ENDBRANCH  28  29
ENDBRANCH  20  23
ENDBRANCH  18  19
ENDBRANCH  17  18
ENDBRANCH   1  17
TORSDOF 13
ENDMDL
MODEL 3
REMARK VINA RESULT:     -11.5      0.822      7.609
REMARK SMILES CCOc1c(F)cccc1C(=O)NCCCCNC(=O)c1ccc(-c2c3nc(c(-c4c(F)c(F)c(F)c(F)c4F)c4ccc([nH]4)c(-c4c(F)c(F)c(F)c(F)c4F)c4nc(c(-c5c(F)c(F)c(F)c(F)c5F)c5ccc2[nH]5)C=C4)C=C3)cc1
REMARK SMILES IDX 15 1 14 2 13 3 11 4 12 5 10 7 4 8 5 9 6 10 7 11 9 12 8 13
REMARK SMILES IDX 3 14 2 15 1 16 16 17 17 18 18 19 19 20 20 22 21 23 22 24
REMARK SMILES IDX 83 25 23 26 82 27 24 28 25 29 26 30 76 31 27 32 81 33 75 34
REMARK SMILES IDX 77 35 28 36 80 37 74 38 73 39 29 41 61 42 41 43 60 44 42 45
REMARK SMILES IDX 45 46 59 47 78 48 43 49 44 50 58 52 79 53 46 54 30 55 31 56
REMARK SMILES IDX 39 57 32 58 33 59 37 60 40 61 34 62 35 63 38 64 36 65 62 66
REMARK SMILES IDX 63 67 71 68 64 69 65 70 69 71 72 72 66 73 67 74 70 75 68 76
REMARK SMILES IDX 47 77 48 78 56 79 49 80 50 81 54 82 57 83 51 84 52 85 55 86
REMARK SMILES IDX 53 87
REMARK H PARENT 13 6 18 21 77 40 45 51
REMARK Flexibility Score: inf
ROOT
ATOM      1  C   UNL A   1      32.527  30.025  27.183  1.00  0.00     0.023 C 
ENDROOT
BRANCH   1   2
ATOM      2  C   UNL A   1      33.747  29.483  26.438  1.00  0.00     0.116 C 
BRANCH   2   3
ATOM      3  N   UNL A   1      33.506  29.433  25.018  1.00  0.00    -0.352 N 
ATOM      4  C   UNL A   1      32.646  28.798  24.171  1.00  0.00     0.255 C 
ATOM      5  O   UNL A   1      32.889  29.052  22.981  1.00  0.00    -0.269 OA
ATOM      6  H   UNL A   1      34.130  30.016  24.526  1.00  0.00     0.163 HD
BRANCH   4   7
ATOM      7  C   UNL A   1      31.488  27.879  24.465  1.00  0.00     0.084 A 
ATOM      8  C   UNL A   1      30.256  27.695  23.818  1.00  0.00     0.167 A 
ATOM      9  C   UNL A   1      29.426  26.619  24.204  1.00  0.00     0.165 A 
ATOM     10  F   UNL A   1      28.321  26.335  23.499  1.00  0.00    -0.203 F 
ATOM     11  C   UNL A   1      29.717  25.794  25.280  1.00  0.00     0.043 A 
ATOM     12  C   UNL A   1      31.750  27.023  25.574  1.00  0.00     0.018 A 
ATOM     13  C   UNL A   1      30.882  26.009  25.987  1.00  0.00     0.004 A 
BRANCH   8  14
ATOM     14  O   UNL A   1      29.827  28.431  22.751  1.00  0.00    -0.490 OA
BRANCH  14  15
ATOM     15  C   UNL A   1      29.162  29.647  23.135  1.00  0.00     0.226 C 
ATOM     16  C   UNL A   1      27.659  29.605  22.929  1.00  0.00     0.049 C 
ENDBRANCH  14  15
ENDBRANCH   8  14
ENDBRANCH   4   7
ENDBRANCH   2   3
ENDBRANCH   1   2
BRANCH   1  17
ATOM     17  C   UNL A   1      32.210  31.495  26.900  1.00  0.00     0.023 C 
BRANCH  17  18
ATOM     18  C   UNL A   1      33.200  32.495  27.493  1.00  0.00     0.116 C 
BRANCH  18  19
ATOM     19  N   UNL A   1      32.651  33.828  27.711  1.00  0.00    -0.352 N 
ATOM     20  C   UNL A   1      33.100  34.790  28.588  1.00  0.00     0.251 C 
ATOM     21  H   UNL A   1      31.867  34.069  27.168  1.00  0.00     0.163 HD
ATOM     22  O   UNL A   1      32.515  35.855  28.720  1.00  0.00    -0.269 OA
BRANCH  20  23
ATOM     23  C   UNL A   1      34.285  34.479  29.408  1.00  0.00     0.039 A 
ATOM     24  C   UNL A   1      34.101  33.905  30.667  1.00  0.00     0.014 A 
ATOM     25  C   UNL A   1      35.563  34.652  28.875  1.00  0.00     0.014 A 
ATOM     26  C   UNL A   1      35.207  33.412  31.360  1.00  0.00     0.010 A 
ATOM     27  C   UNL A   1      36.653  34.102  29.535  1.00  0.00     0.010 A 
ATOM     28  C   UNL A   1      36.482  33.463  30.775  1.00  0.00    -0.014 A 
BRANCH  28  29
ATOM     29  C   UNL A   1      37.658  32.831  31.415  1.00  0.00     0.031 A 
ATOM     30  C   UNL A   1      38.351  31.691  30.732  1.00  0.00     0.074 A 
ATOM     31  C   UNL A   1      38.019  33.201  32.659  1.00  0.00     0.049 A 
ATOM     32  N   UNL A   1      39.277  30.890  31.192  1.00  0.00    -0.248 NA
ATOM     33  C   UNL A   1      37.914  31.385  29.361  1.00  0.00     0.031 C 
ATOM     34  C   UNL A   1      37.384  34.259  33.444  1.00  0.00     0.029 A 
ATOM     35  N   UNL A   1      38.992  32.706  33.489  1.00  0.00    -0.354 N 
ATOM     36  C   UNL A   1      39.501  29.962  30.187  1.00  0.00     0.074 A 
ATOM     37  C   UNL A   1      38.595  30.279  29.104  1.00  0.00     0.031 C 
ATOM     38  C   UNL A   1      37.993  34.345  34.638  1.00  0.00     0.029 A 
ATOM     39  C   UNL A   1      39.033  33.323  34.716  1.00  0.00     0.049 A 
ATOM     40  H   UNL A   1      39.604  31.979  33.231  1.00  0.00     0.167 HD
ATOM     41  C   UNL A   1      40.391  28.943  30.168  1.00  0.00     0.037 A 
ATOM     42  C   UNL A   1      39.812  33.082  35.788  1.00  0.00     0.037 A 
ATOM     43  C   UNL A   1      41.330  28.673  31.223  1.00  0.00     0.049 A 
ATOM     44  C   UNL A   1      40.828  31.978  35.726  1.00  0.00     0.074 A 
ATOM     45  C   UNL A   1      42.342  27.731  31.254  1.00  0.00     0.029 A 
ATOM     46  N   UNL A   1      41.372  29.353  32.432  1.00  0.00    -0.354 N 
ATOM     47  N   UNL A   1      41.072  31.139  34.750  1.00  0.00    -0.248 NA
ATOM     48  C   UNL A   1      41.676  31.783  36.911  1.00  0.00     0.031 C 
ATOM     49  C   UNL A   1      42.981  27.821  32.495  1.00  0.00     0.029 A 
ATOM     50  C   UNL A   1      42.387  28.840  33.222  1.00  0.00     0.049 A 
ATOM     51  H   UNL A   1      40.772  30.089  32.688  1.00  0.00     0.167 HD
ATOM     52  C   UNL A   1      42.109  30.328  35.191  1.00  0.00     0.074 A 
ATOM     53  C   UNL A   1      42.452  30.778  36.525  1.00  0.00     0.031 C 
ATOM     54  C   UNL A   1      42.719  29.307  34.545  1.00  0.00     0.037 A 
BRANCH  41  55
ATOM     55  C   UNL A   1      40.395  28.049  28.966  1.00  0.00     0.064 A 
ATOM     56  C   UNL A   1      41.137  28.396  27.828  1.00  0.00     0.173 A 
ATOM     57  C   UNL A   1      39.648  26.862  28.929  1.00  0.00     0.173 A 
ATOM     58  F   UNL A   1      41.865  29.523  27.812  1.00  0.00    -0.203 F 
ATOM     59  C   UNL A   1      41.131  27.586  26.696  1.00  0.00     0.198 A 
ATOM     60  C   UNL A   1      39.666  26.041  27.806  1.00  0.00     0.198 A 
ATOM     61  F   UNL A   1      38.934  26.481  29.998  1.00  0.00    -0.203 F 
ATOM     62  F   UNL A   1      41.836  27.945  25.613  1.00  0.00    -0.200 F 
ATOM     63  C   UNL A   1      40.403  26.406  26.688  1.00  0.00     0.200 A 
ATOM     64  F   UNL A   1      38.983  24.889  27.810  1.00  0.00    -0.200 F 
ATOM     65  F   UNL A   1      40.416  25.615  25.606  1.00  0.00    -0.200 F 
ENDBRANCH  41  55
BRANCH  42  66
ATOM     66  C   UNL A   1      39.669  33.935  36.991  1.00  0.00     0.064 A 
ATOM     67  C   UNL A   1      38.858  33.553  38.069  1.00  0.00     0.173 A 
ATOM     68  C   UNL A   1      40.296  35.188  37.054  1.00  0.00     0.173 A 
ATOM     69  F   UNL A   1      38.231  32.368  38.049  1.00  0.00    -0.203 F 
ATOM     70  C   UNL A   1      38.660  34.403  39.155  1.00  0.00     0.198 A 
ATOM     71  C   UNL A   1      40.112  36.029  38.149  1.00  0.00     0.198 A 
ATOM     72  F   UNL A   1      41.093  35.586  36.052  1.00  0.00    -0.203 F 
ATOM     73  F   UNL A   1      37.853  34.030  40.158  1.00  0.00    -0.200 F 
ATOM     74  C   UNL A   1      39.287  35.639  39.194  1.00  0.00     0.200 A 
ATOM     75  F   UNL A   1      40.729  37.217  38.189  1.00  0.00    -0.200 F 
ATOM     76  F   UNL A   1      39.095  36.458  40.238  1.00  0.00    -0.200 F 
ENDBRANCH  42  66
BRANCH  54  77
ATOM     77  C   UNL A   1      43.838  28.604  35.250  1.00  0.00     0.064 A 
ATOM     78  C   UNL A   1      43.562  27.558  36.144  1.00  0.00     0.173 A 
ATOM     79  C   UNL A   1      45.163  29.041  35.128  1.00  0.00     0.173 A 
ATOM     80  F   UNL A   1      42.306  27.113  36.298  1.00  0.00    -0.203 F 
ATOM     81  C   UNL A   1      44.576  26.991  36.911  1.00  0.00     0.198 A 
ATOM     82  C   UNL A   1      46.177  28.457  35.883  1.00  0.00     0.198 A 
ATOM     83  F   UNL A   1      45.471  30.030  34.277  1.00  0.00    -0.203 F 
ATOM     84  F   UNL A   1      44.286  26.019  37.788  1.00  0.00    -0.200 F 
ATOM     85  C   UNL A   1      45.881  27.442  36.782  1.00  0.00     0.200 A 
ATOM     86  F   UNL A   1      47.440  28.883  35.748  1.00  0.00    -0.200 F 
ATOM     87  F   UNL A   1      46.854  26.900  37.526  1.00  0.00    -0.200 F 
ENDBRANCH  54  77
ENDBRANCH  28  29
ENDBRANCH  20  23
ENDBRANCH  18  19
ENDBRANCH  17  18
ENDBRANCH   1  17
TORSDOF 13
ENDMDL
