MODEL 1
REMARK VINA RESULT:     -12.6      0.000      0.000
REMARK SMILES CCOC(=O)c1c(NC(=O)/C=C/C(=O)NCCCCNC(=O)c2ccc(-c3c4nc(c(-c5c(F)c(F)c(F)c(F)c5F)c5ccc([nH]5)c(-c5c(F)c(F)c(F)c(F)c5F)c5nc(c(-c6c(F)c(F)c(F)c(F)c6F)c6ccc3[nH]6)C=C5)C=C4)cc2)sc(C)c1-c1ccc(C)c(C)c1
REMARK SMILES IDX 16 1 15 2 13 3 14 4 12 6 11 7 9 8 8 9 10 11 7 12 6 13 89 14
REMARK SMILES IDX 86 15 87 16 88 17 4 18 5 19 3 20 2 21 1 22 90 23 91 24 97 25
REMARK SMILES IDX 92 26 95 27 93 28 96 29 94 30 17 31 18 32 19 33 20 34 21 35
REMARK SMILES IDX 22 37 23 38 24 39 85 40 25 41 84 42 26 43 27 44 28 45 78 46
REMARK SMILES IDX 29 47 83 48 77 49 79 50 30 51 82 52 76 53 75 54 31 56 63 57
REMARK SMILES IDX 43 58 62 59 44 60 47 61 61 62 80 63 45 64 46 65 60 67 81 68
REMARK SMILES IDX 48 69 32 70 33 71 41 72 34 73 35 74 39 75 42 76 36 77 37 78
REMARK SMILES IDX 40 79 38 80 64 81 65 82 73 83 66 84 67 85 71 86 74 87 68 88
REMARK SMILES IDX 69 89 72 90 70 91 49 92 50 93 58 94 51 95 52 96 56 97 59 98
REMARK SMILES IDX 53 99 54 100 57 101 55 102
REMARK H PARENT 15 5 8 10 20 36 79 55 47 66
REMARK Flexibility Score: inf
ROOT
ATOM      1  C   UNL A   1      30.431  31.649  24.992  1.00  0.00     0.116 C 
ENDROOT
BRANCH   1   2
ATOM      2  N   UNL A   1      29.752  32.647  24.192  1.00  0.00    -0.353 N 
ATOM      3  C   UNL A   1      28.712  32.432  23.340  1.00  0.00     0.244 C 
ATOM      4  O   UNL A   1      28.445  33.239  22.457  1.00  0.00    -0.270 OA
ATOM      5  H   UNL A   1      30.075  33.574  24.271  1.00  0.00     0.163 HD
BRANCH   3   6
ATOM      6  C   UNL A   1      27.915  31.203  23.506  1.00  0.00     0.077 C 
ATOM      7  C   UNL A   1      28.307  30.119  22.819  1.00  0.00     0.077 C 
BRANCH   7   8
ATOM      8  C   UNL A   1      27.763  28.792  23.118  1.00  0.00     0.249 C 
ATOM      9  N   UNL A   1      28.575  27.698  23.197  1.00  0.00    -0.313 N 
ATOM     10  H   UNL A   1      28.090  26.849  23.313  1.00  0.00     0.171 HD
ATOM     11  O   UNL A   1      26.546  28.678  23.261  1.00  0.00    -0.270 OA
BRANCH   9  12
ATOM     12  C   UNL A   1      29.955  27.554  23.147  1.00  0.00     0.111 A 
ATOM     13  C   UNL A   1      30.694  26.514  23.692  1.00  0.00     0.102 A 
ATOM     14  C   UNL A   1      32.109  26.846  23.708  1.00  0.00     0.012 A 
ATOM     15  S   UNL A   1      30.962  28.636  22.329  1.00  0.00    -0.122 S 
ATOM     16  C   UNL A   1      32.366  28.054  23.082  1.00  0.00     0.012 A 
ATOM     17  C   UNL A   1      33.621  28.852  22.928  1.00  0.00     0.057 C 
BRANCH  13  18
ATOM     18  C   UNL A   1      30.048  25.301  24.184  1.00  0.00     0.341 C 
ATOM     19  O   UNL A   1      29.379  25.294  25.208  1.00  0.00    -0.246 OA
BRANCH  18  20
ATOM     20  O   UNL A   1      30.271  24.206  23.406  1.00  0.00    -0.462 OA
BRANCH  20  21
ATOM     21  C   UNL A   1      30.954  23.113  24.037  1.00  0.00     0.230 C 
ATOM     22  C   UNL A   1      31.824  22.318  23.078  1.00  0.00     0.049 C 
ENDBRANCH  20  21
ENDBRANCH  18  20
ENDBRANCH  13  18
BRANCH  14  23
ATOM     23  C   UNL A   1      33.191  26.027  24.230  1.00  0.00    -0.016 A 
ATOM     24  C   UNL A   1      33.575  26.176  25.561  1.00  0.00     0.009 A 
ATOM     25  C   UNL A   1      33.848  25.100  23.413  1.00  0.00     0.012 A 
ATOM     26  C   UNL A   1      34.623  25.414  26.068  1.00  0.00     0.004 A 
ATOM     27  C   UNL A   1      34.892  24.309  23.920  1.00  0.00    -0.048 A 
ATOM     28  C   UNL A   1      35.289  24.476  25.262  1.00  0.00    -0.048 A 
ATOM     29  C   UNL A   1      35.552  23.310  23.011  1.00  0.00     0.044 C 
ATOM     30  C   UNL A   1      36.428  23.717  25.885  1.00  0.00     0.044 C 
ENDBRANCH  14  23
ENDBRANCH   9  12
ENDBRANCH   7   8
ENDBRANCH   3   6
ENDBRANCH   1   2
BRANCH   1  31
ATOM     31  C   UNL A   1      30.948  32.273  26.285  1.00  0.00     0.023 C 
BRANCH  31  32
ATOM     32  C   UNL A   1      32.176  31.564  26.856  1.00  0.00     0.023 C 
BRANCH  32  33
ATOM     33  C   UNL A   1      33.202  32.495  27.490  1.00  0.00     0.116 C 
BRANCH  33  34
ATOM     34  N   UNL A   1      32.699  33.849  27.692  1.00  0.00    -0.352 N 
ATOM     35  C   UNL A   1      33.139  34.799  28.578  1.00  0.00     0.251 C 
ATOM     36  H   UNL A   1      31.945  34.117  27.117  1.00  0.00     0.163 HD
ATOM     37  O   UNL A   1      32.564  35.872  28.703  1.00  0.00    -0.269 OA
BRANCH  35  38
ATOM     38  C   UNL A   1      34.304  34.472  29.413  1.00  0.00     0.039 A 
ATOM     39  C   UNL A   1      34.092  33.871  30.654  1.00  0.00     0.014 A 
ATOM     40  C   UNL A   1      35.593  34.647  28.903  1.00  0.00     0.014 A 
ATOM     41  C   UNL A   1      35.182  33.364  31.358  1.00  0.00     0.010 A 
ATOM     42  C   UNL A   1      36.668  34.079  29.572  1.00  0.00     0.010 A 
ATOM     43  C   UNL A   1      36.469  33.420  30.797  1.00  0.00    -0.014 A 
BRANCH  43  44
ATOM     44  C   UNL A   1      37.625  32.772  31.458  1.00  0.00     0.031 A 
ATOM     45  C   UNL A   1      38.280  31.587  30.815  1.00  0.00     0.074 A 
ATOM     46  C   UNL A   1      38.016  33.195  32.676  1.00  0.00     0.049 A 
ATOM     47  N   UNL A   1      39.221  30.807  31.281  1.00  0.00    -0.248 NA
ATOM     48  C   UNL A   1      37.790  31.208  29.480  1.00  0.00     0.031 C 
ATOM     49  C   UNL A   1      37.422  34.309  33.417  1.00  0.00     0.029 A 
ATOM     50  N   UNL A   1      38.995  32.723  33.514  1.00  0.00    -0.354 N 
ATOM     51  C   UNL A   1      39.423  29.840  30.307  1.00  0.00     0.074 A 
ATOM     52  C   UNL A   1      38.472  30.098  29.247  1.00  0.00     0.031 C 
ATOM     53  C   UNL A   1      38.057  34.444  34.592  1.00  0.00     0.029 A 
ATOM     54  C   UNL A   1      39.072  33.401  34.706  1.00  0.00     0.049 A 
ATOM     55  H   UNL A   1      39.588  31.972  33.281  1.00  0.00     0.167 HD
ATOM     56  C   UNL A   1      40.336  28.841  30.292  1.00  0.00     0.037 A 
ATOM     57  C   UNL A   1      39.858  33.189  35.778  1.00  0.00     0.037 A 
ATOM     58  C   UNL A   1      41.292  28.608  31.341  1.00  0.00     0.049 A 
ATOM     59  C   UNL A   1      40.850  32.057  35.744  1.00  0.00     0.074 A 
ATOM     60  C   UNL A   1      42.305  27.667  31.390  1.00  0.00     0.029 A 
ATOM     61  N   UNL A   1      41.349  29.321  32.530  1.00  0.00    -0.354 N 
ATOM     62  N   UNL A   1      41.084  31.192  34.787  1.00  0.00    -0.248 NA
ATOM     63  C   UNL A   1      41.684  31.870  36.938  1.00  0.00     0.031 C 
ATOM     64  C   UNL A   1      42.942  27.777  32.631  1.00  0.00     0.029 A 
ATOM     65  C   UNL A   1      42.360  28.821  33.332  1.00  0.00     0.049 A 
ATOM     66  H   UNL A   1      40.757  30.072  32.767  1.00  0.00     0.167 HD
ATOM     67  C   UNL A   1      42.105  30.375  35.251  1.00  0.00     0.074 A 
ATOM     68  C   UNL A   1      42.458  30.858  36.570  1.00  0.00     0.031 C 
ATOM     69  C   UNL A   1      42.697  29.319  34.642  1.00  0.00     0.037 A 
BRANCH  56  70
ATOM     70  C   UNL A   1      40.343  27.927  29.102  1.00  0.00     0.064 A 
ATOM     71  C   UNL A   1      39.590  26.743  29.079  1.00  0.00     0.173 A 
ATOM     72  C   UNL A   1      41.084  28.255  27.957  1.00  0.00     0.173 A 
ATOM     73  F   UNL A   1      38.876  26.376  30.154  1.00  0.00    -0.203 F 
ATOM     74  C   UNL A   1      39.604  25.906  27.966  1.00  0.00     0.198 A 
ATOM     75  C   UNL A   1      41.070  27.431  26.834  1.00  0.00     0.198 A 
ATOM     76  F   UNL A   1      41.818  29.377  27.924  1.00  0.00    -0.203 F 
ATOM     77  F   UNL A   1      38.917  24.755  27.988  1.00  0.00    -0.200 F 
ATOM     78  C   UNL A   1      40.337  26.255  26.842  1.00  0.00     0.200 A 
ATOM     79  F   UNL A   1      41.769  27.777  25.743  1.00  0.00    -0.200 F 
ATOM     80  F   UNL A   1      40.342  25.453  25.769  1.00  0.00    -0.200 F 
ENDBRANCH  56  70
BRANCH  57  81
ATOM     81  C   UNL A   1      39.749  34.071  36.969  1.00  0.00     0.064 A 
ATOM     82  C   UNL A   1      40.441  35.288  37.030  1.00  0.00     0.173 A 
ATOM     83  C   UNL A   1      38.957  33.717  38.071  1.00  0.00     0.173 A 
ATOM     84  F   UNL A   1      41.229  35.661  36.009  1.00  0.00    -0.203 F 
ATOM     85  C   UNL A   1      40.364  36.107  38.153  1.00  0.00     0.198 A 
ATOM     86  C   UNL A   1      38.856  34.551  39.184  1.00  0.00     0.198 A 
ATOM     87  F   UNL A   1      38.270  32.565  38.063  1.00  0.00    -0.203 F 
ATOM     88  F   UNL A   1      41.074  37.242  38.204  1.00  0.00    -0.200 F 
ATOM     89  C   UNL A   1      39.567  35.740  39.228  1.00  0.00     0.200 A 
ATOM     90  F   UNL A   1      38.074  34.199  40.214  1.00  0.00    -0.200 F 
ATOM     91  F   UNL A   1      39.490  36.529  40.308  1.00  0.00    -0.200 F 
ENDBRANCH  57  81
BRANCH  69  92
ATOM     92  C   UNL A   1      43.802  28.626  35.384  1.00  0.00     0.064 A 
ATOM     93  C   UNL A   1      45.144  28.997  35.215  1.00  0.00     0.173 A 
ATOM     94  C   UNL A   1      43.509  27.620  36.318  1.00  0.00     0.173 A 
ATOM     95  F   UNL A   1      45.476  29.942  34.322  1.00  0.00    -0.203 F 
ATOM     96  C   UNL A   1      46.154  28.373  35.941  1.00  0.00     0.198 A 
ATOM     97  C   UNL A   1      44.520  27.020  37.064  1.00  0.00     0.198 A 
ATOM     98  F   UNL A   1      42.241  27.234  36.521  1.00  0.00    -0.203 F 
ATOM     99  F   UNL A   1      47.434  28.714  35.733  1.00  0.00    -0.200 F 
ATOM    100  C   UNL A   1      45.841  27.392  36.871  1.00  0.00     0.200 A 
ATOM    101  F   UNL A   1      44.213  26.083  37.972  1.00  0.00    -0.200 F 
ATOM    102  F   UNL A   1      46.815  26.802  37.578  1.00  0.00    -0.200 F 
ENDBRANCH  69  92
ENDBRANCH  43  44
ENDBRANCH  35  38
ENDBRANCH  33  34
ENDBRANCH  32  33
ENDBRANCH  31  32
ENDBRANCH   1  31
TORSDOF 17
ENDMDL
MODEL 2
REMARK VINA RESULT:     -12.4      5.834     11.244
REMARK SMILES CCOC(=O)c1c(NC(=O)/C=C/C(=O)NCCCCNC(=O)c2ccc(-c3c4nc(c(-c5c(F)c(F)c(F)c(F)c5F)c5ccc([nH]5)c(-c5c(F)c(F)c(F)c(F)c5F)c5nc(c(-c6c(F)c(F)c(F)c(F)c6F)c6ccc3[nH]6)C=C5)C=C4)cc2)sc(C)c1-c1ccc(C)c(C)c1
REMARK SMILES IDX 16 1 15 2 13 3 14 4 12 6 11 7 9 8 8 9 10 11 7 12 6 13 89 14
REMARK SMILES IDX 86 15 87 16 88 17 4 18 5 19 3 20 2 21 1 22 90 23 91 24 97 25
REMARK SMILES IDX 92 26 95 27 93 28 96 29 94 30 17 31 18 32 19 33 20 34 21 35
REMARK SMILES IDX 22 37 23 38 24 39 85 40 25 41 84 42 26 43 27 44 28 45 78 46
REMARK SMILES IDX 29 47 83 48 77 49 79 50 30 51 82 52 76 53 75 54 31 56 63 57
REMARK SMILES IDX 43 58 62 59 44 60 47 61 61 62 80 63 45 64 46 65 60 67 81 68
REMARK SMILES IDX 48 69 32 70 33 71 41 72 34 73 35 74 39 75 42 76 36 77 37 78
REMARK SMILES IDX 40 79 38 80 64 81 65 82 73 83 66 84 67 85 71 86 74 87 68 88
REMARK SMILES IDX 69 89 72 90 70 91 49 92 50 93 58 94 51 95 52 96 56 97 59 98
REMARK SMILES IDX 53 99 54 100 57 101 55 102
REMARK H PARENT 15 5 8 10 20 36 79 55 47 66
REMARK Flexibility Score: inf
ROOT
ATOM      1  C   UNL A   1      38.131  23.703  26.235  1.00  0.00     0.116 C 
ENDROOT
BRANCH   1   2
ATOM      2  N   UNL A   1      37.779  23.700  24.830  1.00  0.00    -0.353 N 
ATOM      3  C   UNL A   1      36.696  23.097  24.267  1.00  0.00     0.244 C 
ATOM      4  O   UNL A   1      36.669  22.842  23.069  1.00  0.00    -0.270 OA
ATOM      5  H   UNL A   1      38.383  24.182  24.220  1.00  0.00     0.163 HD
BRANCH   3   6
ATOM      6  C   UNL A   1      35.553  22.758  25.137  1.00  0.00     0.077 C 
ATOM      7  C   UNL A   1      34.884  23.777  25.696  1.00  0.00     0.077 C 
BRANCH   7   8
ATOM      8  C   UNL A   1      33.585  23.570  26.343  1.00  0.00     0.249 C 
ATOM      9  N   UNL A   1      32.467  24.217  25.903  1.00  0.00    -0.313 N 
ATOM     10  H   UNL A   1      31.674  24.070  26.468  1.00  0.00     0.171 HD
ATOM     11  O   UNL A   1      33.532  22.822  27.318  1.00  0.00    -0.270 OA
BRANCH   9  12
ATOM     12  C   UNL A   1      32.234  25.042  24.811  1.00  0.00     0.111 A 
ATOM     13  C   UNL A   1      31.476  26.203  24.805  1.00  0.00     0.102 A 
ATOM     14  C   UNL A   1      31.208  26.631  23.442  1.00  0.00     0.012 A 
ATOM     15  S   UNL A   1      32.920  24.768  23.291  1.00  0.00    -0.122 S 
ATOM     16  C   UNL A   1      31.863  25.842  22.511  1.00  0.00     0.012 A 
ATOM     17  C   UNL A   1      31.828  25.822  21.017  1.00  0.00     0.057 C 
BRANCH  13  18
ATOM     18  C   UNL A   1      31.028  26.824  26.048  1.00  0.00     0.341 C 
ATOM     19  O   UNL A   1      30.275  26.250  26.822  1.00  0.00    -0.246 OA
BRANCH  18  20
ATOM     20  O   UNL A   1      31.519  28.079  26.243  1.00  0.00    -0.462 OA
BRANCH  20  21
ATOM     21  C   UNL A   1      32.538  28.208  27.245  1.00  0.00     0.230 C 
ATOM     22  C   UNL A   1      33.873  28.668  26.684  1.00  0.00     0.049 C 
ENDBRANCH  20  21
ENDBRANCH  18  20
ENDBRANCH  13  18
BRANCH  14  23
ATOM     23  C   UNL A   1      30.422  27.782  23.027  1.00  0.00    -0.016 A 
ATOM     24  C   UNL A   1      31.058  28.842  22.382  1.00  0.00     0.009 A 
ATOM     25  C   UNL A   1      29.046  27.838  23.270  1.00  0.00     0.012 A 
ATOM     26  C   UNL A   1      30.322  29.959  21.999  1.00  0.00     0.004 A 
ATOM     27  C   UNL A   1      28.289  28.950  22.866  1.00  0.00    -0.048 A 
ATOM     28  C   UNL A   1      28.939  30.027  22.231  1.00  0.00    -0.048 A 
ATOM     29  C   UNL A   1      26.808  28.952  23.128  1.00  0.00     0.044 C 
ATOM     30  C   UNL A   1      28.229  31.284  21.809  1.00  0.00     0.044 C 
ENDBRANCH  14  23
ENDBRANCH   9  12
ENDBRANCH   7   8
ENDBRANCH   3   6
ENDBRANCH   1   2
BRANCH   1  31
ATOM     31  C   UNL A   1      39.437  22.946  26.452  1.00  0.00     0.023 C 
BRANCH  31  32
ATOM     32  C   UNL A   1      39.409  21.513  25.920  1.00  0.00     0.023 C 
BRANCH  32  33
ATOM     33  C   UNL A   1      39.975  20.474  26.880  1.00  0.00     0.116 C 
BRANCH  33  34
ATOM     34  N   UNL A   1      40.802  19.472  26.218  1.00  0.00    -0.352 N 
ATOM     35  C   UNL A   1      42.110  19.575  25.816  1.00  0.00     0.251 C 
ATOM     36  H   UNL A   1      40.365  18.609  26.034  1.00  0.00     0.163 HD
ATOM     37  O   UNL A   1      42.658  18.680  25.187  1.00  0.00    -0.269 OA
BRANCH  35  38
ATOM     38  C   UNL A   1      42.827  20.822  26.125  1.00  0.00     0.039 A 
ATOM     39  C   UNL A   1      43.171  21.674  25.076  1.00  0.00     0.014 A 
ATOM     40  C   UNL A   1      43.034  21.189  27.457  1.00  0.00     0.014 A 
ATOM     41  C   UNL A   1      43.655  22.948  25.368  1.00  0.00     0.010 A 
ATOM     42  C   UNL A   1      43.449  22.482  27.744  1.00  0.00     0.010 A 
ATOM     43  C   UNL A   1      43.749  23.376  26.702  1.00  0.00    -0.014 A 
BRANCH  43  44
ATOM     44  C   UNL A   1      44.131  24.767  27.040  1.00  0.00     0.031 A 
ATOM     45  C   UNL A   1      43.093  25.719  27.551  1.00  0.00     0.074 A 
ATOM     46  C   UNL A   1      45.387  25.187  26.793  1.00  0.00     0.049 A 
ATOM     47  N   UNL A   1      43.192  27.001  27.790  1.00  0.00    -0.248 NA
ATOM     48  C   UNL A   1      41.754  25.162  27.799  1.00  0.00     0.031 C 
ATOM     49  C   UNL A   1      46.467  24.360  26.252  1.00  0.00     0.029 A 
ATOM     50  N   UNL A   1      45.961  26.424  26.946  1.00  0.00    -0.354 N 
ATOM     51  C   UNL A   1      41.930  27.406  28.199  1.00  0.00     0.074 A 
ATOM     52  C   UNL A   1      41.067  26.246  28.127  1.00  0.00     0.031 C 
ATOM     53  C   UNL A   1      47.576  25.108  26.133  1.00  0.00     0.029 A 
ATOM     54  C   UNL A   1      47.274  26.475  26.546  1.00  0.00     0.049 A 
ATOM     55  H   UNL A   1      45.478  27.201  27.311  1.00  0.00     0.167 HD
ATOM     56  C   UNL A   1      41.535  28.630  28.618  1.00  0.00     0.037 A 
ATOM     57  C   UNL A   1      48.129  27.513  26.498  1.00  0.00     0.037 A 
ATOM     58  C   UNL A   1      42.407  29.771  28.708  1.00  0.00     0.049 A 
ATOM     59  C   UNL A   1      47.657  28.870  26.948  1.00  0.00     0.074 A 
ATOM     60  C   UNL A   1      42.122  31.037  29.186  1.00  0.00     0.029 A 
ATOM     61  N   UNL A   1      43.734  29.783  28.304  1.00  0.00    -0.354 N 
ATOM     62  N   UNL A   1      46.481  29.226  27.404  1.00  0.00    -0.248 NA
ATOM     63  C   UNL A   1      48.630  29.968  26.877  1.00  0.00     0.031 C 
ATOM     64  C   UNL A   1      43.263  31.830  29.024  1.00  0.00     0.029 A 
ATOM     65  C   UNL A   1      44.273  31.044  28.494  1.00  0.00     0.049 A 
ATOM     66  H   UNL A   1      44.220  29.009  27.938  1.00  0.00     0.167 HD
ATOM     67  C   UNL A   1      46.577  30.580  27.695  1.00  0.00     0.074 A 
ATOM     68  C   UNL A   1      47.934  30.978  27.380  1.00  0.00     0.031 C 
ATOM     69  C   UNL A   1      45.628  31.419  28.177  1.00  0.00     0.037 A 
BRANCH  56  70
ATOM     70  C   UNL A   1      40.097  28.797  29.011  1.00  0.00     0.064 A 
ATOM     71  C   UNL A   1      39.667  28.603  30.333  1.00  0.00     0.173 A 
ATOM     72  C   UNL A   1      39.141  29.190  28.062  1.00  0.00     0.173 A 
ATOM     73  F   UNL A   1      40.538  28.214  31.276  1.00  0.00    -0.203 F 
ATOM     74  C   UNL A   1      38.329  28.766  30.684  1.00  0.00     0.198 A 
ATOM     75  C   UNL A   1      37.809  29.382  28.423  1.00  0.00     0.198 A 
ATOM     76  F   UNL A   1      39.498  29.392  26.785  1.00  0.00    -0.203 F 
ATOM     77  F   UNL A   1      37.935  28.526  31.941  1.00  0.00    -0.200 F 
ATOM     78  C   UNL A   1      37.404  29.163  29.730  1.00  0.00     0.200 A 
ATOM     79  F   UNL A   1      36.918  29.779  27.503  1.00  0.00    -0.200 F 
ATOM     80  F   UNL A   1      36.118  29.328  30.070  1.00  0.00    -0.200 F 
ENDBRANCH  56  70
BRANCH  57  81
ATOM     81  C   UNL A   1      49.520  27.311  26.014  1.00  0.00     0.064 A 
ATOM     82  C   UNL A   1      50.564  27.054  26.913  1.00  0.00     0.173 A 
ATOM     83  C   UNL A   1      49.837  27.376  24.649  1.00  0.00     0.173 A 
ATOM     84  F   UNL A   1      50.315  27.004  28.230  1.00  0.00    -0.203 F 
ATOM     85  C   UNL A   1      51.874  26.890  26.469  1.00  0.00     0.198 A 
ATOM     86  C   UNL A   1      51.143  27.183  24.202  1.00  0.00     0.198 A 
ATOM     87  F   UNL A   1      48.874  27.615  23.746  1.00  0.00    -0.203 F 
ATOM     88  F   UNL A   1      52.860  26.692  27.354  1.00  0.00    -0.200 F 
ATOM     89  C   UNL A   1      52.162  26.949  25.113  1.00  0.00     0.200 A 
ATOM     90  F   UNL A   1      51.414  27.227  22.891  1.00  0.00    -0.200 F 
ATOM     91  F   UNL A   1      53.421  26.788  24.686  1.00  0.00    -0.200 F 
ENDBRANCH  57  81
BRANCH  69  92
ATOM     92  C   UNL A   1      46.027  32.845  28.416  1.00  0.00     0.064 A 
ATOM     93  C   UNL A   1      45.838  33.834  27.439  1.00  0.00     0.173 A 
ATOM     94  C   UNL A   1      46.551  33.237  29.657  1.00  0.00     0.173 A 
ATOM     95  F   UNL A   1      45.356  33.506  26.231  1.00  0.00    -0.203 F 
ATOM     96  C   UNL A   1      46.176  35.160  27.690  1.00  0.00     0.198 A 
ATOM     97  C   UNL A   1      46.860  34.571  29.915  1.00  0.00     0.198 A 
ATOM     98  F   UNL A   1      46.745  32.331  30.626  1.00  0.00    -0.203 F 
ATOM     99  F   UNL A   1      46.025  36.082  26.728  1.00  0.00    -0.200 F 
ATOM    100  C   UNL A   1      46.677  35.530  28.930  1.00  0.00     0.200 A 
ATOM    101  F   UNL A   1      47.330  34.927  31.118  1.00  0.00    -0.200 F 
ATOM    102  F   UNL A   1      46.989  36.810  29.174  1.00  0.00    -0.200 F 
ENDBRANCH  69  92
ENDBRANCH  43  44
ENDBRANCH  35  38
ENDBRANCH  33  34
ENDBRANCH  32  33
ENDBRANCH  31  32
ENDBRANCH   1  31
TORSDOF 17
ENDMDL
MODEL 3
REMARK VINA RESULT:     -12.4      1.652      2.986
REMARK SMILES CCOC(=O)c1c(NC(=O)/C=C/C(=O)NCCCCNC(=O)c2ccc(-c3c4nc(c(-c5c(F)c(F)c(F)c(F)c5F)c5ccc([nH]5)c(-c5c(F)c(F)c(F)c(F)c5F)c5nc(c(-c6c(F)c(F)c(F)c(F)c6F)c6ccc3[nH]6)C=C5)C=C4)cc2)sc(C)c1-c1ccc(C)c(C)c1
REMARK SMILES IDX 16 1 15 2 13 3 14 4 12 6 11 7 9 8 8 9 10 11 7 12 6 13 89 14
REMARK SMILES IDX 86 15 87 16 88 17 4 18 5 19 3 20 2 21 1 22 90 23 91 24 97 25
REMARK SMILES IDX 92 26 95 27 93 28 96 29 94 30 17 31 18 32 19 33 20 34 21 35
REMARK SMILES IDX 22 37 23 38 24 39 85 40 25 41 84 42 26 43 27 44 28 45 78 46
REMARK SMILES IDX 29 47 83 48 77 49 79 50 30 51 82 52 76 53 75 54 31 56 63 57
REMARK SMILES IDX 43 58 62 59 44 60 47 61 61 62 80 63 45 64 46 65 60 67 81 68
REMARK SMILES IDX 48 69 32 70 33 71 41 72 34 73 35 74 39 75 42 76 36 77 37 78
REMARK SMILES IDX 40 79 38 80 64 81 65 82 73 83 66 84 67 85 71 86 74 87 68 88
REMARK SMILES IDX 69 89 72 90 70 91 49 92 50 93 58 94 51 95 52 96 56 97 59 98
REMARK SMILES IDX 53 99 54 100 57 101 55 102
REMARK H PARENT 15 5 8 10 20 36 79 55 47 66
REMARK Flexibility Score: inf
ROOT
ATOM      1  C   UNL A   1      31.008  30.656  25.117  1.00  0.00     0.116 C 
ENDROOT
BRANCH   1   2
ATOM      2  N   UNL A   1      32.223  29.870  25.057  1.00  0.00    -0.353 N 
ATOM      3  C   UNL A   1      32.335  28.533  25.292  1.00  0.00     0.244 C 
ATOM      4  O   UNL A   1      33.418  28.032  25.569  1.00  0.00    -0.270 OA
ATOM      5  H   UNL A   1      33.050  30.348  24.823  1.00  0.00     0.163 HD
BRANCH   3   6
ATOM      6  C   UNL A   1      31.119  27.703  25.204  1.00  0.00     0.077 C 
ATOM      7  C   UNL A   1      30.965  26.953  24.103  1.00  0.00     0.077 C 
BRANCH   7   8
ATOM      8  C   UNL A   1      29.950  25.898  24.036  1.00  0.00     0.249 C 
ATOM      9  N   UNL A   1      30.208  24.642  24.503  1.00  0.00    -0.313 N 
ATOM     10  H   UNL A   1      29.487  23.995  24.324  1.00  0.00     0.171 HD
ATOM     11  O   UNL A   1      28.867  26.162  23.516  1.00  0.00    -0.270 OA
BRANCH   9  12
ATOM     12  C   UNL A   1      31.292  24.101  25.182  1.00  0.00     0.111 A 
ATOM     13  C   UNL A   1      32.396  23.487  24.611  1.00  0.00     0.102 A 
ATOM     14  C   UNL A   1      33.170  22.786  25.622  1.00  0.00     0.012 A 
ATOM     15  S   UNL A   1      31.451  24.175  26.862  1.00  0.00    -0.122 S 
ATOM     16  C   UNL A   1      32.673  22.999  26.898  1.00  0.00     0.012 A 
ATOM     17  C   UNL A   1      33.056  22.432  28.226  1.00  0.00     0.057 C 
BRANCH  13  18
ATOM     18  C   UNL A   1      32.651  23.564  23.176  1.00  0.00     0.341 C 
ATOM     19  O   UNL A   1      32.364  22.647  22.419  1.00  0.00    -0.246 OA
BRANCH  18  20
ATOM     20  O   UNL A   1      33.231  24.731  22.783  1.00  0.00    -0.462 OA
BRANCH  20  21
ATOM     21  C   UNL A   1      33.198  25.008  21.375  1.00  0.00     0.230 C 
ATOM     22  C   UNL A   1      32.024  25.881  20.966  1.00  0.00     0.049 C 
ENDBRANCH  20  21
ENDBRANCH  18  20
ENDBRANCH  13  18
BRANCH  14  23
ATOM     23  C   UNL A   1      34.374  21.999  25.409  1.00  0.00    -0.016 A 
ATOM     24  C   UNL A   1      34.256  20.671  25.005  1.00  0.00     0.009 A 
ATOM     25  C   UNL A   1      35.641  22.558  25.608  1.00  0.00     0.012 A 
ATOM     26  C   UNL A   1      35.399  19.900  24.817  1.00  0.00     0.004 A 
ATOM     27  C   UNL A   1      36.803  21.797  25.399  1.00  0.00    -0.048 A 
ATOM     28  C   UNL A   1      36.678  20.448  25.008  1.00  0.00    -0.048 A 
ATOM     29  C   UNL A   1      38.143  22.448  25.603  1.00  0.00     0.044 C 
ATOM     30  C   UNL A   1      37.856  19.535  24.811  1.00  0.00     0.044 C 
ENDBRANCH  14  23
ENDBRANCH   9  12
ENDBRANCH   7   8
ENDBRANCH   3   6
ENDBRANCH   1   2
BRANCH   1  31
ATOM     31  C   UNL A   1      31.131  31.735  26.189  1.00  0.00     0.023 C 
BRANCH  31  32
ATOM     32  C   UNL A   1      32.191  31.427  27.246  1.00  0.00     0.023 C 
BRANCH  32  33
ATOM     33  C   UNL A   1      33.263  32.500  27.393  1.00  0.00     0.116 C 
BRANCH  33  34
ATOM     34  N   UNL A   1      32.715  33.823  27.666  1.00  0.00    -0.352 N 
ATOM     35  C   UNL A   1      33.116  34.734  28.610  1.00  0.00     0.251 C 
ATOM     36  H   UNL A   1      31.959  34.100  27.099  1.00  0.00     0.163 HD
ATOM     37  O   UNL A   1      32.506  35.779  28.790  1.00  0.00    -0.269 OA
BRANCH  35  38
ATOM     38  C   UNL A   1      34.283  34.395  29.439  1.00  0.00     0.039 A 
ATOM     39  C   UNL A   1      34.083  33.666  30.611  1.00  0.00     0.014 A 
ATOM     40  C   UNL A   1      35.568  34.694  28.980  1.00  0.00     0.014 A 
ATOM     41  C   UNL A   1      35.188  33.157  31.291  1.00  0.00     0.010 A 
ATOM     42  C   UNL A   1      36.662  34.127  29.619  1.00  0.00     0.010 A 
ATOM     43  C   UNL A   1      36.479  33.342  30.770  1.00  0.00    -0.014 A 
BRANCH  43  44
ATOM     44  C   UNL A   1      37.660  32.701  31.394  1.00  0.00     0.031 A 
ATOM     45  C   UNL A   1      38.296  31.514  30.736  1.00  0.00     0.074 A 
ATOM     46  C   UNL A   1      38.091  33.132  32.596  1.00  0.00     0.049 A 
ATOM     47  N   UNL A   1      39.255  30.740  31.175  1.00  0.00    -0.248 NA
ATOM     48  C   UNL A   1      37.761  31.126  29.422  1.00  0.00     0.031 C 
ATOM     49  C   UNL A   1      37.518  34.249  33.351  1.00  0.00     0.029 A 
ATOM     50  N   UNL A   1      39.099  32.668  33.403  1.00  0.00    -0.354 N 
ATOM     51  C   UNL A   1      39.426  29.768  30.200  1.00  0.00     0.074 A 
ATOM     52  C   UNL A   1      38.440  30.016  29.171  1.00  0.00     0.031 C 
ATOM     53  C   UNL A   1      38.193  34.392  34.502  1.00  0.00     0.029 A 
ATOM     54  C   UNL A   1      39.214  33.353  34.588  1.00  0.00     0.049 A 
ATOM     55  H   UNL A   1      39.686  31.918  33.154  1.00  0.00     0.167 HD
ATOM     56  C   UNL A   1      40.341  28.771  30.159  1.00  0.00     0.037 A 
ATOM     57  C   UNL A   1      40.038  33.150  35.633  1.00  0.00     0.037 A 
ATOM     58  C   UNL A   1      41.334  28.547  31.176  1.00  0.00     0.049 A 
ATOM     59  C   UNL A   1      41.031  32.020  35.572  1.00  0.00     0.074 A 
ATOM     60  C   UNL A   1      42.351  27.610  31.196  1.00  0.00     0.029 A 
ATOM     61  N   UNL A   1      41.428  29.268  32.358  1.00  0.00    -0.354 N 
ATOM     62  N   UNL A   1      41.236  31.151  34.613  1.00  0.00    -0.248 NA
ATOM     63  C   UNL A   1      41.907  31.843  36.738  1.00  0.00     0.031 C 
ATOM     64  C   UNL A   1      43.029  27.729  32.414  1.00  0.00     0.029 A 
ATOM     65  C   UNL A   1      42.468  28.775  33.129  1.00  0.00     0.049 A 
ATOM     66  H   UNL A   1      40.843  30.018  32.611  1.00  0.00     0.167 HD
ATOM     67  C   UNL A   1      42.274  30.339  35.046  1.00  0.00     0.074 A 
ATOM     68  C   UNL A   1      42.671  30.831  36.350  1.00  0.00     0.031 C 
ATOM     69  C   UNL A   1      42.848  29.281  34.423  1.00  0.00     0.037 A 
BRANCH  56  70
ATOM     70  C   UNL A   1      40.311  27.850  28.975  1.00  0.00     0.064 A 
ATOM     71  C   UNL A   1      41.035  28.128  27.806  1.00  0.00     0.173 A 
ATOM     72  C   UNL A   1      39.575  26.656  29.023  1.00  0.00     0.173 A 
ATOM     73  F   UNL A   1      41.743  29.263  27.705  1.00  0.00    -0.203 F 
ATOM     74  C   UNL A   1      41.000  27.261  26.717  1.00  0.00     0.198 A 
ATOM     75  C   UNL A   1      39.567  25.776  27.943  1.00  0.00     0.198 A 
ATOM     76  F   UNL A   1      38.868  26.340  30.117  1.00  0.00    -0.203 F 
ATOM     77  F   UNL A   1      41.659  27.574  25.593  1.00  0.00    -0.200 F 
ATOM     78  C   UNL A   1      40.273  26.083  26.790  1.00  0.00     0.200 A 
ATOM     79  F   UNL A   1      38.875  24.631  28.019  1.00  0.00    -0.200 F 
ATOM     80  F   UNL A   1      40.246  25.245  25.744  1.00  0.00    -0.200 F 
ENDBRANCH  56  70
BRANCH  57  81
ATOM     81  C   UNL A   1      39.966  34.039  36.822  1.00  0.00     0.064 A 
ATOM     82  C   UNL A   1      39.157  33.712  37.918  1.00  0.00     0.173 A 
ATOM     83  C   UNL A   1      40.699  35.233  36.888  1.00  0.00     0.173 A 
ATOM     84  F   UNL A   1      38.420  32.590  37.894  1.00  0.00    -0.203 F 
ATOM     85  C   UNL A   1      39.065  34.553  39.024  1.00  0.00     0.198 A 
ATOM     86  C   UNL A   1      40.630  36.061  38.007  1.00  0.00     0.198 A 
ATOM     87  F   UNL A   1      41.493  35.592  35.868  1.00  0.00    -0.203 F 
ATOM     88  F   UNL A   1      38.247  34.238  40.037  1.00  0.00    -0.200 F 
ATOM     89  C   UNL A   1      39.806  35.724  39.071  1.00  0.00     0.200 A 
ATOM     90  F   UNL A   1      41.358  37.184  38.054  1.00  0.00    -0.200 F 
ATOM     91  F   UNL A   1      39.721  36.532  40.136  1.00  0.00    -0.200 F 
ENDBRANCH  57  81
BRANCH  69  92
ATOM     92  C   UNL A   1      43.980  28.596  35.131  1.00  0.00     0.064 A 
ATOM     93  C   UNL A   1      45.307  29.022  34.976  1.00  0.00     0.173 A 
ATOM     94  C   UNL A   1      43.727  27.540  36.020  1.00  0.00     0.173 A 
ATOM     95  F   UNL A   1      45.602  30.017  34.125  1.00  0.00    -0.203 F 
ATOM     96  C   UNL A   1      46.342  28.403  35.670  1.00  0.00     0.198 A 
ATOM     97  C   UNL A   1      44.761  26.944  36.736  1.00  0.00     0.198 A 
ATOM     98  F   UNL A   1      42.474  27.101  36.209  1.00  0.00    -0.203 F 
ATOM     99  F   UNL A   1      47.609  28.798  35.475  1.00  0.00    -0.200 F 
ATOM    100  C   UNL A   1      46.068  27.371  36.557  1.00  0.00     0.200 A 
ATOM    101  F   UNL A   1      44.492  25.958  37.603  1.00  0.00    -0.200 F 
ATOM    102  F   UNL A   1      47.064  26.786  37.234  1.00  0.00    -0.200 F 
ENDBRANCH  69  92
ENDBRANCH  43  44
ENDBRANCH  35  38
ENDBRANCH  33  34
ENDBRANCH  32  33
ENDBRANCH  31  32
ENDBRANCH   1  31
TORSDOF 17
ENDMDL
