MODEL 1
REMARK VINA RESULT:     -12.3      0.000      0.000
REMARK SMILES O=C(NCCCCNC(=O)[C@@]1([NH2+]C2CC2)CCC[C@@H](Sc2ncn[nH]2)C1)c1ccc(-c2c3nc(c(-c4c(F)c(F)c(F)c(F)c4F)c4ccc([nH]4)c(-c4c(F)c(F)c(F)c(F)c4F)c4nc(c(-c5c(F)c(F)c(F)c(F)c5F)c5ccc2[nH]5)C=C4)C=C3)cc1
REMARK SMILES IDX 5 1 4 2 3 3 1 4 2 5 27 7 28 8 89 9 29 10 88 11 30 12 31 13
REMARK SMILES IDX 32 14 82 15 33 16 87 17 81 18 83 19 34 20 86 21 80 22 79 23
REMARK SMILES IDX 35 25 67 26 47 27 66 28 48 29 51 30 65 31 84 32 49 33 50 34
REMARK SMILES IDX 64 36 85 37 52 38 36 39 37 40 45 41 38 42 39 43 43 44 46 45
REMARK SMILES IDX 40 46 41 47 44 48 42 49 68 50 69 51 77 52 70 53 71 54 75 55
REMARK SMILES IDX 78 56 72 57 73 58 76 59 74 60 53 61 54 62 62 63 55 64 56 65
REMARK SMILES IDX 60 66 63 67 57 68 58 69 61 70 59 71 6 72 7 73 8 74 9 75
REMARK SMILES IDX 10 77 11 78 16 79 26 80 17 81 19 82 18 83 12 84 13 87 14 88
REMARK SMILES IDX 15 89 20 90 21 91 22 92 25 93 23 94 24 95
REMARK H PARENT 3 6 83 24 51 35 8 76 12 85 12 86 25 96
REMARK Flexibility Score: inf
ROOT
ATOM      1  C   UNL A   1      31.474  32.133  26.994  1.00  0.00     0.023 C 
ENDROOT
BRANCH   1   2
ATOM      2  C   UNL A   1      32.677  33.070  26.973  1.00  0.00     0.116 C 
BRANCH   2   3
ATOM      3  N   UNL A   1      32.421  34.344  27.626  1.00  0.00    -0.352 N 
ATOM      4  O   UNL A   1      32.535  35.931  29.222  1.00  0.00    -0.269 OA
ATOM      5  C   UNL A   1      32.995  34.902  28.745  1.00  0.00     0.251 C 
ATOM      6  H   UNL A   1      31.725  34.895  27.200  1.00  0.00     0.163 HD
BRANCH   5   7
ATOM      7  C   UNL A   1      34.153  34.250  29.397  1.00  0.00     0.039 A 
ATOM      8  C   UNL A   1      35.460  34.541  29.004  1.00  0.00     0.014 A 
ATOM      9  C   UNL A   1      33.925  33.354  30.447  1.00  0.00     0.014 A 
ATOM     10  C   UNL A   1      36.524  33.828  29.548  1.00  0.00     0.010 A 
ATOM     11  C   UNL A   1      35.003  32.704  31.057  1.00  0.00     0.010 A 
ATOM     12  C   UNL A   1      36.310  32.915  30.592  1.00  0.00    -0.014 A 
BRANCH  12  13
ATOM     13  C   UNL A   1      37.474  32.251  31.234  1.00  0.00     0.031 A 
ATOM     14  C   UNL A   1      38.200  31.123  30.559  1.00  0.00     0.074 A 
ATOM     15  C   UNL A   1      37.874  32.685  32.446  1.00  0.00     0.049 A 
ATOM     16  N   UNL A   1      39.217  30.420  30.993  1.00  0.00    -0.248 NA
ATOM     17  C   UNL A   1      37.722  30.722  29.227  1.00  0.00     0.031 C 
ATOM     18  C   UNL A   1      37.236  33.764  33.204  1.00  0.00     0.029 A 
ATOM     19  N   UNL A   1      38.907  32.281  33.252  1.00  0.00    -0.354 N 
ATOM     20  C   UNL A   1      39.484  29.483  30.004  1.00  0.00     0.074 A 
ATOM     21  C   UNL A   1      38.514  29.694  28.951  1.00  0.00     0.031 C 
ATOM     22  C   UNL A   1      37.905  33.954  34.349  1.00  0.00     0.029 A 
ATOM     23  C   UNL A   1      38.977  32.970  34.438  1.00  0.00     0.049 A 
ATOM     24  H   UNL A   1      39.537  31.565  33.004  1.00  0.00     0.167 HD
ATOM     25  C   UNL A   1      40.455  28.539  29.982  1.00  0.00     0.037 A 
ATOM     26  C   UNL A   1      39.791  32.808  35.497  1.00  0.00     0.037 A 
ATOM     27  C   UNL A   1      41.436  28.356  31.023  1.00  0.00     0.049 A 
ATOM     28  C   UNL A   1      40.839  31.734  35.452  1.00  0.00     0.074 A 
ATOM     29  C   UNL A   1      42.507  27.480  31.053  1.00  0.00     0.029 A 
ATOM     30  N   UNL A   1      41.458  29.055  32.221  1.00  0.00    -0.354 N 
ATOM     31  N   UNL A   1      41.119  30.894  34.486  1.00  0.00    -0.248 NA
ATOM     32  C   UNL A   1      41.680  31.578  36.647  1.00  0.00     0.031 C 
ATOM     33  C   UNL A   1      43.143  27.609  32.292  1.00  0.00     0.029 A 
ATOM     34  C   UNL A   1      42.499  28.601  33.015  1.00  0.00     0.049 A 
ATOM     35  H   UNL A   1      40.826  29.768  32.470  1.00  0.00     0.167 HD
ATOM     36  C   UNL A   1      42.170  30.117  34.949  1.00  0.00     0.074 A 
ATOM     37  C   UNL A   1      42.495  30.602  36.275  1.00  0.00     0.031 C 
ATOM     38  C   UNL A   1      42.804  29.090  34.334  1.00  0.00     0.037 A 
BRANCH  25  39
ATOM     39  C   UNL A   1      40.509  27.607  28.806  1.00  0.00     0.064 A 
ATOM     40  C   UNL A   1      39.733  26.442  28.747  1.00  0.00     0.173 A 
ATOM     41  C   UNL A   1      41.292  27.930  27.686  1.00  0.00     0.173 A 
ATOM     42  F   UNL A   1      38.972  26.084  29.792  1.00  0.00    -0.203 F 
ATOM     43  C   UNL A   1      39.747  25.626  27.616  1.00  0.00     0.198 A 
ATOM     44  C   UNL A   1      41.286  27.127  26.548  1.00  0.00     0.198 A 
ATOM     45  F   UNL A   1      42.047  29.039  27.687  1.00  0.00    -0.203 F 
ATOM     46  F   UNL A   1      39.018  24.502  27.593  1.00  0.00    -0.200 F 
ATOM     47  C   UNL A   1      40.517  25.974  26.516  1.00  0.00     0.200 A 
ATOM     48  F   UNL A   1      42.019  27.472  25.481  1.00  0.00    -0.200 F 
ATOM     49  F   UNL A   1      40.517  25.197  25.423  1.00  0.00    -0.200 F 
ENDBRANCH  25  39
BRANCH  26  50
ATOM     50  C   UNL A   1      39.619  33.666  36.696  1.00  0.00     0.064 A 
ATOM     51  C   UNL A   1      40.265  34.905  36.801  1.00  0.00     0.173 A 
ATOM     52  C   UNL A   1      38.794  33.267  37.760  1.00  0.00     0.173 A 
ATOM     53  F   UNL A   1      41.080  35.320  35.820  1.00  0.00    -0.203 F 
ATOM     54  C   UNL A   1      40.103  35.706  37.929  1.00  0.00     0.198 A 
ATOM     55  C   UNL A   1      38.608  34.083  38.872  1.00  0.00     0.198 A 
ATOM     56  F   UNL A   1      38.150  32.092  37.706  1.00  0.00    -0.203 F 
ATOM     57  F   UNL A   1      40.765  36.867  38.024  1.00  0.00    -0.200 F 
ATOM     58  C   UNL A   1      39.269  35.298  38.960  1.00  0.00     0.200 A 
ATOM     59  F   UNL A   1      37.788  33.692  39.857  1.00  0.00    -0.200 F 
ATOM     60  F   UNL A   1      39.107  36.073  40.042  1.00  0.00    -0.200 F 
ENDBRANCH  26  50
BRANCH  38  61
ATOM     61  C   UNL A   1      43.919  28.427  35.087  1.00  0.00     0.064 A 
ATOM     62  C   UNL A   1      43.690  27.296  35.885  1.00  0.00     0.173 A 
ATOM     63  C   UNL A   1      45.233  28.904  34.981  1.00  0.00     0.173 A 
ATOM     64  F   UNL A   1      42.447  26.815  36.032  1.00  0.00    -0.203 F 
ATOM     65  C   UNL A   1      44.736  26.678  36.564  1.00  0.00     0.198 A 
ATOM     66  C   UNL A   1      46.280  28.268  35.640  1.00  0.00     0.198 A 
ATOM     67  F   UNL A   1      45.503  29.981  34.228  1.00  0.00    -0.203 F 
ATOM     68  F   UNL A   1      44.488  25.625  37.355  1.00  0.00    -0.200 F 
ATOM     69  C   UNL A   1      46.030  27.159  36.435  1.00  0.00     0.200 A 
ATOM     70  F   UNL A   1      47.533  28.726  35.506  1.00  0.00    -0.200 F 
ATOM     71  F   UNL A   1      47.036  26.558  37.084  1.00  0.00    -0.200 F 
ENDBRANCH  38  61
ENDBRANCH  12  13
ENDBRANCH   5   7
ENDBRANCH   2   3
ENDBRANCH   1   2
BRANCH   1  72
ATOM     72  C   UNL A   1      31.778  30.650  26.772  1.00  0.00     0.023 C 
BRANCH  72  73
ATOM     73  C   UNL A   1      31.398  30.086  25.406  1.00  0.00     0.116 C 
BRANCH  73  74
ATOM     74  N   UNL A   1      32.528  29.703  24.583  1.00  0.00    -0.351 N 
ATOM     75  C   UNL A   1      32.544  28.910  23.467  1.00  0.00     0.281 C 
ATOM     76  H   UNL A   1      33.401  30.061  24.864  1.00  0.00     0.163 HD
ATOM     77  O   UNL A   1      33.566  28.976  22.773  1.00  0.00    -0.268 OA
BRANCH  75  78
ATOM     78  C   UNL A   1      31.401  27.893  23.137  1.00  0.00     0.176 C 
ATOM     79  C   UNL A   1      31.265  26.844  24.272  1.00  0.00     0.079 C 
ATOM     80  C   UNL A   1      30.083  28.728  23.146  1.00  0.00     0.094 C 
ATOM     81  C   UNL A   1      30.067  25.914  24.081  1.00  0.00     0.008 C 
ATOM     82  C   UNL A   1      28.801  27.881  23.077  1.00  0.00     0.061 C 
ATOM     83  C   UNL A   1      28.766  26.706  24.064  1.00  0.00     0.015 C 
BRANCH  78  84
ATOM     84  N   UNL A   1      31.568  27.242  21.815  1.00  0.00    -0.331 N 
ATOM     85  H   UNL A   1      31.638  27.998  21.135  1.00  0.00     0.347 HD
ATOM     86  H   UNL A   1      30.765  26.613  21.792  1.00  0.00     0.347 HD
BRANCH  84  87
ATOM     87  C   UNL A   1      32.672  26.325  21.518  1.00  0.00     0.183 C 
ATOM     88  C   UNL A   1      32.660  24.836  21.691  1.00  0.00     0.071 C 
ATOM     89  C   UNL A   1      32.641  25.431  20.311  1.00  0.00     0.071 C 
ENDBRANCH  84  87
ENDBRANCH  78  84
BRANCH  82  90
ATOM     90  S   UNL A   1      27.278  28.903  23.220  1.00  0.00    -0.083 SA
BRANCH  90  91
ATOM     91  C   UNL A   1      27.678  30.309  22.312  1.00  0.00     0.183 A 
ATOM     92  N   UNL A   1      28.032  30.394  21.055  1.00  0.00    -0.210 NA
ATOM     93  N   UNL A   1      27.700  31.542  22.886  1.00  0.00    -0.254 N 
ATOM     94  C   UNL A   1      28.268  31.733  20.901  1.00  0.00     0.247 A 
ATOM     95  N   UNL A   1      28.092  32.476  21.999  1.00  0.00    -0.162 NA
ATOM     96  H   UNL A   1      27.461  31.726  23.823  1.00  0.00     0.192 HD
ENDBRANCH  90  91
ENDBRANCH  82  90
ENDBRANCH  75  78
ENDBRANCH  73  74
ENDBRANCH  72  73
ENDBRANCH   1  72
TORSDOF 15
ENDMDL
MODEL 2
REMARK VINA RESULT:     -12.2      0.180      1.682
REMARK SMILES O=C(NCCCCNC(=O)[C@@]1([NH2+]C2CC2)CCC[C@@H](Sc2ncn[nH]2)C1)c1ccc(-c2c3nc(c(-c4c(F)c(F)c(F)c(F)c4F)c4ccc([nH]4)c(-c4c(F)c(F)c(F)c(F)c4F)c4nc(c(-c5c(F)c(F)c(F)c(F)c5F)c5ccc2[nH]5)C=C4)C=C3)cc1
REMARK SMILES IDX 5 1 4 2 3 3 1 4 2 5 27 7 28 8 89 9 29 10 88 11 30 12 31 13
REMARK SMILES IDX 32 14 82 15 33 16 87 17 81 18 83 19 34 20 86 21 80 22 79 23
REMARK SMILES IDX 35 25 67 26 47 27 66 28 48 29 51 30 65 31 84 32 49 33 50 34
REMARK SMILES IDX 64 36 85 37 52 38 36 39 37 40 45 41 38 42 39 43 43 44 46 45
REMARK SMILES IDX 40 46 41 47 44 48 42 49 68 50 69 51 77 52 70 53 71 54 75 55
REMARK SMILES IDX 78 56 72 57 73 58 76 59 74 60 53 61 54 62 62 63 55 64 56 65
REMARK SMILES IDX 60 66 63 67 57 68 58 69 61 70 59 71 6 72 7 73 8 74 9 75
REMARK SMILES IDX 10 77 11 78 16 79 26 80 17 81 19 82 18 83 12 84 13 87 14 88
REMARK SMILES IDX 15 89 20 90 21 91 22 92 25 93 23 94 24 95
REMARK H PARENT 3 6 83 24 51 35 8 76 12 85 12 86 25 96
REMARK Flexibility Score: inf
ROOT
ATOM      1  C   UNL A   1      31.515  32.154  26.878  1.00  0.00     0.023 C 
ENDROOT
BRANCH   1   2
ATOM      2  C   UNL A   1      32.735  33.067  26.937  1.00  0.00     0.116 C 
BRANCH   2   3
ATOM      3  N   UNL A   1      32.479  34.320  27.629  1.00  0.00    -0.352 N 
ATOM      4  O   UNL A   1      32.591  35.858  29.272  1.00  0.00    -0.269 OA
ATOM      5  C   UNL A   1      33.051  34.844  28.765  1.00  0.00     0.251 C 
ATOM      6  H   UNL A   1      31.784  34.885  27.218  1.00  0.00     0.163 HD
BRANCH   5   7
ATOM      7  C   UNL A   1      34.208  34.172  29.399  1.00  0.00     0.039 A 
ATOM      8  C   UNL A   1      34.025  33.182  30.365  1.00  0.00     0.014 A 
ATOM      9  C   UNL A   1      35.501  34.516  28.991  1.00  0.00     0.014 A 
ATOM     10  C   UNL A   1      35.125  32.650  31.032  1.00  0.00     0.010 A 
ATOM     11  C   UNL A   1      36.608  33.915  29.598  1.00  0.00     0.010 A 
ATOM     12  C   UNL A   1      36.428  32.997  30.645  1.00  0.00    -0.014 A 
BRANCH  12  13
ATOM     13  C   UNL A   1      37.587  32.330  31.293  1.00  0.00     0.031 A 
ATOM     14  C   UNL A   1      38.336  31.225  30.606  1.00  0.00     0.074 A 
ATOM     15  C   UNL A   1      37.960  32.740  32.522  1.00  0.00     0.049 A 
ATOM     16  N   UNL A   1      39.352  30.522  31.042  1.00  0.00    -0.248 NA
ATOM     17  C   UNL A   1      37.887  30.850  29.256  1.00  0.00     0.031 C 
ATOM     18  C   UNL A   1      37.298  33.795  33.292  1.00  0.00     0.029 A 
ATOM     19  N   UNL A   1      38.982  32.327  33.337  1.00  0.00    -0.354 N 
ATOM     20  C   UNL A   1      39.647  29.610  30.038  1.00  0.00     0.074 A 
ATOM     21  C   UNL A   1      38.694  29.836  28.972  1.00  0.00     0.031 C 
ATOM     22  C   UNL A   1      37.944  33.965  34.454  1.00  0.00     0.029 A 
ATOM     23  C   UNL A   1      39.024  32.989  34.540  1.00  0.00     0.049 A 
ATOM     24  H   UNL A   1      39.624  31.624  33.085  1.00  0.00     0.167 HD
ATOM     25  C   UNL A   1      40.627  28.676  30.012  1.00  0.00     0.037 A 
ATOM     26  C   UNL A   1      39.821  32.811  35.609  1.00  0.00     0.037 A 
ATOM     27  C   UNL A   1      41.591  28.479  31.066  1.00  0.00     0.049 A 
ATOM     28  C   UNL A   1      40.880  31.748  35.560  1.00  0.00     0.074 A 
ATOM     29  C   UNL A   1      42.670  27.612  31.096  1.00  0.00     0.029 A 
ATOM     30  N   UNL A   1      41.584  29.150  32.280  1.00  0.00    -0.354 N 
ATOM     31  N   UNL A   1      41.185  30.934  34.580  1.00  0.00    -0.248 NA
ATOM     32  C   UNL A   1      41.700  31.573  36.766  1.00  0.00     0.031 C 
ATOM     33  C   UNL A   1      43.282  27.720  32.350  1.00  0.00     0.029 A 
ATOM     34  C   UNL A   1      42.615  28.688  33.082  1.00  0.00     0.049 A 
ATOM     35  H   UNL A   1      40.940  29.851  32.534  1.00  0.00     0.167 HD
ATOM     36  C   UNL A   1      42.235  30.156  35.045  1.00  0.00     0.074 A 
ATOM     37  C   UNL A   1      42.531  30.613  36.387  1.00  0.00     0.031 C 
ATOM     38  C   UNL A   1      42.891  29.149  34.418  1.00  0.00     0.037 A 
BRANCH  25  39
ATOM     39  C   UNL A   1      40.712  27.772  28.816  1.00  0.00     0.064 A 
ATOM     40  C   UNL A   1      39.965  26.590  28.726  1.00  0.00     0.173 A 
ATOM     41  C   UNL A   1      41.494  28.140  27.709  1.00  0.00     0.173 A 
ATOM     42  F   UNL A   1      39.206  26.191  29.757  1.00  0.00    -0.203 F 
ATOM     43  C   UNL A   1      40.007  25.801  27.577  1.00  0.00     0.198 A 
ATOM     44  C   UNL A   1      41.516  27.362  26.554  1.00  0.00     0.198 A 
ATOM     45  F   UNL A   1      42.222  29.266  27.740  1.00  0.00    -0.203 F 
ATOM     46  F   UNL A   1      39.306  24.660  27.524  1.00  0.00    -0.200 F 
ATOM     47  C   UNL A   1      40.775  26.192  26.491  1.00  0.00     0.200 A 
ATOM     48  F   UNL A   1      42.247  27.748  25.500  1.00  0.00    -0.200 F 
ATOM     49  F   UNL A   1      40.802  25.439  25.381  1.00  0.00    -0.200 F 
ENDBRANCH  25  39
BRANCH  26  50
ATOM     50  C   UNL A   1      39.618  33.640  36.825  1.00  0.00     0.064 A 
ATOM     51  C   UNL A   1      38.777  33.214  37.862  1.00  0.00     0.173 A 
ATOM     52  C   UNL A   1      40.271  34.874  36.977  1.00  0.00     0.173 A 
ATOM     53  F   UNL A   1      38.115  32.053  37.753  1.00  0.00    -0.203 F 
ATOM     54  C   UNL A   1      38.587  33.997  38.998  1.00  0.00     0.198 A 
ATOM     55  C   UNL A   1      40.104  35.639  38.127  1.00  0.00     0.198 A 
ATOM     56  F   UNL A   1      41.090  35.323  36.015  1.00  0.00    -0.203 F 
ATOM     57  F   UNL A   1      37.745  33.588  39.957  1.00  0.00    -0.200 F 
ATOM     58  C   UNL A   1      39.257  35.204  39.134  1.00  0.00     0.200 A 
ATOM     59  F   UNL A   1      40.767  36.796  38.261  1.00  0.00    -0.200 F 
ATOM     60  F   UNL A   1      39.079  35.952  40.232  1.00  0.00    -0.200 F 
ENDBRANCH  26  50
BRANCH  38  61
ATOM     61  C   UNL A   1      43.998  28.480  35.176  1.00  0.00     0.064 A 
ATOM     62  C   UNL A   1      45.327  28.914  35.062  1.00  0.00     0.173 A 
ATOM     63  C   UNL A   1      43.724  27.419  36.052  1.00  0.00     0.173 A 
ATOM     64  F   UNL A   1      45.641  29.912  34.222  1.00  0.00    -0.203 F 
ATOM     65  C   UNL A   1      46.345  28.297  35.784  1.00  0.00     0.198 A 
ATOM     66  C   UNL A   1      44.739  26.823  36.792  1.00  0.00     0.198 A 
ATOM     67  F   UNL A   1      42.469  26.970  36.197  1.00  0.00    -0.203 F 
ATOM     68  F   UNL A   1      47.613  28.699  35.628  1.00  0.00    -0.200 F 
ATOM     69  C   UNL A   1      46.049  27.258  36.654  1.00  0.00     0.200 A 
ATOM     70  F   UNL A   1      44.451  25.826  37.642  1.00  0.00    -0.200 F 
ATOM     71  F   UNL A   1      47.029  26.671  37.354  1.00  0.00    -0.200 F 
ENDBRANCH  38  61
ENDBRANCH  12  13
ENDBRANCH   5   7
ENDBRANCH   2   3
ENDBRANCH   1   2
BRANCH   1  72
ATOM     72  C   UNL A   1      31.805  30.653  26.820  1.00  0.00     0.023 C 
BRANCH  72  73
ATOM     73  C   UNL A   1      31.401  29.943  25.530  1.00  0.00     0.116 C 
BRANCH  73  74
ATOM     74  N   UNL A   1      32.508  29.642  24.645  1.00  0.00    -0.351 N 
ATOM     75  C   UNL A   1      32.500  28.925  23.477  1.00  0.00     0.281 C 
ATOM     76  H   UNL A   1      33.384  30.000  24.918  1.00  0.00     0.163 HD
ATOM     77  O   UNL A   1      33.494  29.061  22.754  1.00  0.00    -0.268 OA
BRANCH  75  78
ATOM     78  C   UNL A   1      31.367  27.906  23.121  1.00  0.00     0.176 C 
ATOM     79  C   UNL A   1      31.211  26.852  24.248  1.00  0.00     0.079 C 
ATOM     80  C   UNL A   1      30.046  28.737  23.107  1.00  0.00     0.094 C 
ATOM     81  C   UNL A   1      30.020  25.920  24.029  1.00  0.00     0.008 C 
ATOM     82  C   UNL A   1      28.768  27.887  23.008  1.00  0.00     0.061 C 
ATOM     83  C   UNL A   1      28.717  26.708  23.990  1.00  0.00     0.015 C 
BRANCH  78  84
ATOM     84  N   UNL A   1      31.562  27.261  21.800  1.00  0.00    -0.331 N 
ATOM     85  H   UNL A   1      31.654  28.021  21.126  1.00  0.00     0.347 HD
ATOM     86  H   UNL A   1      30.755  26.638  21.753  1.00  0.00     0.347 HD
BRANCH  84  87
ATOM     87  C   UNL A   1      32.666  26.338  21.525  1.00  0.00     0.183 C 
ATOM     88  C   UNL A   1      32.645  24.850  21.707  1.00  0.00     0.071 C 
ATOM     89  C   UNL A   1      32.650  25.437  20.324  1.00  0.00     0.071 C 
ENDBRANCH  84  87
ENDBRANCH  78  84
BRANCH  82  90
ATOM     90  S   UNL A   1      27.240  28.904  23.125  1.00  0.00    -0.083 SA
BRANCH  90  91
ATOM     91  C   UNL A   1      27.668  30.333  22.266  1.00  0.00     0.183 A 
ATOM     92  N   UNL A   1      28.032  30.454  21.015  1.00  0.00    -0.210 NA
ATOM     93  N   UNL A   1      27.706  31.546  22.880  1.00  0.00    -0.254 N 
ATOM     94  C   UNL A   1      28.290  31.793  20.907  1.00  0.00     0.247 A 
ATOM     95  N   UNL A   1      28.119  32.502  22.028  1.00  0.00    -0.162 NA
ATOM     96  H   UNL A   1      27.465  31.703  23.822  1.00  0.00     0.192 HD
ENDBRANCH  90  91
ENDBRANCH  82  90
ENDBRANCH  75  78
ENDBRANCH  73  74
ENDBRANCH  72  73
ENDBRANCH   1  72
TORSDOF 15
ENDMDL
MODEL 3
REMARK VINA RESULT:     -12.2      6.541     11.695
REMARK SMILES O=C(NCCCCNC(=O)[C@@]1([NH2+]C2CC2)CCC[C@@H](Sc2ncn[nH]2)C1)c1ccc(-c2c3nc(c(-c4c(F)c(F)c(F)c(F)c4F)c4ccc([nH]4)c(-c4c(F)c(F)c(F)c(F)c4F)c4nc(c(-c5c(F)c(F)c(F)c(F)c5F)c5ccc2[nH]5)C=C4)C=C3)cc1
REMARK SMILES IDX 5 1 4 2 3 3 1 4 2 5 27 7 28 8 89 9 29 10 88 11 30 12 31 13
REMARK SMILES IDX 32 14 82 15 33 16 87 17 81 18 83 19 34 20 86 21 80 22 79 23
REMARK SMILES IDX 35 25 67 26 47 27 66 28 48 29 51 30 65 31 84 32 49 33 50 34
REMARK SMILES IDX 64 36 85 37 52 38 36 39 37 40 45 41 38 42 39 43 43 44 46 45
REMARK SMILES IDX 40 46 41 47 44 48 42 49 68 50 69 51 77 52 70 53 71 54 75 55
REMARK SMILES IDX 78 56 72 57 73 58 76 59 74 60 53 61 54 62 62 63 55 64 56 65
REMARK SMILES IDX 60 66 63 67 57 68 58 69 61 70 59 71 6 72 7 73 8 74 9 75
REMARK SMILES IDX 10 77 11 78 16 79 26 80 17 81 19 82 18 83 12 84 13 87 14 88
REMARK SMILES IDX 15 89 20 90 21 91 22 92 25 93 23 94 24 95
REMARK H PARENT 3 6 83 24 51 35 8 76 12 85 12 86 25 96
REMARK Flexibility Score: inf
ROOT
ATOM      1  C   UNL A   1      38.015  19.543  24.639  1.00  0.00     0.023 C 
ENDROOT
BRANCH   1   2
ATOM      2  C   UNL A   1      38.989  19.963  25.735  1.00  0.00     0.116 C 
BRANCH   2   3
ATOM      3  N   UNL A   1      40.120  19.060  25.873  1.00  0.00    -0.352 N 
ATOM      4  O   UNL A   1      42.275  18.427  26.054  1.00  0.00    -0.269 OA
ATOM      5  C   UNL A   1      41.447  19.326  26.118  1.00  0.00     0.251 C 
ATOM      6  H   UNL A   1      39.901  18.105  25.773  1.00  0.00     0.163 HD
BRANCH   5   7
ATOM      7  C   UNL A   1      41.889  20.703  26.434  1.00  0.00     0.039 A 
ATOM      8  C   UNL A   1      41.991  21.674  25.436  1.00  0.00     0.014 A 
ATOM      9  C   UNL A   1      42.173  21.038  27.762  1.00  0.00     0.014 A 
ATOM     10  C   UNL A   1      42.522  22.925  25.736  1.00  0.00     0.010 A 
ATOM     11  C   UNL A   1      42.621  22.325  28.078  1.00  0.00     0.010 A 
ATOM     12  C   UNL A   1      42.826  23.270  27.062  1.00  0.00    -0.014 A 
BRANCH  12  13
ATOM     13  C   UNL A   1      43.283  24.649  27.373  1.00  0.00     0.031 A 
ATOM     14  C   UNL A   1      42.346  25.669  27.956  1.00  0.00     0.074 A 
ATOM     15  C   UNL A   1      44.567  24.974  27.122  1.00  0.00     0.049 A 
ATOM     16  N   UNL A   1      42.578  26.922  28.262  1.00  0.00    -0.248 NA
ATOM     17  C   UNL A   1      40.967  25.233  28.227  1.00  0.00     0.031 C 
ATOM     18  C   UNL A   1      45.563  24.070  26.543  1.00  0.00     0.029 A 
ATOM     19  N   UNL A   1      45.255  26.143  27.322  1.00  0.00    -0.354 N 
ATOM     20  C   UNL A   1      41.375  27.429  28.736  1.00  0.00     0.074 A 
ATOM     21  C   UNL A   1      40.408  26.354  28.665  1.00  0.00     0.031 C 
ATOM     22  C   UNL A   1      46.739  24.707  26.459  1.00  0.00     0.029 A 
ATOM     23  C   UNL A   1      46.566  26.081  26.914  1.00  0.00     0.049 A 
ATOM     24  H   UNL A   1      44.850  26.948  27.718  1.00  0.00     0.167 HD
ATOM     25  C   UNL A   1      41.111  28.677  29.191  1.00  0.00     0.037 A 
ATOM     26  C   UNL A   1      47.517  27.033  26.880  1.00  0.00     0.037 A 
ATOM     27  C   UNL A   1      42.088  29.732  29.286  1.00  0.00     0.049 A 
ATOM     28  C   UNL A   1      47.184  28.413  27.366  1.00  0.00     0.074 A 
ATOM     29  C   UNL A   1      41.935  31.004  29.808  1.00  0.00     0.029 A 
ATOM     30  N   UNL A   1      43.398  29.639  28.839  1.00  0.00    -0.354 N 
ATOM     31  N   UNL A   1      46.059  28.863  27.866  1.00  0.00    -0.248 NA
ATOM     32  C   UNL A   1      48.248  29.423  27.275  1.00  0.00     0.031 C 
ATOM     33  C   UNL A   1      43.135  31.700  29.627  1.00  0.00     0.029 A 
ATOM     34  C   UNL A   1      44.052  30.846  29.036  1.00  0.00     0.049 A 
ATOM     35  H   UNL A   1      43.803  28.835  28.440  1.00  0.00     0.167 HD
ATOM     36  C   UNL A   1      46.279  30.200  28.157  1.00  0.00     0.074 A 
ATOM     37  C   UNL A   1      47.654  30.484  27.801  1.00  0.00     0.031 C 
ATOM     38  C   UNL A   1      45.418  31.113  28.669  1.00  0.00     0.037 A 
BRANCH  25  39
ATOM     39  C   UNL A   1      39.705  28.994  29.610  1.00  0.00     0.064 A 
ATOM     40  C   UNL A   1      38.743  29.450  28.698  1.00  0.00     0.173 A 
ATOM     41  C   UNL A   1      39.294  28.759  30.933  1.00  0.00     0.173 A 
ATOM     42  F   UNL A   1      39.085  29.695  27.424  1.00  0.00    -0.203 F 
ATOM     43  C   UNL A   1      37.426  29.673  29.095  1.00  0.00     0.198 A 
ATOM     44  C   UNL A   1      37.972  28.959  31.321  1.00  0.00     0.198 A 
ATOM     45  F   UNL A   1      40.171  28.314  31.844  1.00  0.00    -0.203 F 
ATOM     46  F   UNL A   1      36.531  30.135  28.212  1.00  0.00    -0.200 F 
ATOM     47  C   UNL A   1      37.040  29.419  30.403  1.00  0.00     0.200 A 
ATOM     48  F   UNL A   1      37.597  28.701  32.581  1.00  0.00    -0.200 F 
ATOM     49  F   UNL A   1      35.769  29.619  30.779  1.00  0.00    -0.200 F 
ENDBRANCH  25  39
BRANCH  26  50
ATOM     50  C   UNL A   1      48.860  26.711  26.334  1.00  0.00     0.064 A 
ATOM     51  C   UNL A   1      49.172  26.946  24.989  1.00  0.00     0.173 A 
ATOM     52  C   UNL A   1      49.864  26.171  27.154  1.00  0.00     0.173 A 
ATOM     53  F   UNL A   1      48.239  27.441  24.162  1.00  0.00    -0.203 F 
ATOM     54  C   UNL A   1      50.432  26.639  24.480  1.00  0.00     0.198 A 
ATOM     55  C   UNL A   1      51.132  25.895  26.651  1.00  0.00     0.198 A 
ATOM     56  F   UNL A   1      49.617  25.932  28.450  1.00  0.00    -0.203 F 
ATOM     57  F   UNL A   1      50.693  26.833  23.180  1.00  0.00    -0.200 F 
ATOM     58  C   UNL A   1      51.414  26.122  25.313  1.00  0.00     0.200 A 
ATOM     59  F   UNL A   1      52.082  25.412  27.464  1.00  0.00    -0.200 F 
ATOM     60  F   UNL A   1      52.628  25.835  24.825  1.00  0.00    -0.200 F 
ENDBRANCH  26  50
BRANCH  38  61
ATOM     61  C   UNL A   1      45.942  32.502  28.880  1.00  0.00     0.064 A 
ATOM     62  C   UNL A   1      45.806  33.491  27.894  1.00  0.00     0.173 A 
ATOM     63  C   UNL A   1      46.552  32.858  30.092  1.00  0.00     0.173 A 
ATOM     64  F   UNL A   1      45.247  33.193  26.712  1.00  0.00    -0.203 F 
ATOM     65  C   UNL A   1      46.280  34.782  28.108  1.00  0.00     0.198 A 
ATOM     66  C   UNL A   1      47.000  34.156  30.312  1.00  0.00     0.198 A 
ATOM     67  F   UNL A   1      46.702  31.949  31.065  1.00  0.00    -0.203 F 
ATOM     68  F   UNL A   1      46.178  35.700  27.137  1.00  0.00    -0.200 F 
ATOM     69  C   UNL A   1      46.868  35.116  29.319  1.00  0.00     0.200 A 
ATOM     70  F   UNL A   1      47.558  34.482  31.487  1.00  0.00    -0.200 F 
ATOM     71  F   UNL A   1      47.316  36.361  29.526  1.00  0.00    -0.200 F 
ENDBRANCH  38  61
ENDBRANCH  12  13
ENDBRANCH   5   7
ENDBRANCH   2   3
ENDBRANCH   1   2
BRANCH   1  72
ATOM     72  C   UNL A   1      36.534  19.796  24.927  1.00  0.00     0.023 C 
BRANCH  72  73
ATOM     73  C   UNL A   1      36.128  21.254  25.122  1.00  0.00     0.116 C 
BRANCH  73  74
ATOM     74  N   UNL A   1      35.458  21.524  26.378  1.00  0.00    -0.351 N 
ATOM     75  C   UNL A   1      34.125  21.420  26.675  1.00  0.00     0.281 C 
ATOM     76  H   UNL A   1      36.037  21.821  27.116  1.00  0.00     0.163 HD
ATOM     77  O   UNL A   1      33.840  21.412  27.879  1.00  0.00    -0.268 OA
BRANCH  75  78
ATOM     78  C   UNL A   1      33.011  21.430  25.576  1.00  0.00     0.176 C 
ATOM     79  C   UNL A   1      33.330  22.491  24.490  1.00  0.00     0.079 C 
ATOM     80  C   UNL A   1      33.103  20.039  24.875  1.00  0.00     0.094 C 
ATOM     81  C   UNL A   1      32.360  22.445  23.310  1.00  0.00     0.008 C 
ATOM     82  C   UNL A   1      32.251  19.918  23.600  1.00  0.00     0.061 C 
ATOM     83  C   UNL A   1      32.413  21.088  22.620  1.00  0.00     0.015 C 
BRANCH  78  84
ATOM     84  N   UNL A   1      31.649  21.618  26.132  1.00  0.00    -0.331 N 
ATOM     85  H   UNL A   1      31.522  20.878  26.822  1.00  0.00     0.347 HD
ATOM     86  H   UNL A   1      31.079  21.623  25.285  1.00  0.00     0.347 HD
BRANCH  84  87
ATOM     87  C   UNL A   1      31.224  22.859  26.784  1.00  0.00     0.183 C 
ATOM     88  C   UNL A   1      30.518  24.008  26.129  1.00  0.00     0.071 C 
ATOM     89  C   UNL A   1      29.778  23.124  27.092  1.00  0.00     0.071 C 
ENDBRANCH  84  87
ENDBRANCH  78  84
BRANCH  82  90
ATOM     90  S   UNL A   1      32.495  18.308  22.745  1.00  0.00    -0.083 SA
BRANCH  90  91
ATOM     91  C   UNL A   1      33.036  17.282  24.017  1.00  0.00     0.183 A 
ATOM     92  N   UNL A   1      34.252  16.869  24.271  1.00  0.00    -0.210 NA
ATOM     93  N   UNL A   1      32.165  16.738  24.909  1.00  0.00    -0.254 N 
ATOM     94  C   UNL A   1      34.070  16.054  25.354  1.00  0.00     0.247 A 
ATOM     95  N   UNL A   1      32.806  15.931  25.774  1.00  0.00    -0.162 NA
ATOM     96  H   UNL A   1      31.196  16.912  24.921  1.00  0.00     0.192 HD
ENDBRANCH  90  91
ENDBRANCH  82  90
ENDBRANCH  75  78
ENDBRANCH  73  74
ENDBRANCH  72  73
ENDBRANCH   1  72
TORSDOF 15
ENDMDL
