MODEL 1
REMARK VINA RESULT:     -13.8      0.000      0.000
REMARK SMILES O=C(NCCCCNC(=O)[C@H]1CC=CC[C@@H]1C(=O)N[C@@H]1CCCN(c2ccccc2F)C1=O)c1ccc(-c2c3nc(c(-c4c(F)c(F)c(F)c(F)c4F)c4ccc([nH]4)c(-c4c(F)c(F)c(F)c(F)c4F)c4nc(c(-c5c(F)c(F)c(F)c(F)c5F)c5ccc2[nH]5)C=C4)C=C3)cc1
REMARK SMILES IDX 6 1 5 2 4 3 3 4 1 5 2 6 34 8 35 9 96 10 36 11 95 12 37 13
REMARK SMILES IDX 38 14 39 15 89 16 40 17 94 18 88 19 90 20 41 21 93 22 87 23
REMARK SMILES IDX 86 24 42 26 74 27 54 28 73 29 55 30 58 31 72 32 91 33 56 34
REMARK SMILES IDX 57 35 71 37 92 38 59 39 43 40 44 41 52 42 45 43 46 44 50 45
REMARK SMILES IDX 53 46 47 47 48 48 51 49 49 50 75 51 76 52 84 53 77 54 78 55
REMARK SMILES IDX 82 56 85 57 79 58 80 59 83 60 81 61 60 62 61 63 69 64 62 65
REMARK SMILES IDX 63 66 67 67 70 68 64 69 65 70 68 71 66 72 7 73 8 74 9 75
REMARK SMILES IDX 10 77 11 78 12 79 16 80 13 81 15 82 14 83 17 84 18 85 19 86
REMARK SMILES IDX 20 88 21 89 32 90 22 91 24 92 33 93 23 94 25 95 26 96 30 97
REMARK SMILES IDX 27 98 29 99 31 100 28 101
REMARK H PARENT 3 7 90 25 58 36 8 76 19 87
REMARK Flexibility Score: inf
ROOT
ATOM      1  C   UNL A   1      31.883  30.239  26.856  1.00  0.00     0.023 C 
ENDROOT
BRANCH   1   2
ATOM      2  C   UNL A   1      31.810  31.759  26.683  1.00  0.00     0.023 C 
BRANCH   2   3
ATOM      3  C   UNL A   1      32.915  32.593  27.333  1.00  0.00     0.116 C 
BRANCH   3   4
ATOM      4  N   UNL A   1      32.521  33.953  27.693  1.00  0.00    -0.352 N 
ATOM      5  O   UNL A   1      32.550  35.921  28.811  1.00  0.00    -0.269 OA
ATOM      6  C   UNL A   1      33.058  34.821  28.616  1.00  0.00     0.251 C 
ATOM      7  H   UNL A   1      31.748  34.305  27.196  1.00  0.00     0.163 HD
BRANCH   6   8
ATOM      8  C   UNL A   1      34.220  34.398  29.418  1.00  0.00     0.039 A 
ATOM      9  C   UNL A   1      35.515  34.661  28.971  1.00  0.00     0.014 A 
ATOM     10  C   UNL A   1      34.009  33.667  30.590  1.00  0.00     0.014 A 
ATOM     11  C   UNL A   1      36.583  34.009  29.569  1.00  0.00     0.010 A 
ATOM     12  C   UNL A   1      35.098  33.097  31.252  1.00  0.00     0.010 A 
ATOM     13  C   UNL A   1      36.388  33.214  30.711  1.00  0.00    -0.014 A 
BRANCH  13  14
ATOM     14  C   UNL A   1      37.555  32.537  31.330  1.00  0.00     0.031 A 
ATOM     15  C   UNL A   1      38.010  32.886  32.720  1.00  0.00     0.074 A 
ATOM     16  C   UNL A   1      38.168  31.556  30.643  1.00  0.00     0.049 A 
ATOM     17  N   UNL A   1      39.002  32.381  33.413  1.00  0.00    -0.248 NA
ATOM     18  C   UNL A   1      37.264  33.938  33.428  1.00  0.00     0.031 C 
ATOM     19  C   UNL A   1      37.803  31.129  29.290  1.00  0.00     0.029 A 
ATOM     20  N   UNL A   1      39.199  30.723  30.988  1.00  0.00    -0.354 N 
ATOM     21  C   UNL A   1      39.012  33.067  34.621  1.00  0.00     0.074 A 
ATOM     22  C   UNL A   1      37.941  34.038  34.564  1.00  0.00     0.031 C 
ATOM     23  C   UNL A   1      38.552  30.073  28.947  1.00  0.00     0.029 A 
ATOM     24  C   UNL A   1      39.501  29.798  30.020  1.00  0.00     0.049 A 
ATOM     25  H   UNL A   1      39.678  30.783  31.847  1.00  0.00     0.167 HD
ATOM     26  C   UNL A   1      39.840  32.893  35.679  1.00  0.00     0.037 A 
ATOM     27  C   UNL A   1      40.447  28.842  29.988  1.00  0.00     0.037 A 
ATOM     28  C   UNL A   1      40.888  31.905  35.734  1.00  0.00     0.049 A 
ATOM     29  C   UNL A   1      41.369  28.692  31.161  1.00  0.00     0.074 A 
ATOM     30  C   UNL A   1      41.762  31.633  36.772  1.00  0.00     0.029 A 
ATOM     31  N   UNL A   1      41.201  31.025  34.708  1.00  0.00    -0.354 N 
ATOM     32  N   UNL A   1      41.373  29.351  32.293  1.00  0.00    -0.248 NA
ATOM     33  C   UNL A   1      42.424  27.678  31.047  1.00  0.00     0.031 C 
ATOM     34  C   UNL A   1      42.633  30.621  36.358  1.00  0.00     0.029 A 
ATOM     35  C   UNL A   1      42.270  30.225  35.080  1.00  0.00     0.049 A 
ATOM     36  H   UNL A   1      40.733  30.975  33.843  1.00  0.00     0.167 HD
ATOM     37  C   UNL A   1      42.427  28.833  33.031  1.00  0.00     0.074 A 
ATOM     38  C   UNL A   1      43.026  27.787  32.224  1.00  0.00     0.031 C 
ATOM     39  C   UNL A   1      42.860  29.196  34.262  1.00  0.00     0.037 A 
BRANCH  26  40
ATOM     40  C   UNL A   1      39.666  33.795  36.867  1.00  0.00     0.064 A 
ATOM     41  C   UNL A   1      38.843  33.409  37.936  1.00  0.00     0.173 A 
ATOM     42  C   UNL A   1      40.250  35.070  36.918  1.00  0.00     0.173 A 
ATOM     43  F   UNL A   1      38.255  32.203  37.935  1.00  0.00    -0.203 F 
ATOM     44  C   UNL A   1      38.601  34.269  39.005  1.00  0.00     0.198 A 
ATOM     45  C   UNL A   1      40.025  35.919  38.001  1.00  0.00     0.198 A 
ATOM     46  F   UNL A   1      41.053  35.485  35.927  1.00  0.00    -0.203 F 
ATOM     47  F   UNL A   1      37.787  33.889  40.000  1.00  0.00    -0.200 F 
ATOM     48  C   UNL A   1      39.195  35.521  39.038  1.00  0.00     0.200 A 
ATOM     49  F   UNL A   1      40.617  37.121  38.041  1.00  0.00    -0.200 F 
ATOM     50  F   UNL A   1      38.969  36.345  40.070  1.00  0.00    -0.200 F 
ENDBRANCH  26  40
BRANCH  27  51
ATOM     51  C   UNL A   1      40.547  27.968  28.794  1.00  0.00     0.064 A 
ATOM     52  C   UNL A   1      41.319  28.342  27.683  1.00  0.00     0.173 A 
ATOM     53  C   UNL A   1      39.804  26.785  28.707  1.00  0.00     0.173 A 
ATOM     54  F   UNL A   1      42.039  29.472  27.716  1.00  0.00    -0.203 F 
ATOM     55  C   UNL A   1      41.313  27.583  26.517  1.00  0.00     0.198 A 
ATOM     56  C   UNL A   1      39.822  26.010  27.549  1.00  0.00     0.198 A 
ATOM     57  F   UNL A   1      39.065  26.380  29.751  1.00  0.00    -0.203 F 
ATOM     58  F   UNL A   1      42.015  27.991  25.450  1.00  0.00    -0.200 F 
ATOM     59  C   UNL A   1      40.566  26.417  26.450  1.00  0.00     0.200 A 
ATOM     60  F   UNL A   1      39.112  24.876  27.494  1.00  0.00    -0.200 F 
ATOM     61  F   UNL A   1      40.557  25.687  25.327  1.00  0.00    -0.200 F 
ENDBRANCH  27  51
BRANCH  39  62
ATOM     62  C   UNL A   1      44.038  28.456  34.820  1.00  0.00     0.064 A 
ATOM     63  C   UNL A   1      43.854  27.275  35.555  1.00  0.00     0.173 A 
ATOM     64  C   UNL A   1      45.343  28.950  34.681  1.00  0.00     0.173 A 
ATOM     65  F   UNL A   1      42.623  26.767  35.720  1.00  0.00    -0.203 F 
ATOM     66  C   UNL A   1      44.934  26.624  36.142  1.00  0.00     0.198 A 
ATOM     67  C   UNL A   1      46.424  28.281  35.248  1.00  0.00     0.198 A 
ATOM     68  F   UNL A   1      45.569  30.068  33.974  1.00  0.00    -0.203 F 
ATOM     69  F   UNL A   1      44.731  25.513  36.864  1.00  0.00    -0.200 F 
ATOM     70  C   UNL A   1      46.217  27.125  35.985  1.00  0.00     0.200 A 
ATOM     71  F   UNL A   1      47.666  28.754  35.076  1.00  0.00    -0.200 F 
ATOM     72  F   UNL A   1      47.257  26.489  36.542  1.00  0.00    -0.200 F 
ENDBRANCH  39  62
ENDBRANCH  13  14
ENDBRANCH   6   8
ENDBRANCH   3   4
ENDBRANCH   2   3
ENDBRANCH   1   2
BRANCH   1  73
ATOM     73  C   UNL A   1      33.263  29.624  26.694  1.00  0.00     0.116 C 
BRANCH  73  74
ATOM     74  N   UNL A   1      33.635  29.200  25.367  1.00  0.00    -0.356 N 
ATOM     75  C   UNL A   1      33.630  27.931  24.853  1.00  0.00     0.224 C 
ATOM     76  H   UNL A   1      33.932  29.912  24.755  1.00  0.00     0.163 HD
ATOM     77  O   UNL A   1      34.095  27.799  23.715  1.00  0.00    -0.275 OA
BRANCH  75  78
ATOM     78  C   UNL A   1      33.176  26.697  25.678  1.00  0.00     0.095 C 
ATOM     79  C   UNL A   1      31.812  26.808  26.388  1.00  0.00     0.041 C 
ATOM     80  C   UNL A   1      33.085  25.439  24.756  1.00  0.00     0.095 C 
ATOM     81  C   UNL A   1      30.690  26.932  25.398  1.00  0.00    -0.030 C 
ATOM     82  C   UNL A   1      31.999  25.664  23.671  1.00  0.00     0.041 C 
ATOM     83  C   UNL A   1      30.789  26.430  24.156  1.00  0.00    -0.030 C 
BRANCH  80  84
ATOM     84  C   UNL A   1      32.716  24.239  25.635  1.00  0.00     0.224 C 
ATOM     85  O   UNL A   1      31.612  23.693  25.574  1.00  0.00    -0.275 OA
ATOM     86  N   UNL A   1      33.510  23.861  26.683  1.00  0.00    -0.344 N 
ATOM     87  H   UNL A   1      33.171  24.030  27.592  1.00  0.00     0.164 HD
BRANCH  86  88
ATOM     88  C   UNL A   1      34.822  23.228  26.561  1.00  0.00     0.172 C 
ATOM     89  C   UNL A   1      35.842  23.891  25.650  1.00  0.00     0.037 C 
ATOM     90  C   UNL A   1      34.566  21.717  26.380  1.00  0.00     0.249 C 
ATOM     91  C   UNL A   1      36.837  22.860  25.143  1.00  0.00     0.025 C 
ATOM     92  N   UNL A   1      35.063  21.129  25.222  1.00  0.00    -0.308 N 
ATOM     93  O   UNL A   1      33.905  21.105  27.224  1.00  0.00    -0.272 OA
ATOM     94  C   UNL A   1      36.085  21.764  24.399  1.00  0.00     0.126 C 
BRANCH  92  95
ATOM     95  C   UNL A   1      34.401  19.979  24.694  1.00  0.00     0.080 A 
ATOM     96  C   UNL A   1      35.005  18.721  24.726  1.00  0.00     0.029 A 
ATOM     97  C   UNL A   1      33.139  20.095  24.088  1.00  0.00     0.146 A 
ATOM     98  C   UNL A   1      34.344  17.608  24.191  1.00  0.00     0.002 A 
ATOM     99  C   UNL A   1      32.489  18.998  23.533  1.00  0.00     0.041 A 
ATOM    100  F   UNL A   1      32.573  21.298  23.929  1.00  0.00    -0.205 F 
ATOM    101  C   UNL A   1      33.091  17.747  23.592  1.00  0.00     0.003 A 
ENDBRANCH  92  95
ENDBRANCH  86  88
ENDBRANCH  80  84
ENDBRANCH  75  78
ENDBRANCH  73  74
ENDBRANCH   1  73
TORSDOF 14
ENDMDL
MODEL 2
REMARK VINA RESULT:     -13.8      0.159      1.542
REMARK SMILES O=C(NCCCCNC(=O)[C@H]1CC=CC[C@@H]1C(=O)N[C@@H]1CCCN(c2ccccc2F)C1=O)c1ccc(-c2c3nc(c(-c4c(F)c(F)c(F)c(F)c4F)c4ccc([nH]4)c(-c4c(F)c(F)c(F)c(F)c4F)c4nc(c(-c5c(F)c(F)c(F)c(F)c5F)c5ccc2[nH]5)C=C4)C=C3)cc1
REMARK SMILES IDX 6 1 5 2 4 3 3 4 1 5 2 6 34 8 35 9 96 10 36 11 95 12 37 13
REMARK SMILES IDX 38 14 39 15 89 16 40 17 94 18 88 19 90 20 41 21 93 22 87 23
REMARK SMILES IDX 86 24 42 26 74 27 54 28 73 29 55 30 58 31 72 32 91 33 56 34
REMARK SMILES IDX 57 35 71 37 92 38 59 39 43 40 44 41 52 42 45 43 46 44 50 45
REMARK SMILES IDX 53 46 47 47 48 48 51 49 49 50 75 51 76 52 84 53 77 54 78 55
REMARK SMILES IDX 82 56 85 57 79 58 80 59 83 60 81 61 60 62 61 63 69 64 62 65
REMARK SMILES IDX 63 66 67 67 70 68 64 69 65 70 68 71 66 72 7 73 8 74 9 75
REMARK SMILES IDX 10 77 11 78 12 79 16 80 13 81 15 82 14 83 17 84 18 85 19 86
REMARK SMILES IDX 20 88 21 89 32 90 22 91 24 92 33 93 23 94 25 95 26 96 30 97
REMARK SMILES IDX 27 98 29 99 31 100 28 101
REMARK H PARENT 3 7 90 25 58 36 8 76 19 87
REMARK Flexibility Score: inf
ROOT
ATOM      1  C   UNL A   1      31.860  30.300  26.869  1.00  0.00     0.023 C 
ENDROOT
BRANCH   1   2
ATOM      2  C   UNL A   1      31.779  31.812  26.639  1.00  0.00     0.023 C 
BRANCH   2   3
ATOM      3  C   UNL A   1      32.881  32.674  27.259  1.00  0.00     0.116 C 
BRANCH   3   4
ATOM      4  N   UNL A   1      32.463  34.025  27.626  1.00  0.00    -0.352 N 
ATOM      5  O   UNL A   1      32.459  35.988  28.752  1.00  0.00    -0.269 OA
ATOM      6  C   UNL A   1      32.986  34.898  28.552  1.00  0.00     0.251 C 
ATOM      7  H   UNL A   1      31.683  34.366  27.131  1.00  0.00     0.163 HD
BRANCH   6   8
ATOM      8  C   UNL A   1      34.157  34.493  29.350  1.00  0.00     0.039 A 
ATOM      9  C   UNL A   1      35.444  34.645  28.836  1.00  0.00     0.014 A 
ATOM     10  C   UNL A   1      33.956  33.887  30.593  1.00  0.00     0.014 A 
ATOM     11  C   UNL A   1      36.502  33.997  29.456  1.00  0.00     0.010 A 
ATOM     12  C   UNL A   1      35.041  33.325  31.269  1.00  0.00     0.010 A 
ATOM     13  C   UNL A   1      36.313  33.324  30.675  1.00  0.00    -0.014 A 
BRANCH  13  14
ATOM     14  C   UNL A   1      37.468  32.648  31.316  1.00  0.00     0.031 A 
ATOM     15  C   UNL A   1      37.904  33.005  32.711  1.00  0.00     0.074 A 
ATOM     16  C   UNL A   1      38.089  31.661  30.645  1.00  0.00     0.049 A 
ATOM     17  N   UNL A   1      38.884  32.503  33.421  1.00  0.00    -0.248 NA
ATOM     18  C   UNL A   1      37.151  34.064  33.400  1.00  0.00     0.031 C 
ATOM     19  C   UNL A   1      37.743  31.225  29.290  1.00  0.00     0.029 A 
ATOM     20  N   UNL A   1      39.113  30.827  31.011  1.00  0.00    -0.354 N 
ATOM     21  C   UNL A   1      38.879  33.197  34.624  1.00  0.00     0.074 A 
ATOM     22  C   UNL A   1      37.812  34.170  34.545  1.00  0.00     0.031 C 
ATOM     23  C   UNL A   1      38.494  30.165  28.965  1.00  0.00     0.029 A 
ATOM     24  C   UNL A   1      39.426  29.895  30.054  1.00  0.00     0.049 A 
ATOM     25  H   UNL A   1      39.579  30.892  31.876  1.00  0.00     0.167 HD
ATOM     26  C   UNL A   1      39.691  33.028  35.696  1.00  0.00     0.037 A 
ATOM     27  C   UNL A   1      40.371  28.936  30.042  1.00  0.00     0.037 A 
ATOM     28  C   UNL A   1      40.735  32.037  35.773  1.00  0.00     0.049 A 
ATOM     29  C   UNL A   1      41.274  28.792  31.230  1.00  0.00     0.074 A 
ATOM     30  C   UNL A   1      41.593  31.770  36.826  1.00  0.00     0.029 A 
ATOM     31  N   UNL A   1      41.061  31.149  34.757  1.00  0.00    -0.354 N 
ATOM     32  N   UNL A   1      41.264  29.459  32.357  1.00  0.00    -0.248 NA
ATOM     33  C   UNL A   1      42.328  27.774  31.138  1.00  0.00     0.031 C 
ATOM     34  C   UNL A   1      42.468  30.753  36.431  1.00  0.00     0.029 A 
ATOM     35  C   UNL A   1      42.122  30.349  35.151  1.00  0.00     0.049 A 
ATOM     36  H   UNL A   1      40.605  31.095  33.886  1.00  0.00     0.167 HD
ATOM     37  C   UNL A   1      42.305  28.943  33.113  1.00  0.00     0.074 A 
ATOM     38  C   UNL A   1      42.913  27.890  32.323  1.00  0.00     0.031 C 
ATOM     39  C   UNL A   1      42.721  29.313  34.348  1.00  0.00     0.037 A 
BRANCH  26  40
ATOM     40  C   UNL A   1      39.502  33.938  36.875  1.00  0.00     0.064 A 
ATOM     41  C   UNL A   1      40.153  35.180  36.923  1.00  0.00     0.173 A 
ATOM     42  C   UNL A   1      38.742  33.554  37.990  1.00  0.00     0.173 A 
ATOM     43  F   UNL A   1      40.899  35.593  35.887  1.00  0.00    -0.203 F 
ATOM     44  C   UNL A   1      40.060  35.999  38.047  1.00  0.00     0.198 A 
ATOM     45  C   UNL A   1      38.631  34.386  39.103  1.00  0.00     0.198 A 
ATOM     46  F   UNL A   1      38.091  32.382  37.992  1.00  0.00    -0.203 F 
ATOM     47  F   UNL A   1      40.716  37.167  38.081  1.00  0.00    -0.200 F 
ATOM     48  C   UNL A   1      39.296  35.602  39.134  1.00  0.00     0.200 A 
ATOM     49  F   UNL A   1      37.875  34.011  40.144  1.00  0.00    -0.200 F 
ATOM     50  F   UNL A   1      39.200  36.394  40.211  1.00  0.00    -0.200 F 
ENDBRANCH  26  40
BRANCH  27  51
ATOM     51  C   UNL A   1      40.485  28.054  28.855  1.00  0.00     0.064 A 
ATOM     52  C   UNL A   1      41.246  28.434  27.739  1.00  0.00     0.173 A 
ATOM     53  C   UNL A   1      39.767  26.855  28.781  1.00  0.00     0.173 A 
ATOM     54  F   UNL A   1      41.943  29.579  27.761  1.00  0.00    -0.203 F 
ATOM     55  C   UNL A   1      41.253  27.664  26.579  1.00  0.00     0.198 A 
ATOM     56  C   UNL A   1      39.798  26.071  27.630  1.00  0.00     0.198 A 
ATOM     57  F   UNL A   1      39.039  26.444  29.830  1.00  0.00    -0.203 F 
ATOM     58  F   UNL A   1      41.944  28.077  25.508  1.00  0.00    -0.200 F 
ATOM     59  C   UNL A   1      40.530  26.483  26.525  1.00  0.00     0.200 A 
ATOM     60  F   UNL A   1      39.111  24.921  27.587  1.00  0.00    -0.200 F 
ATOM     61  F   UNL A   1      40.534  25.743  25.408  1.00  0.00    -0.200 F 
ENDBRANCH  27  51
BRANCH  39  62
ATOM     62  C   UNL A   1      43.889  28.574  34.929  1.00  0.00     0.064 A 
ATOM     63  C   UNL A   1      45.199  29.025  34.704  1.00  0.00     0.173 A 
ATOM     64  C   UNL A   1      43.715  27.386  35.653  1.00  0.00     0.173 A 
ATOM     65  F   UNL A   1      45.416  30.153  34.011  1.00  0.00    -0.203 F 
ATOM     66  C   UNL A   1      46.292  28.304  35.173  1.00  0.00     0.198 A 
ATOM     67  C   UNL A   1      44.811  26.681  36.143  1.00  0.00     0.198 A 
ATOM     68  F   UNL A   1      42.480  26.925  35.905  1.00  0.00    -0.203 F 
ATOM     69  F   UNL A   1      47.535  28.737  34.923  1.00  0.00    -0.200 F 
ATOM     70  C   UNL A   1      46.097  27.135  35.894  1.00  0.00     0.200 A 
ATOM     71  F   UNL A   1      44.620  25.565  36.859  1.00  0.00    -0.200 F 
ATOM     72  F   UNL A   1      47.151  26.448  36.355  1.00  0.00    -0.200 F 
ENDBRANCH  39  62
ENDBRANCH  13  14
ENDBRANCH   6   8
ENDBRANCH   3   4
ENDBRANCH   2   3
ENDBRANCH   1   2
BRANCH   1  73
ATOM     73  C   UNL A   1      33.239  29.683  26.711  1.00  0.00     0.116 C 
BRANCH  73  74
ATOM     74  N   UNL A   1      33.633  29.299  25.377  1.00  0.00    -0.356 N 
ATOM     75  C   UNL A   1      33.637  28.046  24.825  1.00  0.00     0.224 C 
ATOM     76  H   UNL A   1      33.936  30.030  24.791  1.00  0.00     0.163 HD
ATOM     77  O   UNL A   1      34.119  27.949  23.691  1.00  0.00    -0.275 OA
BRANCH  75  78
ATOM     78  C   UNL A   1      33.174  26.787  25.606  1.00  0.00     0.095 C 
ATOM     79  C   UNL A   1      31.788  26.866  26.277  1.00  0.00     0.041 C 
ATOM     80  C   UNL A   1      33.124  25.551  24.652  1.00  0.00     0.095 C 
ATOM     81  C   UNL A   1      30.694  27.002  25.257  1.00  0.00    -0.030 C 
ATOM     82  C   UNL A   1      32.068  25.791  23.540  1.00  0.00     0.041 C 
ATOM     83  C   UNL A   1      30.836  26.532  24.008  1.00  0.00    -0.030 C 
BRANCH  80  84
ATOM     84  C   UNL A   1      32.744  24.326  25.490  1.00  0.00     0.224 C 
ATOM     85  O   UNL A   1      31.651  23.766  25.378  1.00  0.00    -0.275 OA
ATOM     86  N   UNL A   1      33.507  23.936  26.555  1.00  0.00    -0.344 N 
ATOM     87  H   UNL A   1      33.134  24.079  27.456  1.00  0.00     0.164 HD
BRANCH  86  88
ATOM     88  C   UNL A   1      34.832  23.324  26.464  1.00  0.00     0.172 C 
ATOM     89  C   UNL A   1      35.845  23.974  25.537  1.00  0.00     0.037 C 
ATOM     90  C   UNL A   1      34.607  21.803  26.337  1.00  0.00     0.249 C 
ATOM     91  C   UNL A   1      36.863  22.945  25.074  1.00  0.00     0.025 C 
ATOM     92  N   UNL A   1      35.122  21.184  25.205  1.00  0.00    -0.308 N 
ATOM     93  O   UNL A   1      33.952  21.209  27.199  1.00  0.00    -0.272 OA
ATOM     94  C   UNL A   1      36.138  21.808  24.365  1.00  0.00     0.126 C 
BRANCH  92  95
ATOM     95  C   UNL A   1      34.487  20.003  24.715  1.00  0.00     0.080 A 
ATOM     96  C   UNL A   1      35.128  18.764  24.767  1.00  0.00     0.029 A 
ATOM     97  C   UNL A   1      33.212  20.067  24.127  1.00  0.00     0.146 A 
ATOM     98  C   UNL A   1      34.492  17.619  24.268  1.00  0.00     0.002 A 
ATOM     99  C   UNL A   1      32.586  18.939  23.609  1.00  0.00     0.041 A 
ATOM    100  F   UNL A   1      32.609  21.248  23.949  1.00  0.00    -0.205 F 
ATOM    101  C   UNL A   1      33.226  17.707  23.687  1.00  0.00     0.003 A 
ENDBRANCH  92  95
ENDBRANCH  86  88
ENDBRANCH  80  84
ENDBRANCH  75  78
ENDBRANCH  73  74
ENDBRANCH   1  73
TORSDOF 14
ENDMDL
MODEL 3
REMARK VINA RESULT:     -13.7      0.233      7.124
REMARK SMILES O=C(NCCCCNC(=O)[C@H]1CC=CC[C@@H]1C(=O)N[C@@H]1CCCN(c2ccccc2F)C1=O)c1ccc(-c2c3nc(c(-c4c(F)c(F)c(F)c(F)c4F)c4ccc([nH]4)c(-c4c(F)c(F)c(F)c(F)c4F)c4nc(c(-c5c(F)c(F)c(F)c(F)c5F)c5ccc2[nH]5)C=C4)C=C3)cc1
REMARK SMILES IDX 6 1 5 2 4 3 3 4 1 5 2 6 34 8 35 9 96 10 36 11 95 12 37 13
REMARK SMILES IDX 38 14 39 15 89 16 40 17 94 18 88 19 90 20 41 21 93 22 87 23
REMARK SMILES IDX 86 24 42 26 74 27 54 28 73 29 55 30 58 31 72 32 91 33 56 34
REMARK SMILES IDX 57 35 71 37 92 38 59 39 43 40 44 41 52 42 45 43 46 44 50 45
REMARK SMILES IDX 53 46 47 47 48 48 51 49 49 50 75 51 76 52 84 53 77 54 78 55
REMARK SMILES IDX 82 56 85 57 79 58 80 59 83 60 81 61 60 62 61 63 69 64 62 65
REMARK SMILES IDX 63 66 67 67 70 68 64 69 65 70 68 71 66 72 7 73 8 74 9 75
REMARK SMILES IDX 10 77 11 78 12 79 16 80 13 81 15 82 14 83 17 84 18 85 19 86
REMARK SMILES IDX 20 88 21 89 32 90 22 91 24 92 33 93 23 94 25 95 26 96 30 97
REMARK SMILES IDX 27 98 29 99 31 100 28 101
REMARK H PARENT 3 7 90 25 58 36 8 76 19 87
REMARK Flexibility Score: inf
ROOT
ATOM      1  C   UNL A   1      31.932  30.235  26.683  1.00  0.00     0.023 C 
ENDROOT
BRANCH   1   2
ATOM      2  C   UNL A   1      31.730  31.748  26.798  1.00  0.00     0.023 C 
BRANCH   2   3
ATOM      3  C   UNL A   1      32.906  32.575  27.322  1.00  0.00     0.116 C 
BRANCH   3   4
ATOM      4  N   UNL A   1      32.580  33.960  27.650  1.00  0.00    -0.352 N 
ATOM      5  O   UNL A   1      32.696  35.945  28.730  1.00  0.00    -0.269 OA
ATOM      6  C   UNL A   1      33.148  34.816  28.565  1.00  0.00     0.251 C 
ATOM      7  H   UNL A   1      31.834  34.343  27.133  1.00  0.00     0.163 HD
BRANCH   6   8
ATOM      8  C   UNL A   1      34.274  34.348  29.393  1.00  0.00     0.039 A 
ATOM      9  C   UNL A   1      35.587  34.552  28.972  1.00  0.00     0.014 A 
ATOM     10  C   UNL A   1      34.006  33.635  30.564  1.00  0.00     0.014 A 
ATOM     11  C   UNL A   1      36.614  33.857  29.595  1.00  0.00     0.010 A 
ATOM     12  C   UNL A   1      35.056  33.022  31.252  1.00  0.00     0.010 A 
ATOM     13  C   UNL A   1      36.361  33.079  30.737  1.00  0.00    -0.014 A 
BRANCH  13  14
ATOM     14  C   UNL A   1      37.483  32.356  31.385  1.00  0.00     0.031 A 
ATOM     15  C   UNL A   1      38.239  31.279  30.657  1.00  0.00     0.074 A 
ATOM     16  C   UNL A   1      37.855  32.725  32.625  1.00  0.00     0.049 A 
ATOM     17  N   UNL A   1      39.253  30.559  31.073  1.00  0.00    -0.248 NA
ATOM     18  C   UNL A   1      37.804  30.960  29.289  1.00  0.00     0.031 C 
ATOM     19  C   UNL A   1      37.198  33.765  33.420  1.00  0.00     0.029 A 
ATOM     20  N   UNL A   1      38.883  32.296  33.422  1.00  0.00    -0.354 N 
ATOM     21  C   UNL A   1      39.558  29.692  30.033  1.00  0.00     0.074 A 
ATOM     22  C   UNL A   1      38.614  29.959  28.970  1.00  0.00     0.031 C 
ATOM     23  C   UNL A   1      37.878  33.940  34.561  1.00  0.00     0.029 A 
ATOM     24  C   UNL A   1      38.969  32.973  34.613  1.00  0.00     0.049 A 
ATOM     25  H   UNL A   1      39.500  31.573  33.165  1.00  0.00     0.167 HD
ATOM     26  C   UNL A   1      40.544  28.764  29.973  1.00  0.00     0.037 A 
ATOM     27  C   UNL A   1      39.820  32.824  35.645  1.00  0.00     0.037 A 
ATOM     28  C   UNL A   1      41.496  28.525  31.030  1.00  0.00     0.049 A 
ATOM     29  C   UNL A   1      40.882  31.769  35.564  1.00  0.00     0.074 A 
ATOM     30  C   UNL A   1      42.547  27.625  31.054  1.00  0.00     0.029 A 
ATOM     31  N   UNL A   1      41.512  29.191  32.247  1.00  0.00    -0.354 N 
ATOM     32  N   UNL A   1      41.156  30.951  34.578  1.00  0.00    -0.248 NA
ATOM     33  C   UNL A   1      41.742  31.605  36.743  1.00  0.00     0.031 C 
ATOM     34  C   UNL A   1      43.171  27.714  32.302  1.00  0.00     0.029 A 
ATOM     35  C   UNL A   1      42.541  28.706  33.038  1.00  0.00     0.049 A 
ATOM     36  H   UNL A   1      40.886  29.904  32.510  1.00  0.00     0.167 HD
ATOM     37  C   UNL A   1      42.221  30.176  35.012  1.00  0.00     0.074 A 
ATOM     38  C   UNL A   1      42.557  30.638  36.345  1.00  0.00     0.031 C 
ATOM     39  C   UNL A   1      42.856  29.170  34.365  1.00  0.00     0.037 A 
BRANCH  26  40
ATOM     40  C   UNL A   1      40.646  27.920  28.736  1.00  0.00     0.064 A 
ATOM     41  C   UNL A   1      41.418  28.350  27.646  1.00  0.00     0.173 A 
ATOM     42  C   UNL A   1      39.923  26.726  28.596  1.00  0.00     0.173 A 
ATOM     43  F   UNL A   1      42.123  29.488  27.723  1.00  0.00    -0.203 F 
ATOM     44  C   UNL A   1      41.453  27.623  26.458  1.00  0.00     0.198 A 
ATOM     45  C   UNL A   1      39.980  25.988  27.415  1.00  0.00     0.198 A 
ATOM     46  F   UNL A   1      39.178  26.264  29.611  1.00  0.00    -0.203 F 
ATOM     47  F   UNL A   1      42.174  28.070  25.420  1.00  0.00    -0.200 F 
ATOM     48  C   UNL A   1      40.737  26.441  26.345  1.00  0.00     0.200 A 
ATOM     49  F   UNL A   1      39.304  24.834  27.314  1.00  0.00    -0.200 F 
ATOM     50  F   UNL A   1      40.778  25.737  25.205  1.00  0.00    -0.200 F 
ENDBRANCH  26  40
BRANCH  27  51
ATOM     51  C   UNL A   1      39.680  33.710  36.826  1.00  0.00     0.064 A 
ATOM     52  C   UNL A   1      38.885  33.339  37.921  1.00  0.00     0.173 A 
ATOM     53  C   UNL A   1      40.269  34.980  36.845  1.00  0.00     0.173 A 
ATOM     54  F   UNL A   1      38.292  32.136  37.943  1.00  0.00    -0.203 F 
ATOM     55  C   UNL A   1      38.654  34.221  38.973  1.00  0.00     0.198 A 
ATOM     56  C   UNL A   1      40.061  35.851  37.912  1.00  0.00     0.198 A 
ATOM     57  F   UNL A   1      41.050  35.370  35.827  1.00  0.00    -0.203 F 
ATOM     58  F   UNL A   1      37.846  33.863  39.980  1.00  0.00    -0.200 F 
ATOM     59  C   UNL A   1      39.243  35.476  38.969  1.00  0.00     0.200 A 
ATOM     60  F   UNL A   1      40.645  37.056  37.912  1.00  0.00    -0.200 F 
ATOM     61  F   UNL A   1      39.020  36.326  39.979  1.00  0.00    -0.200 F 
ENDBRANCH  27  51
BRANCH  39  62
ATOM     62  C   UNL A   1      43.987  28.498  35.085  1.00  0.00     0.064 A 
ATOM     63  C   UNL A   1      43.745  27.388  35.910  1.00  0.00     0.173 A 
ATOM     64  C   UNL A   1      45.297  28.990  35.008  1.00  0.00     0.173 A 
ATOM     65  F   UNL A   1      42.506  26.885  36.020  1.00  0.00    -0.203 F 
ATOM     66  C   UNL A   1      44.774  26.806  36.642  1.00  0.00     0.198 A 
ATOM     67  C   UNL A   1      46.329  28.388  35.723  1.00  0.00     0.198 A 
ATOM     68  F   UNL A   1      45.578  30.040  34.221  1.00  0.00    -0.203 F 
ATOM     69  F   UNL A   1      44.516  25.765  37.445  1.00  0.00    -0.200 F 
ATOM     70  C   UNL A   1      46.065  27.303  36.545  1.00  0.00     0.200 A 
ATOM     71  F   UNL A   1      47.580  28.856  35.610  1.00  0.00    -0.200 F 
ATOM     72  F   UNL A   1      47.057  26.734  37.242  1.00  0.00    -0.200 F 
ENDBRANCH  39  62
ENDBRANCH  13  14
ENDBRANCH   6   8
ENDBRANCH   3   4
ENDBRANCH   2   3
ENDBRANCH   1   2
BRANCH   1  73
ATOM     73  C   UNL A   1      33.361  29.778  26.446  1.00  0.00     0.116 C 
BRANCH  73  74
ATOM     74  N   UNL A   1      33.688  29.322  25.117  1.00  0.00    -0.356 N 
ATOM     75  C   UNL A   1      33.656  28.043  24.631  1.00  0.00     0.224 C 
ATOM     76  H   UNL A   1      33.970  30.019  24.481  1.00  0.00     0.163 HD
ATOM     77  O   UNL A   1      34.083  27.883  23.481  1.00  0.00    -0.275 OA
BRANCH  75  78
ATOM     78  C   UNL A   1      33.219  26.831  25.495  1.00  0.00     0.095 C 
ATOM     79  C   UNL A   1      31.838  26.932  26.174  1.00  0.00     0.041 C 
ATOM     80  C   UNL A   1      33.179  25.535  24.624  1.00  0.00     0.095 C 
ATOM     81  C   UNL A   1      30.733  26.985  25.159  1.00  0.00    -0.030 C 
ATOM     82  C   UNL A   1      32.110  25.687  23.510  1.00  0.00     0.041 C 
ATOM     83  C   UNL A   1      30.871  26.438  23.941  1.00  0.00    -0.030 C 
BRANCH  80  84
ATOM     84  C   UNL A   1      32.825  24.361  25.543  1.00  0.00     0.224 C 
ATOM     85  O   UNL A   1      31.721  23.813  25.516  1.00  0.00    -0.275 OA
ATOM     86  N   UNL A   1      33.636  24.014  26.588  1.00  0.00    -0.344 N 
ATOM     87  H   UNL A   1      33.312  24.209  27.497  1.00  0.00     0.164 HD
BRANCH  86  88
ATOM     88  C   UNL A   1      34.947  23.377  26.462  1.00  0.00     0.172 C 
ATOM     89  C   UNL A   1      35.950  24.010  25.514  1.00  0.00     0.037 C 
ATOM     90  C   UNL A   1      34.688  21.860  26.334  1.00  0.00     0.249 C 
ATOM     91  C   UNL A   1      36.936  22.964  25.021  1.00  0.00     0.025 C 
ATOM     92  N   UNL A   1      35.164  21.236  25.187  1.00  0.00    -0.308 N 
ATOM     93  O   UNL A   1      34.042  21.276  27.209  1.00  0.00    -0.272 OA
ATOM     94  C   UNL A   1      36.171  21.845  24.326  1.00  0.00     0.126 C 
BRANCH  92  95
ATOM     95  C   UNL A   1      34.493  20.070  24.708  1.00  0.00     0.080 A 
ATOM     96  C   UNL A   1      35.102  18.815  24.760  1.00  0.00     0.029 A 
ATOM     97  C   UNL A   1      33.216  20.166  24.130  1.00  0.00     0.146 A 
ATOM     98  C   UNL A   1      34.432  17.686  24.272  1.00  0.00     0.002 A 
ATOM     99  C   UNL A   1      32.557  19.052  23.622  1.00  0.00     0.041 A 
ATOM    100  F   UNL A   1      32.643  21.362  23.951  1.00  0.00    -0.205 F 
ATOM    101  C   UNL A   1      33.164  17.805  23.700  1.00  0.00     0.003 A 
ENDBRANCH  92  95
ENDBRANCH  86  88
ENDBRANCH  80  84
ENDBRANCH  75  78
ENDBRANCH  73  74
ENDBRANCH   1  73
TORSDOF 14
ENDMDL
