MODEL 1
REMARK VINA RESULT:     -13.1      0.000      0.000
REMARK SMILES C[C@H]1[C@@H](C(=O)NCCCCNC(=O)c2ccc(-c3c4nc(c(-c5c(F)c(F)c(F)c(F)c5F)c5ccc([nH]5)c(-c5c(F)c(F)c(F)c(F)c5F)c5nc(c(-c6c(F)c(F)c(F)c(F)c6F)c6ccc3[nH]6)C=C5)C=C4)cc2)CCN1C(=O)c1cc([N+](=O)[O-])ccc1Br
REMARK SMILES IDX 8 1 7 2 6 3 4 4 5 5 3 7 1 8 2 9 79 10 77 11 78 12 80 13
REMARK SMILES IDX 81 14 82 15 83 16 90 17 84 18 89 19 91 20 88 21 85 22 86 23
REMARK SMILES IDX 87 24 9 25 10 26 11 27 12 28 13 30 14 31 15 32 76 33 16 34
REMARK SMILES IDX 75 35 17 36 18 37 19 38 69 39 20 40 74 41 68 42 70 43 21 44
REMARK SMILES IDX 73 45 67 46 66 47 22 49 54 50 34 51 53 52 35 53 38 54 52 55
REMARK SMILES IDX 71 56 36 57 37 58 51 60 72 61 39 62 23 63 24 64 32 65 25 66
REMARK SMILES IDX 26 67 30 68 33 69 27 70 28 71 31 72 29 73 55 74 56 75 64 76
REMARK SMILES IDX 57 77 58 78 62 79 65 80 59 81 60 82 63 83 61 84 40 85 41 86
REMARK SMILES IDX 49 87 42 88 43 89 47 90 50 91 44 92 45 93 48 94 46 95
REMARK H PARENT 6 6 11 29 70 48 38 59
REMARK Flexibility Score: inf
ROOT
ATOM      1  C   UNL A   1      32.107  30.282  26.892  1.00  0.00     0.023 C 
ENDROOT
BRANCH   1   2
ATOM      2  C   UNL A   1      32.494  29.559  25.594  1.00  0.00     0.116 C 
BRANCH   2   3
ATOM      3  N   UNL A   1      31.296  29.059  24.945  1.00  0.00    -0.356 N 
ATOM      4  C   UNL A   1      30.969  27.819  24.480  1.00  0.00     0.225 C 
ATOM      5  O   UNL A   1      30.008  27.775  23.707  1.00  0.00    -0.275 OA
ATOM      6  H   UNL A   1      30.594  29.736  24.817  1.00  0.00     0.163 HD
BRANCH   4   7
ATOM      7  C   UNL A   1      31.665  26.541  24.980  1.00  0.00     0.102 C 
ATOM      8  C   UNL A   1      33.511  26.825  23.169  1.00  0.00     0.032 C 
ATOM      9  C   UNL A   1      32.881  25.943  24.219  1.00  0.00     0.094 C 
ATOM     10  N   UNL A   1      32.415  24.702  23.597  1.00  0.00    -0.335 N 
ATOM     11  C   UNL A   1      30.664  25.356  24.969  1.00  0.00     0.037 C 
ATOM     12  C   UNL A   1      30.973  24.623  23.672  1.00  0.00     0.121 C 
BRANCH  10  13
ATOM     13  C   UNL A   1      33.177  23.704  22.999  1.00  0.00     0.255 C 
ATOM     14  O   UNL A   1      33.624  23.770  21.860  1.00  0.00    -0.269 OA
BRANCH  13  15
ATOM     15  C   UNL A   1      33.522  22.508  23.808  1.00  0.00     0.061 A 
ATOM     16  C   UNL A   1      32.721  21.364  23.643  1.00  0.00     0.100 A 
ATOM     17  C   UNL A   1      34.646  22.465  24.642  1.00  0.00     0.031 A 
ATOM     18  C   UNL A   1      33.125  20.154  24.220  1.00  0.00     0.270 A 
ATOM     19  C   UNL A   1      35.026  21.254  25.234  1.00  0.00     0.023 A 
ATOM     20  Br  UNL A   1      35.695  24.000  25.021  1.00  0.00    -0.050 Br
ATOM     21  C   UNL A   1      34.281  20.091  25.008  1.00  0.00     0.087 A 
BRANCH  18  22
ATOM     22  N   UNL A   1      32.375  18.922  23.936  1.00  0.00     0.062 N 
ATOM     23  O   UNL A   1      32.009  18.239  24.901  1.00  0.00    -0.258 OA
ATOM     24  O   UNL A   1      32.132  18.659  22.750  1.00  0.00    -0.258 OA
ENDBRANCH  18  22
ENDBRANCH  13  15
ENDBRANCH  10  13
ENDBRANCH   4   7
ENDBRANCH   2   3
ENDBRANCH   1   2
BRANCH   1  25
ATOM     25  C   UNL A   1      31.825  31.764  26.784  1.00  0.00     0.023 C 
BRANCH  25  26
ATOM     26  C   UNL A   1      32.908  32.632  27.389  1.00  0.00     0.116 C 
BRANCH  26  27
ATOM     27  N   UNL A   1      32.491  34.004  27.674  1.00  0.00    -0.352 N 
ATOM     28  C   UNL A   1      33.012  34.889  28.591  1.00  0.00     0.251 C 
ATOM     29  H   UNL A   1      31.737  34.341  27.139  1.00  0.00     0.163 HD
ATOM     30  O   UNL A   1      32.517  35.997  28.755  1.00  0.00    -0.269 OA
BRANCH  28  31
ATOM     31  C   UNL A   1      34.153  34.446  29.411  1.00  0.00     0.039 A 
ATOM     32  C   UNL A   1      33.913  33.739  30.591  1.00  0.00     0.014 A 
ATOM     33  C   UNL A   1      35.450  34.596  28.916  1.00  0.00     0.014 A 
ATOM     34  C   UNL A   1      34.973  33.086  31.218  1.00  0.00     0.010 A 
ATOM     35  C   UNL A   1      36.469  33.838  29.464  1.00  0.00     0.010 A 
ATOM     36  C   UNL A   1      36.246  33.081  30.624  1.00  0.00    -0.014 A 
BRANCH  36  37
ATOM     37  C   UNL A   1      37.378  32.316  31.200  1.00  0.00     0.031 A 
ATOM     38  C   UNL A   1      37.863  32.657  32.583  1.00  0.00     0.074 A 
ATOM     39  C   UNL A   1      38.027  31.400  30.456  1.00  0.00     0.049 A 
ATOM     40  N   UNL A   1      38.913  32.218  33.225  1.00  0.00    -0.248 NA
ATOM     41  C   UNL A   1      37.093  33.674  33.320  1.00  0.00     0.031 C 
ATOM     42  C   UNL A   1      37.701  31.039  29.074  1.00  0.00     0.029 A 
ATOM     43  N   UNL A   1      39.108  30.612  30.757  1.00  0.00    -0.354 N 
ATOM     44  C   UNL A   1      38.949  32.933  34.414  1.00  0.00     0.074 A 
ATOM     45  C   UNL A   1      37.860  33.882  34.376  1.00  0.00     0.031 C 
ATOM     46  C   UNL A   1      38.542  30.075  28.661  1.00  0.00     0.029 A 
ATOM     47  C   UNL A   1      39.484  29.776  29.734  1.00  0.00     0.049 A 
ATOM     48  H   UNL A   1      39.572  30.643  31.625  1.00  0.00     0.167 HD
ATOM     49  C   UNL A   1      39.792  32.786  35.462  1.00  0.00     0.037 A 
ATOM     50  C   UNL A   1      40.476  28.868  29.677  1.00  0.00     0.037 A 
ATOM     51  C   UNL A   1      40.824  31.789  35.525  1.00  0.00     0.049 A 
ATOM     52  C   UNL A   1      41.358  28.675  30.881  1.00  0.00     0.074 A 
ATOM     53  C   UNL A   1      41.675  31.491  36.573  1.00  0.00     0.029 A 
ATOM     54  N   UNL A   1      41.131  30.913  34.494  1.00  0.00    -0.354 N 
ATOM     55  N   UNL A   1      41.339  29.307  32.029  1.00  0.00    -0.248 NA
ATOM     56  C   UNL A   1      42.393  27.636  30.785  1.00  0.00     0.031 C 
ATOM     57  C   UNL A   1      42.516  30.449  36.167  1.00  0.00     0.029 A 
ATOM     58  C   UNL A   1      42.165  30.078  34.878  1.00  0.00     0.049 A 
ATOM     59  H   UNL A   1      40.681  30.891  33.618  1.00  0.00     0.167 HD
ATOM     60  C   UNL A   1      42.337  28.729  32.800  1.00  0.00     0.074 A 
ATOM     61  C   UNL A   1      42.935  27.684  31.993  1.00  0.00     0.031 C 
ATOM     62  C   UNL A   1      42.729  29.036  34.061  1.00  0.00     0.037 A 
BRANCH  49  63
ATOM     63  C   UNL A   1      39.606  33.709  36.630  1.00  0.00     0.064 A 
ATOM     64  C   UNL A   1      38.811  33.351  37.730  1.00  0.00     0.173 A 
ATOM     65  C   UNL A   1      40.234  34.962  36.654  1.00  0.00     0.173 A 
ATOM     66  F   UNL A   1      38.174  32.170  37.747  1.00  0.00    -0.203 F 
ATOM     67  C   UNL A   1      38.619  34.230  38.792  1.00  0.00     0.198 A 
ATOM     68  C   UNL A   1      40.066  35.826  37.733  1.00  0.00     0.198 A 
ATOM     69  F   UNL A   1      41.004  35.353  35.627  1.00  0.00    -0.203 F 
ATOM     70  F   UNL A   1      37.804  33.891  39.800  1.00  0.00    -0.200 F 
ATOM     71  C   UNL A   1      39.252  35.464  38.796  1.00  0.00     0.200 A 
ATOM     72  F   UNL A   1      40.684  37.016  37.739  1.00  0.00    -0.200 F 
ATOM     73  F   UNL A   1      39.067  36.309  39.819  1.00  0.00    -0.200 F 
ENDBRANCH  49  63
BRANCH  50  74
ATOM     74  C   UNL A   1      40.658  28.036  28.458  1.00  0.00     0.064 A 
ATOM     75  C   UNL A   1      41.464  28.483  27.401  1.00  0.00     0.173 A 
ATOM     76  C   UNL A   1      40.035  26.788  28.321  1.00  0.00     0.173 A 
ATOM     77  F   UNL A   1      42.066  29.680  27.480  1.00  0.00    -0.203 F 
ATOM     78  C   UNL A   1      41.624  27.724  26.245  1.00  0.00     0.198 A 
ATOM     79  C   UNL A   1      40.214  26.018  27.172  1.00  0.00     0.198 A 
ATOM     80  F   UNL A   1      39.259  26.312  29.305  1.00  0.00    -0.203 F 
ATOM     81  F   UNL A   1      42.365  28.195  25.233  1.00  0.00    -0.200 F 
ATOM     82  C   UNL A   1      41.002  26.490  26.133  1.00  0.00     0.200 A 
ATOM     83  F   UNL A   1      39.622  24.821  27.073  1.00  0.00    -0.200 F 
ATOM     84  F   UNL A   1      41.157  25.759  25.020  1.00  0.00    -0.200 F 
ENDBRANCH  50  74
BRANCH  62  85
ATOM     85  C   UNL A   1      43.830  28.212  34.656  1.00  0.00     0.064 A 
ATOM     86  C   UNL A   1      45.171  28.611  34.570  1.00  0.00     0.173 A 
ATOM     87  C   UNL A   1      43.533  27.039  35.364  1.00  0.00     0.173 A 
ATOM     88  F   UNL A   1      45.503  29.720  33.891  1.00  0.00    -0.203 F 
ATOM     89  C   UNL A   1      46.179  27.853  35.159  1.00  0.00     0.198 A 
ATOM     90  C   UNL A   1      44.541  26.297  35.973  1.00  0.00     0.198 A 
ATOM     91  F   UNL A   1      42.263  26.620  35.478  1.00  0.00    -0.203 F 
ATOM     92  F   UNL A   1      47.458  28.233  35.034  1.00  0.00    -0.200 F 
ATOM     93  C   UNL A   1      45.862  26.702  35.865  1.00  0.00     0.200 A 
ATOM     94  F   UNL A   1      44.232  25.192  36.665  1.00  0.00    -0.200 F 
ATOM     95  F   UNL A   1      46.834  25.979  36.438  1.00  0.00    -0.200 F 
ENDBRANCH  62  85
ENDBRANCH  36  37
ENDBRANCH  28  31
ENDBRANCH  26  27
ENDBRANCH  25  26
ENDBRANCH   1  25
TORSDOF 14
ENDMDL
MODEL 2
REMARK VINA RESULT:     -12.9      0.625      7.351
REMARK SMILES C[C@H]1[C@@H](C(=O)NCCCCNC(=O)c2ccc(-c3c4nc(c(-c5c(F)c(F)c(F)c(F)c5F)c5ccc([nH]5)c(-c5c(F)c(F)c(F)c(F)c5F)c5nc(c(-c6c(F)c(F)c(F)c(F)c6F)c6ccc3[nH]6)C=C5)C=C4)cc2)CCN1C(=O)c1cc([N+](=O)[O-])ccc1Br
REMARK SMILES IDX 8 1 7 2 6 3 4 4 5 5 3 7 1 8 2 9 79 10 77 11 78 12 80 13
REMARK SMILES IDX 81 14 82 15 83 16 90 17 84 18 89 19 91 20 88 21 85 22 86 23
REMARK SMILES IDX 87 24 9 25 10 26 11 27 12 28 13 30 14 31 15 32 76 33 16 34
REMARK SMILES IDX 75 35 17 36 18 37 19 38 69 39 20 40 74 41 68 42 70 43 21 44
REMARK SMILES IDX 73 45 67 46 66 47 22 49 54 50 34 51 53 52 35 53 38 54 52 55
REMARK SMILES IDX 71 56 36 57 37 58 51 60 72 61 39 62 23 63 24 64 32 65 25 66
REMARK SMILES IDX 26 67 30 68 33 69 27 70 28 71 31 72 29 73 55 74 56 75 64 76
REMARK SMILES IDX 57 77 58 78 62 79 65 80 59 81 60 82 63 83 61 84 40 85 41 86
REMARK SMILES IDX 49 87 42 88 43 89 47 90 50 91 44 92 45 93 48 94 46 95
REMARK H PARENT 6 6 11 29 70 48 38 59
REMARK Flexibility Score: inf
ROOT
ATOM      1  C   UNL A   1      32.642  30.062  26.796  1.00  0.00     0.023 C 
ENDROOT
BRANCH   1   2
ATOM      2  C   UNL A   1      32.756  29.522  25.362  1.00  0.00     0.116 C 
BRANCH   2   3
ATOM      3  N   UNL A   1      31.497  28.916  24.974  1.00  0.00    -0.356 N 
ATOM      4  C   UNL A   1      31.172  27.630  24.653  1.00  0.00     0.225 C 
ATOM      5  O   UNL A   1      30.094  27.480  24.071  1.00  0.00    -0.275 OA
ATOM      6  H   UNL A   1      30.741  29.544  24.932  1.00  0.00     0.163 HD
BRANCH   4   7
ATOM      7  C   UNL A   1      32.025  26.429  25.097  1.00  0.00     0.102 C 
ATOM      8  C   UNL A   1      33.501  26.676  22.969  1.00  0.00     0.032 C 
ATOM      9  C   UNL A   1      33.124  25.842  24.168  1.00  0.00     0.094 C 
ATOM     10  N   UNL A   1      32.636  24.536  23.719  1.00  0.00    -0.335 N 
ATOM     11  C   UNL A   1      31.116  25.196  25.341  1.00  0.00     0.037 C 
ATOM     12  C   UNL A   1      31.238  24.389  24.057  1.00  0.00     0.121 C 
BRANCH  10  13
ATOM     13  C   UNL A   1      33.342  23.539  23.056  1.00  0.00     0.255 C 
ATOM     14  O   UNL A   1      33.722  23.621  21.894  1.00  0.00    -0.269 OA
BRANCH  13  15
ATOM     15  C   UNL A   1      33.712  22.319  23.818  1.00  0.00     0.061 A 
ATOM     16  C   UNL A   1      32.825  21.229  23.763  1.00  0.00     0.100 A 
ATOM     17  C   UNL A   1      34.929  22.201  24.499  1.00  0.00     0.031 A 
ATOM     18  C   UNL A   1      33.222  19.993  24.287  1.00  0.00     0.270 A 
ATOM     19  C   UNL A   1      35.304  20.965  25.042  1.00  0.00     0.023 A 
ATOM     20  Br  UNL A   1      36.114  23.665  24.733  1.00  0.00    -0.050 Br
ATOM     21  C   UNL A   1      34.464  19.853  24.919  1.00  0.00     0.087 A 
BRANCH  18  22
ATOM     22  N   UNL A   1      32.365  18.814  24.108  1.00  0.00     0.062 N 
ATOM     23  O   UNL A   1      32.081  18.482  22.950  1.00  0.00    -0.258 OA
ATOM     24  O   UNL A   1      32.003  18.208  25.126  1.00  0.00    -0.258 OA
ENDBRANCH  18  22
ENDBRANCH  13  15
ENDBRANCH  10  13
ENDBRANCH   4   7
ENDBRANCH   2   3
ENDBRANCH   1   2
BRANCH   1  25
ATOM     25  C   UNL A   1      32.090  31.461  26.951  1.00  0.00     0.023 C 
BRANCH  25  26
ATOM     26  C   UNL A   1      33.087  32.444  27.528  1.00  0.00     0.116 C 
BRANCH  26  27
ATOM     27  N   UNL A   1      32.573  33.804  27.679  1.00  0.00    -0.352 N 
ATOM     28  C   UNL A   1      33.016  34.804  28.515  1.00  0.00     0.251 C 
ATOM     29  H   UNL A   1      31.808  34.037  27.105  1.00  0.00     0.163 HD
ATOM     30  O   UNL A   1      32.443  35.886  28.570  1.00  0.00    -0.269 OA
BRANCH  28  31
ATOM     31  C   UNL A   1      34.169  34.518  29.387  1.00  0.00     0.039 A 
ATOM     32  C   UNL A   1      33.946  34.040  30.679  1.00  0.00     0.014 A 
ATOM     33  C   UNL A   1      35.458  34.574  28.855  1.00  0.00     0.014 A 
ATOM     34  C   UNL A   1      35.016  33.512  31.401  1.00  0.00     0.010 A 
ATOM     35  C   UNL A   1      36.487  33.929  29.519  1.00  0.00     0.010 A 
ATOM     36  C   UNL A   1      36.280  33.398  30.801  1.00  0.00    -0.014 A 
BRANCH  36  37
ATOM     37  C   UNL A   1      37.422  32.751  31.492  1.00  0.00     0.031 A 
ATOM     38  C   UNL A   1      38.129  31.605  30.822  1.00  0.00     0.074 A 
ATOM     39  C   UNL A   1      37.751  33.118  32.746  1.00  0.00     0.049 A 
ATOM     40  N   UNL A   1      39.053  30.810  31.295  1.00  0.00    -0.248 NA
ATOM     41  C   UNL A   1      37.697  31.273  29.453  1.00  0.00     0.031 C 
ATOM     42  C   UNL A   1      37.088  34.161  33.531  1.00  0.00     0.029 A 
ATOM     43  N   UNL A   1      38.726  32.643  33.586  1.00  0.00    -0.354 N 
ATOM     44  C   UNL A   1      39.277  29.867  30.302  1.00  0.00     0.074 A 
ATOM     45  C   UNL A   1      38.347  30.143  29.231  1.00  0.00     0.031 C 
ATOM     46  C   UNL A   1      37.698  34.270  34.723  1.00  0.00     0.029 A 
ATOM     47  C   UNL A   1      38.772  33.285  34.798  1.00  0.00     0.049 A 
ATOM     48  H   UNL A   1      39.337  31.909  33.341  1.00  0.00     0.167 HD
ATOM     49  C   UNL A   1      40.202  28.880  30.268  1.00  0.00     0.037 A 
ATOM     50  C   UNL A   1      39.593  33.097  35.849  1.00  0.00     0.037 A 
ATOM     51  C   UNL A   1      41.173  28.659  31.303  1.00  0.00     0.049 A 
ATOM     52  C   UNL A   1      40.659  32.038  35.760  1.00  0.00     0.074 A 
ATOM     53  C   UNL A   1      42.214  27.749  31.332  1.00  0.00     0.029 A 
ATOM     54  N   UNL A   1      41.231  29.375  32.490  1.00  0.00    -0.354 N 
ATOM     55  N   UNL A   1      40.909  31.197  34.787  1.00  0.00    -0.248 NA
ATOM     56  C   UNL A   1      41.561  31.909  36.913  1.00  0.00     0.031 C 
ATOM     57  C   UNL A   1      42.887  27.897  32.549  1.00  0.00     0.029 A 
ATOM     58  C   UNL A   1      42.286  28.923  33.262  1.00  0.00     0.049 A 
ATOM     59  H   UNL A   1      40.612  30.098  32.745  1.00  0.00     0.167 HD
ATOM     60  C   UNL A   1      42.010  30.458  35.195  1.00  0.00     0.074 A 
ATOM     61  C   UNL A   1      42.388  30.959  36.501  1.00  0.00     0.031 C 
ATOM     62  C   UNL A   1      42.649  29.451  34.551  1.00  0.00     0.037 A 
BRANCH  49  63
ATOM     63  C   UNL A   1      40.218  27.991  29.060  1.00  0.00     0.064 A 
ATOM     64  C   UNL A   1      39.521  26.772  29.037  1.00  0.00     0.173 A 
ATOM     65  C   UNL A   1      40.932  28.361  27.913  1.00  0.00     0.173 A 
ATOM     66  F   UNL A   1      38.838  26.364  30.117  1.00  0.00    -0.203 F 
ATOM     67  C   UNL A   1      39.571  25.940  27.923  1.00  0.00     0.198 A 
ATOM     68  C   UNL A   1      40.953  27.541  26.788  1.00  0.00     0.198 A 
ATOM     69  F   UNL A   1      41.615  29.516  27.884  1.00  0.00    -0.203 F 
ATOM     70  F   UNL A   1      38.950  24.753  27.947  1.00  0.00    -0.200 F 
ATOM     71  C   UNL A   1      40.281  26.328  26.796  1.00  0.00     0.200 A 
ATOM     72  F   UNL A   1      41.634  27.920  25.697  1.00  0.00    -0.200 F 
ATOM     73  F   UNL A   1      40.328  25.525  25.724  1.00  0.00    -0.200 F 
ENDBRANCH  49  63
BRANCH  50  74
ATOM     74  C   UNL A   1      39.476  33.962  37.052  1.00  0.00     0.064 A 
ATOM     75  C   UNL A   1      38.767  33.525  38.180  1.00  0.00     0.173 A 
ATOM     76  C   UNL A   1      40.062  35.234  37.102  1.00  0.00     0.173 A 
ATOM     77  F   UNL A   1      38.173  32.322  38.171  1.00  0.00    -0.203 F 
ATOM     78  C   UNL A   1      38.630  34.335  39.305  1.00  0.00     0.198 A 
ATOM     79  C   UNL A   1      39.945  36.035  38.237  1.00  0.00     0.198 A 
ATOM     80  F   UNL A   1      40.756  35.696  36.052  1.00  0.00    -0.203 F 
ATOM     81  F   UNL A   1      37.912  33.909  40.352  1.00  0.00    -0.200 F 
ATOM     82  C   UNL A   1      39.223  35.588  39.334  1.00  0.00     0.200 A 
ATOM     83  F   UNL A   1      40.529  37.240  38.267  1.00  0.00    -0.200 F 
ATOM     84  F   UNL A   1      39.093  36.367  40.417  1.00  0.00    -0.200 F 
ENDBRANCH  50  74
BRANCH  62  85
ATOM     85  C   UNL A   1      43.841  28.849  35.232  1.00  0.00     0.064 A 
ATOM     86  C   UNL A   1      43.710  27.778  36.126  1.00  0.00     0.173 A 
ATOM     87  C   UNL A   1      45.131  29.318  34.944  1.00  0.00     0.173 A 
ATOM     88  F   UNL A   1      42.493  27.306  36.440  1.00  0.00    -0.203 F 
ATOM     89  C   UNL A   1      44.830  27.208  36.723  1.00  0.00     0.198 A 
ATOM     90  C   UNL A   1      46.251  28.728  35.524  1.00  0.00     0.198 A 
ATOM     91  F   UNL A   1      45.307  30.337  34.089  1.00  0.00    -0.203 F 
ATOM     92  F   UNL A   1      44.680  26.209  37.603  1.00  0.00    -0.200 F 
ATOM     93  C   UNL A   1      46.098  27.678  36.416  1.00  0.00     0.200 A 
ATOM     94  F   UNL A   1      47.476  29.176  35.218  1.00  0.00    -0.200 F 
ATOM     95  F   UNL A   1      47.175  27.121  36.986  1.00  0.00    -0.200 F 
ENDBRANCH  62  85
ENDBRANCH  36  37
ENDBRANCH  28  31
ENDBRANCH  26  27
ENDBRANCH  25  26
ENDBRANCH   1  25
TORSDOF 14
ENDMDL
MODEL 3
REMARK VINA RESULT:     -12.9      2.174      3.370
REMARK SMILES C[C@H]1[C@@H](C(=O)NCCCCNC(=O)c2ccc(-c3c4nc(c(-c5c(F)c(F)c(F)c(F)c5F)c5ccc([nH]5)c(-c5c(F)c(F)c(F)c(F)c5F)c5nc(c(-c6c(F)c(F)c(F)c(F)c6F)c6ccc3[nH]6)C=C5)C=C4)cc2)CCN1C(=O)c1cc([N+](=O)[O-])ccc1Br
REMARK SMILES IDX 8 1 7 2 6 3 4 4 5 5 3 7 1 8 2 9 79 10 77 11 78 12 80 13
REMARK SMILES IDX 81 14 82 15 83 16 90 17 84 18 89 19 91 20 88 21 85 22 86 23
REMARK SMILES IDX 87 24 9 25 10 26 11 27 12 28 13 30 14 31 15 32 76 33 16 34
REMARK SMILES IDX 75 35 17 36 18 37 19 38 69 39 20 40 74 41 68 42 70 43 21 44
REMARK SMILES IDX 73 45 67 46 66 47 22 49 54 50 34 51 53 52 35 53 38 54 52 55
REMARK SMILES IDX 71 56 36 57 37 58 51 60 72 61 39 62 23 63 24 64 32 65 25 66
REMARK SMILES IDX 26 67 30 68 33 69 27 70 28 71 31 72 29 73 55 74 56 75 64 76
REMARK SMILES IDX 57 77 58 78 62 79 65 80 59 81 60 82 63 83 61 84 40 85 41 86
REMARK SMILES IDX 49 87 42 88 43 89 47 90 50 91 44 92 45 93 48 94 46 95
REMARK H PARENT 6 6 11 29 70 48 38 59
REMARK Flexibility Score: inf
ROOT
ATOM      1  C   UNL A   1      34.634  32.849  28.887  1.00  0.00     0.023 C 
ENDROOT
BRANCH   1   2
ATOM      2  C   UNL A   1      34.561  31.557  28.059  1.00  0.00     0.116 C 
BRANCH   2   3
ATOM      3  N   UNL A   1      33.255  31.458  27.436  1.00  0.00    -0.356 N 
ATOM      4  C   UNL A   1      32.630  30.423  26.803  1.00  0.00     0.225 C 
ATOM      5  O   UNL A   1      31.655  30.730  26.112  1.00  0.00    -0.275 OA
ATOM      6  H   UNL A   1      32.723  32.285  27.476  1.00  0.00     0.163 HD
BRANCH   4   7
ATOM      7  C   UNL A   1      33.032  28.955  27.029  1.00  0.00     0.102 C 
ATOM      8  C   UNL A   1      33.742  28.752  24.535  1.00  0.00     0.032 C 
ATOM      9  C   UNL A   1      33.460  28.050  25.840  1.00  0.00     0.094 C 
ATOM     10  N   UNL A   1      32.382  27.077  25.648  1.00  0.00    -0.335 N 
ATOM     11  C   UNL A   1      31.835  28.165  27.621  1.00  0.00     0.037 C 
ATOM     12  C   UNL A   1      31.221  27.468  26.416  1.00  0.00     0.121 C 
BRANCH  10  13
ATOM     13  C   UNL A   1      32.393  25.932  24.860  1.00  0.00     0.255 C 
ATOM     14  O   UNL A   1      31.857  25.848  23.761  1.00  0.00    -0.269 OA
BRANCH  13  15
ATOM     15  C   UNL A   1      33.149  24.752  25.350  1.00  0.00     0.061 A 
ATOM     16  C   UNL A   1      34.510  24.670  25.006  1.00  0.00     0.100 A 
ATOM     17  C   UNL A   1      32.577  23.793  26.194  1.00  0.00     0.031 A 
ATOM     18  C   UNL A   1      35.313  23.695  25.612  1.00  0.00     0.270 A 
ATOM     19  C   UNL A   1      33.387  22.807  26.774  1.00  0.00     0.023 A 
ATOM     20  Br  UNL A   1      30.722  23.759  26.593  1.00  0.00    -0.050 Br
ATOM     21  C   UNL A   1      34.759  22.768  26.503  1.00  0.00     0.087 A 
BRANCH  18  22
ATOM     22  N   UNL A   1      36.763  23.690  25.371  1.00  0.00     0.062 N 
ATOM     23  O   UNL A   1      37.157  23.333  24.253  1.00  0.00    -0.258 OA
ATOM     24  O   UNL A   1      37.498  24.070  26.293  1.00  0.00    -0.258 OA
ENDBRANCH  18  22
ENDBRANCH  13  15
ENDBRANCH  10  13
ENDBRANCH   4   7
ENDBRANCH   2   3
ENDBRANCH   1   2
BRANCH   1  25
ATOM     25  C   UNL A   1      33.532  33.861  28.664  1.00  0.00     0.023 C 
BRANCH  25  26
ATOM     26  C   UNL A   1      33.866  35.243  29.186  1.00  0.00     0.116 C 
BRANCH  26  27
ATOM     27  N   UNL A   1      32.846  35.819  30.061  1.00  0.00    -0.352 N 
ATOM     28  C   UNL A   1      32.771  35.784  31.435  1.00  0.00     0.251 C 
ATOM     29  H   UNL A   1      32.114  36.296  29.606  1.00  0.00     0.163 HD
ATOM     30  O   UNL A   1      31.817  36.270  32.030  1.00  0.00    -0.269 OA
BRANCH  28  31
ATOM     31  C   UNL A   1      33.847  35.097  32.170  1.00  0.00     0.039 A 
ATOM     32  C   UNL A   1      33.656  33.778  32.585  1.00  0.00     0.014 A 
ATOM     33  C   UNL A   1      35.091  35.715  32.297  1.00  0.00     0.014 A 
ATOM     34  C   UNL A   1      34.753  33.041  33.028  1.00  0.00     0.010 A 
ATOM     35  C   UNL A   1      36.196  34.944  32.609  1.00  0.00     0.010 A 
ATOM     36  C   UNL A   1      36.040  33.601  32.985  1.00  0.00    -0.014 A 
BRANCH  36  37
ATOM     37  C   UNL A   1      37.248  32.822  33.350  1.00  0.00     0.031 A 
ATOM     38  C   UNL A   1      37.944  33.118  34.650  1.00  0.00     0.074 A 
ATOM     39  C   UNL A   1      37.771  31.935  32.482  1.00  0.00     0.049 A 
ATOM     40  N   UNL A   1      39.082  32.662  35.105  1.00  0.00    -0.248 NA
ATOM     41  C   UNL A   1      37.300  34.106  35.534  1.00  0.00     0.031 C 
ATOM     42  C   UNL A   1      37.233  31.619  31.157  1.00  0.00     0.029 A 
ATOM     43  N   UNL A   1      38.886  31.141  32.583  1.00  0.00    -0.354 N 
ATOM     44  C   UNL A   1      39.305  33.336  36.297  1.00  0.00     0.074 A 
ATOM     45  C   UNL A   1      38.224  34.281  36.463  1.00  0.00     0.031 C 
ATOM     46  C   UNL A   1      37.996  30.674  30.585  1.00  0.00     0.029 A 
ATOM     47  C   UNL A   1      39.095  30.342  31.486  1.00  0.00     0.049 A 
ATOM     48  H   UNL A   1      39.480  31.145  33.368  1.00  0.00     0.167 HD
ATOM     49  C   UNL A   1      40.301  33.157  37.194  1.00  0.00     0.037 A 
ATOM     50  C   UNL A   1      40.066  29.441  31.242  1.00  0.00     0.037 A 
ATOM     51  C   UNL A   1      41.330  32.164  37.060  1.00  0.00     0.049 A 
ATOM     52  C   UNL A   1      41.125  29.211  32.286  1.00  0.00     0.074 A 
ATOM     53  C   UNL A   1      42.334  31.834  37.951  1.00  0.00     0.029 A 
ATOM     54  N   UNL A   1      41.470  31.325  35.964  1.00  0.00    -0.354 N 
ATOM     55  N   UNL A   1      41.287  29.804  33.444  1.00  0.00    -0.248 NA
ATOM     56  C   UNL A   1      42.131  28.181  31.994  1.00  0.00     0.031 C 
ATOM     57  C   UNL A   1      43.100  30.810  37.382  1.00  0.00     0.029 A 
ATOM     58  C   UNL A   1      42.550  30.481  36.153  1.00  0.00     0.049 A 
ATOM     59  H   UNL A   1      40.888  31.330  35.170  1.00  0.00     0.167 HD
ATOM     60  C   UNL A   1      42.393  29.204  34.028  1.00  0.00     0.074 A 
ATOM     61  C   UNL A   1      42.856  28.190  33.102  1.00  0.00     0.031 C 
ATOM     62  C   UNL A   1      42.978  29.470  35.222  1.00  0.00     0.037 A 
BRANCH  49  63
ATOM     63  C   UNL A   1      40.302  34.039  38.408  1.00  0.00     0.064 A 
ATOM     64  C   UNL A   1      41.010  35.252  38.434  1.00  0.00     0.173 A 
ATOM     65  C   UNL A   1      39.586  33.672  39.555  1.00  0.00     0.173 A 
ATOM     66  F   UNL A   1      41.726  35.639  37.367  1.00  0.00    -0.203 F 
ATOM     67  C   UNL A   1      41.031  36.044  39.577  1.00  0.00     0.198 A 
ATOM     68  C   UNL A   1      39.583  34.484  40.687  1.00  0.00     0.198 A 
ATOM     69  F   UNL A   1      38.894  32.523  39.583  1.00  0.00    -0.203 F 
ATOM     70  F   UNL A   1      41.764  37.165  39.599  1.00  0.00    -0.200 F 
ATOM     71  C   UNL A   1      40.312  35.664  40.700  1.00  0.00     0.200 A 
ATOM     72  F   UNL A   1      38.882  34.119  41.770  1.00  0.00    -0.200 F 
ATOM     73  F   UNL A   1      40.333  36.428  41.801  1.00  0.00    -0.200 F 
ENDBRANCH  49  63
BRANCH  50  74
ATOM     74  C   UNL A   1      40.053  28.652  29.983  1.00  0.00     0.064 A 
ATOM     75  C   UNL A   1      39.442  27.390  29.936  1.00  0.00     0.173 A 
ATOM     76  C   UNL A   1      40.645  29.134  28.808  1.00  0.00     0.173 A 
ATOM     77  F   UNL A   1      38.878  26.879  31.041  1.00  0.00    -0.203 F 
ATOM     78  C   UNL A   1      39.443  26.631  28.768  1.00  0.00     0.198 A 
ATOM     79  C   UNL A   1      40.624  28.384  27.633  1.00  0.00     0.198 A 
ATOM     80  F   UNL A   1      41.235  30.338  28.798  1.00  0.00    -0.203 F 
ATOM     81  F   UNL A   1      38.890  25.411  28.763  1.00  0.00    -0.200 F 
ATOM     82  C   UNL A   1      40.031  27.131  27.616  1.00  0.00     0.200 A 
ATOM     83  F   UNL A   1      41.182  28.875  26.518  1.00  0.00    -0.200 F 
ATOM     84  F   UNL A   1      40.030  26.401  26.492  1.00  0.00    -0.200 F 
ENDBRANCH  50  74
BRANCH  62  85
ATOM     85  C   UNL A   1      44.159  28.631  35.608  1.00  0.00     0.064 A 
ATOM     86  C   UNL A   1      44.005  27.443  36.335  1.00  0.00     0.173 A 
ATOM     87  C   UNL A   1      45.450  28.997  35.200  1.00  0.00     0.173 A 
ATOM     88  F   UNL A   1      42.790  27.062  36.756  1.00  0.00    -0.203 F 
ATOM     89  C   UNL A   1      45.108  26.657  36.655  1.00  0.00     0.198 A 
ATOM     90  C   UNL A   1      46.547  28.195  35.501  1.00  0.00     0.198 A 
ATOM     91  F   UNL A   1      45.645  30.123  34.497  1.00  0.00    -0.203 F 
ATOM     92  F   UNL A   1      44.944  25.543  37.382  1.00  0.00    -0.200 F 
ATOM     93  C   UNL A   1      46.375  27.030  36.232  1.00  0.00     0.200 A 
ATOM     94  F   UNL A   1      47.769  28.549  35.082  1.00  0.00    -0.200 F 
ATOM     95  F   UNL A   1      47.434  26.266  36.535  1.00  0.00    -0.200 F 
ENDBRANCH  62  85
ENDBRANCH  36  37
ENDBRANCH  28  31
ENDBRANCH  26  27
ENDBRANCH  25  26
ENDBRANCH   1  25
TORSDOF 14
ENDMDL
