MODEL 1
REMARK VINA RESULT:     -13.3      0.000      0.000
REMARK SMILES CC(C)c1cc(N2CCC(C(=O)NCCCCNC(=O)c3ccc(-c4c5nc(c(-c6c(F)c(F)c(F)c(F)c6F)c6ccc([nH]6)c(-c6c(F)c(F)c(F)c(F)c6F)c6nc(c(-c7c(F)c(F)c(F)c(F)c7F)c7ccc4[nH]7)C=C6)C=C5)cc3)CC2)nc(-c2ccc(F)cc2)n1
REMARK SMILES IDX 15 1 14 2 13 3 11 4 12 5 10 7 7 8 8 9 85 10 9 11 84 12 6 13
REMARK SMILES IDX 4 14 5 15 95 16 87 17 86 18 2 19 1 20 3 21 88 22 89 23 94 24
REMARK SMILES IDX 90 25 93 26 91 27 92 28 16 29 17 30 18 31 19 32 20 34 21 35
REMARK SMILES IDX 22 36 83 37 23 38 82 39 24 40 25 41 26 42 76 43 27 44 81 45
REMARK SMILES IDX 75 46 77 47 28 48 80 49 74 50 73 51 29 53 61 54 41 55 60 56
REMARK SMILES IDX 42 57 45 58 59 59 78 60 43 61 44 62 58 64 79 65 46 66 30 67
REMARK SMILES IDX 31 68 39 69 32 70 33 71 37 72 40 73 34 74 35 75 38 76 36 77
REMARK SMILES IDX 62 78 63 79 71 80 64 81 65 82 69 83 72 84 66 85 67 86 70 87
REMARK SMILES IDX 68 88 47 89 48 90 56 91 49 92 50 93 54 94 57 95 51 96 52 97
REMARK SMILES IDX 55 98 53 99
REMARK H PARENT 13 6 18 33 77 52 45 63
REMARK Flexibility Score: inf
ROOT
ATOM      1  C   UNL A   1      33.590  27.150  25.135  1.00  0.00     0.023 C 
ENDROOT
BRANCH   1   2
ATOM      2  C   UNL A   1      33.666  27.237  23.612  1.00  0.00     0.116 C 
BRANCH   2   3
ATOM      3  N   UNL A   1      32.439  27.754  23.022  1.00  0.00    -0.356 N 
ATOM      4  C   UNL A   1      31.403  27.101  22.418  1.00  0.00     0.223 C 
ATOM      5  O   UNL A   1      30.454  27.776  22.011  1.00  0.00    -0.275 OA
ATOM      6  H   UNL A   1      32.341  28.733  23.064  1.00  0.00     0.163 HD
BRANCH   4   7
ATOM      7  C   UNL A   1      31.403  25.586  22.252  1.00  0.00     0.082 C 
ATOM      8  N   UNL A   1      32.937  23.411  23.149  1.00  0.00    -0.356 N 
ATOM      9  C   UNL A   1      33.053  23.695  21.729  1.00  0.00     0.119 C 
ATOM     10  C   UNL A   1      31.598  23.459  23.696  1.00  0.00     0.119 C 
ATOM     11  C   UNL A   1      32.663  25.141  21.489  1.00  0.00     0.035 C 
ATOM     12  C   UNL A   1      31.099  24.897  23.600  1.00  0.00     0.035 C 
BRANCH   8  13
ATOM     13  C   UNL A   1      33.906  22.582  23.669  1.00  0.00     0.132 A 
ATOM     14  C   UNL A   1      36.032  22.185  24.626  1.00  0.00     0.049 A 
ATOM     15  C   UNL A   1      35.175  23.043  23.959  1.00  0.00     0.071 A 
ATOM     16  N   UNL A   1      35.663  20.930  24.942  1.00  0.00    -0.233 NA
ATOM     17  C   UNL A   1      34.434  20.542  24.561  1.00  0.00     0.161 A 
ATOM     18  N   UNL A   1      33.530  21.324  23.951  1.00  0.00    -0.211 NA
BRANCH  14  19
ATOM     19  C   UNL A   1      37.414  22.654  25.049  1.00  0.00     0.032 C 
ATOM     20  C   UNL A   1      37.321  23.775  26.089  1.00  0.00     0.014 C 
ATOM     21  C   UNL A   1      38.286  21.519  25.602  1.00  0.00     0.014 C 
ENDBRANCH  14  19
BRANCH  17  22
ATOM     22  C   UNL A   1      34.071  19.144  24.810  1.00  0.00     0.019 A 
ATOM     23  C   UNL A   1      34.837  18.093  24.273  1.00  0.00     0.015 A 
ATOM     24  C   UNL A   1      32.928  18.817  25.564  1.00  0.00     0.015 A 
ATOM     25  C   UNL A   1      34.473  16.759  24.481  1.00  0.00     0.040 A 
ATOM     26  C   UNL A   1      32.553  17.484  25.759  1.00  0.00     0.040 A 
ATOM     27  C   UNL A   1      33.330  16.468  25.217  1.00  0.00     0.123 A 
ATOM     28  F   UNL A   1      32.972  15.191  25.399  1.00  0.00    -0.207 F 
ENDBRANCH  17  22
ENDBRANCH   8  13
ENDBRANCH   4   7
ENDBRANCH   2   3
ENDBRANCH   1   2
BRANCH   1  29
ATOM     29  C   UNL A   1      34.173  28.348  25.880  1.00  0.00     0.023 C 
BRANCH  29  30
ATOM     30  C   UNL A   1      33.637  28.560  27.290  1.00  0.00     0.116 C 
BRANCH  30  31
ATOM     31  N   UNL A   1      33.604  29.958  27.687  1.00  0.00    -0.352 N 
ATOM     32  C   UNL A   1      34.584  30.713  28.285  1.00  0.00     0.251 C 
ATOM     33  H   UNL A   1      32.761  30.432  27.503  1.00  0.00     0.163 HD
ATOM     34  O   UNL A   1      34.348  31.859  28.655  1.00  0.00    -0.269 OA
BRANCH  32  35
ATOM     35  C   UNL A   1      35.920  30.124  28.515  1.00  0.00     0.039 A 
ATOM     36  C   UNL A   1      36.876  30.199  27.499  1.00  0.00     0.014 A 
ATOM     37  C   UNL A   1      36.240  29.531  29.740  1.00  0.00     0.014 A 
ATOM     38  C   UNL A   1      38.174  29.744  27.736  1.00  0.00     0.010 A 
ATOM     39  C   UNL A   1      37.552  29.150  30.001  1.00  0.00     0.010 A 
ATOM     40  C   UNL A   1      38.533  29.254  29.003  1.00  0.00    -0.014 A 
BRANCH  40  41
ATOM     41  C   UNL A   1      39.929  28.850  29.306  1.00  0.00     0.031 A 
ATOM     42  C   UNL A   1      40.831  29.773  30.075  1.00  0.00     0.074 A 
ATOM     43  C   UNL A   1      40.408  27.686  28.826  1.00  0.00     0.049 A 
ATOM     44  N   UNL A   1      42.099  29.634  30.377  1.00  0.00    -0.248 NA
ATOM     45  C   UNL A   1      40.239  31.036  30.543  1.00  0.00     0.031 C 
ATOM     46  C   UNL A   1      39.649  26.728  28.022  1.00  0.00     0.029 A 
ATOM     47  N   UNL A   1      41.651  27.117  28.934  1.00  0.00    -0.354 N 
ATOM     48  C   UNL A   1      42.454  30.794  31.052  1.00  0.00     0.074 A 
ATOM     49  C   UNL A   1      41.289  31.651  31.066  1.00  0.00     0.031 C 
ATOM     50  C   UNL A   1      40.433  25.678  27.732  1.00  0.00     0.029 A 
ATOM     51  C   UNL A   1      41.761  25.906  28.296  1.00  0.00     0.049 A 
ATOM     52  H   UNL A   1      42.396  27.536  29.425  1.00  0.00     0.167 HD
ATOM     53  C   UNL A   1      43.640  31.107  31.628  1.00  0.00     0.037 A 
ATOM     54  C   UNL A   1      42.813  25.076  28.173  1.00  0.00     0.037 A 
ATOM     55  C   UNL A   1      44.790  30.242  31.633  1.00  0.00     0.049 A 
ATOM     56  C   UNL A   1      44.122  25.447  28.818  1.00  0.00     0.074 A 
ATOM     57  C   UNL A   1      46.015  30.438  32.247  1.00  0.00     0.029 A 
ATOM     58  N   UNL A   1      44.858  29.016  30.988  1.00  0.00    -0.354 N 
ATOM     59  N   UNL A   1      44.426  26.513  29.517  1.00  0.00    -0.248 NA
ATOM     60  C   UNL A   1      45.230  24.495  28.662  1.00  0.00     0.031 C 
ATOM     61  C   UNL A   1      46.840  29.353  31.933  1.00  0.00     0.029 A 
ATOM     62  C   UNL A   1      46.113  28.454  31.168  1.00  0.00     0.049 A 
ATOM     63  H   UNL A   1      44.124  28.604  30.477  1.00  0.00     0.167 HD
ATOM     64  C   UNL A   1      45.749  26.349  29.907  1.00  0.00     0.074 A 
ATOM     65  C   UNL A   1      46.183  25.073  29.378  1.00  0.00     0.031 C 
ATOM     66  C   UNL A   1      46.530  27.181  30.639  1.00  0.00     0.037 A 
BRANCH  53  67
ATOM     67  C   UNL A   1      43.749  32.445  32.301  1.00  0.00     0.064 A 
ATOM     68  C   UNL A   1      43.425  32.618  33.656  1.00  0.00     0.173 A 
ATOM     69  C   UNL A   1      44.202  33.566  31.589  1.00  0.00     0.173 A 
ATOM     70  F   UNL A   1      42.976  31.581  34.380  1.00  0.00    -0.203 F 
ATOM     71  C   UNL A   1      43.513  33.869  34.262  1.00  0.00     0.198 A 
ATOM     72  C   UNL A   1      44.322  34.808  32.207  1.00  0.00     0.198 A 
ATOM     73  F   UNL A   1      44.532  33.457  30.294  1.00  0.00    -0.203 F 
ATOM     74  F   UNL A   1      43.142  34.019  35.541  1.00  0.00    -0.200 F 
ATOM     75  C   UNL A   1      43.968  34.961  33.539  1.00  0.00     0.200 A 
ATOM     76  F   UNL A   1      44.772  35.861  31.510  1.00  0.00    -0.200 F 
ATOM     77  F   UNL A   1      44.055  36.163  34.124  1.00  0.00    -0.200 F 
ENDBRANCH  53  67
BRANCH  54  78
ATOM     78  C   UNL A   1      42.664  23.794  27.436  1.00  0.00     0.064 A 
ATOM     79  C   UNL A   1      43.108  23.672  26.112  1.00  0.00     0.173 A 
ATOM     80  C   UNL A   1      42.084  22.667  28.037  1.00  0.00     0.173 A 
ATOM     81  F   UNL A   1      43.649  24.728  25.488  1.00  0.00    -0.203 F 
ATOM     82  C   UNL A   1      42.964  22.476  25.412  1.00  0.00     0.198 A 
ATOM     83  C   UNL A   1      41.966  21.464  27.345  1.00  0.00     0.198 A 
ATOM     84  F   UNL A   1      41.647  22.731  29.304  1.00  0.00    -0.203 F 
ATOM     85  F   UNL A   1      43.360  22.399  24.135  1.00  0.00    -0.200 F 
ATOM     86  C   UNL A   1      42.399  21.372  26.031  1.00  0.00     0.200 A 
ATOM     87  F   UNL A   1      41.432  20.395  27.950  1.00  0.00    -0.200 F 
ATOM     88  F   UNL A   1      42.268  20.219  25.358  1.00  0.00    -0.200 F 
ENDBRANCH  54  78
BRANCH  66  89
ATOM     89  C   UNL A   1      47.928  26.723  30.941  1.00  0.00     0.064 A 
ATOM     90  C   UNL A   1      48.217  25.916  32.051  1.00  0.00     0.173 A 
ATOM     91  C   UNL A   1      48.985  27.063  30.083  1.00  0.00     0.173 A 
ATOM     92  F   UNL A   1      47.244  25.576  32.910  1.00  0.00    -0.203 F 
ATOM     93  C   UNL A   1      49.517  25.486  32.305  1.00  0.00     0.198 A 
ATOM     94  C   UNL A   1      50.278  26.607  30.322  1.00  0.00     0.198 A 
ATOM     95  F   UNL A   1      48.761  27.827  29.003  1.00  0.00    -0.203 F 
ATOM     96  F   UNL A   1      49.778  24.756  33.396  1.00  0.00    -0.200 F 
ATOM     97  C   UNL A   1      50.545  25.825  31.436  1.00  0.00     0.200 A 
ATOM     98  F   UNL A   1      51.267  26.923  29.475  1.00  0.00    -0.200 F 
ATOM     99  F   UNL A   1      51.794  25.404  31.677  1.00  0.00    -0.200 F 
ENDBRANCH  66  89
ENDBRANCH  40  41
ENDBRANCH  32  35
ENDBRANCH  30  31
ENDBRANCH  29  30
ENDBRANCH   1  29
TORSDOF 14
ENDMDL
MODEL 2
REMARK VINA RESULT:     -13.2      3.870      9.415
REMARK SMILES CC(C)c1cc(N2CCC(C(=O)NCCCCNC(=O)c3ccc(-c4c5nc(c(-c6c(F)c(F)c(F)c(F)c6F)c6ccc([nH]6)c(-c6c(F)c(F)c(F)c(F)c6F)c6nc(c(-c7c(F)c(F)c(F)c(F)c7F)c7ccc4[nH]7)C=C6)C=C5)cc3)CC2)nc(-c2ccc(F)cc2)n1
REMARK SMILES IDX 15 1 14 2 13 3 11 4 12 5 10 7 7 8 8 9 85 10 9 11 84 12 6 13
REMARK SMILES IDX 4 14 5 15 95 16 87 17 86 18 2 19 1 20 3 21 88 22 89 23 94 24
REMARK SMILES IDX 90 25 93 26 91 27 92 28 16 29 17 30 18 31 19 32 20 34 21 35
REMARK SMILES IDX 22 36 83 37 23 38 82 39 24 40 25 41 26 42 76 43 27 44 81 45
REMARK SMILES IDX 75 46 77 47 28 48 80 49 74 50 73 51 29 53 61 54 41 55 60 56
REMARK SMILES IDX 42 57 45 58 59 59 78 60 43 61 44 62 58 64 79 65 46 66 30 67
REMARK SMILES IDX 31 68 39 69 32 70 33 71 37 72 40 73 34 74 35 75 38 76 36 77
REMARK SMILES IDX 62 78 63 79 71 80 64 81 65 82 69 83 72 84 66 85 67 86 70 87
REMARK SMILES IDX 68 88 47 89 48 90 56 91 49 92 50 93 54 94 57 95 51 96 52 97
REMARK SMILES IDX 55 98 53 99
REMARK H PARENT 13 6 18 33 77 52 45 63
REMARK Flexibility Score: inf
ROOT
ATOM      1  C   UNL A   1      34.920  24.420  24.702  1.00  0.00     0.023 C 
ENDROOT
BRANCH   1   2
ATOM      2  C   UNL A   1      34.141  23.909  23.493  1.00  0.00     0.116 C 
BRANCH   2   3
ATOM      3  N   UNL A   1      33.695  22.532  23.658  1.00  0.00    -0.356 N 
ATOM      4  C   UNL A   1      32.486  22.035  24.052  1.00  0.00     0.223 C 
ATOM      5  O   UNL A   1      32.353  20.809  24.094  1.00  0.00    -0.275 OA
ATOM      6  H   UNL A   1      34.375  21.851  23.455  1.00  0.00     0.163 HD
BRANCH   4   7
ATOM      7  C   UNL A   1      31.327  22.952  24.423  1.00  0.00     0.082 C 
ATOM      8  N   UNL A   1      30.923  25.700  24.844  1.00  0.00    -0.356 N 
ATOM      9  C   UNL A   1      30.823  24.878  26.039  1.00  0.00     0.119 C 
ATOM     10  C   UNL A   1      30.272  25.178  23.662  1.00  0.00     0.119 C 
ATOM     11  C   UNL A   1      31.580  23.585  25.804  1.00  0.00     0.035 C 
ATOM     12  C   UNL A   1      30.993  23.899  23.251  1.00  0.00     0.035 C 
BRANCH   8  13
ATOM     13  C   UNL A   1      31.056  27.053  25.065  1.00  0.00     0.132 A 
ATOM     14  C   UNL A   1      32.076  28.917  26.103  1.00  0.00     0.049 A 
ATOM     15  C   UNL A   1      31.879  27.548  26.058  1.00  0.00     0.071 A 
ATOM     16  N   UNL A   1      31.454  29.745  25.243  1.00  0.00    -0.233 NA
ATOM     17  C   UNL A   1      30.617  29.183  24.355  1.00  0.00     0.161 A 
ATOM     18  N   UNL A   1      30.405  27.866  24.218  1.00  0.00    -0.211 NA
BRANCH  14  19
ATOM     19  C   UNL A   1      33.033  29.523  27.116  1.00  0.00     0.032 C 
ATOM     20  C   UNL A   1      34.460  29.006  26.904  1.00  0.00     0.014 C 
ATOM     21  C   UNL A   1      33.039  31.057  27.089  1.00  0.00     0.014 C 
ENDBRANCH  14  19
BRANCH  17  22
ATOM     22  C   UNL A   1      29.859  30.091  23.489  1.00  0.00     0.019 A 
ATOM     23  C   UNL A   1      29.186  31.205  24.025  1.00  0.00     0.015 A 
ATOM     24  C   UNL A   1      29.756  29.854  22.105  1.00  0.00     0.015 A 
ATOM     25  C   UNL A   1      28.435  32.053  23.206  1.00  0.00     0.040 A 
ATOM     26  C   UNL A   1      28.992  30.692  21.287  1.00  0.00     0.040 A 
ATOM     27  C   UNL A   1      28.340  31.784  21.846  1.00  0.00     0.123 A 
ATOM     28  F   UNL A   1      27.604  32.586  21.066  1.00  0.00    -0.207 F 
ENDBRANCH  17  22
ENDBRANCH   8  13
ENDBRANCH   4   7
ENDBRANCH   2   3
ENDBRANCH   1   2
BRANCH   1  29
ATOM     29  C   UNL A   1      36.345  23.886  24.825  1.00  0.00     0.023 C 
BRANCH  29  30
ATOM     30  C   UNL A   1      36.652  23.141  26.117  1.00  0.00     0.116 C 
BRANCH  30  31
ATOM     31  N   UNL A   1      37.880  22.364  26.055  1.00  0.00    -0.352 N 
ATOM     32  C   UNL A   1      39.169  22.755  26.327  1.00  0.00     0.251 C 
ATOM     33  H   UNL A   1      37.774  21.425  25.778  1.00  0.00     0.163 HD
ATOM     34  O   UNL A   1      40.108  21.994  26.116  1.00  0.00    -0.269 OA
BRANCH  32  35
ATOM     35  C   UNL A   1      39.424  24.117  26.844  1.00  0.00     0.039 A 
ATOM     36  C   UNL A   1      39.084  24.411  28.167  1.00  0.00     0.014 A 
ATOM     37  C   UNL A   1      40.026  25.087  26.039  1.00  0.00     0.014 A 
ATOM     38  C   UNL A   1      39.415  25.656  28.704  1.00  0.00     0.010 A 
ATOM     39  C   UNL A   1      40.425  26.297  26.598  1.00  0.00     0.010 A 
ATOM     40  C   UNL A   1      40.124  26.594  27.936  1.00  0.00    -0.014 A 
BRANCH  40  41
ATOM     41  C   UNL A   1      40.567  27.888  28.514  1.00  0.00     0.031 A 
ATOM     42  C   UNL A   1      42.004  28.088  28.905  1.00  0.00     0.074 A 
ATOM     43  C   UNL A   1      39.662  28.856  28.756  1.00  0.00     0.049 A 
ATOM     44  N   UNL A   1      42.570  29.114  29.489  1.00  0.00    -0.248 NA
ATOM     45  C   UNL A   1      42.923  26.973  28.630  1.00  0.00     0.031 C 
ATOM     46  C   UNL A   1      38.230  28.765  28.471  1.00  0.00     0.029 A 
ATOM     47  N   UNL A   1      39.811  30.103  29.309  1.00  0.00    -0.354 N 
ATOM     48  C   UNL A   1      43.901  28.761  29.665  1.00  0.00     0.074 A 
ATOM     49  C   UNL A   1      44.047  27.406  29.179  1.00  0.00     0.031 C 
ATOM     50  C   UNL A   1      37.636  29.916  28.825  1.00  0.00     0.029 A 
ATOM     51  C   UNL A   1      38.638  30.811  29.398  1.00  0.00     0.049 A 
ATOM     52  H   UNL A   1      40.679  30.459  29.612  1.00  0.00     0.167 HD
ATOM     53  C   UNL A   1      44.915  29.508  30.165  1.00  0.00     0.037 A 
ATOM     54  C   UNL A   1      38.395  32.040  29.891  1.00  0.00     0.037 A 
ATOM     55  C   UNL A   1      44.771  30.863  30.624  1.00  0.00     0.049 A 
ATOM     56  C   UNL A   1      39.538  32.849  30.445  1.00  0.00     0.074 A 
ATOM     57  C   UNL A   1      45.749  31.728  31.085  1.00  0.00     0.029 A 
ATOM     58  N   UNL A   1      43.568  31.552  30.685  1.00  0.00    -0.354 N 
ATOM     59  N   UNL A   1      40.806  32.532  30.539  1.00  0.00    -0.248 NA
ATOM     60  C   UNL A   1      39.213  34.187  30.957  1.00  0.00     0.031 C 
ATOM     61  C   UNL A   1      45.131  32.922  31.470  1.00  0.00     0.029 A 
ATOM     62  C   UNL A   1      43.775  32.823  31.200  1.00  0.00     0.049 A 
ATOM     63  H   UNL A   1      42.696  31.192  30.405  1.00  0.00     0.167 HD
ATOM     64  C   UNL A   1      41.436  33.640  31.091  1.00  0.00     0.074 A 
ATOM     65  C   UNL A   1      40.410  34.641  31.299  1.00  0.00     0.031 C 
ATOM     66  C   UNL A   1      42.745  33.811  31.397  1.00  0.00     0.037 A 
BRANCH  53  67
ATOM     67  C   UNL A   1      46.272  28.868  30.238  1.00  0.00     0.064 A 
ATOM     68  C   UNL A   1      47.179  28.936  29.169  1.00  0.00     0.173 A 
ATOM     69  C   UNL A   1      46.680  28.195  31.401  1.00  0.00     0.173 A 
ATOM     70  F   UNL A   1      46.835  29.557  28.031  1.00  0.00    -0.203 F 
ATOM     71  C   UNL A   1      48.427  28.322  29.246  1.00  0.00     0.198 A 
ATOM     72  C   UNL A   1      47.941  27.612  31.486  1.00  0.00     0.198 A 
ATOM     73  F   UNL A   1      45.856  28.106  32.455  1.00  0.00    -0.203 F 
ATOM     74  F   UNL A   1      49.251  28.350  28.190  1.00  0.00    -0.200 F 
ATOM     75  C   UNL A   1      48.809  27.667  30.406  1.00  0.00     0.200 A 
ATOM     76  F   UNL A   1      48.315  26.990  32.613  1.00  0.00    -0.200 F 
ATOM     77  F   UNL A   1      50.012  27.079  30.480  1.00  0.00    -0.200 F 
ENDBRANCH  53  67
BRANCH  54  78
ATOM     78  C   UNL A   1      37.018  32.594  29.852  1.00  0.00     0.064 A 
ATOM     79  C   UNL A   1      36.156  32.453  30.949  1.00  0.00     0.173 A 
ATOM     80  C   UNL A   1      36.535  33.280  28.728  1.00  0.00     0.173 A 
ATOM     81  F   UNL A   1      36.564  31.787  32.039  1.00  0.00    -0.203 F 
ATOM     82  C   UNL A   1      34.860  32.963  30.917  1.00  0.00     0.198 A 
ATOM     83  C   UNL A   1      35.248  33.813  28.707  1.00  0.00     0.198 A 
ATOM     84  F   UNL A   1      37.322  33.445  27.653  1.00  0.00    -0.203 F 
ATOM     85  F   UNL A   1      34.045  32.780  31.964  1.00  0.00    -0.200 F 
ATOM     86  C   UNL A   1      34.409  33.648  29.799  1.00  0.00     0.200 A 
ATOM     87  F   UNL A   1      34.821  34.486  27.631  1.00  0.00    -0.200 F 
ATOM     88  F   UNL A   1      33.165  34.145  29.772  1.00  0.00    -0.200 F 
ENDBRANCH  54  78
BRANCH  66  89
ATOM     89  C   UNL A   1      43.152  35.142  31.958  1.00  0.00     0.064 A 
ATOM     90  C   UNL A   1      43.599  36.186  31.135  1.00  0.00     0.173 A 
ATOM     91  C   UNL A   1      43.054  35.390  33.337  1.00  0.00     0.173 A 
ATOM     92  F   UNL A   1      43.726  35.995  29.813  1.00  0.00    -0.203 F 
ATOM     93  C   UNL A   1      43.956  37.420  31.673  1.00  0.00     0.198 A 
ATOM     94  C   UNL A   1      43.382  36.634  33.868  1.00  0.00     0.198 A 
ATOM     95  F   UNL A   1      42.625  34.427  34.168  1.00  0.00    -0.203 F 
ATOM     96  F   UNL A   1      44.425  38.387  30.873  1.00  0.00    -0.200 F 
ATOM     97  C   UNL A   1      43.839  37.646  33.037  1.00  0.00     0.200 A 
ATOM     98  F   UNL A   1      43.255  36.854  35.183  1.00  0.00    -0.200 F 
ATOM     99  F   UNL A   1      44.175  38.836  33.551  1.00  0.00    -0.200 F 
ENDBRANCH  66  89
ENDBRANCH  40  41
ENDBRANCH  32  35
ENDBRANCH  30  31
ENDBRANCH  29  30
ENDBRANCH   1  29
TORSDOF 14
ENDMDL
MODEL 3
REMARK VINA RESULT:     -13.2      2.812      3.821
REMARK SMILES CC(C)c1cc(N2CCC(C(=O)NCCCCNC(=O)c3ccc(-c4c5nc(c(-c6c(F)c(F)c(F)c(F)c6F)c6ccc([nH]6)c(-c6c(F)c(F)c(F)c(F)c6F)c6nc(c(-c7c(F)c(F)c(F)c(F)c7F)c7ccc4[nH]7)C=C6)C=C5)cc3)CC2)nc(-c2ccc(F)cc2)n1
REMARK SMILES IDX 15 1 14 2 13 3 11 4 12 5 10 7 7 8 8 9 85 10 9 11 84 12 6 13
REMARK SMILES IDX 4 14 5 15 95 16 87 17 86 18 2 19 1 20 3 21 88 22 89 23 94 24
REMARK SMILES IDX 90 25 93 26 91 27 92 28 16 29 17 30 18 31 19 32 20 34 21 35
REMARK SMILES IDX 22 36 83 37 23 38 82 39 24 40 25 41 26 42 76 43 27 44 81 45
REMARK SMILES IDX 75 46 77 47 28 48 80 49 74 50 73 51 29 53 61 54 41 55 60 56
REMARK SMILES IDX 42 57 45 58 59 59 78 60 43 61 44 62 58 64 79 65 46 66 30 67
REMARK SMILES IDX 31 68 39 69 32 70 33 71 37 72 40 73 34 74 35 75 38 76 36 77
REMARK SMILES IDX 62 78 63 79 71 80 64 81 65 82 69 83 72 84 66 85 67 86 70 87
REMARK SMILES IDX 68 88 47 89 48 90 56 91 49 92 50 93 54 94 57 95 51 96 52 97
REMARK SMILES IDX 55 98 53 99
REMARK H PARENT 13 6 18 33 77 52 45 63
REMARK Flexibility Score: inf
ROOT
ATOM      1  C   UNL A   1      32.327  27.393  26.352  1.00  0.00     0.023 C 
ENDROOT
BRANCH   1   2
ATOM      2  C   UNL A   1      32.274  26.538  25.088  1.00  0.00     0.116 C 
BRANCH   2   3
ATOM      3  N   UNL A   1      31.623  27.222  23.979  1.00  0.00    -0.356 N 
ATOM      4  C   UNL A   1      31.197  26.746  22.772  1.00  0.00     0.223 C 
ATOM      5  O   UNL A   1      30.649  27.536  22.001  1.00  0.00    -0.275 OA
ATOM      6  H   UNL A   1      31.466  28.183  24.122  1.00  0.00     0.163 HD
BRANCH   4   7
ATOM      7  C   UNL A   1      31.380  25.284  22.381  1.00  0.00     0.082 C 
ATOM      8  N   UNL A   1      32.875  23.080  23.274  1.00  0.00    -0.356 N 
ATOM      9  C   UNL A   1      33.280  23.610  21.983  1.00  0.00     0.119 C 
ATOM     10  C   UNL A   1      31.449  22.956  23.487  1.00  0.00     0.119 C 
ATOM     11  C   UNL A   1      32.817  25.050  21.881  1.00  0.00     0.035 C 
ATOM     12  C   UNL A   1      30.849  24.358  23.496  1.00  0.00     0.035 C 
BRANCH   8  13
ATOM     13  C   UNL A   1      33.777  22.232  23.876  1.00  0.00     0.132 A 
ATOM     14  C   UNL A   1      35.753  21.801  25.103  1.00  0.00     0.049 A 
ATOM     15  C   UNL A   1      34.982  22.689  24.373  1.00  0.00     0.071 A 
ATOM     16  N   UNL A   1      35.370  20.524  25.285  1.00  0.00    -0.233 NA
ATOM     17  C   UNL A   1      34.217  20.146  24.708  1.00  0.00     0.161 A 
ATOM     18  N   UNL A   1      33.393  20.954  24.023  1.00  0.00    -0.211 NA
BRANCH  14  19
ATOM     19  C   UNL A   1      37.050  22.260  25.749  1.00  0.00     0.032 C 
ATOM     20  C   UNL A   1      38.209  21.330  25.377  1.00  0.00     0.014 C 
ATOM     21  C   UNL A   1      37.420  23.703  25.386  1.00  0.00     0.014 C 
ENDBRANCH  14  19
BRANCH  17  22
ATOM     22  C   UNL A   1      33.852  18.730  24.816  1.00  0.00     0.019 A 
ATOM     23  C   UNL A   1      34.665  17.730  24.251  1.00  0.00     0.015 A 
ATOM     24  C   UNL A   1      32.662  18.337  25.457  1.00  0.00     0.015 A 
ATOM     25  C   UNL A   1      34.302  16.383  24.323  1.00  0.00     0.040 A 
ATOM     26  C   UNL A   1      32.288  16.990  25.515  1.00  0.00     0.040 A 
ATOM     27  C   UNL A   1      33.113  16.027  24.950  1.00  0.00     0.123 A 
ATOM     28  F   UNL A   1      32.757  14.737  25.001  1.00  0.00    -0.207 F 
ENDBRANCH  17  22
ENDBRANCH   8  13
ENDBRANCH   4   7
ENDBRANCH   2   3
ENDBRANCH   1   2
BRANCH   1  29
ATOM     29  C   UNL A   1      31.835  28.828  26.181  1.00  0.00     0.023 C 
BRANCH  29  30
ATOM     30  C   UNL A   1      32.907  29.842  25.802  1.00  0.00     0.116 C 
BRANCH  30  31
ATOM     31  N   UNL A   1      32.637  31.179  26.307  1.00  0.00    -0.352 N 
ATOM     32  C   UNL A   1      33.323  31.904  27.251  1.00  0.00     0.251 C 
ATOM     33  H   UNL A   1      31.852  31.629  25.917  1.00  0.00     0.163 HD
ATOM     34  O   UNL A   1      32.890  32.983  27.642  1.00  0.00    -0.269 OA
BRANCH  32  35
ATOM     35  C   UNL A   1      34.571  31.358  27.825  1.00  0.00     0.039 A 
ATOM     36  C   UNL A   1      35.664  32.209  27.998  1.00  0.00     0.014 A 
ATOM     37  C   UNL A   1      34.650  30.020  28.223  1.00  0.00     0.014 A 
ATOM     38  C   UNL A   1      36.813  31.739  28.636  1.00  0.00     0.010 A 
ATOM     39  C   UNL A   1      35.764  29.575  28.927  1.00  0.00     0.010 A 
ATOM     40  C   UNL A   1      36.856  30.429  29.142  1.00  0.00    -0.014 A 
BRANCH  40  41
ATOM     41  C   UNL A   1      38.031  29.936  29.904  1.00  0.00     0.031 A 
ATOM     42  C   UNL A   1      38.278  30.417  31.306  1.00  0.00     0.074 A 
ATOM     43  C   UNL A   1      38.916  29.113  29.309  1.00  0.00     0.049 A 
ATOM     44  N   UNL A   1      39.282  30.160  32.107  1.00  0.00    -0.248 NA
ATOM     45  C   UNL A   1      37.277  31.333  31.874  1.00  0.00     0.031 C 
ATOM     46  C   UNL A   1      38.817  28.616  27.936  1.00  0.00     0.029 A 
ATOM     47  N   UNL A   1      40.080  28.558  29.779  1.00  0.00    -0.354 N 
ATOM     48  C   UNL A   1      39.041  30.894  33.260  1.00  0.00     0.074 A 
ATOM     49  C   UNL A   1      37.828  31.650  33.036  1.00  0.00     0.031 C 
ATOM     50  C   UNL A   1      39.861  27.810  27.683  1.00  0.00     0.029 A 
ATOM     51  C   UNL A   1      40.722  27.764  28.862  1.00  0.00     0.049 A 
ATOM     52  H   UNL A   1      40.422  28.714  30.690  1.00  0.00     0.167 HD
ATOM     53  C   UNL A   1      39.754  30.917  34.412  1.00  0.00     0.037 A 
ATOM     54  C   UNL A   1      41.878  27.080  28.957  1.00  0.00     0.037 A 
ATOM     55  C   UNL A   1      40.947  30.146  34.641  1.00  0.00     0.049 A 
ATOM     56  C   UNL A   1      42.655  27.125  30.246  1.00  0.00     0.074 A 
ATOM     57  C   UNL A   1      41.703  30.047  35.795  1.00  0.00     0.029 A 
ATOM     58  N   UNL A   1      41.559  29.340  33.692  1.00  0.00    -0.354 N 
ATOM     59  N   UNL A   1      42.379  27.764  31.356  1.00  0.00    -0.248 NA
ATOM     60  C   UNL A   1      43.901  26.347  30.294  1.00  0.00     0.031 C 
ATOM     61  C   UNL A   1      42.801  29.221  35.530  1.00  0.00     0.029 A 
ATOM     62  C   UNL A   1      42.700  28.761  34.227  1.00  0.00     0.049 A 
ATOM     63  H   UNL A   1      41.233  29.200  32.773  1.00  0.00     0.167 HD
ATOM     64  C   UNL A   1      43.399  27.445  32.243  1.00  0.00     0.074 A 
ATOM     65  C   UNL A   1      44.292  26.544  31.545  1.00  0.00     0.031 C 
ATOM     66  C   UNL A   1      43.576  27.861  33.521  1.00  0.00     0.037 A 
BRANCH  53  67
ATOM     67  C   UNL A   1      39.258  31.810  35.513  1.00  0.00     0.064 A 
ATOM     68  C   UNL A   1      38.379  31.343  36.502  1.00  0.00     0.173 A 
ATOM     69  C   UNL A   1      39.683  33.146  35.592  1.00  0.00     0.173 A 
ATOM     70  F   UNL A   1      37.934  30.078  36.467  1.00  0.00    -0.203 F 
ATOM     71  C   UNL A   1      37.914  32.188  37.507  1.00  0.00     0.198 A 
ATOM     72  C   UNL A   1      39.242  33.979  36.618  1.00  0.00     0.198 A 
ATOM     73  F   UNL A   1      40.528  33.643  34.678  1.00  0.00    -0.203 F 
ATOM     74  F   UNL A   1      37.029  31.734  38.405  1.00  0.00    -0.200 F 
ATOM     75  C   UNL A   1      38.351  33.503  37.567  1.00  0.00     0.200 A 
ATOM     76  F   UNL A   1      39.674  35.245  36.682  1.00  0.00    -0.200 F 
ATOM     77  F   UNL A   1      37.905  34.314  38.536  1.00  0.00    -0.200 F 
ENDBRANCH  53  67
BRANCH  54  78
ATOM     78  C   UNL A   1      42.353  26.266  27.809  1.00  0.00     0.064 A 
ATOM     79  C   UNL A   1      43.327  26.763  26.931  1.00  0.00     0.173 A 
ATOM     80  C   UNL A   1      41.854  24.978  27.568  1.00  0.00     0.173 A 
ATOM     81  F   UNL A   1      43.819  27.997  27.108  1.00  0.00    -0.203 F 
ATOM     82  C   UNL A   1      43.772  26.009  25.847  1.00  0.00     0.198 A 
ATOM     83  C   UNL A   1      42.319  24.213  26.499  1.00  0.00     0.198 A 
ATOM     84  F   UNL A   1      40.923  24.454  28.380  1.00  0.00    -0.203 F 
ATOM     85  F   UNL A   1      44.674  26.524  25.002  1.00  0.00    -0.200 F 
ATOM     86  C   UNL A   1      43.273  24.733  25.636  1.00  0.00     0.200 A 
ATOM     87  F   UNL A   1      41.845  22.976  26.306  1.00  0.00    -0.200 F 
ATOM     88  F   UNL A   1      43.707  24.005  24.597  1.00  0.00    -0.200 F 
ENDBRANCH  54  78
BRANCH  66  89
ATOM     89  C   UNL A   1      44.765  27.320  34.261  1.00  0.00     0.064 A 
ATOM     90  C   UNL A   1      45.997  27.991  34.272  1.00  0.00     0.173 A 
ATOM     91  C   UNL A   1      44.657  26.134  35.004  1.00  0.00     0.173 A 
ATOM     92  F   UNL A   1      46.156  29.120  33.565  1.00  0.00    -0.203 F 
ATOM     93  C   UNL A   1      47.084  27.481  34.979  1.00  0.00     0.198 A 
ATOM     94  C   UNL A   1      45.736  25.644  35.735  1.00  0.00     0.198 A 
ATOM     95  F   UNL A   1      43.499  25.457  35.034  1.00  0.00    -0.203 F 
ATOM     96  F   UNL A   1      48.263  28.114  34.936  1.00  0.00    -0.200 F 
ATOM     97  C   UNL A   1      46.950  26.314  35.716  1.00  0.00     0.200 A 
ATOM     98  F   UNL A   1      45.601  24.524  36.457  1.00  0.00    -0.200 F 
ATOM     99  F   UNL A   1      47.994  25.830  36.401  1.00  0.00    -0.200 F 
ENDBRANCH  66  89
ENDBRANCH  40  41
ENDBRANCH  32  35
ENDBRANCH  30  31
ENDBRANCH  29  30
ENDBRANCH   1  29
TORSDOF 14
ENDMDL
