MODEL 1
REMARK VINA RESULT:     -10.8      0.000      0.000
REMARK SMILES O=C(COc1ncc(C(F)(F)F)cc1Cl)NCCCCNC(=O)c1ccc(-c2c3nc(c(-c4c(F)c(F)c(F)c(F)c4F)c4ccc([nH]4)c(-c4c(F)c(F)c(F)c(F)c4F)c4nc(c(-c5c(F)c(F)c(F)c(F)c5F)c5ccc2[nH]5)C=C4)C=C3)cc1
REMARK SMILES IDX 18 1 17 2 16 3 1 4 2 5 3 7 4 8 5 9 6 10 14 11 7 12 13 13
REMARK SMILES IDX 15 14 8 15 9 16 10 17 11 18 12 19 19 20 20 21 21 22 22 23
REMARK SMILES IDX 23 25 24 26 25 27 86 28 26 29 85 30 27 31 28 32 29 33 79 34
REMARK SMILES IDX 30 35 84 36 78 37 80 38 31 39 83 40 77 41 76 42 32 44 64 45
REMARK SMILES IDX 44 46 63 47 45 48 48 49 62 50 81 51 46 52 47 53 61 55 82 56
REMARK SMILES IDX 49 57 33 58 34 59 42 60 35 61 36 62 40 63 43 64 37 65 38 66
REMARK SMILES IDX 41 67 39 68 65 69 66 70 74 71 67 72 68 73 72 74 75 75 69 76
REMARK SMILES IDX 70 77 73 78 71 79 50 80 51 81 59 82 52 83 53 84 57 85 60 86
REMARK SMILES IDX 54 87 55 88 58 89 56 90
REMARK H PARENT 16 6 21 24 80 43 48 54
REMARK Flexibility Score: inf
ROOT
ATOM      1  C   UNL A   1      33.265  34.811  29.218  1.00  0.00     0.023 C 
ENDROOT
BRANCH   1   2
ATOM      2  C   UNL A   1      33.156  36.206  29.811  1.00  0.00     0.116 C 
BRANCH   2   3
ATOM      3  N   UNL A   1      33.887  36.386  31.047  1.00  0.00    -0.353 N 
ATOM      4  O   UNL A   1      32.073  36.356  32.473  1.00  0.00    -0.271 OA
ATOM      5  C   UNL A   1      33.281  36.257  32.286  1.00  0.00     0.258 C 
ATOM      6  H   UNL A   1      34.846  36.607  31.006  1.00  0.00     0.163 HD
BRANCH   5   7
ATOM      7  C   UNL A   1      34.266  35.940  33.414  1.00  0.00     0.331 C 
BRANCH   7   8
ATOM      8  O   UNL A   1      35.522  35.561  32.844  1.00  0.00    -0.467 OA
BRANCH   8   9
ATOM      9  C   UNL A   1      36.022  34.407  33.390  1.00  0.00     0.233 A 
ATOM     10  N   UNL A   1      37.015  34.610  34.288  1.00  0.00    -0.220 NA
ATOM     11  C   UNL A   1      35.704  33.145  32.888  1.00  0.00     0.103 A 
ATOM     12  C   UNL A   1      37.727  33.523  34.682  1.00  0.00     0.128 A 
ATOM     13  C   UNL A   1      36.446  32.051  33.324  1.00  0.00     0.041 A 
ATOM     14  Cl  UNL A   1      34.501  32.836  31.705  1.00  0.00    -0.078 Cl
ATOM     15  C   UNL A   1      37.500  32.236  34.219  1.00  0.00     0.076 A 
BRANCH  15  16
ATOM     16  C   UNL A   1      38.388  31.103  34.631  1.00  0.00     0.417 C 
ATOM     17  F   UNL A   1      38.050  30.599  35.849  1.00  0.00    -0.166 F 
ATOM     18  F   UNL A   1      38.346  30.059  33.762  1.00  0.00    -0.166 F 
ATOM     19  F   UNL A   1      39.699  31.459  34.729  1.00  0.00    -0.166 F 
ENDBRANCH  15  16
ENDBRANCH   8   9
ENDBRANCH   7   8
ENDBRANCH   5   7
ENDBRANCH   2   3
ENDBRANCH   1   2
BRANCH   1  20
ATOM     20  C   UNL A   1      34.390  34.621  28.200  1.00  0.00     0.023 C 
BRANCH  20  21
ATOM     21  C   UNL A   1      35.057  33.248  28.190  1.00  0.00     0.116 C 
BRANCH  21  22
ATOM     22  N   UNL A   1      34.126  32.158  27.939  1.00  0.00    -0.352 N 
ATOM     23  C   UNL A   1      34.343  30.801  27.918  1.00  0.00     0.251 C 
ATOM     24  H   UNL A   1      33.199  32.434  27.755  1.00  0.00     0.163 HD
ATOM     25  O   UNL A   1      33.452  30.040  27.545  1.00  0.00    -0.269 OA
BRANCH  23  26
ATOM     26  C   UNL A   1      35.657  30.244  28.312  1.00  0.00     0.039 A 
ATOM     27  C   UNL A   1      36.682  30.197  27.363  1.00  0.00     0.014 A 
ATOM     28  C   UNL A   1      35.885  29.769  29.605  1.00  0.00     0.014 A 
ATOM     29  C   UNL A   1      37.953  29.749  27.731  1.00  0.00     0.010 A 
ATOM     30  C   UNL A   1      37.172  29.399  29.993  1.00  0.00     0.010 A 
ATOM     31  C   UNL A   1      38.222  29.388  29.062  1.00  0.00    -0.014 A 
BRANCH  31  32
ATOM     32  C   UNL A   1      39.594  29.014  29.497  1.00  0.00     0.031 A 
ATOM     33  C   UNL A   1      40.386  29.926  30.393  1.00  0.00     0.074 A 
ATOM     34  C   UNL A   1      40.155  27.879  29.033  1.00  0.00     0.049 A 
ATOM     35  N   UNL A   1      41.619  29.805  30.821  1.00  0.00    -0.248 NA
ATOM     36  C   UNL A   1      39.712  31.152  30.848  1.00  0.00     0.031 C 
ATOM     37  C   UNL A   1      39.513  26.930  28.122  1.00  0.00     0.029 A 
ATOM     38  N   UNL A   1      41.398  27.336  29.254  1.00  0.00    -0.354 N 
ATOM     39  C   UNL A   1      41.867  30.937  31.585  1.00  0.00     0.074 A 
ATOM     40  C   UNL A   1      40.681  31.764  31.514  1.00  0.00     0.031 C 
ATOM     41  C   UNL A   1      40.357  25.915  27.878  1.00  0.00     0.029 A 
ATOM     42  C   UNL A   1      41.613  26.160  28.579  1.00  0.00     0.049 A 
ATOM     43  H   UNL A   1      42.070  27.752  29.841  1.00  0.00     0.167 HD
ATOM     44  C   UNL A   1      42.973  31.248  32.304  1.00  0.00     0.037 A 
ATOM     45  C   UNL A   1      42.705  25.373  28.517  1.00  0.00     0.037 A 
ATOM     46  C   UNL A   1      44.149  30.420  32.384  1.00  0.00     0.049 A 
ATOM     47  C   UNL A   1      43.932  25.753  29.304  1.00  0.00     0.074 A 
ATOM     48  C   UNL A   1      45.301  30.625  33.122  1.00  0.00     0.029 A 
ATOM     49  N   UNL A   1      44.325  29.229  31.692  1.00  0.00    -0.354 N 
ATOM     50  N   UNL A   1      44.129  26.793  30.078  1.00  0.00    -0.248 NA
ATOM     51  C   UNL A   1      45.084  24.846  29.213  1.00  0.00     0.031 C 
ATOM     52  C   UNL A   1      46.197  29.590  32.834  1.00  0.00     0.029 A 
ATOM     53  C   UNL A   1      45.578  28.703  31.967  1.00  0.00     0.049 A 
ATOM     54  H   UNL A   1      43.659  28.818  31.096  1.00  0.00     0.167 HD
ATOM     55  C   UNL A   1      45.413  26.650  30.589  1.00  0.00     0.074 A 
ATOM     56  C   UNL A   1      45.941  25.414  30.050  1.00  0.00     0.031 C 
ATOM     57  C   UNL A   1      46.092  27.469  31.430  1.00  0.00     0.037 A 
BRANCH  44  58
ATOM     58  C   UNL A   1      42.966  32.544  33.064  1.00  0.00     0.064 A 
ATOM     59  C   UNL A   1      42.718  32.587  34.446  1.00  0.00     0.173 A 
ATOM     60  C   UNL A   1      43.245  33.756  32.414  1.00  0.00     0.173 A 
ATOM     61  F   UNL A   1      42.437  31.459  35.117  1.00  0.00    -0.203 F 
ATOM     62  C   UNL A   1      42.715  33.795  35.139  1.00  0.00     0.198 A 
ATOM     63  C   UNL A   1      43.276  34.959  33.117  1.00  0.00     0.198 A 
ATOM     64  F   UNL A   1      43.497  33.775  31.096  1.00  0.00    -0.203 F 
ATOM     65  F   UNL A   1      42.420  33.815  36.445  1.00  0.00    -0.200 F 
ATOM     66  C   UNL A   1      43.001  34.979  34.475  1.00  0.00     0.200 A 
ATOM     67  F   UNL A   1      43.569  36.099  32.476  1.00  0.00    -0.200 F 
ATOM     68  F   UNL A   1      43.006  36.139  35.144  1.00  0.00    -0.200 F 
ENDBRANCH  44  58
BRANCH  45  69
ATOM     69  C   UNL A   1      42.685  24.137  27.689  1.00  0.00     0.064 A 
ATOM     70  C   UNL A   1      42.383  22.891  28.258  1.00  0.00     0.173 A 
ATOM     71  C   UNL A   1      42.976  24.173  26.318  1.00  0.00     0.173 A 
ATOM     72  F   UNL A   1      42.119  22.800  29.570  1.00  0.00    -0.203 F 
ATOM     73  C   UNL A   1      42.396  21.727  27.491  1.00  0.00     0.198 A 
ATOM     74  C   UNL A   1      42.957  23.013  25.546  1.00  0.00     0.198 A 
ATOM     75  F   UNL A   1      43.267  25.340  25.724  1.00  0.00    -0.203 F 
ATOM     76  F   UNL A   1      42.155  20.543  28.071  1.00  0.00    -0.200 F 
ATOM     77  C   UNL A   1      42.677  21.790  26.135  1.00  0.00     0.200 A 
ATOM     78  F   UNL A   1      43.212  23.081  24.232  1.00  0.00    -0.200 F 
ATOM     79  F   UNL A   1      42.685  20.672  25.397  1.00  0.00    -0.200 F 
ENDBRANCH  45  69
BRANCH  57  80
ATOM     80  C   UNL A   1      47.468  27.037  31.854  1.00  0.00     0.064 A 
ATOM     81  C   UNL A   1      47.673  26.185  32.948  1.00  0.00     0.173 A 
ATOM     82  C   UNL A   1      48.596  27.452  31.127  1.00  0.00     0.173 A 
ATOM     83  F   UNL A   1      46.632  25.771  33.685  1.00  0.00    -0.203 F 
ATOM     84  C   UNL A   1      48.957  25.789  33.318  1.00  0.00     0.198 A 
ATOM     85  C   UNL A   1      49.873  27.025  31.477  1.00  0.00     0.198 A 
ATOM     86  F   UNL A   1      48.456  28.261  30.065  1.00  0.00    -0.203 F 
ATOM     87  F   UNL A   1      49.132  25.018  34.400  1.00  0.00    -0.200 F 
ATOM     88  C   UNL A   1      50.054  26.202  32.578  1.00  0.00     0.200 A 
ATOM     89  F   UNL A   1      50.930  27.413  30.749  1.00  0.00    -0.200 F 
ATOM     90  F   UNL A   1      51.287  25.812  32.929  1.00  0.00    -0.200 F 
ENDBRANCH  57  80
ENDBRANCH  31  32
ENDBRANCH  23  26
ENDBRANCH  21  22
ENDBRANCH  20  21
ENDBRANCH   1  20
TORSDOF 14
ENDMDL
MODEL 2
REMARK VINA RESULT:     -10.8      5.751     10.568
REMARK SMILES O=C(COc1ncc(C(F)(F)F)cc1Cl)NCCCCNC(=O)c1ccc(-c2c3nc(c(-c4c(F)c(F)c(F)c(F)c4F)c4ccc([nH]4)c(-c4c(F)c(F)c(F)c(F)c4F)c4nc(c(-c5c(F)c(F)c(F)c(F)c5F)c5ccc2[nH]5)C=C4)C=C3)cc1
REMARK SMILES IDX 18 1 17 2 16 3 1 4 2 5 3 7 4 8 5 9 6 10 14 11 7 12 13 13
REMARK SMILES IDX 15 14 8 15 9 16 10 17 11 18 12 19 19 20 20 21 21 22 22 23
REMARK SMILES IDX 23 25 24 26 25 27 86 28 26 29 85 30 27 31 28 32 29 33 79 34
REMARK SMILES IDX 30 35 84 36 78 37 80 38 31 39 83 40 77 41 76 42 32 44 64 45
REMARK SMILES IDX 44 46 63 47 45 48 48 49 62 50 81 51 46 52 47 53 61 55 82 56
REMARK SMILES IDX 49 57 33 58 34 59 42 60 35 61 36 62 40 63 43 64 37 65 38 66
REMARK SMILES IDX 41 67 39 68 65 69 66 70 74 71 67 72 68 73 72 74 75 75 69 76
REMARK SMILES IDX 70 77 73 78 71 79 50 80 51 81 59 82 52 83 53 84 57 85 60 86
REMARK SMILES IDX 54 87 55 88 58 89 56 90
REMARK H PARENT 16 6 21 24 80 43 48 54
REMARK Flexibility Score: inf
ROOT
ATOM      1  C   UNL A   1      36.971  20.619  24.806  1.00  0.00     0.023 C 
ENDROOT
BRANCH   1   2
ATOM      2  C   UNL A   1      37.213  21.930  25.537  1.00  0.00     0.116 C 
BRANCH   2   3
ATOM      3  N   UNL A   1      36.146  22.315  26.437  1.00  0.00    -0.353 N 
ATOM      4  O   UNL A   1      35.536  24.262  25.361  1.00  0.00    -0.271 OA
ATOM      5  C   UNL A   1      35.283  23.359  26.152  1.00  0.00     0.258 C 
ATOM      6  H   UNL A   1      36.030  21.817  27.279  1.00  0.00     0.163 HD
BRANCH   5   7
ATOM      7  C   UNL A   1      33.949  23.266  26.896  1.00  0.00     0.331 C 
BRANCH   7   8
ATOM      8  O   UNL A   1      32.883  23.227  25.942  1.00  0.00    -0.467 OA
BRANCH   8   9
ATOM      9  C   UNL A   1      32.714  21.982  25.392  1.00  0.00     0.233 A 
ATOM     10  N   UNL A   1      33.152  20.971  26.179  1.00  0.00    -0.220 NA
ATOM     11  C   UNL A   1      32.350  21.799  24.058  1.00  0.00     0.103 A 
ATOM     12  C   UNL A   1      33.250  19.742  25.611  1.00  0.00     0.128 A 
ATOM     13  C   UNL A   1      32.450  20.522  23.513  1.00  0.00     0.041 A 
ATOM     14  Cl  UNL A   1      31.848  23.050  22.999  1.00  0.00    -0.078 Cl
ATOM     15  C   UNL A   1      32.935  19.469  24.288  1.00  0.00     0.076 A 
BRANCH  15  16
ATOM     16  C   UNL A   1      33.159  18.106  23.710  1.00  0.00     0.417 C 
ATOM     17  F   UNL A   1      32.752  18.024  22.414  1.00  0.00    -0.166 F 
ATOM     18  F   UNL A   1      34.466  17.737  23.723  1.00  0.00    -0.166 F 
ATOM     19  F   UNL A   1      32.484  17.126  24.372  1.00  0.00    -0.166 F 
ENDBRANCH  15  16
ENDBRANCH   8   9
ENDBRANCH   7   8
ENDBRANCH   5   7
ENDBRANCH   2   3
ENDBRANCH   1   2
BRANCH   1  20
ATOM     20  C   UNL A   1      38.067  19.567  24.975  1.00  0.00     0.023 C 
BRANCH  20  21
ATOM     21  C   UNL A   1      39.318  20.021  25.722  1.00  0.00     0.116 C 
BRANCH  21  22
ATOM     22  N   UNL A   1      40.333  18.984  25.827  1.00  0.00    -0.352 N 
ATOM     23  C   UNL A   1      41.684  19.093  26.059  1.00  0.00     0.251 C 
ATOM     24  H   UNL A   1      40.004  18.063  25.714  1.00  0.00     0.163 HD
ATOM     25  O   UNL A   1      42.406  18.102  25.973  1.00  0.00    -0.269 OA
BRANCH  23  26
ATOM     26  C   UNL A   1      42.286  20.406  26.384  1.00  0.00     0.039 A 
ATOM     27  C   UNL A   1      42.868  21.154  25.356  1.00  0.00     0.014 A 
ATOM     28  C   UNL A   1      42.284  20.903  27.689  1.00  0.00     0.014 A 
ATOM     29  C   UNL A   1      43.373  22.429  25.621  1.00  0.00     0.010 A 
ATOM     30  C   UNL A   1      42.714  22.206  27.937  1.00  0.00     0.010 A 
ATOM     31  C   UNL A   1      43.260  22.985  26.906  1.00  0.00    -0.014 A 
BRANCH  31  32
ATOM     32  C   UNL A   1      43.691  24.382  27.183  1.00  0.00     0.031 A 
ATOM     33  C   UNL A   1      42.702  25.405  27.667  1.00  0.00     0.074 A 
ATOM     34  C   UNL A   1      44.966  24.747  26.937  1.00  0.00     0.049 A 
ATOM     35  N   UNL A   1      42.874  26.684  27.896  1.00  0.00    -0.248 NA
ATOM     36  C   UNL A   1      41.327  24.935  27.901  1.00  0.00     0.031 C 
ATOM     37  C   UNL A   1      46.014  23.865  26.423  1.00  0.00     0.029 A 
ATOM     38  N   UNL A   1      45.594  25.962  27.075  1.00  0.00    -0.354 N 
ATOM     39  C   UNL A   1      41.633  27.168  28.290  1.00  0.00     0.074 A 
ATOM     40  C   UNL A   1      40.703  26.062  28.212  1.00  0.00     0.031 C 
ATOM     41  C   UNL A   1      47.157  24.559  26.308  1.00  0.00     0.029 A 
ATOM     42  C   UNL A   1      46.915  25.944  26.698  1.00  0.00     0.049 A 
ATOM     43  H   UNL A   1      45.140  26.767  27.413  1.00  0.00     0.167 HD
ATOM     44  C   UNL A   1      41.304  28.415  28.706  1.00  0.00     0.037 A 
ATOM     45  C   UNL A   1      47.826  26.936  26.655  1.00  0.00     0.037 A 
ATOM     46  C   UNL A   1      42.233  29.513  28.794  1.00  0.00     0.049 A 
ATOM     47  C   UNL A   1      47.429  28.320  27.097  1.00  0.00     0.074 A 
ATOM     48  C   UNL A   1      42.006  30.800  29.248  1.00  0.00     0.029 A 
ATOM     49  N   UNL A   1      43.565  29.453  28.412  1.00  0.00    -0.354 N 
ATOM     50  N   UNL A   1      46.270  28.749  27.534  1.00  0.00    -0.248 NA
ATOM     51  C   UNL A   1      48.471  29.355  27.048  1.00  0.00     0.031 C 
ATOM     52  C   UNL A   1      43.185  31.536  29.087  1.00  0.00     0.029 A 
ATOM     53  C   UNL A   1      44.166  30.690  28.595  1.00  0.00     0.049 A 
ATOM     54  H   UNL A   1      44.018  28.652  28.063  1.00  0.00     0.167 HD
ATOM     55  C   UNL A   1      46.449  30.092  27.839  1.00  0.00     0.074 A 
ATOM     56  C   UNL A   1      47.835  30.403  27.553  1.00  0.00     0.031 C 
ATOM     57  C   UNL A   1      45.548  30.986  28.313  1.00  0.00     0.037 A 
BRANCH  44  58
ATOM     58  C   UNL A   1      39.875  28.662  29.098  1.00  0.00     0.064 A 
ATOM     59  C   UNL A   1      39.424  28.452  30.412  1.00  0.00     0.173 A 
ATOM     60  C   UNL A   1      38.950  29.148  28.161  1.00  0.00     0.173 A 
ATOM     61  F   UNL A   1      40.263  27.981  31.347  1.00  0.00    -0.203 F 
ATOM     62  C   UNL A   1      38.096  28.686  30.762  1.00  0.00     0.198 A 
ATOM     63  C   UNL A   1      37.631  29.414  28.524  1.00  0.00     0.198 A 
ATOM     64  F   UNL A   1      39.326  29.374  26.893  1.00  0.00    -0.203 F 
ATOM     65  F   UNL A   1      37.678  28.424  32.008  1.00  0.00    -0.200 F 
ATOM     66  C   UNL A   1      37.203  29.173  29.820  1.00  0.00     0.200 A 
ATOM     67  F   UNL A   1      36.774  29.900  27.615  1.00  0.00    -0.200 F 
ATOM     68  F   UNL A   1      35.928  29.405  30.160  1.00  0.00    -0.200 F 
ENDBRANCH  44  58
BRANCH  45  69
ATOM     69  C   UNL A   1      49.210  26.654  26.188  1.00  0.00     0.064 A 
ATOM     70  C   UNL A   1      49.584  26.882  24.856  1.00  0.00     0.173 A 
ATOM     71  C   UNL A   1      50.183  26.141  27.058  1.00  0.00     0.173 A 
ATOM     72  F   UNL A   1      48.685  27.352  23.979  1.00  0.00    -0.203 F 
ATOM     73  C   UNL A   1      50.871  26.587  24.409  1.00  0.00     0.198 A 
ATOM     74  C   UNL A   1      51.478  25.877  26.617  1.00  0.00     0.198 A 
ATOM     75  F   UNL A   1      49.878  25.908  28.344  1.00  0.00    -0.203 F 
ATOM     76  F   UNL A   1      51.186  26.767  23.119  1.00  0.00    -0.200 F 
ATOM     77  C   UNL A   1      51.818  26.091  25.291  1.00  0.00     0.200 A 
ATOM     78  F   UNL A   1      52.395  25.413  27.478  1.00  0.00    -0.200 F 
ATOM     79  F   UNL A   1      53.056  25.811  24.861  1.00  0.00    -0.200 F 
ENDBRANCH  45  69
BRANCH  57  80
ATOM     80  C   UNL A   1      46.038  32.380  28.593  1.00  0.00     0.064 A 
ATOM     81  C   UNL A   1      46.589  32.737  29.832  1.00  0.00     0.173 A 
ATOM     82  C   UNL A   1      45.991  33.361  27.590  1.00  0.00     0.173 A 
ATOM     83  F   UNL A   1      46.644  31.841  30.829  1.00  0.00    -0.203 F 
ATOM     84  C   UNL A   1      47.046  34.031  30.067  1.00  0.00     0.198 A 
ATOM     85  C   UNL A   1      46.483  34.644  27.817  1.00  0.00     0.198 A 
ATOM     86  F   UNL A   1      45.482  33.072  26.382  1.00  0.00    -0.203 F 
ATOM     87  F   UNL A   1      47.519  34.363  31.276  1.00  0.00    -0.200 F 
ATOM     88  C   UNL A   1      47.001  34.980  29.057  1.00  0.00     0.200 A 
ATOM     89  F   UNL A   1      46.453  35.554  26.833  1.00  0.00    -0.200 F 
ATOM     90  F   UNL A   1      47.451  36.223  29.282  1.00  0.00    -0.200 F 
ENDBRANCH  57  80
ENDBRANCH  31  32
ENDBRANCH  23  26
ENDBRANCH  21  22
ENDBRANCH  20  21
ENDBRANCH   1  20
TORSDOF 14
ENDMDL
MODEL 3
REMARK VINA RESULT:     -10.7      4.800     10.396
REMARK SMILES O=C(COc1ncc(C(F)(F)F)cc1Cl)NCCCCNC(=O)c1ccc(-c2c3nc(c(-c4c(F)c(F)c(F)c(F)c4F)c4ccc([nH]4)c(-c4c(F)c(F)c(F)c(F)c4F)c4nc(c(-c5c(F)c(F)c(F)c(F)c5F)c5ccc2[nH]5)C=C4)C=C3)cc1
REMARK SMILES IDX 18 1 17 2 16 3 1 4 2 5 3 7 4 8 5 9 6 10 14 11 7 12 13 13
REMARK SMILES IDX 15 14 8 15 9 16 10 17 11 18 12 19 19 20 20 21 21 22 22 23
REMARK SMILES IDX 23 25 24 26 25 27 86 28 26 29 85 30 27 31 28 32 29 33 79 34
REMARK SMILES IDX 30 35 84 36 78 37 80 38 31 39 83 40 77 41 76 42 32 44 64 45
REMARK SMILES IDX 44 46 63 47 45 48 48 49 62 50 81 51 46 52 47 53 61 55 82 56
REMARK SMILES IDX 49 57 33 58 34 59 42 60 35 61 36 62 40 63 43 64 37 65 38 66
REMARK SMILES IDX 41 67 39 68 65 69 66 70 74 71 67 72 68 73 72 74 75 75 69 76
REMARK SMILES IDX 70 77 73 78 71 79 50 80 51 81 59 82 52 83 53 84 57 85 60 86
REMARK SMILES IDX 54 87 55 88 58 89 56 90
REMARK H PARENT 16 6 21 24 80 43 48 54
REMARK Flexibility Score: inf
ROOT
ATOM      1  C   UNL A   1      31.446  31.001  25.744  1.00  0.00     0.023 C 
ENDROOT
BRANCH   1   2
ATOM      2  C   UNL A   1      32.629  30.046  25.759  1.00  0.00     0.116 C 
BRANCH   2   3
ATOM      3  N   UNL A   1      33.034  29.582  24.449  1.00  0.00    -0.353 N 
ATOM      4  O   UNL A   1      33.599  27.430  25.058  1.00  0.00    -0.271 OA
ATOM      5  C   UNL A   1      33.309  28.249  24.192  1.00  0.00     0.258 C 
ATOM      6  H   UNL A   1      33.118  30.235  23.716  1.00  0.00     0.163 HD
BRANCH   5   7
ATOM      7  C   UNL A   1      33.178  27.875  22.714  1.00  0.00     0.331 C 
BRANCH   7   8
ATOM      8  O   UNL A   1      31.969  27.135  22.524  1.00  0.00    -0.467 OA
BRANCH   8   9
ATOM      9  C   UNL A   1      30.857  27.938  22.500  1.00  0.00     0.233 A 
ATOM     10  N   UNL A   1      31.061  29.139  21.907  1.00  0.00    -0.220 NA
ATOM     11  C   UNL A   1      29.705  27.641  23.227  1.00  0.00     0.103 A 
ATOM     12  C   UNL A   1      30.095  30.079  22.063  1.00  0.00     0.128 A 
ATOM     13  C   UNL A   1      28.729  28.625  23.355  1.00  0.00     0.041 A 
ATOM     14  Cl  UNL A   1      29.420  26.164  24.050  1.00  0.00    -0.078 Cl
ATOM     15  C   UNL A   1      28.929  29.884  22.788  1.00  0.00     0.076 A 
BRANCH  15  16
ATOM     16  C   UNL A   1      27.954  31.001  22.992  1.00  0.00     0.417 C 
ATOM     17  F   UNL A   1      27.189  31.224  21.889  1.00  0.00    -0.166 F 
ATOM     18  F   UNL A   1      27.089  30.765  24.012  1.00  0.00    -0.166 F 
ATOM     19  F   UNL A   1      28.553  32.190  23.274  1.00  0.00    -0.166 F 
ENDBRANCH  15  16
ENDBRANCH   8   9
ENDBRANCH   7   8
ENDBRANCH   5   7
ENDBRANCH   2   3
ENDBRANCH   1   2
BRANCH   1  20
ATOM     20  C   UNL A   1      31.367  31.960  26.933  1.00  0.00     0.023 C 
BRANCH  20  21
ATOM     21  C   UNL A   1      32.635  32.754  27.234  1.00  0.00     0.116 C 
BRANCH  21  22
ATOM     22  N   UNL A   1      32.375  34.143  27.581  1.00  0.00    -0.352 N 
ATOM     23  C   UNL A   1      32.978  34.944  28.522  1.00  0.00     0.251 C 
ATOM     24  H   UNL A   1      31.658  34.576  27.064  1.00  0.00     0.163 HD
ATOM     25  O   UNL A   1      32.521  36.059  28.765  1.00  0.00    -0.269 OA
BRANCH  23  26
ATOM     26  C   UNL A   1      34.160  34.463  29.272  1.00  0.00     0.039 A 
ATOM     27  C   UNL A   1      33.970  33.874  30.525  1.00  0.00     0.014 A 
ATOM     28  C   UNL A   1      35.450  34.590  28.752  1.00  0.00     0.014 A 
ATOM     29  C   UNL A   1      35.060  33.342  31.217  1.00  0.00     0.010 A 
ATOM     30  C   UNL A   1      36.525  33.987  29.404  1.00  0.00     0.010 A 
ATOM     31  C   UNL A   1      36.342  33.353  30.642  1.00  0.00    -0.014 A 
BRANCH  31  32
ATOM     32  C   UNL A   1      37.495  32.695  31.314  1.00  0.00     0.031 A 
ATOM     33  C   UNL A   1      38.208  31.547  30.656  1.00  0.00     0.074 A 
ATOM     34  C   UNL A   1      37.861  33.090  32.550  1.00  0.00     0.049 A 
ATOM     35  N   UNL A   1      39.186  30.804  31.113  1.00  0.00    -0.248 NA
ATOM     36  C   UNL A   1      37.744  31.165  29.313  1.00  0.00     0.031 C 
ATOM     37  C   UNL A   1      37.223  34.159  33.320  1.00  0.00     0.029 A 
ATOM     38  N   UNL A   1      38.852  32.629  33.384  1.00  0.00    -0.354 N 
ATOM     39  C   UNL A   1      39.446  29.867  30.122  1.00  0.00     0.074 A 
ATOM     40  C   UNL A   1      38.485  30.095  29.064  1.00  0.00     0.031 C 
ATOM     41  C   UNL A   1      37.849  34.286  34.500  1.00  0.00     0.029 A 
ATOM     42  C   UNL A   1      38.903  33.281  34.592  1.00  0.00     0.049 A 
ATOM     43  H   UNL A   1      39.467  31.901  33.137  1.00  0.00     0.167 HD
ATOM     44  C   UNL A   1      40.415  28.921  30.084  1.00  0.00     0.037 A 
ATOM     45  C   UNL A   1      39.700  33.083  35.660  1.00  0.00     0.037 A 
ATOM     46  C   UNL A   1      41.378  28.703  31.133  1.00  0.00     0.049 A 
ATOM     47  C   UNL A   1      40.752  32.007  35.604  1.00  0.00     0.074 A 
ATOM     48  C   UNL A   1      42.427  27.801  31.167  1.00  0.00     0.029 A 
ATOM     49  N   UNL A   1      41.404  29.391  32.337  1.00  0.00    -0.354 N 
ATOM     50  N   UNL A   1      41.032  31.173  34.632  1.00  0.00    -0.248 NA
ATOM     51  C   UNL A   1      41.603  31.850  36.792  1.00  0.00     0.031 C 
ATOM     52  C   UNL A   1      43.052  27.902  32.415  1.00  0.00     0.029 A 
ATOM     53  C   UNL A   1      42.435  28.914  33.133  1.00  0.00     0.049 A 
ATOM     54  H   UNL A   1      40.783  30.111  32.591  1.00  0.00     0.167 HD
ATOM     55  C   UNL A   1      42.108  30.415  35.078  1.00  0.00     0.074 A 
ATOM     56  C   UNL A   1      42.441  30.900  36.401  1.00  0.00     0.031 C 
ATOM     57  C   UNL A   1      42.761  29.408  34.446  1.00  0.00     0.037 A 
BRANCH  44  58
ATOM     58  C   UNL A   1      40.482  28.044  28.865  1.00  0.00     0.064 A 
ATOM     59  C   UNL A   1      39.784  26.828  28.792  1.00  0.00     0.173 A 
ATOM     60  C   UNL A   1      41.225  28.438  27.741  1.00  0.00     0.173 A 
ATOM     61  F   UNL A   1      39.064  26.398  29.840  1.00  0.00    -0.203 F 
ATOM     62  C   UNL A   1      39.855  26.025  27.656  1.00  0.00     0.198 A 
ATOM     63  C   UNL A   1      41.265  27.650  26.594  1.00  0.00     0.198 A 
ATOM     64  F   UNL A   1      41.906  29.594  27.752  1.00  0.00    -0.203 F 
ATOM     65  F   UNL A   1      39.225  24.843  27.633  1.00  0.00    -0.200 F 
ATOM     66  C   UNL A   1      40.589  26.440  26.555  1.00  0.00     0.200 A 
ATOM     67  F   UNL A   1      41.962  28.061  25.525  1.00  0.00    -0.200 F 
ATOM     68  F   UNL A   1      40.650  25.671  25.460  1.00  0.00    -0.200 F 
ENDBRANCH  44  58
BRANCH  45  69
ATOM     69  C   UNL A   1      39.542  33.931  36.872  1.00  0.00     0.064 A 
ATOM     70  C   UNL A   1      40.169  35.183  36.965  1.00  0.00     0.173 A 
ATOM     71  C   UNL A   1      38.772  33.507  37.965  1.00  0.00     0.173 A 
ATOM     72  F   UNL A   1      40.934  35.624  35.956  1.00  0.00    -0.203 F 
ATOM     73  C   UNL A   1      40.050  35.964  38.112  1.00  0.00     0.198 A 
ATOM     74  C   UNL A   1      38.628  34.304  39.099  1.00  0.00     0.198 A 
ATOM     75  F   UNL A   1      38.148  32.320  37.925  1.00  0.00    -0.203 F 
ATOM     76  F   UNL A   1      40.703  37.132  38.195  1.00  0.00    -0.200 F 
ATOM     77  C   UNL A   1      39.275  35.527  39.176  1.00  0.00     0.200 A 
ATOM     78  F   UNL A   1      37.864  33.884  40.116  1.00  0.00    -0.200 F 
ATOM     79  F   UNL A   1      39.157  36.281  40.277  1.00  0.00    -0.200 F 
ENDBRANCH  45  69
BRANCH  57  80
ATOM     80  C   UNL A   1      43.930  28.788  35.160  1.00  0.00     0.064 A 
ATOM     81  C   UNL A   1      43.772  27.704  36.036  1.00  0.00     0.173 A 
ATOM     82  C   UNL A   1      45.231  29.261  34.932  1.00  0.00     0.173 A 
ATOM     83  F   UNL A   1      42.548  27.222  36.300  1.00  0.00    -0.203 F 
ATOM     84  C   UNL A   1      44.870  27.137  36.680  1.00  0.00     0.198 A 
ATOM     85  C   UNL A   1      46.330  28.669  35.549  1.00  0.00     0.198 A 
ATOM     86  F   UNL A   1      45.440  30.291  34.097  1.00  0.00    -0.203 F 
ATOM     87  F   UNL A   1      44.688  26.137  37.553  1.00  0.00    -0.200 F 
ATOM     88  C   UNL A   1      46.147  27.614  36.429  1.00  0.00     0.200 A 
ATOM     89  F   UNL A   1      47.565  29.122  35.291  1.00  0.00    -0.200 F 
ATOM     90  F   UNL A   1      47.203  27.061  37.042  1.00  0.00    -0.200 F 
ENDBRANCH  57  80
ENDBRANCH  31  32
ENDBRANCH  23  26
ENDBRANCH  21  22
ENDBRANCH  20  21
ENDBRANCH   1  20
TORSDOF 14
ENDMDL
