MODEL 1
REMARK VINA RESULT:     -11.5      0.000      0.000
REMARK SMILES C=CCN(CC(=O)NCCCCNC(=O)c1ccc(-c2c3nc(c(-c4c(F)c(F)c(F)c(F)c4F)c4ccc([nH]4)c(-c4c(F)c(F)c(F)c(F)c4F)c4nc(c(-c5c(F)c(F)c(F)c(F)c5F)c5ccc2[nH]5)C=C4)C=C3)cc1)S(=O)(=O)c1ccccc1OC
REMARK SMILES IDX 9 1 8 2 6 3 7 4 5 6 4 7 3 8 2 9 1 10 79 11 80 12 81 13 82 14
REMARK SMILES IDX 83 15 87 16 84 17 86 18 85 19 88 20 89 21 10 22 11 23 12 24
REMARK SMILES IDX 13 25 14 26 15 28 16 29 17 30 78 31 18 32 77 33 19 34 20 35
REMARK SMILES IDX 21 36 71 37 22 38 76 39 70 40 72 41 23 42 75 43 69 44 68 45
REMARK SMILES IDX 24 47 56 48 36 49 55 50 37 51 40 52 54 53 73 54 38 55 39 56
REMARK SMILES IDX 53 58 74 59 41 60 25 61 26 62 34 63 27 64 28 65 32 66 35 67
REMARK SMILES IDX 29 68 30 69 33 70 31 71 57 72 58 73 66 74 59 75 60 76 64 77
REMARK SMILES IDX 67 78 61 79 62 80 65 81 63 82 42 83 43 84 51 85 44 86 45 87
REMARK SMILES IDX 49 88 52 89 46 90 47 91 50 92 48 93
REMARK H PARENT 8 5 13 27 72 46 40 57
REMARK Flexibility Score: inf
ROOT
ATOM      1  C   UNL A   1      31.883  29.613  25.594  1.00  0.00     0.116 C 
ENDROOT
BRANCH   1   2
ATOM      2  N   UNL A   1      32.843  29.726  24.520  1.00  0.00    -0.355 N 
ATOM      3  C   UNL A   1      33.547  28.745  23.878  1.00  0.00     0.235 C 
ATOM      4  O   UNL A   1      34.120  29.042  22.825  1.00  0.00    -0.274 OA
ATOM      5  H   UNL A   1      33.016  30.643  24.205  1.00  0.00     0.163 HD
BRANCH   3   6
ATOM      6  C   UNL A   1      33.572  27.311  24.405  1.00  0.00     0.202 C 
BRANCH   6   7
ATOM      7  N   UNL A   1      32.502  26.361  23.967  1.00  0.00    -0.185 NA
BRANCH   7   8
ATOM      8  C   UNL A   1      31.633  25.950  25.085  1.00  0.00     0.130 C 
BRANCH   8   9
ATOM      9  C   UNL A   1      32.265  25.324  26.277  1.00  0.00    -0.018 C 
ATOM     10  C   UNL A   1      31.894  24.129  26.765  1.00  0.00     0.005 C 
ENDBRANCH   8   9
ENDBRANCH   7   8
BRANCH   7  11
ATOM     11  S   UNL A   1      32.804  25.406  22.585  1.00  0.00     0.247 S 
ATOM     12  O   UNL A   1      31.559  25.209  21.876  1.00  0.00    -0.207 OA
ATOM     13  O   UNL A   1      33.908  25.959  21.842  1.00  0.00    -0.207 OA
BRANCH  11  14
ATOM     14  C   UNL A   1      33.259  23.803  23.272  1.00  0.00     0.124 A 
ATOM     15  C   UNL A   1      32.278  22.799  23.044  1.00  0.00     0.026 A 
ATOM     16  C   UNL A   1      34.426  23.441  23.960  1.00  0.00     0.138 A 
ATOM     17  C   UNL A   1      32.397  21.502  23.540  1.00  0.00     0.002 A 
ATOM     18  C   UNL A   1      34.534  22.104  24.422  1.00  0.00     0.048 A 
ATOM     19  C   UNL A   1      33.536  21.149  24.234  1.00  0.00     0.004 A 
BRANCH  16  20
ATOM     20  O   UNL A   1      35.533  24.110  24.384  1.00  0.00    -0.495 OA
ATOM     21  C   UNL A   1      36.247  23.780  25.554  1.00  0.00     0.278 C 
ENDBRANCH  16  20
ENDBRANCH  11  14
ENDBRANCH   7  11
ENDBRANCH   6   7
ENDBRANCH   3   6
ENDBRANCH   1   2
BRANCH   1  22
ATOM     22  C   UNL A   1      32.299  30.381  26.849  1.00  0.00     0.023 C 
BRANCH  22  23
ATOM     23  C   UNL A   1      31.939  31.857  26.873  1.00  0.00     0.023 C 
BRANCH  23  24
ATOM     24  C   UNL A   1      32.972  32.756  27.532  1.00  0.00     0.116 C 
BRANCH  24  25
ATOM     25  N   UNL A   1      32.516  34.125  27.762  1.00  0.00    -0.352 N 
ATOM     26  C   UNL A   1      33.014  35.048  28.655  1.00  0.00     0.251 C 
ATOM     27  H   UNL A   1      31.758  34.424  27.210  1.00  0.00     0.163 HD
ATOM     28  O   UNL A   1      32.483  36.143  28.801  1.00  0.00    -0.269 OA
BRANCH  26  29
ATOM     29  C   UNL A   1      34.178  34.662  29.474  1.00  0.00     0.039 A 
ATOM     30  C   UNL A   1      33.965  34.139  30.750  1.00  0.00     0.014 A 
ATOM     31  C   UNL A   1      35.451  34.664  28.902  1.00  0.00     0.014 A 
ATOM     32  C   UNL A   1      35.018  33.503  31.408  1.00  0.00     0.010 A 
ATOM     33  C   UNL A   1      36.464  33.936  29.509  1.00  0.00     0.010 A 
ATOM     34  C   UNL A   1      36.255  33.337  30.761  1.00  0.00    -0.014 A 
BRANCH  34  35
ATOM     35  C   UNL A   1      37.345  32.525  31.357  1.00  0.00     0.031 A 
ATOM     36  C   UNL A   1      37.865  32.870  32.722  1.00  0.00     0.074 A 
ATOM     37  C   UNL A   1      37.925  31.545  30.636  1.00  0.00     0.049 A 
ATOM     38  N   UNL A   1      38.883  32.370  33.373  1.00  0.00    -0.248 NA
ATOM     39  C   UNL A   1      37.169  33.952  33.436  1.00  0.00     0.031 C 
ATOM     40  C   UNL A   1      37.540  31.145  29.282  1.00  0.00     0.029 A 
ATOM     41  N   UNL A   1      38.977  30.716  30.938  1.00  0.00    -0.354 N 
ATOM     42  C   UNL A   1      38.952  33.080  34.563  1.00  0.00     0.074 A 
ATOM     43  C   UNL A   1      37.925  34.097  34.512  1.00  0.00     0.031 C 
ATOM     44  C   UNL A   1      38.319  30.127  28.884  1.00  0.00     0.029 A 
ATOM     45  C   UNL A   1      39.296  29.838  29.929  1.00  0.00     0.049 A 
ATOM     46  H   UNL A   1      39.458  30.746  31.796  1.00  0.00     0.167 HD
ATOM     47  C   UNL A   1      39.778  32.885  35.618  1.00  0.00     0.037 A 
ATOM     48  C   UNL A   1      40.274  28.915  29.853  1.00  0.00     0.037 A 
ATOM     49  C   UNL A   1      40.791  31.864  35.665  1.00  0.00     0.049 A 
ATOM     50  C   UNL A   1      41.217  28.753  31.016  1.00  0.00     0.074 A 
ATOM     51  C   UNL A   1      41.647  31.547  36.703  1.00  0.00     0.029 A 
ATOM     52  N   UNL A   1      41.090  31.000  34.620  1.00  0.00    -0.354 N 
ATOM     53  N   UNL A   1      41.229  29.382  32.167  1.00  0.00    -0.248 NA
ATOM     54  C   UNL A   1      42.287  27.758  30.866  1.00  0.00     0.031 C 
ATOM     55  C   UNL A   1      42.506  30.535  36.265  1.00  0.00     0.029 A 
ATOM     56  C   UNL A   1      42.144  30.175  34.976  1.00  0.00     0.049 A 
ATOM     57  H   UNL A   1      40.622  30.979  33.754  1.00  0.00     0.167 HD
ATOM     58  C   UNL A   1      42.284  28.840  32.888  1.00  0.00     0.074 A 
ATOM     59  C   UNL A   1      42.881  27.820  32.050  1.00  0.00     0.031 C 
ATOM     60  C   UNL A   1      42.721  29.159  34.131  1.00  0.00     0.037 A 
BRANCH  47  61
ATOM     61  C   UNL A   1      39.615  33.797  36.801  1.00  0.00     0.064 A 
ATOM     62  C   UNL A   1      38.831  33.436  37.908  1.00  0.00     0.173 A 
ATOM     63  C   UNL A   1      40.255  35.045  36.832  1.00  0.00     0.173 A 
ATOM     64  F   UNL A   1      38.185  32.259  37.924  1.00  0.00    -0.203 F 
ATOM     65  C   UNL A   1      38.659  34.305  38.980  1.00  0.00     0.198 A 
ATOM     66  C   UNL A   1      40.112  35.896  37.924  1.00  0.00     0.198 A 
ATOM     67  F   UNL A   1      41.020  35.440  35.803  1.00  0.00    -0.203 F 
ATOM     68  F   UNL A   1      37.850  33.966  39.992  1.00  0.00    -0.200 F 
ATOM     69  C   UNL A   1      39.305  35.532  38.991  1.00  0.00     0.200 A 
ATOM     70  F   UNL A   1      40.749  37.076  37.940  1.00  0.00    -0.200 F 
ATOM     71  F   UNL A   1      39.140  36.369  40.025  1.00  0.00    -0.200 F 
ENDBRANCH  47  61
BRANCH  48  72
ATOM     72  C   UNL A   1      40.402  28.059  28.643  1.00  0.00     0.064 A 
ATOM     73  C   UNL A   1      39.767  26.810  28.580  1.00  0.00     0.173 A 
ATOM     74  C   UNL A   1      41.157  28.461  27.532  1.00  0.00     0.173 A 
ATOM     75  F   UNL A   1      39.052  26.369  29.625  1.00  0.00    -0.203 F 
ATOM     76  C   UNL A   1      39.900  25.989  27.461  1.00  0.00     0.198 A 
ATOM     77  C   UNL A   1      41.262  27.654  26.401  1.00  0.00     0.198 A 
ATOM     78  F   UNL A   1      41.783  29.647  27.539  1.00  0.00    -0.203 F 
ATOM     79  F   UNL A   1      39.321  24.780  27.448  1.00  0.00    -0.200 F 
ATOM     80  C   UNL A   1      40.641  26.416  26.370  1.00  0.00     0.200 A 
ATOM     81  F   UNL A   1      41.969  28.076  25.343  1.00  0.00    -0.200 F 
ATOM     82  F   UNL A   1      40.764  25.629  25.292  1.00  0.00    -0.200 F 
ENDBRANCH  48  72
BRANCH  60  83
ATOM     83  C   UNL A   1      43.882  28.380  34.680  1.00  0.00     0.064 A 
ATOM     84  C   UNL A   1      45.201  28.842  34.560  1.00  0.00     0.173 A 
ATOM     85  C   UNL A   1      43.664  27.190  35.391  1.00  0.00     0.173 A 
ATOM     86  F   UNL A   1      45.464  29.967  33.878  1.00  0.00    -0.203 F 
ATOM     87  C   UNL A   1      46.260  28.132  35.119  1.00  0.00     0.198 A 
ATOM     88  C   UNL A   1      44.722  26.501  35.976  1.00  0.00     0.198 A 
ATOM     89  F   UNL A   1      42.420  26.709  35.539  1.00  0.00    -0.203 F 
ATOM     90  F   UNL A   1      47.516  28.570  34.958  1.00  0.00    -0.200 F 
ATOM     91  C   UNL A   1      46.019  26.969  35.835  1.00  0.00     0.200 A 
ATOM     92  F   UNL A   1      44.484  25.387  36.683  1.00  0.00    -0.200 F 
ATOM     93  F   UNL A   1      47.039  26.297  36.387  1.00  0.00    -0.200 F 
ENDBRANCH  60  83
ENDBRANCH  34  35
ENDBRANCH  26  29
ENDBRANCH  24  25
ENDBRANCH  23  24
ENDBRANCH  22  23
ENDBRANCH   1  22
TORSDOF 17
ENDMDL
MODEL 2
REMARK VINA RESULT:     -11.3      0.122      1.597
REMARK SMILES C=CCN(CC(=O)NCCCCNC(=O)c1ccc(-c2c3nc(c(-c4c(F)c(F)c(F)c(F)c4F)c4ccc([nH]4)c(-c4c(F)c(F)c(F)c(F)c4F)c4nc(c(-c5c(F)c(F)c(F)c(F)c5F)c5ccc2[nH]5)C=C4)C=C3)cc1)S(=O)(=O)c1ccccc1OC
REMARK SMILES IDX 9 1 8 2 6 3 7 4 5 6 4 7 3 8 2 9 1 10 79 11 80 12 81 13 82 14
REMARK SMILES IDX 83 15 87 16 84 17 86 18 85 19 88 20 89 21 10 22 11 23 12 24
REMARK SMILES IDX 13 25 14 26 15 28 16 29 17 30 78 31 18 32 77 33 19 34 20 35
REMARK SMILES IDX 21 36 71 37 22 38 76 39 70 40 72 41 23 42 75 43 69 44 68 45
REMARK SMILES IDX 24 47 56 48 36 49 55 50 37 51 40 52 54 53 73 54 38 55 39 56
REMARK SMILES IDX 53 58 74 59 41 60 25 61 26 62 34 63 27 64 28 65 32 66 35 67
REMARK SMILES IDX 29 68 30 69 33 70 31 71 57 72 58 73 66 74 59 75 60 76 64 77
REMARK SMILES IDX 67 78 61 79 62 80 65 81 63 82 42 83 43 84 51 85 44 86 45 87
REMARK SMILES IDX 49 88 52 89 46 90 47 91 50 92 48 93
REMARK H PARENT 8 5 13 27 72 46 40 57
REMARK Flexibility Score: inf
ROOT
ATOM      1  C   UNL A   1      31.909  29.614  25.610  1.00  0.00     0.116 C 
ENDROOT
BRANCH   1   2
ATOM      2  N   UNL A   1      32.896  29.703  24.559  1.00  0.00    -0.355 N 
ATOM      3  C   UNL A   1      33.567  28.703  23.911  1.00  0.00     0.235 C 
ATOM      4  O   UNL A   1      34.176  28.994  22.877  1.00  0.00    -0.274 OA
ATOM      5  H   UNL A   1      33.118  30.617  24.267  1.00  0.00     0.163 HD
BRANCH   3   6
ATOM      6  C   UNL A   1      33.515  27.260  24.408  1.00  0.00     0.202 C 
BRANCH   6   7
ATOM      7  N   UNL A   1      32.443  26.353  23.886  1.00  0.00    -0.185 NA
BRANCH   7   8
ATOM      8  C   UNL A   1      31.488  25.961  24.937  1.00  0.00     0.130 C 
BRANCH   8   9
ATOM      9  C   UNL A   1      32.011  25.268  26.145  1.00  0.00    -0.018 C 
ATOM     10  C   UNL A   1      31.439  24.174  26.673  1.00  0.00     0.005 C 
ENDBRANCH   8   9
ENDBRANCH   7   8
BRANCH   7  11
ATOM     11  S   UNL A   1      32.804  25.405  22.514  1.00  0.00     0.247 S 
ATOM     12  O   UNL A   1      31.587  25.192  21.764  1.00  0.00    -0.207 OA
ATOM     13  O   UNL A   1      33.925  25.975  21.808  1.00  0.00    -0.207 OA
BRANCH  11  14
ATOM     14  C   UNL A   1      33.260  23.808  23.213  1.00  0.00     0.124 A 
ATOM     15  C   UNL A   1      32.258  22.815  23.034  1.00  0.00     0.026 A 
ATOM     16  C   UNL A   1      34.444  23.441  23.869  1.00  0.00     0.138 A 
ATOM     17  C   UNL A   1      32.375  21.524  23.548  1.00  0.00     0.002 A 
ATOM     18  C   UNL A   1      34.548  22.110  24.351  1.00  0.00     0.048 A 
ATOM     19  C   UNL A   1      33.531  21.167  24.211  1.00  0.00     0.004 A 
BRANCH  16  20
ATOM     20  O   UNL A   1      35.573  24.101  24.246  1.00  0.00    -0.495 OA
ATOM     21  C   UNL A   1      36.300  23.805  25.417  1.00  0.00     0.278 C 
ENDBRANCH  16  20
ENDBRANCH  11  14
ENDBRANCH   7  11
ENDBRANCH   6   7
ENDBRANCH   3   6
ENDBRANCH   1   2
BRANCH   1  22
ATOM     22  C   UNL A   1      32.305  30.388  26.868  1.00  0.00     0.023 C 
BRANCH  22  23
ATOM     23  C   UNL A   1      31.984  31.873  26.861  1.00  0.00     0.023 C 
BRANCH  23  24
ATOM     24  C   UNL A   1      33.006  32.751  27.564  1.00  0.00     0.116 C 
BRANCH  24  25
ATOM     25  N   UNL A   1      32.579  34.135  27.752  1.00  0.00    -0.352 N 
ATOM     26  C   UNL A   1      33.091  35.073  28.621  1.00  0.00     0.251 C 
ATOM     27  H   UNL A   1      31.831  34.435  27.186  1.00  0.00     0.163 HD
ATOM     28  O   UNL A   1      32.584  36.184  28.733  1.00  0.00    -0.269 OA
BRANCH  26  29
ATOM     29  C   UNL A   1      34.242  34.686  29.459  1.00  0.00     0.039 A 
ATOM     30  C   UNL A   1      34.009  34.178  30.737  1.00  0.00     0.014 A 
ATOM     31  C   UNL A   1      35.522  34.670  28.902  1.00  0.00     0.014 A 
ATOM     32  C   UNL A   1      35.048  33.540  31.415  1.00  0.00     0.010 A 
ATOM     33  C   UNL A   1      36.521  33.939  29.529  1.00  0.00     0.010 A 
ATOM     34  C   UNL A   1      36.291  33.356  30.785  1.00  0.00    -0.014 A 
BRANCH  34  35
ATOM     35  C   UNL A   1      37.367  32.541  31.403  1.00  0.00     0.031 A 
ATOM     36  C   UNL A   1      37.871  32.894  32.772  1.00  0.00     0.074 A 
ATOM     37  C   UNL A   1      37.949  31.550  30.699  1.00  0.00     0.049 A 
ATOM     38  N   UNL A   1      38.876  32.391  33.442  1.00  0.00    -0.248 NA
ATOM     39  C   UNL A   1      37.173  33.987  33.467  1.00  0.00     0.031 C 
ATOM     40  C   UNL A   1      37.579  31.141  29.343  1.00  0.00     0.029 A 
ATOM     41  N   UNL A   1      38.990  30.715  31.022  1.00  0.00    -0.354 N 
ATOM     42  C   UNL A   1      38.934  33.112  34.626  1.00  0.00     0.074 A 
ATOM     43  C   UNL A   1      37.916  34.136  34.552  1.00  0.00     0.031 C 
ATOM     44  C   UNL A   1      38.355  30.114  28.964  1.00  0.00     0.029 A 
ATOM     45  C   UNL A   1      39.315  29.826  30.025  1.00  0.00     0.049 A 
ATOM     46  H   UNL A   1      39.459  30.749  31.886  1.00  0.00     0.167 HD
ATOM     47  C   UNL A   1      39.743  32.919  35.694  1.00  0.00     0.037 A 
ATOM     48  C   UNL A   1      40.287  28.895  29.971  1.00  0.00     0.037 A 
ATOM     49  C   UNL A   1      40.748  31.891  35.764  1.00  0.00     0.049 A 
ATOM     50  C   UNL A   1      41.213  28.736  31.148  1.00  0.00     0.074 A 
ATOM     51  C   UNL A   1      41.587  31.576  36.816  1.00  0.00     0.029 A 
ATOM     52  N   UNL A   1      41.054  31.015  34.730  1.00  0.00    -0.354 N 
ATOM     53  N   UNL A   1      41.214  29.375  32.293  1.00  0.00    -0.248 NA
ATOM     54  C   UNL A   1      42.277  27.731  31.022  1.00  0.00     0.031 C 
ATOM     55  C   UNL A   1      42.444  30.553  36.399  1.00  0.00     0.029 A 
ATOM     56  C   UNL A   1      42.096  30.185  35.108  1.00  0.00     0.049 A 
ATOM     57  H   UNL A   1      40.598  30.990  33.858  1.00  0.00     0.167 HD
ATOM     58  C   UNL A   1      42.254  28.831  33.034  1.00  0.00     0.074 A 
ATOM     59  C   UNL A   1      42.854  27.799  32.213  1.00  0.00     0.031 C 
ATOM     60  C   UNL A   1      42.677  29.157  34.280  1.00  0.00     0.037 A 
BRANCH  47  61
ATOM     61  C   UNL A   1      39.571  33.842  36.866  1.00  0.00     0.064 A 
ATOM     62  C   UNL A   1      38.774  33.494  37.968  1.00  0.00     0.173 A 
ATOM     63  C   UNL A   1      40.215  35.088  36.893  1.00  0.00     0.173 A 
ATOM     64  F   UNL A   1      38.125  32.320  37.988  1.00  0.00    -0.203 F 
ATOM     65  C   UNL A   1      38.595  34.374  39.031  1.00  0.00     0.198 A 
ATOM     66  C   UNL A   1      40.064  35.950  37.976  1.00  0.00     0.198 A 
ATOM     67  F   UNL A   1      40.993  35.471  35.868  1.00  0.00    -0.203 F 
ATOM     68  F   UNL A   1      37.774  34.047  40.038  1.00  0.00    -0.200 F 
ATOM     69  C   UNL A   1      39.245  35.599  39.037  1.00  0.00     0.200 A 
ATOM     70  F   UNL A   1      40.705  37.128  37.987  1.00  0.00    -0.200 F 
ATOM     71  F   UNL A   1      39.073  36.446  40.061  1.00  0.00    -0.200 F 
ENDBRANCH  47  61
BRANCH  48  72
ATOM     72  C   UNL A   1      40.425  28.027  28.770  1.00  0.00     0.064 A 
ATOM     73  C   UNL A   1      41.186  28.445  27.669  1.00  0.00     0.173 A 
ATOM     74  C   UNL A   1      39.802  26.773  28.691  1.00  0.00     0.173 A 
ATOM     75  F   UNL A   1      41.784  29.645  27.686  1.00  0.00    -0.203 F 
ATOM     76  C   UNL A   1      41.303  27.650  26.530  1.00  0.00     0.198 A 
ATOM     77  C   UNL A   1      39.945  25.966  27.564  1.00  0.00     0.198 A 
ATOM     78  F   UNL A   1      39.063  26.325  29.717  1.00  0.00    -0.203 F 
ATOM     79  F   UNL A   1      41.998  28.096  25.474  1.00  0.00    -0.200 F 
ATOM     80  C   UNL A   1      40.688  26.409  26.482  1.00  0.00     0.200 A 
ATOM     81  F   UNL A   1      39.360  24.761  27.527  1.00  0.00    -0.200 F 
ATOM     82  F   UNL A   1      40.804  25.643  25.388  1.00  0.00    -0.200 F 
ENDBRANCH  48  72
BRANCH  60  83
ATOM     83  C   UNL A   1      43.824  28.374  34.851  1.00  0.00     0.064 A 
ATOM     84  C   UNL A   1      43.622  27.164  35.531  1.00  0.00     0.173 A 
ATOM     85  C   UNL A   1      45.144  28.808  34.659  1.00  0.00     0.173 A 
ATOM     86  F   UNL A   1      42.378  26.713  35.754  1.00  0.00    -0.203 F 
ATOM     87  C   UNL A   1      44.700  26.425  36.010  1.00  0.00     0.198 A 
ATOM     88  C   UNL A   1      46.220  28.050  35.111  1.00  0.00     0.198 A 
ATOM     89  F   UNL A   1      45.392  29.956  34.010  1.00  0.00    -0.203 F 
ATOM     90  F   UNL A   1      44.483  25.292  36.692  1.00  0.00    -0.200 F 
ATOM     91  C   UNL A   1      45.998  26.863  35.791  1.00  0.00     0.200 A 
ATOM     92  F   UNL A   1      47.474  28.466  34.881  1.00  0.00    -0.200 F 
ATOM     93  F   UNL A   1      47.035  26.140  36.238  1.00  0.00    -0.200 F 
ENDBRANCH  60  83
ENDBRANCH  34  35
ENDBRANCH  26  29
ENDBRANCH  24  25
ENDBRANCH  23  24
ENDBRANCH  22  23
ENDBRANCH   1  22
TORSDOF 17
ENDMDL
MODEL 3
REMARK VINA RESULT:     -11.3      5.609     10.002
REMARK SMILES C=CCN(CC(=O)NCCCCNC(=O)c1ccc(-c2c3nc(c(-c4c(F)c(F)c(F)c(F)c4F)c4ccc([nH]4)c(-c4c(F)c(F)c(F)c(F)c4F)c4nc(c(-c5c(F)c(F)c(F)c(F)c5F)c5ccc2[nH]5)C=C4)C=C3)cc1)S(=O)(=O)c1ccccc1OC
REMARK SMILES IDX 9 1 8 2 6 3 7 4 5 6 4 7 3 8 2 9 1 10 79 11 80 12 81 13 82 14
REMARK SMILES IDX 83 15 87 16 84 17 86 18 85 19 88 20 89 21 10 22 11 23 12 24
REMARK SMILES IDX 13 25 14 26 15 28 16 29 17 30 78 31 18 32 77 33 19 34 20 35
REMARK SMILES IDX 21 36 71 37 22 38 76 39 70 40 72 41 23 42 75 43 69 44 68 45
REMARK SMILES IDX 24 47 56 48 36 49 55 50 37 51 40 52 54 53 73 54 38 55 39 56
REMARK SMILES IDX 53 58 74 59 41 60 25 61 26 62 34 63 27 64 28 65 32 66 35 67
REMARK SMILES IDX 29 68 30 69 33 70 31 71 57 72 58 73 66 74 59 75 60 76 64 77
REMARK SMILES IDX 67 78 61 79 62 80 65 81 63 82 42 83 43 84 51 85 44 86 45 87
REMARK SMILES IDX 49 88 52 89 46 90 47 91 50 92 48 93
REMARK H PARENT 8 5 13 27 72 46 40 57
REMARK Flexibility Score: inf
ROOT
ATOM      1  C   UNL A   1      35.754  20.134  24.941  1.00  0.00     0.116 C 
ENDROOT
BRANCH   1   2
ATOM      2  N   UNL A   1      35.220  20.789  26.113  1.00  0.00    -0.355 N 
ATOM      3  C   UNL A   1      34.024  21.429  26.280  1.00  0.00     0.235 C 
ATOM      4  O   UNL A   1      33.668  21.696  27.432  1.00  0.00    -0.274 OA
ATOM      5  H   UNL A   1      35.803  20.773  26.906  1.00  0.00     0.163 HD
BRANCH   3   6
ATOM      6  C   UNL A   1      33.120  21.748  25.090  1.00  0.00     0.202 C 
BRANCH   6   7
ATOM      7  N   UNL A   1      33.022  23.165  24.615  1.00  0.00    -0.185 NA
BRANCH   7   8
ATOM      8  C   UNL A   1      31.646  23.526  24.230  1.00  0.00     0.130 C 
BRANCH   8   9
ATOM      9  C   UNL A   1      30.739  24.070  25.276  1.00  0.00    -0.018 C 
ATOM     10  C   UNL A   1      31.157  24.427  26.501  1.00  0.00     0.005 C 
ENDBRANCH   8   9
ENDBRANCH   7   8
BRANCH   7  11
ATOM     11  S   UNL A   1      34.423  23.880  23.955  1.00  0.00     0.247 S 
ATOM     12  O   UNL A   1      35.511  23.724  24.895  1.00  0.00    -0.207 OA
ATOM     13  O   UNL A   1      34.633  23.395  22.614  1.00  0.00    -0.207 OA
BRANCH  11  14
ATOM     14  C   UNL A   1      34.024  25.638  23.924  1.00  0.00     0.124 A 
ATOM     15  C   UNL A   1      34.024  26.233  25.215  1.00  0.00     0.026 A 
ATOM     16  C   UNL A   1      33.744  26.456  22.819  1.00  0.00     0.138 A 
ATOM     17  C   UNL A   1      33.684  27.568  25.430  1.00  0.00     0.002 A 
ATOM     18  C   UNL A   1      33.436  27.819  23.067  1.00  0.00     0.048 A 
ATOM     19  C   UNL A   1      33.389  28.369  24.347  1.00  0.00     0.004 A 
BRANCH  16  20
ATOM     20  O   UNL A   1      33.620  26.246  21.481  1.00  0.00    -0.495 OA
ATOM     21  C   UNL A   1      32.528  25.579  20.889  1.00  0.00     0.278 C 
ENDBRANCH  16  20
ENDBRANCH  11  14
ENDBRANCH   7  11
ENDBRANCH   6   7
ENDBRANCH   3   6
ENDBRANCH   1   2
BRANCH   1  22
ATOM     22  C   UNL A   1      37.270  19.944  25.002  1.00  0.00     0.023 C 
BRANCH  22  23
ATOM     23  C   UNL A   1      38.090  21.210  25.178  1.00  0.00     0.023 C 
BRANCH  23  24
ATOM     24  C   UNL A   1      39.272  21.080  26.125  1.00  0.00     0.116 C 
BRANCH  24  25
ATOM     25  N   UNL A   1      39.983  19.808  26.025  1.00  0.00    -0.352 N 
ATOM     26  C   UNL A   1      41.338  19.580  26.128  1.00  0.00     0.251 C 
ATOM     27  H   UNL A   1      39.423  19.014  25.865  1.00  0.00     0.163 HD
ATOM     28  O   UNL A   1      41.812  18.465  25.945  1.00  0.00    -0.269 OA
BRANCH  26  29
ATOM     29  C   UNL A   1      42.214  20.732  26.411  1.00  0.00     0.039 A 
ATOM     30  C   UNL A   1      42.679  21.508  25.349  1.00  0.00     0.014 A 
ATOM     31  C   UNL A   1      42.421  21.129  27.734  1.00  0.00     0.014 A 
ATOM     32  C   UNL A   1      43.253  22.752  25.615  1.00  0.00     0.010 A 
ATOM     33  C   UNL A   1      42.888  22.410  27.989  1.00  0.00     0.010 A 
ATOM     34  C   UNL A   1      43.296  23.239  26.932  1.00  0.00    -0.014 A 
BRANCH  34  35
ATOM     35  C   UNL A   1      43.744  24.621  27.240  1.00  0.00     0.031 A 
ATOM     36  C   UNL A   1      42.742  25.638  27.703  1.00  0.00     0.074 A 
ATOM     37  C   UNL A   1      45.022  24.980  27.013  1.00  0.00     0.049 A 
ATOM     38  N   UNL A   1      42.897  26.920  27.911  1.00  0.00    -0.248 NA
ATOM     39  C   UNL A   1      41.370  25.155  27.927  1.00  0.00     0.031 C 
ATOM     40  C   UNL A   1      46.079  24.094  26.520  1.00  0.00     0.029 A 
ATOM     41  N   UNL A   1      45.649  26.194  27.152  1.00  0.00    -0.354 N 
ATOM     42  C   UNL A   1      41.645  27.394  28.279  1.00  0.00     0.074 A 
ATOM     43  C   UNL A   1      40.726  26.280  28.191  1.00  0.00     0.031 C 
ATOM     44  C   UNL A   1      47.227  24.784  26.431  1.00  0.00     0.029 A 
ATOM     45  C   UNL A   1      46.979  26.173  26.806  1.00  0.00     0.049 A 
ATOM     46  H   UNL A   1      45.189  27.004  27.471  1.00  0.00     0.167 HD
ATOM     47  C   UNL A   1      41.297  28.638  28.683  1.00  0.00     0.037 A 
ATOM     48  C   UNL A   1      47.889  27.165  26.782  1.00  0.00     0.037 A 
ATOM     49  C   UNL A   1      42.220  29.738  28.778  1.00  0.00     0.049 A 
ATOM     50  C   UNL A   1      47.466  28.554  27.181  1.00  0.00     0.074 A 
ATOM     51  C   UNL A   1      41.984  31.025  29.223  1.00  0.00     0.029 A 
ATOM     52  N   UNL A   1      43.558  29.680  28.409  1.00  0.00    -0.354 N 
ATOM     53  N   UNL A   1      46.296  28.977  27.597  1.00  0.00    -0.248 NA
ATOM     54  C   UNL A   1      48.489  29.606  27.103  1.00  0.00     0.031 C 
ATOM     55  C   UNL A   1      43.160  31.763  29.065  1.00  0.00     0.029 A 
ATOM     56  C   UNL A   1      44.149  30.920  28.583  1.00  0.00     0.049 A 
ATOM     57  H   UNL A   1      44.016  28.875  28.074  1.00  0.00     0.167 HD
ATOM     58  C   UNL A   1      46.449  30.332  27.856  1.00  0.00     0.074 A 
ATOM     59  C   UNL A   1      47.830  30.659  27.566  1.00  0.00     0.031 C 
ATOM     60  C   UNL A   1      45.528  31.226  28.294  1.00  0.00     0.037 A 
BRANCH  47  61
ATOM     61  C   UNL A   1      39.859  28.867  29.050  1.00  0.00     0.064 A 
ATOM     62  C   UNL A   1      38.912  29.278  28.098  1.00  0.00     0.173 A 
ATOM     63  C   UNL A   1      39.418  28.669  30.366  1.00  0.00     0.173 A 
ATOM     64  F   UNL A   1      39.283  29.495  26.826  1.00  0.00    -0.203 F 
ATOM     65  C   UNL A   1      37.590  29.522  28.458  1.00  0.00     0.198 A 
ATOM     66  C   UNL A   1      38.086  28.877  30.715  1.00  0.00     0.198 A 
ATOM     67  F   UNL A   1      40.278  28.273  31.317  1.00  0.00    -0.203 F 
ATOM     68  F   UNL A   1      36.723  29.979  27.546  1.00  0.00    -0.200 F 
ATOM     69  C   UNL A   1      37.176  29.315  29.765  1.00  0.00     0.200 A 
ATOM     70  F   UNL A   1      37.684  28.662  31.976  1.00  0.00    -0.200 F 
ATOM     71  F   UNL A   1      35.903  29.548  30.112  1.00  0.00    -0.200 F 
ENDBRANCH  47  61
BRANCH  48  72
ATOM     72  C   UNL A   1      49.294  26.881  26.384  1.00  0.00     0.064 A 
ATOM     73  C   UNL A   1      49.688  26.962  25.041  1.00  0.00     0.173 A 
ATOM     74  C   UNL A   1      50.269  26.521  27.326  1.00  0.00     0.173 A 
ATOM     75  F   UNL A   1      48.788  27.281  24.098  1.00  0.00    -0.203 F 
ATOM     76  C   UNL A   1      50.996  26.675  24.653  1.00  0.00     0.198 A 
ATOM     77  C   UNL A   1      51.584  26.265  26.941  1.00  0.00     0.198 A 
ATOM     78  F   UNL A   1      49.947  26.431  28.625  1.00  0.00    -0.203 F 
ATOM     79  F   UNL A   1      51.331  26.715  23.356  1.00  0.00    -0.200 F 
ATOM     80  C   UNL A   1      51.944  26.334  25.605  1.00  0.00     0.200 A 
ATOM     81  F   UNL A   1      52.501  25.950  27.867  1.00  0.00    -0.200 F 
ATOM     82  F   UNL A   1      53.202  26.064  25.233  1.00  0.00    -0.200 F 
ENDBRANCH  48  72
BRANCH  60  83
ATOM     83  C   UNL A   1      45.985  32.639  28.517  1.00  0.00     0.064 A 
ATOM     84  C   UNL A   1      45.918  33.603  27.501  1.00  0.00     0.173 A 
ATOM     85  C   UNL A   1      46.433  33.048  29.783  1.00  0.00     0.173 A 
ATOM     86  F   UNL A   1      45.511  33.260  26.269  1.00  0.00    -0.203 F 
ATOM     87  C   UNL A   1      46.299  34.921  27.740  1.00  0.00     0.198 A 
ATOM     88  C   UNL A   1      46.781  34.373  30.026  1.00  0.00     0.198 A 
ATOM     89  F   UNL A   1      46.510  32.165  30.790  1.00  0.00    -0.203 F 
ATOM     90  F   UNL A   1      46.266  35.817  26.744  1.00  0.00    -0.200 F 
ATOM     91  C   UNL A   1      46.719  35.307  29.004  1.00  0.00     0.200 A 
ATOM     92  F   UNL A   1      47.169  34.747  31.253  1.00  0.00    -0.200 F 
ATOM     93  F   UNL A   1      47.068  36.580  29.236  1.00  0.00    -0.200 F 
ENDBRANCH  60  83
ENDBRANCH  34  35
ENDBRANCH  26  29
ENDBRANCH  24  25
ENDBRANCH  23  24
ENDBRANCH  22  23
ENDBRANCH   1  22
TORSDOF 17
ENDMDL
