MODEL 1
REMARK VINA RESULT:     -12.8      0.000      0.000
REMARK SMILES CCOc1cnc(C(=O)c2[nH]c3cc(Cl)ccc3c2CC(=O)NCCCCNC(=O)c2ccc(-c3c4nc(c(-c5c(F)c(F)c(F)c(F)c5F)c5ccc([nH]5)c(-c5c(F)c(F)c(F)c(F)c5F)c5nc(c(-c6c(F)c(F)c(F)c(F)c6F)c6ccc3[nH]6)C=C5)C=C4)cc2)cc1CC
REMARK SMILES IDX 24 1 23 2 21 3 22 4 20 6 19 7 10 8 11 9 12 10 18 12 13 13
REMARK SMILES IDX 17 14 14 15 16 16 15 17 8 18 9 19 7 20 4 21 5 22 95 23 6 24
REMARK SMILES IDX 94 25 3 26 2 27 1 28 96 29 97 30 25 31 26 32 27 33 28 34
REMARK SMILES IDX 29 35 30 37 31 38 32 39 93 40 33 41 92 42 34 43 35 44 36 45
REMARK SMILES IDX 86 46 37 47 91 48 85 49 87 50 38 51 90 52 84 53 83 54 39 56
REMARK SMILES IDX 71 57 51 58 70 59 52 60 55 61 69 62 88 63 53 64 54 65 68 67
REMARK SMILES IDX 89 68 56 69 40 70 41 71 49 72 42 73 43 74 47 75 50 76 44 77
REMARK SMILES IDX 45 78 48 79 46 80 72 81 73 82 81 83 74 84 75 85 79 86 82 87
REMARK SMILES IDX 76 88 77 89 80 90 78 91 57 92 58 93 66 94 59 95 60 96 64 97
REMARK SMILES IDX 67 98 61 99 62 100 65 101 63 102
REMARK H PARENT 23 5 11 11 28 36 87 55 55 66
REMARK Flexibility Score: inf
ROOT
ATOM      1  C   UNL A   1      36.950  21.917  25.109  1.00  0.00     0.116 C 
ENDROOT
BRANCH   1   2
ATOM      2  N   UNL A   1      36.234  22.626  24.070  1.00  0.00    -0.356 N 
ATOM      3  C   UNL A   1      35.494  23.772  24.161  1.00  0.00     0.224 C 
ATOM      4  O   UNL A   1      35.098  24.283  23.110  1.00  0.00    -0.275 OA
ATOM      5  H   UNL A   1      36.287  22.227  23.171  1.00  0.00     0.163 HD
BRANCH   3   6
ATOM      6  C   UNL A   1      35.278  24.461  25.502  1.00  0.00     0.138 C 
BRANCH   6   7
ATOM      7  C   UNL A   1      33.867  24.917  25.743  1.00  0.00    -0.002 A 
ATOM      8  C   UNL A   1      32.873  24.231  26.431  1.00  0.00     0.093 A 
ATOM      9  N   UNL A   1      31.805  25.089  26.566  1.00  0.00    -0.351 N 
ATOM     10  C   UNL A   1      31.977  26.198  25.774  1.00  0.00     0.048 A 
ATOM     11  H   UNL A   1      31.027  24.931  27.149  1.00  0.00     0.167 HD
ATOM     12  C   UNL A   1      33.260  26.117  25.236  1.00  0.00     0.004 A 
ATOM     13  C   UNL A   1      31.104  27.260  25.506  1.00  0.00     0.047 A 
ATOM     14  C   UNL A   1      33.695  27.155  24.383  1.00  0.00     0.012 A 
ATOM     15  C   UNL A   1      31.565  28.271  24.658  1.00  0.00     0.043 A 
ATOM     16  C   UNL A   1      32.840  28.227  24.103  1.00  0.00     0.021 A 
ATOM     17  Cl  UNL A   1      30.530  29.599  24.294  1.00  0.00    -0.084 Cl
BRANCH   8  18
ATOM     18  C   UNL A   1      32.886  22.869  26.949  1.00  0.00     0.227 C 
ATOM     19  O   UNL A   1      32.849  22.638  28.150  1.00  0.00    -0.285 OA
BRANCH  18  20
ATOM     20  C   UNL A   1      32.918  21.749  25.927  1.00  0.00     0.113 A 
ATOM     21  C   UNL A   1      32.763  19.670  24.132  1.00  0.00     0.140 A 
ATOM     22  C   UNL A   1      33.058  19.487  25.481  1.00  0.00     0.158 A 
ATOM     23  C   UNL A   1      32.495  20.959  23.677  1.00  0.00    -0.002 A 
ATOM     24  N   UNL A   1      33.119  20.491  26.392  1.00  0.00    -0.249 NA
ATOM     25  C   UNL A   1      32.669  22.011  24.580  1.00  0.00     0.040 A 
BRANCH  21  26
ATOM     26  O   UNL A   1      32.623  18.590  23.309  1.00  0.00    -0.492 OA
BRANCH  26  27
ATOM     27  C   UNL A   1      33.012  17.364  23.947  1.00  0.00     0.226 C 
ATOM     28  C   UNL A   1      34.152  16.708  23.181  1.00  0.00     0.049 C 
ENDBRANCH  26  27
ENDBRANCH  21  26
BRANCH  23  29
ATOM     29  C   UNL A   1      32.005  21.262  22.283  1.00  0.00     0.036 C 
ATOM     30  C   UNL A   1      32.486  22.613  21.759  1.00  0.00     0.009 C 
ENDBRANCH  23  29
ENDBRANCH  18  20
ENDBRANCH   8  18
ENDBRANCH   6   7
ENDBRANCH   3   6
ENDBRANCH   1   2
BRANCH   1  31
ATOM     31  C   UNL A   1      36.734  20.407  25.042  1.00  0.00     0.023 C 
BRANCH  31  32
ATOM     32  C   UNL A   1      38.015  19.584  24.894  1.00  0.00     0.023 C 
BRANCH  32  33
ATOM     33  C   UNL A   1      39.175  20.031  25.772  1.00  0.00     0.116 C 
BRANCH  33  34
ATOM     34  N   UNL A   1      40.243  19.048  25.852  1.00  0.00    -0.352 N 
ATOM     35  C   UNL A   1      41.579  19.237  26.100  1.00  0.00     0.251 C 
ATOM     36  H   UNL A   1      39.969  18.113  25.707  1.00  0.00     0.163 HD
ATOM     37  O   UNL A   1      42.361  18.296  26.003  1.00  0.00    -0.269 OA
BRANCH  35  38
ATOM     38  C   UNL A   1      42.086  20.582  26.450  1.00  0.00     0.039 A 
ATOM     39  C   UNL A   1      42.361  21.481  25.416  1.00  0.00     0.014 A 
ATOM     40  C   UNL A   1      42.290  20.963  27.780  1.00  0.00     0.014 A 
ATOM     41  C   UNL A   1      42.789  22.774  25.719  1.00  0.00     0.010 A 
ATOM     42  C   UNL A   1      42.634  22.279  28.082  1.00  0.00     0.010 A 
ATOM     43  C   UNL A   1      42.895  23.197  27.055  1.00  0.00    -0.014 A 
BRANCH  43  44
ATOM     44  C   UNL A   1      43.276  24.597  27.376  1.00  0.00     0.031 A 
ATOM     45  C   UNL A   1      44.675  25.087  27.123  1.00  0.00     0.074 A 
ATOM     46  C   UNL A   1      42.359  25.423  27.915  1.00  0.00     0.049 A 
ATOM     47  N   UNL A   1      45.180  26.281  27.313  1.00  0.00    -0.248 NA
ATOM     48  C   UNL A   1      45.643  24.105  26.610  1.00  0.00     0.031 C 
ATOM     49  C   UNL A   1      40.986  25.050  28.262  1.00  0.00     0.029 A 
ATOM     50  N   UNL A   1      42.438  26.749  28.261  1.00  0.00    -0.354 N 
ATOM     51  C   UNL A   1      46.516  26.192  26.943  1.00  0.00     0.074 A 
ATOM     52  C   UNL A   1      46.762  24.813  26.582  1.00  0.00     0.031 C 
ATOM     53  C   UNL A   1      40.341  26.130  28.729  1.00  0.00     0.029 A 
ATOM     54  C   UNL A   1      41.262  27.262  28.751  1.00  0.00     0.049 A 
ATOM     55  H   UNL A   1      43.261  27.282  28.168  1.00  0.00     0.167 HD
ATOM     56  C   UNL A   1      47.444  27.176  26.878  1.00  0.00     0.037 A 
ATOM     57  C   UNL A   1      40.959  28.506  29.168  1.00  0.00     0.037 A 
ATOM     58  C   UNL A   1      47.193  28.550  27.229  1.00  0.00     0.049 A 
ATOM     59  C   UNL A   1      42.017  29.576  29.100  1.00  0.00     0.074 A 
ATOM     60  C   UNL A   1      48.054  29.631  27.159  1.00  0.00     0.029 A 
ATOM     61  N   UNL A   1      45.990  29.032  27.724  1.00  0.00    -0.354 N 
ATOM     62  N   UNL A   1      43.253  29.497  28.670  1.00  0.00    -0.248 NA
ATOM     63  C   UNL A   1      41.630  30.915  29.567  1.00  0.00     0.031 C 
ATOM     64  C   UNL A   1      47.391  30.756  27.661  1.00  0.00     0.029 A 
ATOM     65  C   UNL A   1      46.094  30.390  27.985  1.00  0.00     0.049 A 
ATOM     66  H   UNL A   1      45.180  28.489  27.869  1.00  0.00     0.167 HD
ATOM     67  C   UNL A   1      43.779  30.777  28.784  1.00  0.00     0.074 A 
ATOM     68  C   UNL A   1      42.719  31.619  29.298  1.00  0.00     0.031 C 
ATOM     69  C   UNL A   1      45.028  31.217  28.491  1.00  0.00     0.037 A 
BRANCH  56  70
ATOM     70  C   UNL A   1      48.819  26.806  26.399  1.00  0.00     0.064 A 
ATOM     71  C   UNL A   1      49.768  26.235  27.263  1.00  0.00     0.173 A 
ATOM     72  C   UNL A   1      49.180  26.978  25.055  1.00  0.00     0.173 A 
ATOM     73  F   UNL A   1      49.481  26.058  28.561  1.00  0.00    -0.203 F 
ATOM     74  C   UNL A   1      51.034  25.877  26.803  1.00  0.00     0.198 A 
ATOM     75  C   UNL A   1      50.434  26.588  24.591  1.00  0.00     0.198 A 
ATOM     76  F   UNL A   1      48.311  27.513  24.184  1.00  0.00    -0.203 F 
ATOM     77  F   UNL A   1      51.938  25.379  27.658  1.00  0.00    -0.200 F 
ATOM     78  C   UNL A   1      51.362  26.044  25.468  1.00  0.00     0.200 A 
ATOM     79  F   UNL A   1      50.745  26.736  23.296  1.00  0.00    -0.200 F 
ATOM     80  F   UNL A   1      52.576  25.687  25.024  1.00  0.00    -0.200 F 
ENDBRANCH  56  70
BRANCH  57  81
ATOM     81  C   UNL A   1      39.591  28.822  29.658  1.00  0.00     0.064 A 
ATOM     82  C   UNL A   1      39.230  28.582  30.992  1.00  0.00     0.173 A 
ATOM     83  C   UNL A   1      38.609  29.339  28.802  1.00  0.00     0.173 A 
ATOM     84  F   UNL A   1      40.127  28.069  31.847  1.00  0.00    -0.203 F 
ATOM     85  C   UNL A   1      37.932  28.815  31.441  1.00  0.00     0.198 A 
ATOM     86  C   UNL A   1      37.320  29.607  29.261  1.00  0.00     0.198 A 
ATOM     87  F   UNL A   1      38.902  29.593  27.518  1.00  0.00    -0.203 F 
ATOM     88  F   UNL A   1      37.599  28.518  32.705  1.00  0.00    -0.200 F 
ATOM     89  C   UNL A   1      36.979  29.331  30.577  1.00  0.00     0.200 A 
ATOM     90  F   UNL A   1      36.408  30.121  28.426  1.00  0.00    -0.200 F 
ATOM     91  F   UNL A   1      35.731  29.554  31.008  1.00  0.00    -0.200 F 
ENDBRANCH  57  81
BRANCH  69  92
ATOM     92  C   UNL A   1      45.300  32.683  28.680  1.00  0.00     0.064 A 
ATOM     93  C   UNL A   1      45.836  33.188  29.874  1.00  0.00     0.173 A 
ATOM     94  C   UNL A   1      45.031  33.594  27.647  1.00  0.00     0.173 A 
ATOM     95  F   UNL A   1      46.100  32.363  30.899  1.00  0.00    -0.203 F 
ATOM     96  C   UNL A   1      46.050  34.554  30.042  1.00  0.00     0.198 A 
ATOM     97  C   UNL A   1      45.283  34.954  27.804  1.00  0.00     0.198 A 
ATOM     98  F   UNL A   1      44.528  33.164  26.480  1.00  0.00    -0.203 F 
ATOM     99  F   UNL A   1      46.498  35.020  31.216  1.00  0.00    -0.200 F 
ATOM    100  C   UNL A   1      45.780  35.434  29.005  1.00  0.00     0.200 A 
ATOM    101  F   UNL A   1      45.037  35.800  26.794  1.00  0.00    -0.200 F 
ATOM    102  F   UNL A   1      45.987  36.748  29.169  1.00  0.00    -0.200 F 
ENDBRANCH  69  92
ENDBRANCH  43  44
ENDBRANCH  35  38
ENDBRANCH  33  34
ENDBRANCH  32  33
ENDBRANCH  31  32
ENDBRANCH   1  31
TORSDOF 17
ENDMDL
MODEL 2
REMARK VINA RESULT:     -12.5      1.949      3.984
REMARK SMILES CCOc1cnc(C(=O)c2[nH]c3cc(Cl)ccc3c2CC(=O)NCCCCNC(=O)c2ccc(-c3c4nc(c(-c5c(F)c(F)c(F)c(F)c5F)c5ccc([nH]5)c(-c5c(F)c(F)c(F)c(F)c5F)c5nc(c(-c6c(F)c(F)c(F)c(F)c6F)c6ccc3[nH]6)C=C5)C=C4)cc2)cc1CC
REMARK SMILES IDX 24 1 23 2 21 3 22 4 20 6 19 7 10 8 11 9 12 10 18 12 13 13
REMARK SMILES IDX 17 14 14 15 16 16 15 17 8 18 9 19 7 20 4 21 5 22 95 23 6 24
REMARK SMILES IDX 94 25 3 26 2 27 1 28 96 29 97 30 25 31 26 32 27 33 28 34
REMARK SMILES IDX 29 35 30 37 31 38 32 39 93 40 33 41 92 42 34 43 35 44 36 45
REMARK SMILES IDX 86 46 37 47 91 48 85 49 87 50 38 51 90 52 84 53 83 54 39 56
REMARK SMILES IDX 71 57 51 58 70 59 52 60 55 61 69 62 88 63 53 64 54 65 68 67
REMARK SMILES IDX 89 68 56 69 40 70 41 71 49 72 42 73 43 74 47 75 50 76 44 77
REMARK SMILES IDX 45 78 48 79 46 80 72 81 73 82 81 83 74 84 75 85 79 86 82 87
REMARK SMILES IDX 76 88 77 89 80 90 78 91 57 92 58 93 66 94 59 95 60 96 64 97
REMARK SMILES IDX 67 98 61 99 62 100 65 101 63 102
REMARK H PARENT 23 5 11 11 28 36 87 55 55 66
REMARK Flexibility Score: inf
ROOT
ATOM      1  C   UNL A   1      37.679  22.976  25.798  1.00  0.00     0.116 C 
ENDROOT
BRANCH   1   2
ATOM      2  N   UNL A   1      36.742  23.673  24.943  1.00  0.00    -0.356 N 
ATOM      3  C   UNL A   1      35.390  23.818  25.085  1.00  0.00     0.224 C 
ATOM      4  O   UNL A   1      34.813  24.588  24.312  1.00  0.00    -0.275 OA
ATOM      5  H   UNL A   1      37.133  24.102  24.148  1.00  0.00     0.163 HD
BRANCH   3   6
ATOM      6  C   UNL A   1      34.646  23.155  26.237  1.00  0.00     0.138 C 
BRANCH   6   7
ATOM      7  C   UNL A   1      33.610  22.155  25.810  1.00  0.00    -0.002 A 
ATOM      8  C   UNL A   1      32.230  22.291  25.900  1.00  0.00     0.093 A 
ATOM      9  N   UNL A   1      31.671  21.225  25.231  1.00  0.00    -0.351 N 
ATOM     10  C   UNL A   1      32.629  20.285  24.941  1.00  0.00     0.048 A 
ATOM     11  H   UNL A   1      30.719  21.147  24.993  1.00  0.00     0.167 HD
ATOM     12  C   UNL A   1      33.859  20.835  25.300  1.00  0.00     0.004 A 
ATOM     13  C   UNL A   1      32.500  19.006  24.384  1.00  0.00     0.047 A 
ATOM     14  C   UNL A   1      35.024  20.064  25.089  1.00  0.00     0.012 A 
ATOM     15  C   UNL A   1      33.671  18.270  24.190  1.00  0.00     0.043 A 
ATOM     16  C   UNL A   1      34.918  18.785  24.533  1.00  0.00     0.021 A 
ATOM     17  Cl  UNL A   1      33.568  16.690  23.511  1.00  0.00    -0.084 Cl
BRANCH   8  18
ATOM     18  C   UNL A   1      31.449  23.335  26.552  1.00  0.00     0.227 C 
ATOM     19  O   UNL A   1      30.861  23.133  27.606  1.00  0.00    -0.285 OA
BRANCH  18  20
ATOM     20  C   UNL A   1      31.423  24.691  25.877  1.00  0.00     0.113 A 
ATOM     21  C   UNL A   1      31.167  27.184  24.739  1.00  0.00     0.140 A 
ATOM     22  C   UNL A   1      30.643  26.029  24.162  1.00  0.00     0.158 A 
ATOM     23  C   UNL A   1      31.815  27.080  25.967  1.00  0.00    -0.002 A 
ATOM     24  N   UNL A   1      30.736  24.792  24.712  1.00  0.00    -0.249 NA
ATOM     25  C   UNL A   1      32.018  25.798  26.484  1.00  0.00     0.040 A 
BRANCH  21  26
ATOM     26  O   UNL A   1      30.938  28.400  24.164  1.00  0.00    -0.492 OA
BRANCH  26  27
ATOM     27  C   UNL A   1      31.618  28.547  22.908  1.00  0.00     0.226 C 
ATOM     28  C   UNL A   1      33.056  28.991  23.135  1.00  0.00     0.049 C 
ENDBRANCH  26  27
ENDBRANCH  21  26
BRANCH  23  29
ATOM     29  C   UNL A   1      32.277  28.274  26.765  1.00  0.00     0.036 C 
ATOM     30  C   UNL A   1      33.794  28.329  26.938  1.00  0.00     0.009 C 
ENDBRANCH  23  29
ENDBRANCH  18  20
ENDBRANCH   8  18
ENDBRANCH   6   7
ENDBRANCH   3   6
ENDBRANCH   1   2
BRANCH   1  31
ATOM     31  C   UNL A   1      37.910  21.532  25.359  1.00  0.00     0.023 C 
BRANCH  31  32
ATOM     32  C   UNL A   1      39.365  21.066  25.432  1.00  0.00     0.023 C 
BRANCH  32  33
ATOM     33  C   UNL A   1      39.622  19.891  26.365  1.00  0.00     0.116 C 
BRANCH  33  34
ATOM     34  N   UNL A   1      40.762  19.083  25.967  1.00  0.00    -0.352 N 
ATOM     35  C   UNL A   1      42.089  19.429  25.899  1.00  0.00     0.251 C 
ATOM     36  H   UNL A   1      40.554  18.156  25.708  1.00  0.00     0.163 HD
ATOM     37  O   UNL A   1      42.902  18.648  25.415  1.00  0.00    -0.269 OA
BRANCH  35  38
ATOM     38  C   UNL A   1      42.535  20.756  26.376  1.00  0.00     0.039 A 
ATOM     39  C   UNL A   1      42.956  21.696  25.432  1.00  0.00     0.014 A 
ATOM     40  C   UNL A   1      42.541  21.080  27.736  1.00  0.00     0.014 A 
ATOM     41  C   UNL A   1      43.332  22.974  25.849  1.00  0.00     0.010 A 
ATOM     42  C   UNL A   1      42.834  22.380  28.141  1.00  0.00     0.010 A 
ATOM     43  C   UNL A   1      43.241  23.339  27.202  1.00  0.00    -0.014 A 
BRANCH  43  44
ATOM     44  C   UNL A   1      43.567  24.723  27.634  1.00  0.00     0.031 A 
ATOM     45  C   UNL A   1      44.997  25.181  27.724  1.00  0.00     0.074 A 
ATOM     46  C   UNL A   1      42.568  25.564  27.965  1.00  0.00     0.049 A 
ATOM     47  N   UNL A   1      45.469  26.358  28.053  1.00  0.00    -0.248 NA
ATOM     48  C   UNL A   1      46.036  24.182  27.428  1.00  0.00     0.031 C 
ATOM     49  C   UNL A   1      41.144  25.222  27.976  1.00  0.00     0.029 A 
ATOM     50  N   UNL A   1      42.594  26.882  28.350  1.00  0.00    -0.354 N 
ATOM     51  C   UNL A   1      46.853  26.239  28.000  1.00  0.00     0.074 A 
ATOM     52  C   UNL A   1      47.146  24.860  27.676  1.00  0.00     0.031 C 
ATOM     53  C   UNL A   1      40.432  26.311  28.305  1.00  0.00     0.029 A 
ATOM     54  C   UNL A   1      41.347  27.417  28.565  1.00  0.00     0.049 A 
ATOM     55  H   UNL A   1      43.427  27.394  28.462  1.00  0.00     0.167 HD
ATOM     56  C   UNL A   1      47.791  27.200  28.175  1.00  0.00     0.037 A 
ATOM     57  C   UNL A   1      40.983  28.662  28.928  1.00  0.00     0.037 A 
ATOM     58  C   UNL A   1      47.496  28.574  28.490  1.00  0.00     0.049 A 
ATOM     59  C   UNL A   1      42.051  29.704  29.132  1.00  0.00     0.074 A 
ATOM     60  C   UNL A   1      48.373  29.632  28.645  1.00  0.00     0.029 A 
ATOM     61  N   UNL A   1      46.221  29.079  28.702  1.00  0.00    -0.354 N 
ATOM     62  N   UNL A   1      43.351  29.600  28.999  1.00  0.00    -0.248 NA
ATOM     63  C   UNL A   1      41.595  31.044  29.527  1.00  0.00     0.031 C 
ATOM     64  C   UNL A   1      47.636  30.766  29.005  1.00  0.00     0.029 A 
ATOM     65  C   UNL A   1      46.292  30.429  29.011  1.00  0.00     0.049 A 
ATOM     66  H   UNL A   1      45.389  28.555  28.644  1.00  0.00     0.167 HD
ATOM     67  C   UNL A   1      43.864  30.863  29.260  1.00  0.00     0.074 A 
ATOM     68  C   UNL A   1      42.732  31.724  29.534  1.00  0.00     0.031 C 
ATOM     69  C   UNL A   1      45.155  31.275  29.275  1.00  0.00     0.037 A 
BRANCH  56  70
ATOM     70  C   UNL A   1      49.232  26.802  28.020  1.00  0.00     0.064 A 
ATOM     71  C   UNL A   1      50.040  26.519  29.133  1.00  0.00     0.173 A 
ATOM     72  C   UNL A   1      49.802  26.654  26.747  1.00  0.00     0.173 A 
ATOM     73  F   UNL A   1      49.550  26.654  30.375  1.00  0.00    -0.203 F 
ATOM     74  C   UNL A   1      51.368  26.131  28.977  1.00  0.00     0.198 A 
ATOM     75  C   UNL A   1      51.120  26.233  26.593  1.00  0.00     0.198 A 
ATOM     76  F   UNL A   1      49.075  26.905  25.647  1.00  0.00    -0.203 F 
ATOM     77  F   UNL A   1      52.132  25.913  30.057  1.00  0.00    -0.200 F 
ATOM     78  C   UNL A   1      51.904  25.979  27.709  1.00  0.00     0.200 A 
ATOM     79  F   UNL A   1      51.632  26.072  25.365  1.00  0.00    -0.200 F 
ATOM     80  F   UNL A   1      53.179  25.593  27.560  1.00  0.00    -0.200 F 
ENDBRANCH  56  70
BRANCH  57  81
ATOM     81  C   UNL A   1      39.545  29.005  29.095  1.00  0.00     0.064 A 
ATOM     82  C   UNL A   1      38.921  28.904  30.347  1.00  0.00     0.173 A 
ATOM     83  C   UNL A   1      38.760  29.411  28.007  1.00  0.00     0.173 A 
ATOM     84  F   UNL A   1      39.623  28.501  31.416  1.00  0.00    -0.203 F 
ATOM     85  C   UNL A   1      37.560  29.162  30.497  1.00  0.00     0.198 A 
ATOM     86  C   UNL A   1      37.407  29.704  28.165  1.00  0.00     0.198 A 
ATOM     87  F   UNL A   1      39.308  29.530  26.789  1.00  0.00    -0.203 F 
ATOM     88  F   UNL A   1      36.976  28.997  31.691  1.00  0.00    -0.200 F 
ATOM     89  C   UNL A   1      36.805  29.566  29.407  1.00  0.00     0.200 A 
ATOM     90  F   UNL A   1      36.685  30.111  27.112  1.00  0.00    -0.200 F 
ATOM     91  F   UNL A   1      35.496  29.813  29.550  1.00  0.00    -0.200 F 
ENDBRANCH  57  81
BRANCH  69  92
ATOM     92  C   UNL A   1      45.408  32.730  29.555  1.00  0.00     0.064 A 
ATOM     93  C   UNL A   1      45.427  33.689  28.532  1.00  0.00     0.173 A 
ATOM     94  C   UNL A   1      45.623  33.171  30.870  1.00  0.00     0.173 A 
ATOM     95  F   UNL A   1      45.239  33.320  27.256  1.00  0.00    -0.203 F 
ATOM     96  C   UNL A   1      45.696  35.027  28.809  1.00  0.00     0.198 A 
ATOM     97  C   UNL A   1      45.853  34.516  31.148  1.00  0.00     0.198 A 
ATOM     98  F   UNL A   1      45.606  32.298  31.889  1.00  0.00    -0.203 F 
ATOM     99  F   UNL A   1      45.777  35.914  27.807  1.00  0.00    -0.200 F 
ATOM    100  C   UNL A   1      45.902  35.440  30.117  1.00  0.00     0.200 A 
ATOM    101  F   UNL A   1      46.035  34.914  32.415  1.00  0.00    -0.200 F 
ATOM    102  F   UNL A   1      46.161  36.728  30.382  1.00  0.00    -0.200 F 
ENDBRANCH  69  92
ENDBRANCH  43  44
ENDBRANCH  35  38
ENDBRANCH  33  34
ENDBRANCH  32  33
ENDBRANCH  31  32
ENDBRANCH   1  31
TORSDOF 17
ENDMDL
MODEL 3
REMARK VINA RESULT:     -12.4      5.066     10.288
REMARK SMILES CCOc1cnc(C(=O)c2[nH]c3cc(Cl)ccc3c2CC(=O)NCCCCNC(=O)c2ccc(-c3c4nc(c(-c5c(F)c(F)c(F)c(F)c5F)c5ccc([nH]5)c(-c5c(F)c(F)c(F)c(F)c5F)c5nc(c(-c6c(F)c(F)c(F)c(F)c6F)c6ccc3[nH]6)C=C5)C=C4)cc2)cc1CC
REMARK SMILES IDX 24 1 23 2 21 3 22 4 20 6 19 7 10 8 11 9 12 10 18 12 13 13
REMARK SMILES IDX 17 14 14 15 16 16 15 17 8 18 9 19 7 20 4 21 5 22 95 23 6 24
REMARK SMILES IDX 94 25 3 26 2 27 1 28 96 29 97 30 25 31 26 32 27 33 28 34
REMARK SMILES IDX 29 35 30 37 31 38 32 39 93 40 33 41 92 42 34 43 35 44 36 45
REMARK SMILES IDX 86 46 37 47 91 48 85 49 87 50 38 51 90 52 84 53 83 54 39 56
REMARK SMILES IDX 71 57 51 58 70 59 52 60 55 61 69 62 88 63 53 64 54 65 68 67
REMARK SMILES IDX 89 68 56 69 40 70 41 71 49 72 42 73 43 74 47 75 50 76 44 77
REMARK SMILES IDX 45 78 48 79 46 80 72 81 73 82 81 83 74 84 75 85 79 86 82 87
REMARK SMILES IDX 76 88 77 89 80 90 78 91 57 92 58 93 66 94 59 95 60 96 64 97
REMARK SMILES IDX 67 98 61 99 62 100 65 101 63 102
REMARK H PARENT 23 5 11 11 28 36 87 55 55 66
REMARK Flexibility Score: inf
ROOT
ATOM      1  C   UNL A   1      33.390  29.959  26.708  1.00  0.00     0.116 C 
ENDROOT
BRANCH   1   2
ATOM      2  N   UNL A   1      33.627  28.535  26.797  1.00  0.00    -0.356 N 
ATOM      3  C   UNL A   1      33.837  27.631  25.793  1.00  0.00     0.224 C 
ATOM      4  O   UNL A   1      34.173  26.488  26.112  1.00  0.00    -0.275 OA
ATOM      5  H   UNL A   1      33.639  28.164  27.709  1.00  0.00     0.163 HD
BRANCH   3   6
ATOM      6  C   UNL A   1      33.786  28.057  24.331  1.00  0.00     0.138 C 
BRANCH   6   7
ATOM      7  C   UNL A   1      32.506  27.704  23.628  1.00  0.00    -0.002 A 
ATOM      8  C   UNL A   1      32.258  26.569  22.867  1.00  0.00     0.093 A 
ATOM      9  N   UNL A   1      30.913  26.565  22.569  1.00  0.00    -0.351 N 
ATOM     10  C   UNL A   1      30.348  27.775  22.889  1.00  0.00     0.048 A 
ATOM     11  H   UNL A   1      30.425  25.802  22.182  1.00  0.00     0.167 HD
ATOM     12  C   UNL A   1      31.325  28.518  23.549  1.00  0.00     0.004 A 
ATOM     13  C   UNL A   1      29.054  28.257  22.654  1.00  0.00     0.047 A 
ATOM     14  C   UNL A   1      30.990  29.814  24.000  1.00  0.00     0.012 A 
ATOM     15  C   UNL A   1      28.755  29.543  23.112  1.00  0.00     0.043 A 
ATOM     16  C   UNL A   1      29.703  30.315  23.777  1.00  0.00     0.021 A 
ATOM     17  Cl  UNL A   1      27.179  30.184  22.845  1.00  0.00    -0.084 Cl
BRANCH   8  18
ATOM     18  C   UNL A   1      33.184  25.531  22.432  1.00  0.00     0.227 C 
ATOM     19  O   UNL A   1      33.679  25.540  21.313  1.00  0.00    -0.285 OA
BRANCH  18  20
ATOM     20  C   UNL A   1      33.527  24.454  23.441  1.00  0.00     0.113 A 
ATOM     21  C   UNL A   1      34.066  22.347  25.127  1.00  0.00     0.140 A 
ATOM     22  C   UNL A   1      32.815  22.954  25.048  1.00  0.00     0.158 A 
ATOM     23  C   UNL A   1      35.080  22.798  24.287  1.00  0.00    -0.002 A 
ATOM     24  N   UNL A   1      32.517  23.980  24.211  1.00  0.00    -0.249 NA
ATOM     25  C   UNL A   1      34.818  23.927  23.506  1.00  0.00     0.040 A 
BRANCH  21  26
ATOM     26  O   UNL A   1      34.248  21.255  25.925  1.00  0.00    -0.492 OA
BRANCH  26  27
ATOM     27  C   UNL A   1      33.244  20.250  25.712  1.00  0.00     0.226 C 
ATOM     28  C   UNL A   1      33.630  19.358  24.541  1.00  0.00     0.049 C 
ENDBRANCH  26  27
ENDBRANCH  21  26
BRANCH  23  29
ATOM     29  C   UNL A   1      36.420  22.118  24.163  1.00  0.00     0.036 C 
ATOM     30  C   UNL A   1      37.429  22.584  25.211  1.00  0.00     0.009 C 
ENDBRANCH  23  29
ENDBRANCH  18  20
ENDBRANCH   8  18
ENDBRANCH   6   7
ENDBRANCH   3   6
ENDBRANCH   1   2
BRANCH   1  31
ATOM     31  C   UNL A   1      32.007  30.356  27.221  1.00  0.00     0.023 C 
BRANCH  31  32
ATOM     32  C   UNL A   1      31.608  31.803  26.930  1.00  0.00     0.023 C 
BRANCH  32  33
ATOM     33  C   UNL A   1      32.766  32.787  26.839  1.00  0.00     0.116 C 
BRANCH  33  34
ATOM     34  N   UNL A   1      32.536  34.011  27.589  1.00  0.00    -0.352 N 
ATOM     35  C   UNL A   1      33.188  34.482  28.701  1.00  0.00     0.251 C 
ATOM     36  H   UNL A   1      31.809  34.583  27.252  1.00  0.00     0.163 HD
ATOM     37  O   UNL A   1      32.771  35.480  29.280  1.00  0.00    -0.269 OA
BRANCH  35  38
ATOM     38  C   UNL A   1      34.372  33.767  29.226  1.00  0.00     0.039 A 
ATOM     39  C   UNL A   1      35.641  34.263  28.918  1.00  0.00     0.014 A 
ATOM     40  C   UNL A   1      34.242  32.620  30.015  1.00  0.00     0.014 A 
ATOM     41  C   UNL A   1      36.774  33.639  29.444  1.00  0.00     0.010 A 
ATOM     42  C   UNL A   1      35.368  32.052  30.607  1.00  0.00     0.010 A 
ATOM     43  C   UNL A   1      36.647  32.550  30.321  1.00  0.00    -0.014 A 
BRANCH  43  44
ATOM     44  C   UNL A   1      37.849  31.937  30.942  1.00  0.00     0.031 A 
ATOM     45  C   UNL A   1      38.292  32.344  32.321  1.00  0.00     0.074 A 
ATOM     46  C   UNL A   1      38.556  31.022  30.250  1.00  0.00     0.049 A 
ATOM     47  N   UNL A   1      39.297  31.897  33.032  1.00  0.00    -0.248 NA
ATOM     48  C   UNL A   1      37.520  33.408  32.981  1.00  0.00     0.031 C 
ATOM     49  C   UNL A   1      38.263  30.587  28.883  1.00  0.00     0.029 A 
ATOM     50  N   UNL A   1      39.662  30.288  30.601  1.00  0.00    -0.354 N 
ATOM     51  C   UNL A   1      39.276  32.622  34.217  1.00  0.00     0.074 A 
ATOM     52  C   UNL A   1      38.201  33.584  34.103  1.00  0.00     0.031 C 
ATOM     53  C   UNL A   1      39.137  29.632  28.528  1.00  0.00     0.029 A 
ATOM     54  C   UNL A   1      40.074  29.414  29.625  1.00  0.00     0.049 A 
ATOM     55  H   UNL A   1      40.115  30.380  31.469  1.00  0.00     0.167 HD
ATOM     56  C   UNL A   1      40.058  32.476  35.313  1.00  0.00     0.037 A 
ATOM     57  C   UNL A   1      41.093  28.533  29.617  1.00  0.00     0.037 A 
ATOM     58  C   UNL A   1      41.121  31.511  35.426  1.00  0.00     0.049 A 
ATOM     59  C   UNL A   1      41.957  28.406  30.844  1.00  0.00     0.074 A 
ATOM     60  C   UNL A   1      41.944  31.256  36.509  1.00  0.00     0.029 A 
ATOM     61  N   UNL A   1      41.512  30.644  34.416  1.00  0.00    -0.354 N 
ATOM     62  N   UNL A   1      41.874  29.039  31.989  1.00  0.00    -0.248 NA
ATOM     63  C   UNL A   1      43.053  27.428  30.778  1.00  0.00     0.031 C 
ATOM     64  C   UNL A   1      42.868  30.273  36.137  1.00  0.00     0.029 A 
ATOM     65  C   UNL A   1      42.580  29.869  34.843  1.00  0.00     0.049 A 
ATOM     66  H   UNL A   1      41.093  30.587  33.526  1.00  0.00     0.167 HD
ATOM     67  C   UNL A   1      42.881  28.516  32.788  1.00  0.00     0.074 A 
ATOM     68  C   UNL A   1      43.545  27.494  32.006  1.00  0.00     0.031 C 
ATOM     69  C   UNL A   1      43.227  28.850  34.056  1.00  0.00     0.037 A 
BRANCH  56  70
ATOM     70  C   UNL A   1      39.789  33.376  36.486  1.00  0.00     0.064 A 
ATOM     71  C   UNL A   1      40.454  34.603  36.638  1.00  0.00     0.173 A 
ATOM     72  C   UNL A   1      38.823  33.034  37.444  1.00  0.00     0.173 A 
ATOM     73  F   UNL A   1      41.396  34.975  35.757  1.00  0.00    -0.203 F 
ATOM     74  C   UNL A   1      40.182  35.439  37.718  1.00  0.00     0.198 A 
ATOM     75  C   UNL A   1      38.528  33.888  38.504  1.00  0.00     0.198 A 
ATOM     76  F   UNL A   1      38.152  31.877  37.345  1.00  0.00    -0.203 F 
ATOM     77  F   UNL A   1      40.865  36.582  37.867  1.00  0.00    -0.200 F 
ATOM     78  C   UNL A   1      39.213  35.086  38.644  1.00  0.00     0.200 A 
ATOM     79  F   UNL A   1      37.581  33.553  39.390  1.00  0.00    -0.200 F 
ATOM     80  F   UNL A   1      38.943  35.897  39.676  1.00  0.00    -0.200 F 
ENDBRANCH  56  70
BRANCH  57  81
ATOM     81  C   UNL A   1      41.339  27.680  28.424  1.00  0.00     0.064 A 
ATOM     82  C   UNL A   1      42.280  28.052  27.452  1.00  0.00     0.173 A 
ATOM     83  C   UNL A   1      40.621  26.494  28.213  1.00  0.00     0.173 A 
ATOM     84  F   UNL A   1      42.979  29.187  27.598  1.00  0.00    -0.203 F 
ATOM     85  C   UNL A   1      42.469  27.290  26.301  1.00  0.00     0.198 A 
ATOM     86  C   UNL A   1      40.836  25.713  27.078  1.00  0.00     0.198 A 
ATOM     87  F   UNL A   1      39.713  26.088  29.112  1.00  0.00    -0.203 F 
ATOM     88  F   UNL A   1      43.329  27.703  25.361  1.00  0.00    -0.200 F 
ATOM     89  C   UNL A   1      41.750  26.119  26.117  1.00  0.00     0.200 A 
ATOM     90  F   UNL A   1      40.151  24.574  26.913  1.00  0.00    -0.200 F 
ATOM     91  F   UNL A   1      41.929  25.387  25.009  1.00  0.00    -0.200 F 
ENDBRANCH  57  81
BRANCH  69  92
ATOM     92  C   UNL A   1      44.348  28.075  34.688  1.00  0.00     0.064 A 
ATOM     93  C   UNL A   1      45.682  28.505  34.613  1.00  0.00     0.173 A 
ATOM     94  C   UNL A   1      44.083  26.889  35.390  1.00  0.00     0.173 A 
ATOM     95  F   UNL A   1      45.993  29.625  33.943  1.00  0.00    -0.203 F 
ATOM     96  C   UNL A   1      46.710  27.755  35.177  1.00  0.00     0.198 A 
ATOM     97  C   UNL A   1      45.109  26.161  35.987  1.00  0.00     0.198 A 
ATOM     98  F   UNL A   1      42.825  26.436  35.503  1.00  0.00    -0.203 F 
ATOM     99  F   UNL A   1      47.982  28.150  35.032  1.00  0.00    -0.200 F 
ATOM    100  C   UNL A   1      46.422  26.588  35.868  1.00  0.00     0.200 A 
ATOM    101  F   UNL A   1      44.825  25.043  36.669  1.00  0.00    -0.200 F 
ATOM    102  F   UNL A   1      47.413  25.867  36.411  1.00  0.00    -0.200 F 
ENDBRANCH  69  92
ENDBRANCH  43  44
ENDBRANCH  35  38
ENDBRANCH  33  34
ENDBRANCH  32  33
ENDBRANCH  31  32
ENDBRANCH   1  31
TORSDOF 17
ENDMDL
