MODEL 1
REMARK VINA RESULT:     -10.8      0.000      0.000
REMARK SMILES COc1cc2c(cc1OC)[C@]13CCN4C(=O)C(=O)[C@@H](C[C@@H]41)[C@H]1[C@@H]3N2C(=O)C[C@H]1OCC(=O)NCCCCNC(=O)c1ccc(-c2c3nc(c(-c4c(F)c(F)c(F)c(F)c4F)c4ccc([nH]4)c(-c4c(F)c(F)c(F)c(F)c4F)c4nc(c(-c5c(F)c(F)c(F)c(F)c5F)c5ccc2[nH]5)C=C4)C=C3)cc1
REMARK SMILES IDX 35 1 34 2 33 3 31 4 32 5 30 7 29 8 28 9 3 10 4 11 8 12 5 13
REMARK SMILES IDX 7 14 6 15 24 16 11 17 23 18 25 19 12 20 21 21 22 22 26 23
REMARK SMILES IDX 27 24 13 25 14 26 20 27 19 28 15 29 17 30 16 31 18 32 2 33
REMARK SMILES IDX 1 34 9 35 10 36 36 37 37 38 38 39 39 40 40 42 41 43 42 44
REMARK SMILES IDX 103 45 43 46 102 47 44 48 45 49 46 50 96 51 47 52 101 53
REMARK SMILES IDX 95 54 97 55 48 56 100 57 94 58 93 59 49 61 81 62 61 63 80 64
REMARK SMILES IDX 62 65 65 66 79 67 98 68 63 69 64 70 78 72 99 73 66 74 50 75
REMARK SMILES IDX 51 76 59 77 52 78 53 79 57 80 60 81 54 82 55 83 58 84 56 85
REMARK SMILES IDX 82 86 83 87 91 88 84 89 85 90 89 91 92 92 86 93 87 94 90 95
REMARK SMILES IDX 88 96 67 97 68 98 76 99 69 100 70 101 74 102 77 103 71 104
REMARK SMILES IDX 72 105 75 106 73 107
REMARK H PARENT 33 6 38 41 97 60 65 71
REMARK Flexibility Score: inf
ROOT
ATOM      1  C   UNL A   1      39.284  32.472  41.180  1.00  0.00     0.023 C 
ENDROOT
BRANCH   1   2
ATOM      2  C   UNL A   1      37.880  32.636  40.596  1.00  0.00     0.116 C 
BRANCH   2   3
ATOM      3  N   UNL A   1      37.391  31.447  39.924  1.00  0.00    -0.354 N 
ATOM      4  C   UNL A   1      37.335  31.177  38.586  1.00  0.00     0.246 C 
ATOM      5  O   UNL A   1      36.955  30.063  38.225  1.00  0.00    -0.272 OA
ATOM      6  H   UNL A   1      37.054  30.735  40.514  1.00  0.00     0.163 HD
BRANCH   4   7
ATOM      7  C   UNL A   1      37.775  32.243  37.582  1.00  0.00     0.260 C 
BRANCH   7   8
ATOM      8  O   UNL A   1      37.811  31.809  36.237  1.00  0.00    -0.367 OA
BRANCH   8   9
ATOM      9  C   UNL A   1      37.906  32.782  35.196  1.00  0.00     0.134 C 
ATOM     10  C   UNL A   1      35.096  33.267  29.765  1.00  0.00     0.162 A 
ATOM     11  C   UNL A   1      35.533  33.737  31.000  1.00  0.00     0.077 A 
ATOM     12  C   UNL A   1      35.984  32.624  28.903  1.00  0.00     0.161 A 
ATOM     13  C   UNL A   1      36.820  33.415  31.420  1.00  0.00     0.052 A 
ATOM     14  C   UNL A   1      37.257  32.283  29.382  1.00  0.00     0.057 A 
ATOM     15  C   UNL A   1      37.666  32.588  30.692  1.00  0.00    -0.010 A 
ATOM     16  N   UNL A   1      37.404  33.740  32.634  1.00  0.00    -0.307 N 
ATOM     17  C   UNL A   1      39.001  32.241  31.482  1.00  0.00     0.041 C 
ATOM     18  C   UNL A   1      38.683  33.037  32.776  1.00  0.00     0.110 C 
ATOM     19  C   UNL A   1      36.748  34.437  33.625  1.00  0.00     0.229 C 
ATOM     20  C   UNL A   1      40.039  32.331  30.331  1.00  0.00     0.038 C 
ATOM     21  C   UNL A   1      39.616  30.800  31.975  1.00  0.00     0.099 C 
ATOM     22  C   UNL A   1      38.451  32.074  33.947  1.00  0.00     0.054 C 
ATOM     23  O   UNL A   1      36.020  35.408  33.429  1.00  0.00    -0.274 OA
ATOM     24  C   UNL A   1      36.799  33.803  34.994  1.00  0.00     0.133 C 
ATOM     25  C   UNL A   1      39.965  30.815  29.751  1.00  0.00     0.121 C 
ATOM     26  N   UNL A   1      39.275  30.092  30.833  1.00  0.00    -0.332 N 
ATOM     27  C   UNL A   1      39.209  29.974  33.189  1.00  0.00     0.038 C 
ATOM     28  C   UNL A   1      37.918  30.620  33.550  1.00  0.00     0.076 C 
ATOM     29  C   UNL A   1      37.892  29.712  30.870  1.00  0.00     0.290 C 
ATOM     30  C   UNL A   1      37.073  30.228  32.267  1.00  0.00     0.223 C 
ATOM     31  O   UNL A   1      37.323  29.177  29.948  1.00  0.00    -0.266 OA
ATOM     32  O   UNL A   1      35.852  30.318  32.277  1.00  0.00    -0.288 OA
BRANCH  10  33
ATOM     33  O   UNL A   1      33.780  33.472  29.436  1.00  0.00    -0.493 OA
ATOM     34  C   UNL A   1      33.478  34.867  29.554  1.00  0.00     0.278 C 
ENDBRANCH  10  33
BRANCH  12  35
ATOM     35  O   UNL A   1      35.529  32.327  27.644  1.00  0.00    -0.493 OA
ATOM     36  C   UNL A   1      34.988  31.027  27.447  1.00  0.00     0.278 C 
ENDBRANCH  12  35
ENDBRANCH   8   9
ENDBRANCH   7   8
ENDBRANCH   4   7
ENDBRANCH   2   3
ENDBRANCH   1   2
BRANCH   1  37
ATOM     37  C   UNL A   1      40.293  33.580  40.860  1.00  0.00     0.023 C 
BRANCH  37  38
ATOM     38  C   UNL A   1      40.021  34.397  39.604  1.00  0.00     0.116 C 
BRANCH  38  39
ATOM     39  N   UNL A   1      40.368  35.803  39.709  1.00  0.00    -0.352 N 
ATOM     40  C   UNL A   1      40.978  36.592  38.759  1.00  0.00     0.251 C 
ATOM     41  H   UNL A   1      40.140  36.243  40.559  1.00  0.00     0.163 HD
ATOM     42  O   UNL A   1      41.270  37.756  39.011  1.00  0.00    -0.269 OA
BRANCH  40  43
ATOM     43  C   UNL A   1      41.347  36.000  37.451  1.00  0.00     0.039 A 
ATOM     44  C   UNL A   1      40.395  35.818  36.446  1.00  0.00     0.014 A 
ATOM     45  C   UNL A   1      42.661  35.564  37.260  1.00  0.00     0.014 A 
ATOM     46  C   UNL A   1      40.711  35.048  35.330  1.00  0.00     0.010 A 
ATOM     47  C   UNL A   1      42.996  34.850  36.106  1.00  0.00     0.010 A 
ATOM     48  C   UNL A   1      42.007  34.534  35.162  1.00  0.00    -0.014 A 
BRANCH  48  49
ATOM     49  C   UNL A   1      42.289  33.627  34.021  1.00  0.00     0.031 A 
ATOM     50  C   UNL A   1      42.626  34.191  32.667  1.00  0.00     0.074 A 
ATOM     51  C   UNL A   1      42.331  32.296  34.222  1.00  0.00     0.049 A 
ATOM     52  N   UNL A   1      42.935  33.561  31.561  1.00  0.00    -0.248 NA
ATOM     53  C   UNL A   1      42.619  35.657  32.536  1.00  0.00     0.031 C 
ATOM     54  C   UNL A   1      42.063  31.630  35.496  1.00  0.00     0.029 A 
ATOM     55  N   UNL A   1      42.654  31.272  33.368  1.00  0.00    -0.354 N 
ATOM     56  C   UNL A   1      43.144  34.546  30.606  1.00  0.00     0.074 A 
ATOM     57  C   UNL A   1      42.906  35.819  31.252  1.00  0.00     0.031 C 
ATOM     58  C   UNL A   1      42.299  30.316  35.359  1.00  0.00     0.029 A 
ATOM     59  C   UNL A   1      42.685  30.043  33.977  1.00  0.00     0.049 A 
ATOM     60  H   UNL A   1      42.845  31.406  32.412  1.00  0.00     0.167 HD
ATOM     61  C   UNL A   1      43.512  34.406  29.310  1.00  0.00     0.037 A 
ATOM     62  C   UNL A   1      42.993  28.832  33.479  1.00  0.00     0.037 A 
ATOM     63  C   UNL A   1      43.772  33.145  28.667  1.00  0.00     0.049 A 
ATOM     64  C   UNL A   1      43.352  28.697  32.028  1.00  0.00     0.074 A 
ATOM     65  C   UNL A   1      44.136  32.904  27.354  1.00  0.00     0.029 A 
ATOM     66  N   UNL A   1      43.708  31.913  29.298  1.00  0.00    -0.354 N 
ATOM     67  N   UNL A   1      43.497  29.634  31.124  1.00  0.00    -0.248 NA
ATOM     68  C   UNL A   1      43.567  27.334  31.523  1.00  0.00     0.031 C 
ATOM     69  C   UNL A   1      44.270  31.521  27.184  1.00  0.00     0.029 A 
ATOM     70  C   UNL A   1      44.015  30.905  28.398  1.00  0.00     0.049 A 
ATOM     71  H   UNL A   1      43.475  31.773  30.244  1.00  0.00     0.167 HD
ATOM     72  C   UNL A   1      43.821  28.978  29.945  1.00  0.00     0.074 A 
ATOM     73  C   UNL A   1      43.869  27.563  30.252  1.00  0.00     0.031 C 
ATOM     74  C   UNL A   1      44.049  29.502  28.718  1.00  0.00     0.037 A 
BRANCH  61  75
ATOM     75  C   UNL A   1      43.650  35.653  28.491  1.00  0.00     0.064 A 
ATOM     76  C   UNL A   1      42.540  36.250  27.877  1.00  0.00     0.173 A 
ATOM     77  C   UNL A   1      44.898  36.279  28.354  1.00  0.00     0.173 A 
ATOM     78  F   UNL A   1      41.331  35.677  27.966  1.00  0.00    -0.203 F 
ATOM     79  C   UNL A   1      42.677  37.425  27.142  1.00  0.00     0.198 A 
ATOM     80  C   UNL A   1      45.026  37.465  27.636  1.00  0.00     0.198 A 
ATOM     81  F   UNL A   1      45.988  35.747  28.925  1.00  0.00    -0.203 F 
ATOM     82  F   UNL A   1      41.609  37.963  26.537  1.00  0.00    -0.200 F 
ATOM     83  C   UNL A   1      43.918  38.035  27.028  1.00  0.00     0.200 A 
ATOM     84  F   UNL A   1      46.225  38.056  27.529  1.00  0.00    -0.200 F 
ATOM     85  F   UNL A   1      44.047  39.168  26.324  1.00  0.00    -0.200 F 
ENDBRANCH  61  75
BRANCH  62  86
ATOM     86  C   UNL A   1      42.997  27.653  34.378  1.00  0.00     0.064 A 
ATOM     87  C   UNL A   1      44.161  27.286  35.067  1.00  0.00     0.173 A 
ATOM     88  C   UNL A   1      41.837  26.898  34.598  1.00  0.00     0.173 A 
ATOM     89  F   UNL A   1      45.298  27.971  34.871  1.00  0.00    -0.203 F 
ATOM     90  C   UNL A   1      44.162  26.208  35.948  1.00  0.00     0.198 A 
ATOM     91  C   UNL A   1      41.835  25.831  35.492  1.00  0.00     0.198 A 
ATOM     92  F   UNL A   1      40.701  27.212  33.959  1.00  0.00    -0.203 F 
ATOM     93  F   UNL A   1      45.292  25.867  36.584  1.00  0.00    -0.200 F 
ATOM     94  C   UNL A   1      42.998  25.486  36.166  1.00  0.00     0.200 A 
ATOM     95  F   UNL A   1      40.706  25.141  35.708  1.00  0.00    -0.200 F 
ATOM     96  F   UNL A   1      42.997  24.457  37.025  1.00  0.00    -0.200 F 
ENDBRANCH  62  86
BRANCH  74  97
ATOM     97  C   UNL A   1      44.365  28.544  27.612  1.00  0.00     0.064 A 
ATOM     98  C   UNL A   1      45.663  28.048  27.433  1.00  0.00     0.173 A 
ATOM     99  C   UNL A   1      43.355  28.081  26.758  1.00  0.00     0.173 A 
ATOM    100  F   UNL A   1      46.663  28.475  28.219  1.00  0.00    -0.203 F 
ATOM    101  C   UNL A   1      45.942  27.128  26.427  1.00  0.00     0.198 A 
ATOM    102  C   UNL A   1      43.634  27.148  25.764  1.00  0.00     0.198 A 
ATOM    103  F   UNL A   1      42.097  28.526  26.895  1.00  0.00    -0.203 F 
ATOM    104  F   UNL A   1      47.195  26.685  26.256  1.00  0.00    -0.200 F 
ATOM    105  C   UNL A   1      44.927  26.674  25.597  1.00  0.00     0.200 A 
ATOM    106  F   UNL A   1      42.652  26.705  24.965  1.00  0.00    -0.200 F 
ATOM    107  F   UNL A   1      45.196  25.784  24.633  1.00  0.00    -0.200 F 
ENDBRANCH  74  97
ENDBRANCH  48  49
ENDBRANCH  40  43
ENDBRANCH  38  39
ENDBRANCH  37  38
ENDBRANCH   1  37
TORSDOF 15
ENDMDL
MODEL 2
REMARK VINA RESULT:     -10.7      0.130      1.486
REMARK SMILES COc1cc2c(cc1OC)[C@]13CCN4C(=O)C(=O)[C@@H](C[C@@H]41)[C@H]1[C@@H]3N2C(=O)C[C@H]1OCC(=O)NCCCCNC(=O)c1ccc(-c2c3nc(c(-c4c(F)c(F)c(F)c(F)c4F)c4ccc([nH]4)c(-c4c(F)c(F)c(F)c(F)c4F)c4nc(c(-c5c(F)c(F)c(F)c(F)c5F)c5ccc2[nH]5)C=C4)C=C3)cc1
REMARK SMILES IDX 35 1 34 2 33 3 31 4 32 5 30 7 29 8 28 9 3 10 4 11 8 12 5 13
REMARK SMILES IDX 7 14 6 15 24 16 11 17 23 18 25 19 12 20 21 21 22 22 26 23
REMARK SMILES IDX 27 24 13 25 14 26 20 27 19 28 15 29 17 30 16 31 18 32 2 33
REMARK SMILES IDX 1 34 9 35 10 36 36 37 37 38 38 39 39 40 40 42 41 43 42 44
REMARK SMILES IDX 103 45 43 46 102 47 44 48 45 49 46 50 96 51 47 52 101 53
REMARK SMILES IDX 95 54 97 55 48 56 100 57 94 58 93 59 49 61 81 62 61 63 80 64
REMARK SMILES IDX 62 65 65 66 79 67 98 68 63 69 64 70 78 72 99 73 66 74 50 75
REMARK SMILES IDX 51 76 59 77 52 78 53 79 57 80 60 81 54 82 55 83 58 84 56 85
REMARK SMILES IDX 82 86 83 87 91 88 84 89 85 90 89 91 92 92 86 93 87 94 90 95
REMARK SMILES IDX 88 96 67 97 68 98 76 99 69 100 70 101 74 102 77 103 71 104
REMARK SMILES IDX 72 105 75 106 73 107
REMARK H PARENT 33 6 38 41 97 60 65 71
REMARK Flexibility Score: inf
ROOT
ATOM      1  C   UNL A   1      39.186  32.452  41.187  1.00  0.00     0.023 C 
ENDROOT
BRANCH   1   2
ATOM      2  C   UNL A   1      37.786  32.601  40.588  1.00  0.00     0.116 C 
BRANCH   2   3
ATOM      3  N   UNL A   1      37.320  31.409  39.904  1.00  0.00    -0.354 N 
ATOM      4  C   UNL A   1      37.319  31.131  38.567  1.00  0.00     0.246 C 
ATOM      5  O   UNL A   1      36.950  30.017  38.198  1.00  0.00    -0.272 OA
ATOM      6  H   UNL A   1      36.956  30.702  40.484  1.00  0.00     0.163 HD
BRANCH   4   7
ATOM      7  C   UNL A   1      37.804  32.190  37.576  1.00  0.00     0.260 C 
BRANCH   7   8
ATOM      8  O   UNL A   1      37.863  31.757  36.231  1.00  0.00    -0.367 OA
BRANCH   8   9
ATOM      9  C   UNL A   1      37.973  32.731  35.192  1.00  0.00     0.134 C 
ATOM     10  C   UNL A   1      35.171  33.278  29.763  1.00  0.00     0.162 A 
ATOM     11  C   UNL A   1      35.616  33.738  30.999  1.00  0.00     0.077 A 
ATOM     12  C   UNL A   1      36.048  32.622  28.900  1.00  0.00     0.161 A 
ATOM     13  C   UNL A   1      36.897  33.393  31.418  1.00  0.00     0.052 A 
ATOM     14  C   UNL A   1      37.314  32.258  29.377  1.00  0.00     0.057 A 
ATOM     15  C   UNL A   1      37.729  32.553  30.688  1.00  0.00    -0.010 A 
ATOM     16  N   UNL A   1      37.487  33.704  32.633  1.00  0.00    -0.307 N 
ATOM     17  C   UNL A   1      39.058  32.181  31.476  1.00  0.00     0.041 C 
ATOM     18  C   UNL A   1      38.754  32.979  32.772  1.00  0.00     0.110 C 
ATOM     19  C   UNL A   1      36.844  34.410  33.626  1.00  0.00     0.229 C 
ATOM     20  C   UNL A   1      40.098  32.256  30.326  1.00  0.00     0.038 C 
ATOM     21  C   UNL A   1      39.648  30.729  31.966  1.00  0.00     0.099 C 
ATOM     22  C   UNL A   1      38.506  32.017  33.941  1.00  0.00     0.054 C 
ATOM     23  O   UNL A   1      36.133  35.393  33.433  1.00  0.00    -0.274 OA
ATOM     24  C   UNL A   1      36.884  33.771  34.994  1.00  0.00     0.133 C 
ATOM     25  C   UNL A   1      39.997  30.743  29.741  1.00  0.00     0.121 C 
ATOM     26  N   UNL A   1      39.296  30.029  30.822  1.00  0.00    -0.332 N 
ATOM     27  C   UNL A   1      39.228  29.906  33.177  1.00  0.00     0.038 C 
ATOM     28  C   UNL A   1      37.948  30.573  33.541  1.00  0.00     0.076 C 
ATOM     29  C   UNL A   1      37.906  29.673  30.858  1.00  0.00     0.290 C 
ATOM     30  C   UNL A   1      37.096  30.199  32.257  1.00  0.00     0.223 C 
ATOM     31  O   UNL A   1      37.328  29.150  29.935  1.00  0.00    -0.266 OA
ATOM     32  O   UNL A   1      35.877  30.310  32.267  1.00  0.00    -0.288 OA
BRANCH  10  33
ATOM     33  O   UNL A   1      33.859  33.506  29.436  1.00  0.00    -0.493 OA
ATOM     34  C   UNL A   1      33.568  34.899  29.601  1.00  0.00     0.278 C 
ENDBRANCH  10  33
BRANCH  12  35
ATOM     35  O   UNL A   1      35.587  32.337  27.640  1.00  0.00    -0.493 OA
ATOM     36  C   UNL A   1      34.874  31.118  27.478  1.00  0.00     0.278 C 
ENDBRANCH  12  35
ENDBRANCH   8   9
ENDBRANCH   7   8
ENDBRANCH   4   7
ENDBRANCH   2   3
ENDBRANCH   1   2
BRANCH   1  37
ATOM     37  C   UNL A   1      40.084  33.693  41.146  1.00  0.00     0.023 C 
BRANCH  37  38
ATOM     38  C   UNL A   1      40.191  34.404  39.804  1.00  0.00     0.116 C 
BRANCH  38  39
ATOM     39  N   UNL A   1      40.487  35.823  39.892  1.00  0.00    -0.352 N 
ATOM     40  C   UNL A   1      41.038  36.629  38.920  1.00  0.00     0.251 C 
ATOM     41  H   UNL A   1      40.268  36.259  40.746  1.00  0.00     0.163 HD
ATOM     42  O   UNL A   1      41.292  37.805  39.157  1.00  0.00    -0.269 OA
BRANCH  40  43
ATOM     43  C   UNL A   1      41.390  36.043  37.604  1.00  0.00     0.039 A 
ATOM     44  C   UNL A   1      40.421  35.847  36.618  1.00  0.00     0.014 A 
ATOM     45  C   UNL A   1      42.707  35.628  37.387  1.00  0.00     0.014 A 
ATOM     46  C   UNL A   1      40.727  35.083  35.496  1.00  0.00     0.010 A 
ATOM     47  C   UNL A   1      43.029  34.920  36.225  1.00  0.00     0.010 A 
ATOM     48  C   UNL A   1      42.027  34.590  35.301  1.00  0.00    -0.014 A 
BRANCH  48  49
ATOM     49  C   UNL A   1      42.301  33.687  34.153  1.00  0.00     0.031 A 
ATOM     50  C   UNL A   1      42.639  34.258  32.803  1.00  0.00     0.074 A 
ATOM     51  C   UNL A   1      42.334  32.356  34.346  1.00  0.00     0.049 A 
ATOM     52  N   UNL A   1      42.941  33.632  31.692  1.00  0.00    -0.248 NA
ATOM     53  C   UNL A   1      42.642  35.724  32.681  1.00  0.00     0.031 C 
ATOM     54  C   UNL A   1      42.063  31.683  35.617  1.00  0.00     0.029 A 
ATOM     55  N   UNL A   1      42.648  31.334  33.485  1.00  0.00    -0.354 N 
ATOM     56  C   UNL A   1      43.155  34.623  30.743  1.00  0.00     0.074 A 
ATOM     57  C   UNL A   1      42.927  35.893  31.398  1.00  0.00     0.031 C 
ATOM     58  C   UNL A   1      42.290  30.369  35.471  1.00  0.00     0.029 A 
ATOM     59  C   UNL A   1      42.671  30.101  34.087  1.00  0.00     0.049 A 
ATOM     60  H   UNL A   1      42.839  31.473  32.530  1.00  0.00     0.167 HD
ATOM     61  C   UNL A   1      43.520  34.488  29.445  1.00  0.00     0.037 A 
ATOM     62  C   UNL A   1      42.971  28.891  33.580  1.00  0.00     0.037 A 
ATOM     63  C   UNL A   1      43.770  33.229  28.794  1.00  0.00     0.049 A 
ATOM     64  C   UNL A   1      43.326  28.764  32.128  1.00  0.00     0.074 A 
ATOM     65  C   UNL A   1      44.130  32.994  27.479  1.00  0.00     0.029 A 
ATOM     66  N   UNL A   1      43.698  31.994  29.417  1.00  0.00    -0.354 N 
ATOM     67  N   UNL A   1      43.475  29.705  31.229  1.00  0.00    -0.248 NA
ATOM     68  C   UNL A   1      43.531  27.402  31.614  1.00  0.00     0.031 C 
ATOM     69  C   UNL A   1      44.254  31.611  27.300  1.00  0.00     0.029 A 
ATOM     70  C   UNL A   1      43.997  30.990  28.510  1.00  0.00     0.049 A 
ATOM     71  H   UNL A   1      43.467  31.850  30.363  1.00  0.00     0.167 HD
ATOM     72  C   UNL A   1      43.792  29.054  30.046  1.00  0.00     0.074 A 
ATOM     73  C   UNL A   1      43.832  27.637  30.344  1.00  0.00     0.031 C 
ATOM     74  C   UNL A   1      44.022  29.584  28.822  1.00  0.00     0.037 A 
BRANCH  61  75
ATOM     75  C   UNL A   1      43.665  35.739  28.634  1.00  0.00     0.064 A 
ATOM     76  C   UNL A   1      44.910  36.364  28.472  1.00  0.00     0.173 A 
ATOM     77  C   UNL A   1      42.556  36.295  27.980  1.00  0.00     0.173 A 
ATOM     78  F   UNL A   1      45.994  35.878  29.093  1.00  0.00    -0.203 F 
ATOM     79  C   UNL A   1      45.037  37.511  27.692  1.00  0.00     0.198 A 
ATOM     80  C   UNL A   1      42.691  37.430  27.184  1.00  0.00     0.198 A 
ATOM     81  F   UNL A   1      41.345  35.732  28.104  1.00  0.00    -0.203 F 
ATOM     82  F   UNL A   1      46.229  38.111  27.575  1.00  0.00    -0.200 F 
ATOM     83  C   UNL A   1      43.929  38.039  27.044  1.00  0.00     0.200 A 
ATOM     84  F   UNL A   1      41.621  37.937  26.555  1.00  0.00    -0.200 F 
ATOM     85  F   UNL A   1      44.054  39.140  26.290  1.00  0.00    -0.200 F 
ENDBRANCH  61  75
BRANCH  62  86
ATOM     86  C   UNL A   1      42.968  27.707  34.472  1.00  0.00     0.064 A 
ATOM     87  C   UNL A   1      41.815  26.920  34.606  1.00  0.00     0.173 A 
ATOM     88  C   UNL A   1      44.117  27.315  35.171  1.00  0.00     0.173 A 
ATOM     89  F   UNL A   1      40.688  27.271  33.969  1.00  0.00    -0.203 F 
ATOM     90  C   UNL A   1      41.816  25.781  35.407  1.00  0.00     0.198 A 
ATOM     91  C   UNL A   1      44.121  26.166  35.957  1.00  0.00     0.198 A 
ATOM     92  F   UNL A   1      45.241  28.039  35.072  1.00  0.00    -0.203 F 
ATOM     93  F   UNL A   1      40.697  25.053  35.532  1.00  0.00    -0.200 F 
ATOM     94  C   UNL A   1      42.970  25.399  36.075  1.00  0.00     0.200 A 
ATOM     95  F   UNL A   1      45.240  25.795  36.593  1.00  0.00    -0.200 F 
ATOM     96  F   UNL A   1      42.973  24.295  36.833  1.00  0.00    -0.200 F 
ENDBRANCH  62  86
BRANCH  74  97
ATOM     97  C   UNL A   1      44.329  28.631  27.709  1.00  0.00     0.064 A 
ATOM     98  C   UNL A   1      45.621  28.118  27.531  1.00  0.00     0.173 A 
ATOM     99  C   UNL A   1      43.316  28.190  26.847  1.00  0.00     0.173 A 
ATOM    100  F   UNL A   1      46.623  28.524  28.325  1.00  0.00    -0.203 F 
ATOM    101  C   UNL A   1      45.891  27.203  26.519  1.00  0.00     0.198 A 
ATOM    102  C   UNL A   1      43.586  27.261  25.846  1.00  0.00     0.198 A 
ATOM    103  F   UNL A   1      42.064  28.651  26.982  1.00  0.00    -0.203 F 
ATOM    104  F   UNL A   1      47.138  26.743  26.349  1.00  0.00    -0.200 F 
ATOM    105  C   UNL A   1      44.873  26.770  25.681  1.00  0.00     0.200 A 
ATOM    106  F   UNL A   1      42.602  26.839  25.040  1.00  0.00    -0.200 F 
ATOM    107  F   UNL A   1      45.134  25.884  24.711  1.00  0.00    -0.200 F 
ENDBRANCH  74  97
ENDBRANCH  48  49
ENDBRANCH  40  43
ENDBRANCH  38  39
ENDBRANCH  37  38
ENDBRANCH   1  37
TORSDOF 15
ENDMDL
MODEL 3
REMARK VINA RESULT:     -10.5      6.032     11.064
REMARK SMILES COc1cc2c(cc1OC)[C@]13CCN4C(=O)C(=O)[C@@H](C[C@@H]41)[C@H]1[C@@H]3N2C(=O)C[C@H]1OCC(=O)NCCCCNC(=O)c1ccc(-c2c3nc(c(-c4c(F)c(F)c(F)c(F)c4F)c4ccc([nH]4)c(-c4c(F)c(F)c(F)c(F)c4F)c4nc(c(-c5c(F)c(F)c(F)c(F)c5F)c5ccc2[nH]5)C=C4)C=C3)cc1
REMARK SMILES IDX 35 1 34 2 33 3 31 4 32 5 30 7 29 8 28 9 3 10 4 11 8 12 5 13
REMARK SMILES IDX 7 14 6 15 24 16 11 17 23 18 25 19 12 20 21 21 22 22 26 23
REMARK SMILES IDX 27 24 13 25 14 26 20 27 19 28 15 29 17 30 16 31 18 32 2 33
REMARK SMILES IDX 1 34 9 35 10 36 36 37 37 38 38 39 39 40 40 42 41 43 42 44
REMARK SMILES IDX 103 45 43 46 102 47 44 48 45 49 46 50 96 51 47 52 101 53
REMARK SMILES IDX 95 54 97 55 48 56 100 57 94 58 93 59 49 61 81 62 61 63 80 64
REMARK SMILES IDX 62 65 65 66 79 67 98 68 63 69 64 70 78 72 99 73 66 74 50 75
REMARK SMILES IDX 51 76 59 77 52 78 53 79 57 80 60 81 54 82 55 83 58 84 56 85
REMARK SMILES IDX 82 86 83 87 91 88 84 89 85 90 89 91 92 92 86 93 87 94 90 95
REMARK SMILES IDX 88 96 67 97 68 98 76 99 69 100 70 101 74 102 77 103 71 104
REMARK SMILES IDX 72 105 75 106 73 107
REMARK H PARENT 33 6 38 41 97 60 65 71
REMARK Flexibility Score: inf
ROOT
ATOM      1  C   UNL A   1      32.110  30.341  26.859  1.00  0.00     0.023 C 
ENDROOT
BRANCH   1   2
ATOM      2  C   UNL A   1      32.152  29.669  25.484  1.00  0.00     0.116 C 
BRANCH   2   3
ATOM      3  N   UNL A   1      31.035  30.029  24.631  1.00  0.00    -0.354 N 
ATOM      4  C   UNL A   1      30.743  29.594  23.369  1.00  0.00     0.246 C 
ATOM      5  O   UNL A   1      29.692  29.966  22.847  1.00  0.00    -0.272 OA
ATOM      6  H   UNL A   1      30.399  30.674  25.015  1.00  0.00     0.163 HD
BRANCH   4   7
ATOM      7  C   UNL A   1      31.704  28.640  22.659  1.00  0.00     0.260 C 
BRANCH   7   8
ATOM      8  O   UNL A   1      31.368  27.271  22.774  1.00  0.00    -0.367 OA
BRANCH   8   9
ATOM      9  C   UNL A   1      32.355  26.286  22.464  1.00  0.00     0.134 C 
ATOM     10  C   UNL A   1      32.527  20.222  23.367  1.00  0.00     0.162 A 
ATOM     11  C   UNL A   1      32.650  21.383  22.610  1.00  0.00     0.077 A 
ATOM     12  C   UNL A   1      33.167  20.115  24.601  1.00  0.00     0.161 A 
ATOM     13  C   UNL A   1      33.288  22.483  23.175  1.00  0.00     0.052 A 
ATOM     14  C   UNL A   1      33.762  21.259  25.151  1.00  0.00     0.057 A 
ATOM     15  C   UNL A   1      33.747  22.498  24.486  1.00  0.00    -0.010 A 
ATOM     16  N   UNL A   1      33.452  23.734  22.603  1.00  0.00    -0.307 N 
ATOM     17  C   UNL A   1      34.270  23.932  24.930  1.00  0.00     0.041 C 
ATOM     18  C   UNL A   1      33.980  24.673  23.597  1.00  0.00     0.110 C 
ATOM     19  C   UNL A   1      32.967  24.063  21.355  1.00  0.00     0.229 C 
ATOM     20  C   UNL A   1      35.529  23.533  25.745  1.00  0.00     0.038 C 
ATOM     21  C   UNL A   1      33.767  24.938  26.126  1.00  0.00     0.099 C 
ATOM     22  C   UNL A   1      32.847  25.688  23.791  1.00  0.00     0.054 C 
ATOM     23  O   UNL A   1      33.019  23.327  20.371  1.00  0.00    -0.274 OA
ATOM     24  C   UNL A   1      32.151  25.332  21.299  1.00  0.00     0.133 C 
ATOM     25  C   UNL A   1      34.867  23.299  27.210  1.00  0.00     0.121 C 
ATOM     26  N   UNL A   1      33.552  23.949  27.074  1.00  0.00    -0.332 N 
ATOM     27  C   UNL A   1      32.561  25.868  26.124  1.00  0.00     0.038 C 
ATOM     28  C   UNL A   1      31.804  25.346  24.953  1.00  0.00     0.076 C 
ATOM     29  C   UNL A   1      32.291  23.303  26.850  1.00  0.00     0.290 C 
ATOM     30  C   UNL A   1      31.433  23.910  25.513  1.00  0.00     0.223 C 
ATOM     31  O   UNL A   1      31.916  22.339  27.474  1.00  0.00    -0.266 OA
ATOM     32  O   UNL A   1      30.559  23.241  24.976  1.00  0.00    -0.288 OA
BRANCH  10  33
ATOM     33  O   UNL A   1      31.769  19.203  22.848  1.00  0.00    -0.493 OA
ATOM     34  C   UNL A   1      32.528  18.516  21.845  1.00  0.00     0.278 C 
ENDBRANCH  10  33
BRANCH  12  35
ATOM     35  O   UNL A   1      33.132  18.891  25.219  1.00  0.00    -0.493 OA
ATOM     36  C   UNL A   1      34.198  17.995  24.931  1.00  0.00     0.278 C 
ENDBRANCH  12  35
ENDBRANCH   8   9
ENDBRANCH   7   8
ENDBRANCH   4   7
ENDBRANCH   2   3
ENDBRANCH   1   2
BRANCH   1  37
ATOM     37  C   UNL A   1      31.768  31.834  26.879  1.00  0.00     0.023 C 
BRANCH  37  38
ATOM     38  C   UNL A   1      32.874  32.773  27.341  1.00  0.00     0.116 C 
BRANCH  38  39
ATOM     39  N   UNL A   1      32.435  34.122  27.650  1.00  0.00    -0.352 N 
ATOM     40  C   UNL A   1      32.997  35.006  28.544  1.00  0.00     0.251 C 
ATOM     41  H   UNL A   1      31.642  34.442  27.163  1.00  0.00     0.163 HD
ATOM     42  O   UNL A   1      32.478  36.098  28.751  1.00  0.00    -0.269 OA
BRANCH  40  43
ATOM     43  C   UNL A   1      34.197  34.597  29.313  1.00  0.00     0.039 A 
ATOM     44  C   UNL A   1      35.483  34.795  28.805  1.00  0.00     0.014 A 
ATOM     45  C   UNL A   1      34.019  33.946  30.537  1.00  0.00     0.014 A 
ATOM     46  C   UNL A   1      36.570  34.190  29.430  1.00  0.00     0.010 A 
ATOM     47  C   UNL A   1      35.121  33.399  31.200  1.00  0.00     0.010 A 
ATOM     48  C   UNL A   1      36.396  33.465  30.619  1.00  0.00    -0.014 A 
BRANCH  48  49
ATOM     49  C   UNL A   1      37.552  32.739  31.206  1.00  0.00     0.031 A 
ATOM     50  C   UNL A   1      38.006  33.044  32.608  1.00  0.00     0.074 A 
ATOM     51  C   UNL A   1      38.136  31.744  30.514  1.00  0.00     0.049 A 
ATOM     52  N   UNL A   1      38.971  32.494  33.303  1.00  0.00    -0.248 NA
ATOM     53  C   UNL A   1      37.282  34.104  33.328  1.00  0.00     0.031 C 
ATOM     54  C   UNL A   1      37.760  31.327  29.163  1.00  0.00     0.029 A 
ATOM     55  N   UNL A   1      39.140  30.878  30.866  1.00  0.00    -0.354 N 
ATOM     56  C   UNL A   1      38.978  33.146  34.529  1.00  0.00     0.074 A 
ATOM     57  C   UNL A   1      37.937  34.150  34.479  1.00  0.00     0.031 C 
ATOM     58  C   UNL A   1      38.476  30.243  28.826  1.00  0.00     0.029 A 
ATOM     59  C   UNL A   1      39.394  29.921  29.915  1.00  0.00     0.049 A 
ATOM     60  H   UNL A   1      39.631  30.938  31.717  1.00  0.00     0.167 HD
ATOM     61  C   UNL A   1      39.771  32.922  35.604  1.00  0.00     0.037 A 
ATOM     62  C   UNL A   1      40.265  28.896  29.923  1.00  0.00     0.037 A 
ATOM     63  C   UNL A   1      40.792  31.910  35.668  1.00  0.00     0.049 A 
ATOM     64  C   UNL A   1      41.166  28.699  31.107  1.00  0.00     0.074 A 
ATOM     65  C   UNL A   1      41.655  31.619  36.710  1.00  0.00     0.029 A 
ATOM     66  N   UNL A   1      41.077  31.015  34.649  1.00  0.00    -0.354 N 
ATOM     67  N   UNL A   1      41.195  29.356  32.240  1.00  0.00    -0.248 NA
ATOM     68  C   UNL A   1      42.171  27.631  31.003  1.00  0.00     0.031 C 
ATOM     69  C   UNL A   1      42.480  30.560  36.312  1.00  0.00     0.029 A 
ATOM     70  C   UNL A   1      42.111  30.176  35.033  1.00  0.00     0.049 A 
ATOM     71  H   UNL A   1      40.615  30.981  33.780  1.00  0.00     0.167 HD
ATOM     72  C   UNL A   1      42.216  28.784  32.984  1.00  0.00     0.074 A 
ATOM     73  C   UNL A   1      42.772  27.713  32.183  1.00  0.00     0.031 C 
ATOM     74  C   UNL A   1      42.658  29.123  34.219  1.00  0.00     0.037 A 
BRANCH  61  75
ATOM     75  C   UNL A   1      39.572  33.795  36.804  1.00  0.00     0.064 A 
ATOM     76  C   UNL A   1      38.750  33.399  37.868  1.00  0.00     0.173 A 
ATOM     77  C   UNL A   1      40.242  35.023  36.910  1.00  0.00     0.173 A 
ATOM     78  F   UNL A   1      38.075  32.241  37.804  1.00  0.00    -0.203 F 
ATOM     79  C   UNL A   1      38.596  34.207  38.992  1.00  0.00     0.198 A 
ATOM     80  C   UNL A   1      40.101  35.819  38.044  1.00  0.00     0.198 A 
ATOM     81  F   UNL A   1      41.041  35.445  35.918  1.00  0.00    -0.203 F 
ATOM     82  F   UNL A   1      37.780  33.824  39.984  1.00  0.00    -0.200 F 
ATOM     83  C   UNL A   1      39.276  35.413  39.081  1.00  0.00     0.200 A 
ATOM     84  F   UNL A   1      40.762  36.982  38.131  1.00  0.00    -0.200 F 
ATOM     85  F   UNL A   1      39.130  36.187  40.165  1.00  0.00    -0.200 F 
ENDBRANCH  61  75
BRANCH  62  86
ATOM     86  C   UNL A   1      40.305  27.964  28.770  1.00  0.00     0.064 A 
ATOM     87  C   UNL A   1      41.055  28.276  27.628  1.00  0.00     0.173 A 
ATOM     88  C   UNL A   1      39.633  26.735  28.801  1.00  0.00     0.173 A 
ATOM     89  F   UNL A   1      41.697  29.451  27.551  1.00  0.00    -0.203 F 
ATOM     90  C   UNL A   1      41.134  27.388  26.559  1.00  0.00     0.198 A 
ATOM     91  C   UNL A   1      39.728  25.840  27.739  1.00  0.00     0.198 A 
ATOM     92  F   UNL A   1      38.903  26.396  29.873  1.00  0.00    -0.203 F 
ATOM     93  F   UNL A   1      41.845  27.715  25.471  1.00  0.00    -0.200 F 
ATOM     94  C   UNL A   1      40.478  26.167  26.617  1.00  0.00     0.200 A 
ATOM     95  F   UNL A   1      39.100  24.657  27.803  1.00  0.00    -0.200 F 
ATOM     96  F   UNL A   1      40.567  25.307  25.594  1.00  0.00    -0.200 F 
ENDBRANCH  62  86
BRANCH  74  97
ATOM     97  C   UNL A   1      43.801  28.335  34.777  1.00  0.00     0.064 A 
ATOM     98  C   UNL A   1      45.125  28.768  34.619  1.00  0.00     0.173 A 
ATOM     99  C   UNL A   1      43.570  27.167  35.517  1.00  0.00     0.173 A 
ATOM    100  F   UNL A   1      45.392  29.872  33.907  1.00  0.00    -0.203 F 
ATOM    101  C   UNL A   1      46.181  28.051  35.174  1.00  0.00     0.198 A 
ATOM    102  C   UNL A   1      44.627  26.462  36.085  1.00  0.00     0.198 A 
ATOM    103  F   UNL A   1      42.320  26.717  35.697  1.00  0.00    -0.203 F 
ATOM    104  F   UNL A   1      47.441  28.468  34.990  1.00  0.00    -0.200 F 
ATOM    105  C   UNL A   1      45.931  26.902  35.911  1.00  0.00     0.200 A 
ATOM    106  F   UNL A   1      44.386  25.355  36.802  1.00  0.00    -0.200 F 
ATOM    107  F   UNL A   1      46.948  26.217  36.450  1.00  0.00    -0.200 F 
ENDBRANCH  74  97
ENDBRANCH  48  49
ENDBRANCH  40  43
ENDBRANCH  38  39
ENDBRANCH  37  38
ENDBRANCH   1  37
TORSDOF 15
ENDMDL
