MODEL 1
REMARK VINA RESULT:     -12.6      0.000      0.000
REMARK SMILES CCc1c(C(=O)NCC(=O)NCCCCNC(=O)c2ccc(-c3c4nc(c(-c5c(F)c(F)c(F)c(F)c5F)c5ccc([nH]5)c(-c5c(F)c(F)c(F)c(F)c5F)c5nc(c(-c6c(F)c(F)c(F)c(F)c6F)c6ccc3[nH]6)C=C5)C=C4)cc2)nnn1-c1ccc(Cl)cc1Cl
REMARK SMILES IDX 13 1 12 2 11 3 9 4 10 5 8 7 7 8 5 9 6 10 4 12 3 13 84 14
REMARK SMILES IDX 82 15 83 16 2 17 1 18 85 19 86 20 91 21 87 22 90 23 92 24
REMARK SMILES IDX 88 25 89 26 14 27 15 28 16 29 17 30 18 32 19 33 20 34 81 35
REMARK SMILES IDX 21 36 80 37 22 38 23 39 24 40 74 41 25 42 79 43 73 44 75 45
REMARK SMILES IDX 26 46 78 47 72 48 71 49 27 51 59 52 39 53 58 54 40 55 43 56
REMARK SMILES IDX 57 57 76 58 41 59 42 60 56 62 77 63 44 64 28 65 29 66 37 67
REMARK SMILES IDX 30 68 31 69 35 70 38 71 32 72 33 73 36 74 34 75 60 76 61 77
REMARK SMILES IDX 69 78 62 79 63 80 67 81 70 82 64 83 65 84 68 85 66 86 45 87
REMARK SMILES IDX 46 88 54 89 47 90 48 91 52 92 55 93 49 94 50 95 53 96 51 97
REMARK H PARENT 11 6 7 11 16 31 75 50 43 61
REMARK Flexibility Score: inf
ROOT
ATOM      1  C   UNL A   1      41.160  21.315  27.459  1.00  0.00     0.023 C 
ENDROOT
BRANCH   1   2
ATOM      2  C   UNL A   1      39.972  21.353  26.502  1.00  0.00     0.116 C 
BRANCH   2   3
ATOM      3  N   UNL A   1      39.162  22.535  26.679  1.00  0.00    -0.355 N 
ATOM      4  C   UNL A   1      38.100  22.998  25.974  1.00  0.00     0.239 C 
ATOM      5  O   UNL A   1      37.589  24.050  26.376  1.00  0.00    -0.273 OA
ATOM      6  H   UNL A   1      39.425  23.101  27.441  1.00  0.00     0.163 HD
BRANCH   4   7
ATOM      7  C   UNL A   1      37.400  22.194  24.871  1.00  0.00     0.216 C 
BRANCH   7   8
ATOM      8  N   UNL A   1      36.316  21.281  25.136  1.00  0.00    -0.342 N 
ATOM      9  C   UNL A   1      34.951  21.316  25.063  1.00  0.00     0.274 C 
ATOM     10  O   UNL A   1      34.437  20.203  25.229  1.00  0.00    -0.267 OA
ATOM     11  H   UNL A   1      36.643  20.407  25.451  1.00  0.00     0.164 HD
BRANCH   9  12
ATOM     12  C   UNL A   1      34.087  22.503  24.920  1.00  0.00     0.174 A 
ATOM     13  C   UNL A   1      33.148  23.016  24.015  1.00  0.00     0.077 A 
ATOM     14  N   UNL A   1      32.772  24.240  24.590  1.00  0.00    -0.215 N 
ATOM     15  N   UNL A   1      34.301  23.475  25.887  1.00  0.00    -0.124 NA
ATOM     16  N   UNL A   1      33.604  24.550  25.596  1.00  0.00    -0.061 NA
BRANCH  13  17
ATOM     17  C   UNL A   1      32.668  22.621  22.652  1.00  0.00     0.055 C 
ATOM     18  C   UNL A   1      32.157  21.191  22.537  1.00  0.00     0.011 C 
ENDBRANCH  13  17
BRANCH  14  19
ATOM     19  C   UNL A   1      31.850  25.210  24.137  1.00  0.00     0.085 A 
ATOM     20  C   UNL A   1      30.533  25.157  24.625  1.00  0.00     0.031 A 
ATOM     21  C   UNL A   1      32.206  26.196  23.209  1.00  0.00     0.068 A 
ATOM     22  C   UNL A   1      29.617  26.150  24.271  1.00  0.00     0.023 A 
ATOM     23  C   UNL A   1      31.292  27.199  22.875  1.00  0.00     0.043 A 
ATOM     24  Cl  UNL A   1      33.660  26.128  22.283  1.00  0.00    -0.082 Cl
ATOM     25  C   UNL A   1      30.010  27.181  23.419  1.00  0.00     0.042 A 
ATOM     26  Cl  UNL A   1      28.893  28.422  23.007  1.00  0.00    -0.084 Cl
ENDBRANCH  14  19
ENDBRANCH   9  12
ENDBRANCH   7   8
ENDBRANCH   4   7
ENDBRANCH   2   3
ENDBRANCH   1   2
BRANCH   1  27
ATOM     27  C   UNL A   1      42.175  20.196  27.182  1.00  0.00     0.023 C 
BRANCH  27  28
ATOM     28  C   UNL A   1      42.184  19.684  25.746  1.00  0.00     0.116 C 
BRANCH  28  29
ATOM     29  N   UNL A   1      43.529  19.420  25.242  1.00  0.00    -0.352 N 
ATOM     30  C   UNL A   1      44.442  20.336  24.771  1.00  0.00     0.251 C 
ATOM     31  H   UNL A   1      43.816  18.477  25.241  1.00  0.00     0.163 HD
ATOM     32  O   UNL A   1      45.333  20.001  23.988  1.00  0.00    -0.269 OA
BRANCH  30  33
ATOM     33  C   UNL A   1      44.348  21.733  25.224  1.00  0.00     0.039 A 
ATOM     34  C   UNL A   1      43.423  22.616  24.668  1.00  0.00     0.014 A 
ATOM     35  C   UNL A   1      45.201  22.147  26.246  1.00  0.00     0.014 A 
ATOM     36  C   UNL A   1      43.309  23.892  25.211  1.00  0.00     0.010 A 
ATOM     37  C   UNL A   1      44.994  23.352  26.872  1.00  0.00     0.010 A 
ATOM     38  C   UNL A   1      44.079  24.246  26.335  1.00  0.00    -0.014 A 
BRANCH  38  39
ATOM     39  C   UNL A   1      43.813  25.497  27.042  1.00  0.00     0.031 A 
ATOM     40  C   UNL A   1      44.765  26.588  26.703  1.00  0.00     0.074 A 
ATOM     41  C   UNL A   1      42.720  25.732  27.802  1.00  0.00     0.049 A 
ATOM     42  N   UNL A   1      45.651  27.110  27.482  1.00  0.00    -0.248 NA
ATOM     43  C   UNL A   1      44.852  27.050  25.307  1.00  0.00     0.031 C 
ATOM     44  C   UNL A   1      41.549  24.876  28.005  1.00  0.00     0.029 A 
ATOM     45  N   UNL A   1      42.387  26.855  28.501  1.00  0.00    -0.354 N 
ATOM     46  C   UNL A   1      46.269  28.111  26.743  1.00  0.00     0.074 A 
ATOM     47  C   UNL A   1      45.868  27.913  25.374  1.00  0.00     0.031 C 
ATOM     48  C   UNL A   1      40.553  25.590  28.576  1.00  0.00     0.029 A 
ATOM     49  C   UNL A   1      41.065  26.900  28.933  1.00  0.00     0.049 A 
ATOM     50  H   UNL A   1      43.031  27.576  28.685  1.00  0.00     0.167 HD
ATOM     51  C   UNL A   1      46.842  29.173  27.373  1.00  0.00     0.037 A 
ATOM     52  C   UNL A   1      40.433  27.942  29.534  1.00  0.00     0.037 A 
ATOM     53  C   UNL A   1      47.102  28.876  28.761  1.00  0.00     0.049 A 
ATOM     54  C   UNL A   1      41.480  28.821  30.106  1.00  0.00     0.074 A 
ATOM     55  C   UNL A   1      47.819  27.895  29.420  1.00  0.00     0.029 A 
ATOM     56  N   UNL A   1      46.253  29.401  29.705  1.00  0.00    -0.354 N 
ATOM     57  N   UNL A   1      42.234  28.485  31.114  1.00  0.00    -0.248 NA
ATOM     58  C   UNL A   1      41.997  29.887  29.263  1.00  0.00     0.031 C 
ATOM     59  C   UNL A   1      47.014  27.541  30.544  1.00  0.00     0.029 A 
ATOM     60  C   UNL A   1      45.905  28.386  30.558  1.00  0.00     0.049 A 
ATOM     61  H   UNL A   1      45.951  30.337  29.759  1.00  0.00     0.167 HD
ATOM     62  C   UNL A   1      43.494  28.939  30.765  1.00  0.00     0.074 A 
ATOM     63  C   UNL A   1      43.271  29.874  29.663  1.00  0.00     0.031 C 
ATOM     64  C   UNL A   1      44.616  28.296  31.203  1.00  0.00     0.037 A 
BRANCH  51  65
ATOM     65  C   UNL A   1      46.780  30.584  26.843  1.00  0.00     0.064 A 
ATOM     66  C   UNL A   1      47.939  31.386  26.885  1.00  0.00     0.173 A 
ATOM     67  C   UNL A   1      45.574  31.273  26.589  1.00  0.00     0.173 A 
ATOM     68  F   UNL A   1      49.135  30.842  27.156  1.00  0.00    -0.203 F 
ATOM     69  C   UNL A   1      47.877  32.776  26.751  1.00  0.00     0.198 A 
ATOM     70  C   UNL A   1      45.525  32.652  26.401  1.00  0.00     0.198 A 
ATOM     71  F   UNL A   1      44.382  30.666  26.633  1.00  0.00    -0.203 F 
ATOM     72  F   UNL A   1      48.985  33.510  26.929  1.00  0.00    -0.200 F 
ATOM     73  C   UNL A   1      46.671  33.407  26.512  1.00  0.00     0.200 A 
ATOM     74  F   UNL A   1      44.340  33.246  26.200  1.00  0.00    -0.200 F 
ATOM     75  F   UNL A   1      46.602  34.743  26.445  1.00  0.00    -0.200 F 
ENDBRANCH  51  65
BRANCH  52  76
ATOM     76  C   UNL A   1      39.021  28.384  29.417  1.00  0.00     0.064 A 
ATOM     77  C   UNL A   1      38.220  28.561  30.560  1.00  0.00     0.173 A 
ATOM     78  C   UNL A   1      38.527  28.934  28.219  1.00  0.00     0.173 A 
ATOM     79  F   UNL A   1      38.633  28.104  31.751  1.00  0.00    -0.203 F 
ATOM     80  C   UNL A   1      37.021  29.282  30.514  1.00  0.00     0.198 A 
ATOM     81  C   UNL A   1      37.328  29.649  28.174  1.00  0.00     0.198 A 
ATOM     82  F   UNL A   1      39.247  28.877  27.089  1.00  0.00    -0.203 F 
ATOM     83  F   UNL A   1      36.324  29.492  31.640  1.00  0.00    -0.200 F 
ATOM     84  C   UNL A   1      36.585  29.838  29.324  1.00  0.00     0.200 A 
ATOM     85  F   UNL A   1      36.934  30.213  27.023  1.00  0.00    -0.200 F 
ATOM     86  F   UNL A   1      35.474  30.588  29.293  1.00  0.00    -0.200 F 
ENDBRANCH  52  76
BRANCH  64  87
ATOM     87  C   UNL A   1      44.459  27.275  32.299  1.00  0.00     0.064 A 
ATOM     88  C   UNL A   1      44.291  25.893  32.092  1.00  0.00     0.173 A 
ATOM     89  C   UNL A   1      44.585  27.711  33.625  1.00  0.00     0.173 A 
ATOM     90  F   UNL A   1      44.265  25.373  30.858  1.00  0.00    -0.203 F 
ATOM     91  C   UNL A   1      44.193  25.006  33.165  1.00  0.00     0.198 A 
ATOM     92  C   UNL A   1      44.530  26.819  34.692  1.00  0.00     0.198 A 
ATOM     93  F   UNL A   1      44.800  29.009  33.888  1.00  0.00    -0.203 F 
ATOM     94  F   UNL A   1      44.004  23.697  32.941  1.00  0.00    -0.200 F 
ATOM     95  C   UNL A   1      44.318  25.470  34.464  1.00  0.00     0.200 A 
ATOM     96  F   UNL A   1      44.700  27.267  35.943  1.00  0.00    -0.200 F 
ATOM     97  F   UNL A   1      44.254  24.615  35.494  1.00  0.00    -0.200 F 
ENDBRANCH  64  87
ENDBRANCH  38  39
ENDBRANCH  30  33
ENDBRANCH  28  29
ENDBRANCH  27  28
ENDBRANCH   1  27
TORSDOF 15
ENDMDL
MODEL 2
REMARK VINA RESULT:     -12.3      3.520      8.824
REMARK SMILES CCc1c(C(=O)NCC(=O)NCCCCNC(=O)c2ccc(-c3c4nc(c(-c5c(F)c(F)c(F)c(F)c5F)c5ccc([nH]5)c(-c5c(F)c(F)c(F)c(F)c5F)c5nc(c(-c6c(F)c(F)c(F)c(F)c6F)c6ccc3[nH]6)C=C5)C=C4)cc2)nnn1-c1ccc(Cl)cc1Cl
REMARK SMILES IDX 13 1 12 2 11 3 9 4 10 5 8 7 7 8 5 9 6 10 4 12 3 13 84 14
REMARK SMILES IDX 82 15 83 16 2 17 1 18 85 19 86 20 91 21 87 22 90 23 92 24
REMARK SMILES IDX 88 25 89 26 14 27 15 28 16 29 17 30 18 32 19 33 20 34 81 35
REMARK SMILES IDX 21 36 80 37 22 38 23 39 24 40 74 41 25 42 79 43 73 44 75 45
REMARK SMILES IDX 26 46 78 47 72 48 71 49 27 51 59 52 39 53 58 54 40 55 43 56
REMARK SMILES IDX 57 57 76 58 41 59 42 60 56 62 77 63 44 64 28 65 29 66 37 67
REMARK SMILES IDX 30 68 31 69 35 70 38 71 32 72 33 73 36 74 34 75 60 76 61 77
REMARK SMILES IDX 69 78 62 79 63 80 67 81 70 82 64 83 65 84 68 85 66 86 45 87
REMARK SMILES IDX 46 88 54 89 47 90 48 91 52 92 55 93 49 94 50 95 53 96 51 97
REMARK H PARENT 11 6 7 11 16 31 75 50 43 61
REMARK Flexibility Score: inf
ROOT
ATOM      1  C   UNL A   1      33.040  29.706  24.983  1.00  0.00     0.023 C 
ENDROOT
BRANCH   1   2
ATOM      2  C   UNL A   1      33.165  28.899  23.694  1.00  0.00     0.116 C 
BRANCH   2   3
ATOM      3  N   UNL A   1      32.004  29.034  22.846  1.00  0.00    -0.355 N 
ATOM      4  C   UNL A   1      30.921  28.232  22.688  1.00  0.00     0.239 C 
ATOM      5  O   UNL A   1      30.063  28.620  21.887  1.00  0.00    -0.273 OA
ATOM      6  H   UNL A   1      31.997  29.846  22.289  1.00  0.00     0.163 HD
BRANCH   4   7
ATOM      7  C   UNL A   1      30.627  27.021  23.582  1.00  0.00     0.216 C 
BRANCH   7   8
ATOM      8  N   UNL A   1      30.551  27.110  25.019  1.00  0.00    -0.342 N 
ATOM      9  C   UNL A   1      31.001  26.376  26.082  1.00  0.00     0.274 C 
ATOM     10  O   UNL A   1      30.837  26.955  27.163  1.00  0.00    -0.267 OA
ATOM     11  H   UNL A   1      30.045  27.903  25.310  1.00  0.00     0.164 HD
BRANCH   9  12
ATOM     12  C   UNL A   1      31.532  25.000  26.066  1.00  0.00     0.174 A 
ATOM     13  C   UNL A   1      32.214  24.147  25.187  1.00  0.00     0.077 A 
ATOM     14  N   UNL A   1      32.343  22.957  25.920  1.00  0.00    -0.215 N 
ATOM     15  N   UNL A   1      31.197  24.254  27.186  1.00  0.00    -0.124 NA
ATOM     16  N   UNL A   1      31.577  23.008  27.019  1.00  0.00    -0.061 NA
BRANCH  13  17
ATOM     17  C   UNL A   1      32.623  24.219  23.748  1.00  0.00     0.055 C 
ATOM     18  C   UNL A   1      34.035  24.733  23.503  1.00  0.00     0.011 C 
ENDBRANCH  13  17
BRANCH  14  19
ATOM     19  C   UNL A   1      32.948  21.731  25.560  1.00  0.00     0.085 A 
ATOM     20  C   UNL A   1      32.115  20.661  25.190  1.00  0.00     0.031 A 
ATOM     21  C   UNL A   1      34.336  21.553  25.584  1.00  0.00     0.068 A 
ATOM     22  C   UNL A   1      32.677  19.463  24.743  1.00  0.00     0.023 A 
ATOM     23  C   UNL A   1      34.892  20.360  25.116  1.00  0.00     0.043 A 
ATOM     24  Cl  UNL A   1      35.408  22.658  26.363  1.00  0.00    -0.082 Cl
ATOM     25  C   UNL A   1      34.062  19.328  24.682  1.00  0.00     0.042 A 
ATOM     26  Cl  UNL A   1      34.755  17.866  24.101  1.00  0.00    -0.084 Cl
ENDBRANCH  14  19
ENDBRANCH   9  12
ENDBRANCH   7   8
ENDBRANCH   4   7
ENDBRANCH   2   3
ENDBRANCH   1   2
BRANCH   1  27
ATOM     27  C   UNL A   1      33.582  29.004  26.237  1.00  0.00     0.023 C 
BRANCH  27  28
ATOM     28  C   UNL A   1      33.695  29.896  27.469  1.00  0.00     0.116 C 
BRANCH  28  29
ATOM     29  N   UNL A   1      34.173  31.241  27.157  1.00  0.00    -0.352 N 
ATOM     30  C   UNL A   1      35.290  31.870  27.659  1.00  0.00     0.251 C 
ATOM     31  H   UNL A   1      33.634  31.756  26.514  1.00  0.00     0.163 HD
ATOM     32  O   UNL A   1      35.369  33.099  27.688  1.00  0.00    -0.269 OA
BRANCH  30  33
ATOM     33  C   UNL A   1      36.407  31.050  28.155  1.00  0.00     0.039 A 
ATOM     34  C   UNL A   1      36.533  29.705  27.804  1.00  0.00     0.014 A 
ATOM     35  C   UNL A   1      37.354  31.663  28.974  1.00  0.00     0.014 A 
ATOM     36  C   UNL A   1      37.666  29.011  28.217  1.00  0.00     0.010 A 
ATOM     37  C   UNL A   1      38.535  31.022  29.262  1.00  0.00     0.010 A 
ATOM     38  C   UNL A   1      38.681  29.685  28.924  1.00  0.00    -0.014 A 
BRANCH  38  39
ATOM     39  C   UNL A   1      39.962  29.027  29.171  1.00  0.00     0.031 A 
ATOM     40  C   UNL A   1      40.267  28.840  30.614  1.00  0.00     0.074 A 
ATOM     41  C   UNL A   1      40.739  28.474  28.214  1.00  0.00     0.049 A 
ATOM     42  N   UNL A   1      41.195  29.430  31.291  1.00  0.00    -0.248 NA
ATOM     43  C   UNL A   1      39.355  28.028  31.436  1.00  0.00     0.031 C 
ATOM     44  C   UNL A   1      40.452  28.314  26.786  1.00  0.00     0.029 A 
ATOM     45  N   UNL A   1      41.945  27.849  28.342  1.00  0.00    -0.354 N 
ATOM     46  C   UNL A   1      41.121  28.909  32.577  1.00  0.00     0.074 A 
ATOM     47  C   UNL A   1      39.874  28.194  32.655  1.00  0.00     0.031 C 
ATOM     48  C   UNL A   1      41.333  27.449  26.236  1.00  0.00     0.029 A 
ATOM     49  C   UNL A   1      42.346  27.124  27.223  1.00  0.00     0.049 A 
ATOM     50  H   UNL A   1      42.487  27.906  29.161  1.00  0.00     0.167 HD
ATOM     51  C   UNL A   1      42.224  28.894  33.374  1.00  0.00     0.037 A 
ATOM     52  C   UNL A   1      43.428  26.310  27.118  1.00  0.00     0.037 A 
ATOM     53  C   UNL A   1      43.217  29.831  32.907  1.00  0.00     0.049 A 
ATOM     54  C   UNL A   1      44.377  26.698  28.188  1.00  0.00     0.074 A 
ATOM     55  C   UNL A   1      43.219  31.191  32.659  1.00  0.00     0.029 A 
ATOM     56  N   UNL A   1      44.304  29.336  32.228  1.00  0.00    -0.354 N 
ATOM     57  N   UNL A   1      45.025  27.828  28.205  1.00  0.00    -0.248 NA
ATOM     58  C   UNL A   1      44.253  26.027  29.472  1.00  0.00     0.031 C 
ATOM     59  C   UNL A   1      43.973  31.347  31.458  1.00  0.00     0.029 A 
ATOM     60  C   UNL A   1      44.462  30.093  31.094  1.00  0.00     0.049 A 
ATOM     61  H   UNL A   1      44.867  28.578  32.505  1.00  0.00     0.167 HD
ATOM     62  C   UNL A   1      44.968  28.237  29.526  1.00  0.00     0.074 A 
ATOM     63  C   UNL A   1      44.565  27.047  30.276  1.00  0.00     0.031 C 
ATOM     64  C   UNL A   1      44.967  29.563  29.850  1.00  0.00     0.037 A 
BRANCH  51  65
ATOM     65  C   UNL A   1      42.559  27.756  34.306  1.00  0.00     0.064 A 
ATOM     66  C   UNL A   1      43.104  26.569  33.776  1.00  0.00     0.173 A 
ATOM     67  C   UNL A   1      42.084  27.667  35.633  1.00  0.00     0.173 A 
ATOM     68  F   UNL A   1      43.550  26.529  32.512  1.00  0.00    -0.203 F 
ATOM     69  C   UNL A   1      43.107  25.373  34.500  1.00  0.00     0.198 A 
ATOM     70  C   UNL A   1      42.141  26.486  36.370  1.00  0.00     0.198 A 
ATOM     71  F   UNL A   1      41.439  28.676  36.230  1.00  0.00    -0.203 F 
ATOM     72  F   UNL A   1      43.513  24.241  33.909  1.00  0.00    -0.200 F 
ATOM     73  C   UNL A   1      42.622  25.332  35.794  1.00  0.00     0.200 A 
ATOM     74  F   UNL A   1      41.639  26.463  37.613  1.00  0.00    -0.200 F 
ATOM     75  F   UNL A   1      42.568  24.175  36.466  1.00  0.00    -0.200 F 
ENDBRANCH  51  65
BRANCH  52  76
ATOM     76  C   UNL A   1      43.590  25.050  26.351  1.00  0.00     0.064 A 
ATOM     77  C   UNL A   1      44.579  24.928  25.357  1.00  0.00     0.173 A 
ATOM     78  C   UNL A   1      42.993  23.851  26.784  1.00  0.00     0.173 A 
ATOM     79  F   UNL A   1      45.228  26.015  24.915  1.00  0.00    -0.203 F 
ATOM     80  C   UNL A   1      44.975  23.681  24.861  1.00  0.00     0.198 A 
ATOM     81  C   UNL A   1      43.386  22.607  26.284  1.00  0.00     0.198 A 
ATOM     82  F   UNL A   1      42.087  23.854  27.774  1.00  0.00    -0.203 F 
ATOM     83  F   UNL A   1      45.973  23.603  23.969  1.00  0.00    -0.200 F 
ATOM     84  C   UNL A   1      44.388  22.522  25.336  1.00  0.00     0.200 A 
ATOM     85  F   UNL A   1      42.834  21.490  26.778  1.00  0.00    -0.200 F 
ATOM     86  F   UNL A   1      44.815  21.323  24.914  1.00  0.00    -0.200 F 
ENDBRANCH  52  76
BRANCH  64  87
ATOM     87  C   UNL A   1      45.322  30.550  28.769  1.00  0.00     0.064 A 
ATOM     88  C   UNL A   1      44.413  31.087  27.839  1.00  0.00     0.173 A 
ATOM     89  C   UNL A   1      46.631  31.051  28.743  1.00  0.00     0.173 A 
ATOM     90  F   UNL A   1      43.118  30.745  27.857  1.00  0.00    -0.203 F 
ATOM     91  C   UNL A   1      44.815  32.030  26.893  1.00  0.00     0.198 A 
ATOM     92  C   UNL A   1      47.020  32.024  27.826  1.00  0.00     0.198 A 
ATOM     93  F   UNL A   1      47.533  30.620  29.638  1.00  0.00    -0.203 F 
ATOM     94  F   UNL A   1      43.934  32.503  25.998  1.00  0.00    -0.200 F 
ATOM     95  C   UNL A   1      46.117  32.501  26.891  1.00  0.00     0.200 A 
ATOM     96  F   UNL A   1      48.267  32.511  27.861  1.00  0.00    -0.200 F 
ATOM     97  F   UNL A   1      46.497  33.430  26.002  1.00  0.00    -0.200 F 
ENDBRANCH  64  87
ENDBRANCH  38  39
ENDBRANCH  30  33
ENDBRANCH  28  29
ENDBRANCH  27  28
ENDBRANCH   1  27
TORSDOF 15
ENDMDL
MODEL 3
REMARK VINA RESULT:     -12.1      3.344      8.928
REMARK SMILES CCc1c(C(=O)NCC(=O)NCCCCNC(=O)c2ccc(-c3c4nc(c(-c5c(F)c(F)c(F)c(F)c5F)c5ccc([nH]5)c(-c5c(F)c(F)c(F)c(F)c5F)c5nc(c(-c6c(F)c(F)c(F)c(F)c6F)c6ccc3[nH]6)C=C5)C=C4)cc2)nnn1-c1ccc(Cl)cc1Cl
REMARK SMILES IDX 13 1 12 2 11 3 9 4 10 5 8 7 7 8 5 9 6 10 4 12 3 13 84 14
REMARK SMILES IDX 82 15 83 16 2 17 1 18 85 19 86 20 91 21 87 22 90 23 92 24
REMARK SMILES IDX 88 25 89 26 14 27 15 28 16 29 17 30 18 32 19 33 20 34 81 35
REMARK SMILES IDX 21 36 80 37 22 38 23 39 24 40 74 41 25 42 79 43 73 44 75 45
REMARK SMILES IDX 26 46 78 47 72 48 71 49 27 51 59 52 39 53 58 54 40 55 43 56
REMARK SMILES IDX 57 57 76 58 41 59 42 60 56 62 77 63 44 64 28 65 29 66 37 67
REMARK SMILES IDX 30 68 31 69 35 70 38 71 32 72 33 73 36 74 34 75 60 76 61 77
REMARK SMILES IDX 69 78 62 79 63 80 67 81 70 82 64 83 65 84 68 85 66 86 45 87
REMARK SMILES IDX 46 88 54 89 47 90 48 91 52 92 55 93 49 94 50 95 53 96 51 97
REMARK H PARENT 11 6 7 11 16 31 75 50 43 61
REMARK Flexibility Score: inf
ROOT
ATOM      1  C   UNL A   1      32.210  30.937  26.653  1.00  0.00     0.023 C 
ENDROOT
BRANCH   1   2
ATOM      2  C   UNL A   1      31.844  29.849  25.647  1.00  0.00     0.116 C 
BRANCH   2   3
ATOM      3  N   UNL A   1      32.908  29.593  24.704  1.00  0.00    -0.355 N 
ATOM      4  C   UNL A   1      32.888  29.016  23.477  1.00  0.00     0.239 C 
ATOM      5  O   UNL A   1      33.972  28.944  22.886  1.00  0.00    -0.273 OA
ATOM      6  H   UNL A   1      33.799  29.887  25.004  1.00  0.00     0.163 HD
BRANCH   4   7
ATOM      7  C   UNL A   1      31.597  28.656  22.732  1.00  0.00     0.216 C 
BRANCH   7   8
ATOM      8  N   UNL A   1      30.595  27.776  23.282  1.00  0.00    -0.342 N 
ATOM      9  C   UNL A   1      30.564  26.509  23.795  1.00  0.00     0.274 C 
ATOM     10  O   UNL A   1      29.477  26.235  24.320  1.00  0.00    -0.267 OA
ATOM     11  H   UNL A   1      29.705  28.197  23.290  1.00  0.00     0.164 HD
BRANCH   9  12
ATOM     12  C   UNL A   1      31.604  25.469  23.691  1.00  0.00     0.174 A 
ATOM     13  C   UNL A   1      32.581  24.875  24.502  1.00  0.00     0.077 A 
ATOM     14  N   UNL A   1      33.202  23.952  23.646  1.00  0.00    -0.215 N 
ATOM     15  N   UNL A   1      31.775  24.969  22.408  1.00  0.00    -0.124 NA
ATOM     16  N   UNL A   1      32.815  24.167  22.380  1.00  0.00    -0.061 NA
BRANCH  13  17
ATOM     17  C   UNL A   1      33.114  25.136  25.878  1.00  0.00     0.055 C 
ATOM     18  C   UNL A   1      33.711  26.521  26.087  1.00  0.00     0.011 C 
ENDBRANCH  13  17
BRANCH  14  19
ATOM     19  C   UNL A   1      34.263  23.053  23.897  1.00  0.00     0.085 A 
ATOM     20  C   UNL A   1      35.555  23.415  23.479  1.00  0.00     0.031 A 
ATOM     21  C   UNL A   1      34.057  21.818  24.522  1.00  0.00     0.068 A 
ATOM     22  C   UNL A   1      36.643  22.595  23.787  1.00  0.00     0.023 A 
ATOM     23  C   UNL A   1      35.152  21.012  24.847  1.00  0.00     0.043 A 
ATOM     24  Cl  UNL A   1      32.491  21.127  24.735  1.00  0.00    -0.082 Cl
ATOM     25  C   UNL A   1      36.439  21.411  24.494  1.00  0.00     0.042 A 
ATOM     26  Cl  UNL A   1      37.780  20.416  24.903  1.00  0.00    -0.084 Cl
ENDBRANCH  14  19
ENDBRANCH   9  12
ENDBRANCH   7   8
ENDBRANCH   4   7
ENDBRANCH   2   3
ENDBRANCH   1   2
BRANCH   1  27
ATOM     27  C   UNL A   1      33.510  30.684  27.431  1.00  0.00     0.023 C 
BRANCH  27  28
ATOM     28  C   UNL A   1      34.384  31.917  27.630  1.00  0.00     0.116 C 
BRANCH  28  29
ATOM     29  N   UNL A   1      34.366  32.413  29.004  1.00  0.00    -0.352 N 
ATOM     30  C   UNL A   1      35.122  31.967  30.066  1.00  0.00     0.251 C 
ATOM     31  H   UNL A   1      33.742  33.152  29.193  1.00  0.00     0.163 HD
ATOM     32  O   UNL A   1      34.743  32.126  31.227  1.00  0.00    -0.269 OA
BRANCH  30  33
ATOM     33  C   UNL A   1      36.406  31.301  29.796  1.00  0.00     0.039 A 
ATOM     34  C   UNL A   1      37.584  32.032  29.634  1.00  0.00     0.014 A 
ATOM     35  C   UNL A   1      36.418  29.908  29.727  1.00  0.00     0.014 A 
ATOM     36  C   UNL A   1      38.782  31.341  29.488  1.00  0.00     0.010 A 
ATOM     37  C   UNL A   1      37.611  29.228  29.724  1.00  0.00     0.010 A 
ATOM     38  C   UNL A   1      38.794  29.935  29.563  1.00  0.00    -0.014 A 
BRANCH  38  39
ATOM     39  C   UNL A   1      40.064  29.215  29.629  1.00  0.00     0.031 A 
ATOM     40  C   UNL A   1      40.545  28.981  31.017  1.00  0.00     0.074 A 
ATOM     41  C   UNL A   1      40.683  28.650  28.569  1.00  0.00     0.049 A 
ATOM     42  N   UNL A   1      41.579  29.513  31.576  1.00  0.00    -0.248 NA
ATOM     43  C   UNL A   1      39.709  28.192  31.936  1.00  0.00     0.031 C 
ATOM     44  C   UNL A   1      40.206  28.536  27.188  1.00  0.00     0.029 A 
ATOM     45  N   UNL A   1      41.864  27.969  28.528  1.00  0.00    -0.354 N 
ATOM     46  C   UNL A   1      41.648  28.966  32.851  1.00  0.00     0.074 A 
ATOM     47  C   UNL A   1      40.389  28.306  33.080  1.00  0.00     0.031 C 
ATOM     48  C   UNL A   1      40.966  27.645  26.513  1.00  0.00     0.029 A 
ATOM     49  C   UNL A   1      42.082  27.253  27.354  1.00  0.00     0.049 A 
ATOM     50  H   UNL A   1      42.511  27.982  29.270  1.00  0.00     0.167 HD
ATOM     51  C   UNL A   1      42.843  28.883  33.497  1.00  0.00     0.037 A 
ATOM     52  C   UNL A   1      43.101  26.393  27.095  1.00  0.00     0.037 A 
ATOM     53  C   UNL A   1      43.811  29.785  32.921  1.00  0.00     0.049 A 
ATOM     54  C   UNL A   1      44.198  26.713  28.038  1.00  0.00     0.074 A 
ATOM     55  C   UNL A   1      43.845  31.149  32.698  1.00  0.00     0.029 A 
ATOM     56  N   UNL A   1      44.775  29.258  32.097  1.00  0.00    -0.354 N 
ATOM     57  N   UNL A   1      44.896  27.812  27.989  1.00  0.00    -0.248 NA
ATOM     58  C   UNL A   1      44.210  26.019  29.315  1.00  0.00     0.031 C 
ATOM     59  C   UNL A   1      44.443  31.298  31.411  1.00  0.00     0.029 A 
ATOM     60  C   UNL A   1      44.821  30.033  30.965  1.00  0.00     0.049 A 
ATOM     61  H   UNL A   1      45.333  28.469  32.285  1.00  0.00     0.167 HD
ATOM     62  C   UNL A   1      45.030  28.193  29.313  1.00  0.00     0.074 A 
ATOM     63  C   UNL A   1      44.672  27.006  30.088  1.00  0.00     0.031 C 
ATOM     64  C   UNL A   1      45.134  29.510  29.657  1.00  0.00     0.037 A 
BRANCH  51  65
ATOM     65  C   UNL A   1      43.241  27.710  34.358  1.00  0.00     0.064 A 
ATOM     66  C   UNL A   1      43.453  26.454  33.755  1.00  0.00     0.173 A 
ATOM     67  C   UNL A   1      43.121  27.696  35.765  1.00  0.00     0.173 A 
ATOM     68  F   UNL A   1      43.544  26.344  32.421  1.00  0.00    -0.203 F 
ATOM     69  C   UNL A   1      43.472  25.272  34.502  1.00  0.00     0.198 A 
ATOM     70  C   UNL A   1      43.197  26.522  36.511  1.00  0.00     0.198 A 
ATOM     71  F   UNL A   1      42.806  28.791  36.466  1.00  0.00    -0.203 F 
ATOM     72  F   UNL A   1      43.542  24.091  33.874  1.00  0.00    -0.200 F 
ATOM     73  C   UNL A   1      43.340  25.307  35.878  1.00  0.00     0.200 A 
ATOM     74  F   UNL A   1      43.038  26.577  37.841  1.00  0.00    -0.200 F 
ATOM     75  F   UNL A   1      43.297  24.173  36.588  1.00  0.00    -0.200 F 
ENDBRANCH  51  65
BRANCH  52  76
ATOM     76  C   UNL A   1      43.102  25.145  26.291  1.00  0.00     0.064 A 
ATOM     77  C   UNL A   1      44.053  24.939  25.274  1.00  0.00     0.173 A 
ATOM     78  C   UNL A   1      42.378  24.012  26.705  1.00  0.00     0.173 A 
ATOM     79  F   UNL A   1      44.816  25.955  24.847  1.00  0.00    -0.203 F 
ATOM     80  C   UNL A   1      44.292  23.669  24.737  1.00  0.00     0.198 A 
ATOM     81  C   UNL A   1      42.614  22.746  26.164  1.00  0.00     0.198 A 
ATOM     82  F   UNL A   1      41.496  24.091  27.713  1.00  0.00    -0.203 F 
ATOM     83  F   UNL A   1      45.258  23.501  23.822  1.00  0.00    -0.200 F 
ATOM     84  C   UNL A   1      43.583  22.572  25.194  1.00  0.00     0.200 A 
ATOM     85  F   UNL A   1      41.946  21.686  26.640  1.00  0.00    -0.200 F 
ATOM     86  F   UNL A   1      43.860  21.345  24.731  1.00  0.00    -0.200 F 
ENDBRANCH  52  76
BRANCH  64  87
ATOM     87  C   UNL A   1      45.393  30.505  28.556  1.00  0.00     0.064 A 
ATOM     88  C   UNL A   1      44.398  31.098  27.758  1.00  0.00     0.173 A 
ATOM     89  C   UNL A   1      46.709  30.953  28.372  1.00  0.00     0.173 A 
ATOM     90  F   UNL A   1      43.102  30.810  27.935  1.00  0.00    -0.203 F 
ATOM     91  C   UNL A   1      44.718  32.044  26.784  1.00  0.00     0.198 A 
ATOM     92  C   UNL A   1      47.020  31.928  27.430  1.00  0.00     0.198 A 
ATOM     93  F   UNL A   1      47.697  30.465  29.138  1.00  0.00    -0.203 F 
ATOM     94  F   UNL A   1      43.752  32.573  26.016  1.00  0.00    -0.200 F 
ATOM     95  C   UNL A   1      46.028  32.462  26.624  1.00  0.00     0.200 A 
ATOM     96  F   UNL A   1      48.282  32.362  27.314  1.00  0.00    -0.200 F 
ATOM     97  F   UNL A   1      46.333  33.393  25.710  1.00  0.00    -0.200 F 
ENDBRANCH  64  87
ENDBRANCH  38  39
ENDBRANCH  30  33
ENDBRANCH  28  29
ENDBRANCH  27  28
ENDBRANCH   1  27
TORSDOF 15
ENDMDL
